data_PCOD8049313
_publ_section_title
;
Structure prediction by ZEFSAII (Michael W. Deem and Ramdas Pophale) SiO2 
 PCOD8049313
Probable space group: C 2
;
_chemical_formula_sum "Si O2"
_cell_formula_units_Z 26
_cell_length_a 20.970642
_cell_length_b 8.854040
_cell_length_c 14.389325
_cell_angle_alpha 90.000000
_cell_angle_beta 23.128012
_cell_angle_gamma 90.000000
_cell_volume 1049.422765
_symmetry_space_group_name_H-M "C 2"
_symmetry_group_IT_number 5
_symmetry_cell_setting 'monoclinic'
loop_
_space_group_symop_operation_xyz
x,y,z
-x,y,-z
1/2+x,1/2+y,z
1/2-x,1/2+y,-z
loop_
_atom_site_type_symbol
_atom_site_label
_atom_site_fract_x
_atom_site_fract_y
_atom_site_fract_z
Si Si1 0.410277 0.766260 0.870965
Si Si2 0.500000 0.123845 0.000000
Si Si3 0.143181 0.042162 0.627384
Si Si4 0.281156 0.863786 0.235564
Si Si5 0.559743 0.217725 0.725502
Si Si6 0.285236 0.065352 0.987582
Si Si7 0.000000 0.963064 0.500000
Si Si8 0.500000 0.617200 0.000000
O O1 0.585581 0.680973 0.636527
O O2 0.377549 0.905183 0.842936
O O3 0.389497 0.849460 0.997009
O O4 0.280550 0.633388 0.021257
O O5 0.496846 0.234580 0.091980
O O6 0.337168 0.017830 0.213698
O O7 0.317770 0.075622 0.437259
O O8 0.140448 0.876772 0.580768
O O9 0.012048 0.024294 0.887955
O O10 0.332677 0.717805 0.226427
O O11 0.092947 0.864123 0.454693
O O12 0.412221 0.186181 0.855859
O O13 0.136347 0.058315 0.261889
#
# Coordination Sequence:
#
# PCOD8049313 Si02
#       8
#     4   2   4   4   4   4   2   2
#     4  10  21  41  61  94 127 173 211 271 309 399
#     4  11  21  42  64  92 138 168 226 272 318 402
#     4  11  25  41  67  95 132 171 224 267 345 375
#     4   9  20  37  66  90 131 170 219 260 333 373
#     4  12  25  41  64  99 128 177 217 279 325 396
#     4  11  23  41  63  94 133 168 228 261 330 382
#     4  10  20  38  60  98 116 178 210 262 324 388
#     4   9  21  42  62  94 132 168 214 282 314 400
#
# _framework density 24.775527
#
# number of rings (size 3 to 8) (size 9 to 14) (size 15 to 20)
#    0.000    1.538    3.077    2.308    6.462    2.462 
#    0.000    0.000    0.000   12.000    0.000    0.000 
#    0.000    0.000    0.000    0.000    0.000    0.000 
#
# Total GULP energy -161082.316493 kJ/mol
# GULP energy per Si atom -12390.947423 kJ/mol
# Density = 2.471914 g / cm^3
# Si number density = 24.775527 Si / 1000 Ang^3
#
#
#
# Elastic Constant Matrix: (Units=GPa)
#
#
# Indices 1 2 3 4 5 6 
#
# 1 72.7646 2.2473 6.1683 0.0000 -31.0795 0.0000
# 2 2.2473 95.8122 22.6143 0.0000 -10.6683 0.0000
# 3 6.1683 22.6143 88.2585 0.0000 -33.9718 0.0000
# 4 0.0000 0.0000 0.0000 41.6272 0.0000 -3.7576
# 5 -31.0795 -10.6683 -33.9718 0.0000 42.3062 0.0000
# 6 0.0000 0.0000 0.0000 -3.7576 0.0000 40.7873
#
#
#
# Elastic Compliance Matrix: (Units=1/GPa)
#
#
# Indices 1 2 3 4 5 6 
#
# 1 0.022662 0.000318 0.006909 0.000000 0.022277 0.000000
# 2 0.000318 0.011130 -0.002466 0.000000 0.001060 0.000000
# 3 0.006909 -0.002466 0.019096 0.000000 0.019788 0.000000
# 4 0.000000 0.000000 0.000000 0.024224 0.000000 0.002232
# 5 0.022277 0.001060 0.019788 0.000000 0.056160 0.000000
# 6 0.000000 0.000000 0.000000 0.002232 0.000000 0.024723
#
#
# Mechanical properties :
#
#
# Convention : Reuss Voigt Hill
#
# Bulk Modulus (GPa) = 16.02277 35.43277 25.72777
# Shear Modulus (GPa) = 29.53763 39.99784 34.76773
#
# Velocity S-wave (km/s) = 3.45658 4.02233 3.75014
# Velocity P-wave (km/s) = 4.73412 5.99206 5.39984
#
# Compressibility (1/GPa) = 0.06241119
#
# Stress axis : x y z
#
# Youngs Moduli (GPa) = 44.12581 89.84985 52.36712
#
# Poissons Ratio (x) = -0.02858 -0.36182
# Poissons Ratio (y) = -0.01404 0.12913
# Poissons Ratio (z) = -0.30488 0.22156
#
# Static dielectric constant tensor:
#      x y z
#    x 4.782820 0.000000 -0.198840 
#    y 0.000000 4.475680 0.000000 
#    z -0.198840 0.000000 4.343590 
# 
# 
# High freq. dielectric constant tensor:
#      x y z
#    x 1.999370 0.000000 -0.012800 
#    y 0.000000 1.974450 0.000000 
#    z -0.012800 0.000000 1.976860 
# 
# From -- ./inp_files/26764.got.cif
#   From: 2010.03.12/outbox.cif.g09.slc.cpg/sg5_14_cif.got.tgz:26764.got - 2010.03.31 09:47:26.
