data_PCOD8049254
_publ_section_title
;
Structure prediction by ZEFSAII (Michael W. Deem and Ramdas Pophale) SiO2 
 PCOD8049254
Probable space group: C 2
;
_chemical_formula_sum "Si O2"
_cell_formula_units_Z 32
_cell_length_a 20.404563
_cell_length_b 10.843444
_cell_length_c 21.363033
_cell_angle_alpha 90.000000
_cell_angle_beta 20.345792
_cell_angle_gamma 90.000000
_cell_volume 1643.401036
_symmetry_space_group_name_H-M "C 2"
_symmetry_group_IT_number 5
_symmetry_cell_setting 'monoclinic'
loop_
_space_group_symop_operation_xyz
x,y,z
-x,y,-z
1/2+x,1/2+y,z
1/2-x,1/2+y,-z
loop_
_atom_site_type_symbol
_atom_site_label
_atom_site_fract_x
_atom_site_fract_y
_atom_site_fract_z
Si Si1 0.507391 0.843090 0.920315
Si Si2 0.576339 0.658735 0.758632
Si Si3 0.286842 0.721352 0.557419
Si Si4 0.575083 0.106565 0.630820
Si Si5 0.031792 0.901618 0.165425
Si Si6 0.862169 0.989253 0.565325
Si Si7 0.911260 0.853815 0.745197
Si Si8 0.067610 0.334606 0.219460
O O1 0.580640 0.715819 0.823944
O O2 0.654405 0.949203 0.771732
O O3 0.500000 0.817457 0.000000
O O4 0.303160 0.888053 0.078891
O O5 0.773884 0.598285 0.560503
O O6 0.437156 0.541546 0.885951
O O7 0.516924 0.771432 0.766759
O O8 0.174182 0.650366 0.605011
O O9 0.339154 0.631973 0.567351
O O10 0.488726 0.767438 0.351354
O O11 0.155879 0.837121 0.694828
O O12 0.420686 0.205524 0.745106
O O13 0.484143 0.977711 0.730178
O O14 0.022906 0.914622 0.248767
O O15 0.207716 0.819989 0.984657
O O16 0.000000 0.977744 0.500000
O O17 0.942837 0.904160 0.437169
#
# Coordination Sequence:
#
# PCOD8049254 Si02
#       8
#     4   4   4   4   4   4   4   4
#     4  12  24  41  65  93 124 164 217 259 308 375
#     4  11  21  38  63  91 130 164 206 264 317 383
#     4  10  24  38  60  94 127 164 207 258 324 379
#     4  10  20  37  63  93 134 160 196 269 326 374
#     4  11  23  38  65  99 127 163 207 266 329 376
#     4  12  25  44  66  88 129 173 215 262 308 381
#     4  11  22  39  64  98 125 166 212 256 324 376
#     4  11  21  37  60  95 129 162 202 260 324 380
#
# _framework density 19.471813999999998
#
# number of rings (size 3 to 8) (size 9 to 14) (size 15 to 20)
#    0.000    1.000    5.000    3.000    3.500    1.000 
#    0.000    0.000    5.500    0.000    0.000    0.000 
#    0.000    0.000    0.000    0.000    0.000    0.000 
#
# Total GULP energy -198390.200061 kJ/mol
# GULP energy per Si atom -12399.387504 kJ/mol
# Density = 1.942750 g / cm^3
# Si number density = 19.471814 Si / 1000 Ang^3
#
#
#
# Elastic Constant Matrix: (Units=GPa)
#
#
# Indices 1 2 3 4 5 6 
#
# 1 48.0192 46.9642 31.4407 0.0080 2.1216 -0.0043
# 2 46.9642 124.9826 34.5290 0.0199 12.2700 -0.0058
# 3 31.4407 34.5290 114.5430 0.0152 6.1263 -0.0010
# 4 0.0080 0.0199 0.0152 32.9180 -0.0078 2.8893
# 5 2.1216 12.2700 6.1263 -0.0078 26.0662 0.0021
# 6 -0.0043 -0.0058 -0.0010 2.8893 0.0021 22.4741
#
#
#
# Elastic Compliance Matrix: (Units=1/GPa)
#
#
# Indices 1 2 3 4 5 6 
#
# 1 0.037358 -0.012630 -0.006686 0.000002 0.004476 0.000003
# 2 -0.012630 0.013332 -0.000275 -0.000006 -0.005183 0.000002
# 3 -0.006686 -0.000275 0.010748 -0.000004 -0.001852 0.000000
# 4 0.000002 -0.000006 -0.000004 0.030725 0.000013 -0.003950
# 5 0.004476 -0.005183 -0.001852 0.000013 0.040875 -0.000006
# 6 0.000003 0.000002 0.000000 -0.003950 -0.000006 0.045003
#
#
# Mechanical properties :
#
#
# Convention : Reuss Voigt Hill
#
# Bulk Modulus (GPa) = 44.93432 57.04586 50.99009
# Shear Modulus (GPa) = 22.25775 27.93238 25.09506
#
# Velocity S-wave (km/s) = 3.38461 3.79159 3.59387
# Velocity P-wave (km/s) = 6.19684 6.96624 6.59277
#
# Compressibility (1/GPa) = 0.02225470
#
# Stress axis : x y z
#
# Youngs Moduli (GPa) = 26.76833 75.00871 93.04398
#
# Poissons Ratio (x) = 0.94735 0.62212
# Poissons Ratio (y) = 0.33808 0.02558
# Poissons Ratio (z) = 0.17898 0.02062
#
# Static dielectric constant tensor:
#      x y z
#    x 3.302160 0.000040 0.044880 
#    y 0.000040 3.660600 0.000010 
#    z 0.044880 0.000010 3.858850 
# 
# 
# High freq. dielectric constant tensor:
#      x y z
#    x 1.716930 0.000000 0.001220 
#    y 0.000000 1.764380 0.000000 
#    z 0.001220 0.000000 1.781940 
# 
# From -- ./inp_files/67127.got.cif
#   From: 2010.03.12/outbox.cif.g09.slc.cpg/sg5_34_cif.got.tgz:67127.got - 2010.03.31 09:47:26.
