data_PCOD8049033
_publ_section_title
;
Structure prediction by ZEFSAII (Michael W. Deem and Ramdas Pophale) SiO2 
 PCOD8049033
Probable space group: C 2
;
_chemical_formula_sum "Si O2"
_cell_formula_units_Z 26
_cell_length_a 14.733250
_cell_length_b 18.356855
_cell_length_c 5.072561
_cell_angle_alpha 90.000000
_cell_angle_beta 77.759559
_cell_angle_gamma 90.000000
_cell_volume 1340.717018
_symmetry_space_group_name_H-M "C 2"
_symmetry_group_IT_number 5
_symmetry_cell_setting 'monoclinic'
loop_
_space_group_symop_operation_xyz
x,y,z
-x,y,-z
1/2+x,1/2+y,z
1/2-x,1/2+y,-z
loop_
_atom_site_type_symbol
_atom_site_label
_atom_site_fract_x
_atom_site_fract_y
_atom_site_fract_z
Si Si1 0.338149 0.511300 0.510822
Si Si2 0.578022 0.289578 0.255808
Si Si3 0.000000 0.657237 0.000000
Si Si4 0.753748 0.701675 0.739850
Si Si5 0.193096 0.612129 0.784360
Si Si6 0.901340 0.936104 0.984799
Si Si7 0.060773 0.159883 0.704486
O O1 0.238968 0.533737 0.696962
O O2 0.383938 0.458529 0.695285
O O3 0.396884 0.584243 0.426209
O O4 0.326810 0.466511 0.243472
O O5 0.500000 0.323438 0.500000
O O6 0.537185 0.211212 0.202450
O O7 0.684701 0.275766 0.286571
O O8 0.592444 0.347789 0.010310
O O9 0.916937 0.601947 0.114514
O O10 0.801586 0.658980 0.478665
O O11 0.644943 0.715108 0.732885
O O12 0.756559 0.653557 0.005238
O O13 0.000000 0.971138 0.000000
O O14 0.000000 0.193256 0.500000
O O15 0.000000 0.145348 0.000000
#
# Coordination Sequence:
#
# PCOD8049033 Si02
#       7
#     4   4   2   4   4   4   4
#     4  11  22  35  51  80 116 152 193 224 281 344
#     4  11  21  36  55  84 122 153 192 236 294 352
#     4  10  20  36  58  84 116 152 196 244 294 340
#     4  10  21  34  54  82 113 148 190 239 294 333
#     4  10  20  35  56  80 114 151 188 246 284 336
#     4  12  23  34  53  79 117 160 185 220 283 360
#     4  11  20  34  54  77 110 149 188 236 279 334
#
# _framework density 19.392607000000002
#
# number of rings (size 3 to 8) (size 9 to 14) (size 15 to 20)
#    0.000    1.231    2.308    7.385    0.000    0.000 
#    0.000    0.000    0.000    0.000    2.000    0.000 
#   23.077    0.000    0.000    0.000    0.000    0.000 
#
# Total GULP energy -161060.505118 kJ/mol
# GULP energy per Si atom -12389.269624 kJ/mol
# Density = 1.934847 g / cm^3
# Si number density = 19.392607 Si / 1000 Ang^3
#
#
#
# Elastic Constant Matrix: (Units=GPa)
#
#
# Indices 1 2 3 4 5 6 
#
# 1 152.2319 39.6038 49.0042 0.0000 -10.7872 0.0000
# 2 39.6038 62.7642 26.2169 0.0000 -7.4608 0.0000
# 3 49.0042 26.2169 121.3852 0.0000 2.1590 0.0000
# 4 0.0000 0.0000 0.0000 30.1175 0.0000 0.4933
# 5 -10.7872 -7.4608 2.1590 0.0000 33.7272 0.0000
# 6 0.0000 0.0000 0.0000 0.4933 0.0000 21.5314
#
#
#
# Elastic Compliance Matrix: (Units=1/GPa)
#
#
# Indices 1 2 3 4 5 6 
#
# 1 0.008627 -0.004104 -0.002632 0.000000 0.002020 0.000000
# 2 -0.004104 0.020056 -0.002734 0.000000 0.003299 0.000000
# 3 -0.002632 -0.002734 0.009928 0.000000 -0.002082 0.000000
# 4 0.000000 0.000000 0.000000 0.033216 0.000000 -0.000761
# 5 0.002020 0.003299 -0.002082 0.000000 0.031159 0.000000
# 6 0.000000 0.000000 0.000000 -0.000761 0.000000 0.046461
#
#
# Mechanical properties :
#
#
# Convention : Reuss Voigt Hill
#
# Bulk Modulus (GPa) = 50.83426 62.89231 56.86329
# Shear Modulus (GPa) = 28.58045 31.84565 30.21305
#
# Velocity S-wave (km/s) = 3.84315 4.05675 3.95139
# Velocity P-wave (km/s) = 6.77962 7.37864 7.08546
#
# Compressibility (1/GPa) = 0.01967177
#
# Stress axis : x y z
#
# Youngs Moduli (GPa) = 115.91382 49.85980 100.72123
#
# Poissons Ratio (x) = 0.20462 0.26514
# Poissons Ratio (y) = 0.47571 0.27533
# Poissons Ratio (z) = 0.30513 0.13630
#
# Static dielectric constant tensor:
#      x y z
#    x 3.993920 0.000000 -0.031060 
#    y 0.000000 3.239610 0.000000 
#    z -0.031060 0.000000 3.707190 
# 
# 
# High freq. dielectric constant tensor:
#      x y z
#    x 1.753970 0.000000 0.003940 
#    y 0.000000 1.704320 0.000000 
#    z 0.003940 0.000000 1.777580 
# 
# From -- ./inp_files/7082.got.cif
#   From: 2010.03.12/outbox.cif.g09.slc.cpg/sg5_4_cif.got.tgz:7082.got - 2010.03.31 09:47:26.
