data_PCOD8049218
_publ_section_title
;
Structure prediction by ZEFSAII (Michael W. Deem and Ramdas Pophale) SiO2 
 PCOD8049218
Probable space group: C 2
;
_chemical_formula_sum "Si O2"
_cell_formula_units_Z 20
_cell_length_a 9.593878
_cell_length_b 10.267297
_cell_length_c 13.919614
_cell_angle_alpha 90.000000
_cell_angle_beta 49.234651
_cell_angle_gamma 90.000000
_cell_volume 1038.477584
_symmetry_space_group_name_H-M "C 2"
_symmetry_group_IT_number 5
_symmetry_cell_setting 'monoclinic'
loop_
_space_group_symop_operation_xyz
x,y,z
-x,y,-z
1/2+x,1/2+y,z
1/2-x,1/2+y,-z
loop_
_atom_site_type_symbol
_atom_site_label
_atom_site_fract_x
_atom_site_fract_y
_atom_site_fract_z
Si Si1 0.368287 0.258330 0.226456
Si Si2 0.036172 0.237889 0.243050
Si Si3 0.671047 0.651986 0.480362
Si Si4 0.982172 0.530639 0.738188
Si Si5 0.422494 0.534517 0.140818
O O1 0.241414 0.222526 0.192372
O O2 0.239897 0.271717 0.380253
O O3 0.511303 0.138505 0.178799
O O4 0.475949 0.393202 0.160661
O O5 0.008361 0.386476 0.221148
O O6 0.881703 0.201337 0.390981
O O7 0.017245 0.145842 0.160331
O O8 0.500000 0.585298 0.500000
O O9 0.840294 0.549420 0.411776
O O10 0.798101 0.549759 0.758717
O O11 0.500000 0.546415 0.000000
#
# Coordination Sequence:
#
# PCOD8049218 Si02
#       5
#     4   4   4   4   4
#     4   8  20  40  59  82 114 154 191 234 294 339
#     4  10  20  37  61  88 121 147 190 247 286 345
#     4   8  17  37  62  86 117 142 189 240 297 345
#     4   9  21  39  57  90 114 150 195 234 295 340
#     4  11  24  39  57  86 120 157 198 234 279 343
#
# _framework density 19.258960999999999
#
# number of rings (size 3 to 8) (size 9 to 14) (size 15 to 20)
#    1.200    1.600    0.000    0.000    2.800    5.600 
#    3.600    1.000    0.000    0.000    0.000    0.000 
#    0.000    0.000    0.000    0.000    0.000    0.000 
#
# Total GULP energy -123900.080259 kJ/mol
# GULP energy per Si atom -12390.008026 kJ/mol
# Density = 1.921513 g / cm^3
# Si number density = 19.258961 Si / 1000 Ang^3
#
#
#
# Elastic Constant Matrix: (Units=GPa)
#
#
# Indices 1 2 3 4 5 6 
#
# 1 54.3944 51.4163 3.2718 0.0000 2.2020 0.0000
# 2 51.4163 148.0733 13.7891 0.0000 20.7069 0.0000
# 3 3.2718 13.7891 48.2428 0.0000 16.5356 0.0000
# 4 0.0000 0.0000 0.0000 24.4841 0.0000 7.8599
# 5 2.2020 20.7069 16.5356 0.0000 26.2162 0.0000
# 6 0.0000 0.0000 0.0000 7.8599 0.0000 35.3402
#
#
#
# Elastic Compliance Matrix: (Units=1/GPa)
#
#
# Indices 1 2 3 4 5 6 
#
# 1 0.028244 -0.010646 -0.001201 0.000000 0.006794 0.000000
# 2 -0.010646 0.011605 0.000307 0.000000 -0.008466 0.000000
# 3 -0.001201 0.000307 0.026500 0.000000 -0.016856 0.000000
# 4 0.000000 0.000000 0.000000 0.043983 0.000000 -0.009782
# 5 0.006794 -0.008466 -0.016856 0.000000 0.054892 0.000000
# 6 0.000000 0.000000 0.000000 -0.009782 0.000000 0.030472
#
#
# Mechanical properties :
#
#
# Convention : Reuss Voigt Hill
#
# Bulk Modulus (GPa) = 23.11155 43.07388 33.09271
# Shear Modulus (GPa) = 21.44089 29.35699 25.39894
#
# Velocity S-wave (km/s) = 3.34023 3.90850 3.63548
# Velocity P-wave (km/s) = 5.18677 6.54085 5.90277
#
# Compressibility (1/GPa) = 0.04326842
#
# Stress axis : x y z
#
# Youngs Moduli (GPa) = 35.40554 86.16820 37.73626
#
# Poissons Ratio (x) = 0.91731 0.04533
# Poissons Ratio (y) = 0.37691 -0.01157
# Poissons Ratio (z) = 0.04253 -0.02641
#
# Static dielectric constant tensor:
#      x y z
#    x 3.470630 0.000000 -0.131940 
#    y 0.000000 3.433920 0.000000 
#    z -0.131940 0.000000 3.272460 
# 
# 
# High freq. dielectric constant tensor:
#      x y z
#    x 1.743000 0.000000 -0.007720 
#    y 0.000000 1.739360 0.000000 
#    z -0.007720 0.000000 1.733220 
# 
# From -- ./inp_files/51971.got.cif
#   From: 2010.03.12/outbox.cif.g09.slc.cpg/sg5_26_cif.got.tgz:51971.got - 2010.03.31 09:47:26.
