data_PCOD8049715
_publ_section_title
;
Structure prediction by ZEFSAII (Michael W. Deem and Ramdas Pophale) SiO2 
 PCOD8049715
Probable space group: C 2
;
_chemical_formula_sum "Si O2"
_cell_formula_units_Z 26
_cell_length_a 9.363306
_cell_length_b 18.863334
_cell_length_c 9.197670
_cell_angle_alpha 90.000000
_cell_angle_beta 46.150978
_cell_angle_gamma 90.000000
_cell_volume 1171.552631
_symmetry_space_group_name_H-M "C 2"
_symmetry_group_IT_number 5
_symmetry_cell_setting 'monoclinic'
loop_
_space_group_symop_operation_xyz
x,y,z
-x,y,-z
1/2+x,1/2+y,z
1/2-x,1/2+y,-z
loop_
_atom_site_type_symbol
_atom_site_label
_atom_site_fract_x
_atom_site_fract_y
_atom_site_fract_z
Si Si1 0.309288 0.442990 0.059881
Si Si2 0.244760 0.317658 0.555509
Si Si3 0.310657 0.331504 0.827633
Si Si4 0.339659 0.158228 0.487075
Si Si5 0.036210 0.094535 0.135883
Si Si6 0.000000 0.405931 0.500000
Si Si7 0.118963 0.689706 0.055537
O O1 0.148772 0.455928 0.302357
O O2 0.500000 0.405931 0.000000
O O3 0.224006 0.391133 0.996623
O O4 0.380059 0.515477 0.935554
O O5 0.185350 0.333341 0.765882
O O6 0.461799 0.347971 0.369704
O O7 0.230800 0.233408 0.542560
O O8 0.098076 0.354721 0.548345
O O9 0.295707 0.255087 0.913332
O O10 0.500000 0.165022 0.500000
O O11 0.464175 0.140752 0.254717
O O12 0.174604 0.097617 0.631211
O O13 0.193942 0.140694 0.115214
O O14 0.000000 0.126406 0.000000
O O15 0.000000 0.718046 0.000000
#
# Coordination Sequence:
#
# PCOD8049715 Si02
#       7
#     4   4   4   4   4   2   4
#     4  11  25  44  67 101 141 183 234 290 343 417
#     4  10  21  40  70 105 134 176 228 288 350 404
#     4  10  20  44  66  97 142 181 224 290 343 412
#     4  11  21  43  70  99 135 180 233 289 344 414
#     4  11  24  43  69  97 135 190 239 278 355 416
#     4  12  26  42  70 108 138 182 234 288 350 418
#     4  11  24  42  69 102 143 181 233 294 347 411
#
# _framework density 22.192772999999999
#
# number of rings (size 3 to 8) (size 9 to 14) (size 15 to 20)
#    0.000    1.231    6.154    0.462    4.308    3.692 
#    2.769    1.538    0.000    0.000    0.000    0.000 
#    0.000    0.000    0.000    0.000    0.000    0.000 
#
# Total GULP energy -161173.042728 kJ/mol
# GULP energy per Si atom -12397.926364 kJ/mol
# Density = 2.214226 g / cm^3
# Si number density = 22.192773 Si / 1000 Ang^3
#
#
#
# Elastic Constant Matrix: (Units=GPa)
#
#
# Indices 1 2 3 4 5 6 
#
# 1 104.3978 36.9852 9.3982 0.0000 15.3775 0.0000
# 2 36.9852 94.6825 40.1778 0.0000 -4.8687 0.0000
# 3 9.3982 40.1778 112.0736 0.0000 -3.3787 0.0000
# 4 0.0000 0.0000 0.0000 32.6454 0.0000 1.2551
# 5 15.3775 -4.8687 -3.3787 0.0000 33.5664 0.0000
# 6 0.0000 0.0000 0.0000 1.2551 0.0000 19.6931
#
#
#
# Elastic Compliance Matrix: (Units=1/GPa)
#
#
# Indices 1 2 3 4 5 6 
#
# 1 0.012398 -0.005483 0.000733 0.000000 -0.006401 0.000000
# 2 -0.005483 0.014944 -0.004771 0.000000 0.004199 0.000000
# 3 0.000733 -0.004771 0.010573 0.000000 0.000036 0.000000
# 4 0.000000 0.000000 0.000000 0.030707 0.000000 -0.001957
# 5 -0.006401 0.004199 0.000036 0.000000 0.033337 0.000000
# 6 0.000000 0.000000 0.000000 -0.001957 0.000000 0.050904
#
#
# Mechanical properties :
#
#
# Convention : Reuss Voigt Hill
#
# Bulk Modulus (GPa) = 52.98689 53.80848 53.39769
# Shear Modulus (GPa) = 28.05893 32.15384 30.10639
#
# Velocity S-wave (km/s) = 3.55960 3.81050 3.68718
# Velocity P-wave (km/s) = 6.38920 6.60745 6.49924
#
# Compressibility (1/GPa) = 0.01887259
#
# Stress axis : x y z
#
# Youngs Moduli (GPa) = 80.65666 66.91675 94.58336
#
# Poissons Ratio (x) = 0.36692 -0.06933
# Poissons Ratio (y) = 0.44226 0.45125
# Poissons Ratio (z) = -0.05913 0.31925
#
# Static dielectric constant tensor:
#      x y z
#    x 4.020730 0.000000 0.086550 
#    y 0.000000 3.623590 0.000000 
#    z 0.086550 0.000000 4.365380 
# 
# 
# High freq. dielectric constant tensor:
#      x y z
#    x 1.871240 0.000000 -0.003840 
#    y 0.000000 1.845480 0.000000 
#    z -0.003840 0.000000 1.884240 
# 
# From -- ./inp_files/17020.got.cif
#   From: 2010.03.12/outbox.cif.g09.slc.cpg/sg5_9_cif.got.tgz:17020.got - 2010.03.31 09:47:26.
