data_PCOD8049777
_publ_section_title
;
Structure prediction by ZEFSAII (Michael W. Deem and Ramdas Pophale) SiO2 
 PCOD8049777
Probable space group: C 2
;
_chemical_formula_sum "Si O2"
_cell_formula_units_Z 32
_cell_length_a 9.207936
_cell_length_b 10.068018
_cell_length_c 22.395287
_cell_angle_alpha 90.000000
_cell_angle_beta 51.922071
_cell_angle_gamma 90.000000
_cell_volume 1634.304233
_symmetry_space_group_name_H-M "C 2"
_symmetry_group_IT_number 5
_symmetry_cell_setting 'monoclinic'
loop_
_space_group_symop_operation_xyz
x,y,z
-x,y,-z
1/2+x,1/2+y,z
1/2-x,1/2+y,-z
loop_
_atom_site_type_symbol
_atom_site_label
_atom_site_fract_x
_atom_site_fract_y
_atom_site_fract_z
Si Si1 0.700345 0.954360 0.585933
Si Si2 0.466177 0.470950 0.076805
Si Si3 0.303408 0.970950 0.076805
Si Si4 0.176840 0.700441 0.160165
Si Si5 0.041856 0.954360 0.585933
Si Si6 0.418858 0.722095 0.666903
Si Si7 0.342664 0.200441 0.160165
Si Si8 0.419567 0.222095 0.333097
O O1 0.773717 0.935731 0.500000
O O2 0.542699 0.851094 0.641173
O O3 0.861847 0.932674 0.592102
O O4 0.616771 0.101236 0.612720
O O5 0.661821 0.494418 0.058786
O O6 0.351976 0.606005 0.110760
O O7 0.353457 0.352189 0.135953
O O8 0.500000 0.432356 0.000000
O O9 0.238683 0.852189 0.135953
O O10 0.315744 0.106005 0.110760
O O11 0.500000 0.932355 0.000000
O O12 0.028367 0.658151 0.147755
O O13 0.092100 0.686328 0.247496
O O14 0.033782 0.851094 0.641173
O O15 0.045068 0.101236 0.612720
O O16 0.334589 0.686328 0.752504
O O17 0.258117 0.755285 0.661256
#
# Coordination Sequence:
#
# PCOD8049777 Si02
#       8
#     4   4   4   4   4   4   4   4
#     4  10  21  36  55  82 114 148 188 232 279 332
#     4  11  23  38  58  84 113 147 187 229 277 333
#     4  11  23  38  58  84 113 147 187 229 277 333
#     4  10  22  39  59  85 114 146 187 232 279 332
#     4  10  21  36  55  82 114 148 188 232 279 332
#     4  10  21  38  59  83 113 148 187 232 280 331
#     4  10  22  39  59  85 114 146 187 232 279 332
#     4  10  21  38  59  83 113 148 187 232 280 331
#
# _framework density 19.580196999999998
#
# number of rings (size 3 to 8) (size 9 to 14) (size 15 to 20)
#    0.000    1.750    0.000    3.750    0.000    7.500 
#    0.000    0.000    0.000    0.000    0.000    0.000 
#    0.000    0.000    0.000    0.000    0.000    0.000 
#
# Total GULP energy -198504.450772 kJ/mol
# GULP energy per Si atom -12406.528173 kJ/mol
# Density = 1.953563 g / cm^3
# Si number density = 19.580197 Si / 1000 Ang^3
#
#
#
# Elastic Constant Matrix: (Units=GPa)
#
#
# Indices 1 2 3 4 5 6 
#
# 1 73.5325 42.4294 39.4947 0.0000 -0.0015 0.0000
# 2 42.4294 75.7000 20.4304 0.0000 0.0009 0.0000
# 3 39.4947 20.4304 97.3356 0.0000 0.0004 0.0000
# 4 0.0000 0.0000 0.0000 35.7323 0.0000 -0.0001
# 5 -0.0015 0.0009 0.0004 0.0000 33.3089 0.0000
# 6 0.0000 0.0000 0.0000 -0.0001 0.0000 34.0739
#
#
#
# Elastic Compliance Matrix: (Units=1/GPa)
#
#
# Indices 1 2 3 4 5 6 
#
# 1 0.024280 -0.011607 -0.007415 0.000000 0.000001 0.000000
# 2 -0.011607 0.019552 0.000606 0.000000 -0.000001 0.000000
# 3 -0.007415 0.000606 0.013155 0.000000 -0.000001 0.000000
# 4 0.000000 0.000000 0.000000 0.027986 0.000000 0.000000
# 5 0.000001 -0.000001 -0.000001 0.000000 0.030022 0.000000
# 6 0.000000 0.000000 0.000000 0.000000 0.000000 0.029348
#
#
# Mechanical properties :
#
#
# Convention : Reuss Voigt Hill
#
# Bulk Modulus (GPa) = 49.61856 50.14190 49.88023
# Shear Modulus (GPa) = 26.61051 30.23727 28.42389
#
# Velocity S-wave (km/s) = 3.69053 3.93399 3.81421
# Velocity P-wave (km/s) = 6.59972 6.80435 6.70281
#
# Compressibility (1/GPa) = 0.02015375
#
# Stress axis : x y z
#
# Youngs Moduli (GPa) = 41.18623 51.14444 76.01426
#
# Poissons Ratio (x) = 0.59366 0.56368
# Poissons Ratio (y) = 0.47807 -0.04605
# Poissons Ratio (z) = 0.30541 -0.03098
#
# Static dielectric constant tensor:
#      x y z
#    x 3.538600 0.000000 -0.000010 
#    y 0.000000 3.471840 0.000000 
#    z -0.000010 0.000000 3.783280 
# 
# 
# High freq. dielectric constant tensor:
#      x y z
#    x 1.758870 0.000000 0.000000 
#    y 0.000000 1.771250 0.000000 
#    z 0.000000 0.000000 1.779960 
# 
# From -- ./inp_files/64548.got.cif
#   From: 2010.03.12/outbox.cif.g09.slc.cpg/sg5_33_cif.got.tgz:64548.got - 2010.03.31 09:47:26.
