data_PCOD8049711
_publ_section_title
;
Structure prediction by ZEFSAII (Michael W. Deem and Ramdas Pophale) SiO2 
 PCOD8049711
Probable space group: C 2
;
_chemical_formula_sum "Si O2"
_cell_formula_units_Z 30
_cell_length_a 8.766269
_cell_length_b 11.241444
_cell_length_c 15.832253
_cell_angle_alpha 90.000000
_cell_angle_beta 113.603743
_cell_angle_gamma 90.000000
_cell_volume 1429.666157
_symmetry_space_group_name_H-M "C 2"
_symmetry_group_IT_number 5
_symmetry_cell_setting 'monoclinic'
loop_
_space_group_symop_operation_xyz
x,y,z
-x,y,-z
1/2+x,1/2+y,z
1/2-x,1/2+y,-z
loop_
_atom_site_type_symbol
_atom_site_label
_atom_site_fract_x
_atom_site_fract_y
_atom_site_fract_z
Si Si1 0.289602 0.242420 0.317248
Si Si2 0.872645 0.879243 0.130008
Si Si3 0.701647 0.634621 0.632725
Si Si4 0.500000 0.505373 0.000000
Si Si5 0.879745 0.454241 0.793288
Si Si6 0.316607 0.594813 0.557699
Si Si7 0.190849 0.613272 0.845770
Si Si8 0.107166 0.869060 0.327476
O O1 0.131604 0.327217 0.258144
O O2 0.278724 0.193904 0.409135
O O3 0.302438 0.132518 0.253969
O O4 0.454826 0.321972 0.350506
O O5 0.871022 0.735917 0.126045
O O6 0.030534 0.919464 0.222745
O O7 0.702576 0.933782 0.132245
O O8 0.893956 0.924325 0.040097
O O9 0.773610 0.551113 0.720101
O O10 0.505526 0.635125 0.595141
O O11 0.762600 0.590999 0.553331
O O12 0.761279 0.767421 0.664298
O O13 0.374347 0.587715 0.920554
O O14 0.068331 0.502990 0.841886
O O15 0.295729 0.468203 0.598006
#
# Coordination Sequence:
#
# PCOD8049711 Si02
#       8
#     4   4   4   2   4   4   4   4
#     4  10  22  40  67  91 120 174 206 254 318 363
#     4  10  23  42  67  92 120 170 201 256 323 372
#     4  11  22  39  61  91 125 170 211 251 307 366
#     4  12  26  40  68  98 120 152 214 266 306 382
#     4  10  20  44  65  84 129 169 202 249 319 371
#     4  11  24  36  61  95 127 164 215 265 297 355
#     4  10  23  44  62  95 124 158 210 255 319 379
#     4  10  21  44  62  86 133 164 209 253 318 371
#
# _framework density 20.983917999999999
#
# number of rings (size 3 to 8) (size 9 to 14) (size 15 to 20)
#    0.000    1.867    5.333    0.800    1.867    6.400 
#    0.000    0.000    0.000    0.000    0.000    0.000 
#    0.000    0.000    0.000    0.000    0.000    0.000 
#
# Total GULP energy -185989.569795 kJ/mol
# GULP energy per Si atom -12399.304653 kJ/mol
# Density = 2.093616 g / cm^3
# Si number density = 20.983918 Si / 1000 Ang^3
#
#
#
# Elastic Constant Matrix: (Units=GPa)
#
#
# Indices 1 2 3 4 5 6 
#
# 1 59.1343 33.7841 18.7152 0.0000 -10.9482 0.0000
# 2 33.7841 86.0526 14.4079 0.0000 -9.9683 0.0000
# 3 18.7152 14.4079 40.8302 0.0000 -10.2709 0.0000
# 4 0.0000 0.0000 0.0000 18.6525 0.0000 9.0032
# 5 -10.9482 -9.9683 -10.2709 0.0000 39.9409 0.0000
# 6 0.0000 0.0000 0.0000 9.0032 0.0000 38.8497
#
#
#
# Elastic Compliance Matrix: (Units=1/GPa)
#
#
# Indices 1 2 3 4 5 6 
#
# 1 0.024406 -0.007980 -0.007686 0.000000 0.002722 0.000000
# 2 -0.007980 0.015126 -0.001369 0.000000 0.001236 0.000000
# 3 -0.007686 -0.001369 0.029810 0.000000 0.005217 0.000000
# 4 0.000000 0.000000 0.000000 0.060364 0.000000 -0.013989
# 5 0.002722 0.001236 0.005217 0.000000 0.027433 0.000000
# 6 0.000000 0.000000 0.000000 -0.013989 0.000000 0.028982
#
#
# Mechanical properties :
#
#
# Convention : Reuss Voigt Hill
#
# Bulk Modulus (GPa) = 28.35100 35.53683 31.94391
# Shear Modulus (GPa) = 21.55641 27.42929 24.49285
#
# Velocity S-wave (km/s) = 3.20860 3.61939 3.42017
# Velocity P-wave (km/s) = 5.22178 5.86844 5.55453
#
# Compressibility (1/GPa) = 0.03527213
#
# Stress axis : x y z
#
# Youngs Moduli (GPa) = 40.97346 66.11173 33.54533
#
# Poissons Ratio (x) = 0.52754 0.25785
# Poissons Ratio (y) = 0.32695 0.04593
# Poissons Ratio (z) = 0.31494 0.09052
#
# Static dielectric constant tensor:
#      x y z
#    x 3.751760 0.000000 -0.041390 
#    y 0.000000 3.836430 0.000000 
#    z -0.041390 0.000000 3.856540 
# 
# 
# High freq. dielectric constant tensor:
#      x y z
#    x 1.814190 0.000000 -0.004570 
#    y 0.000000 1.824440 0.000000 
#    z -0.004570 0.000000 1.813750 
# 
# From -- ./inp_files/59586.got.cif
#   From: 2010.03.12/outbox.cif.g09.slc.cpg/sg5_30_cif.got.tgz:59586.got - 2010.03.31 09:47:26.
