data_PCOD8049075
_publ_section_title
;
Structure prediction by ZEFSAII (Michael W. Deem and Ramdas Pophale) SiO2 
 PCOD8049075
Probable space group: C 2
;
_chemical_formula_sum "Si O2"
_cell_formula_units_Z 24
_cell_length_a 9.196033
_cell_length_b 17.148305
_cell_length_c 9.205496
_cell_angle_alpha 90.000000
_cell_angle_beta 48.343360
_cell_angle_gamma 90.000000
_cell_volume 1084.605281
_symmetry_space_group_name_H-M "C 2"
_symmetry_group_IT_number 5
_symmetry_cell_setting 'monoclinic'
loop_
_space_group_symop_operation_xyz
x,y,z
-x,y,-z
1/2+x,1/2+y,z
1/2-x,1/2+y,-z
loop_
_atom_site_type_symbol
_atom_site_label
_atom_site_fract_x
_atom_site_fract_y
_atom_site_fract_z
Si Si1 0.281315 0.981650 0.684736
Si Si2 0.500000 0.224767 0.000000
Si Si3 0.265612 0.853214 0.942347
Si Si4 0.713964 0.720621 0.423722
Si Si5 0.272089 0.153838 0.676106
Si Si6 0.000000 0.271286 0.000000
Si Si7 0.434592 0.375002 0.378192
O O1 0.500000 0.993730 0.500000
O O2 0.265694 0.925312 0.833052
O O3 0.175104 0.950972 0.610710
O O4 0.209794 0.068410 0.775702
O O5 0.316664 0.278776 0.084788
O O6 0.386771 0.179570 0.205921
O O7 0.471431 0.825922 0.875469
O O8 0.138807 0.874677 0.163355
O O9 0.500000 0.737619 0.500000
O O10 0.673515 0.662283 0.583147
O O11 0.800695 0.800999 0.429721
O O12 0.500000 0.169960 0.500000
O O13 0.189874 0.217253 0.845568
O O14 0.500000 0.382701 0.500000
#
# Coordination Sequence:
#
# PCOD8049075 Si02
#       7
#     4   2   4   4   4   2   4
#     4  11  25  44  69  95 143 188 225 278 358 407
#     4  10  20  35  66  97 130 168 218 288 336 389
#     4  11  22  41  66 104 130 179 233 275 341 409
#     4  11  21  39  68 100 132 174 229 284 338 406
#     4  11  26  45  66 101 143 182 223 288 353 405
#     4  12  26  39  76 107 132 176 240 288 334 409
#     4  11  23  39  69  99 137 175 234 287 331 411
#
# _framework density 22.127865
#
# number of rings (size 3 to 8) (size 9 to 14) (size 15 to 20)
#    0.000    1.000    3.333    5.000    7.000    0.667 
#    0.000    0.000    7.333    1.000    0.000    0.000 
#    0.000    0.000    0.000    0.000    0.000    0.000 
#
# Total GULP energy -148662.097717 kJ/mol
# GULP energy per Si atom -12388.508143 kJ/mol
# Density = 2.207750 g / cm^3
# Si number density = 22.127865 Si / 1000 Ang^3
#
#
#
# Elastic Constant Matrix: (Units=GPa)
#
#
# Indices 1 2 3 4 5 6 
#
# 1 -758.8337 1577.5456 862.3101 -0.0005 -403.3476 0.0005
# 2 1577.5456-2445.0784-1362.0915 0.0008 707.5549 -0.0008
# 3 862.3101-1362.0915 -681.2127 0.0004 399.1370 -0.0004
# 4 -0.0005 0.0008 0.0004 -49.7361 -0.0002 -11.9974
# 5 -403.3476 707.5549 399.1370 -0.0002 -151.2484 0.0002
# 6 0.0005 -0.0008 -0.0004 -11.9974 0.0002 27.0283
#
#
#
# Elastic Compliance Matrix: (Units=1/GPa)
#
#
# Indices 1 2 3 4 5 6 
#
# 1 0.004995 0.000975 0.001389 0.000000 -0.005092 0.000000
# 2 0.000975 0.005769 -0.007302 0.000000 0.005119 0.000000
# 3 0.001389 -0.007302 0.013355 0.000000 -0.002622 0.000000
# 4 0.000000 0.000000 0.000000 -0.018162 0.000000 -0.008062
# 5 -0.005092 0.005119 -0.002622 0.000000 0.023994 0.000000
# 6 0.000000 0.000000 0.000000 -0.008062 0.000000 0.033420
#
#
# Mechanical properties :
#
#
# Convention : Reuss Voigt Hill
#
# Bulk Modulus (GPa) = 70.20732 -192.17737 -60.98503
# Shear Modulus (GPa) = 64.10710 -365.65051 -150.77171
#
# Velocity S-wave (km/s) = 5.38833 -12.86869 -8.26344
# Velocity P-wave (km/s) = 8.39697 17.54541 10.89340
#
# Compressibility (1/GPa) = 0.01424353
#
# Stress axis : x y z
#
# Youngs Moduli (GPa) = 200.20109 173.33078 74.88059
#
# Poissons Ratio (x) = -0.16905 -0.10402
# Poissons Ratio (y) = -0.19525 0.54678
# Poissons Ratio (z) = -0.27810 1.26568
#
# Static dielectric constant tensor:
#      x y z
#    x 4.403070 0.000020 0.316630 
#    y 0.000020 558.368140 0.000090 
#    z 0.316630 0.000090 4.682850 
# 
# 
# High freq. dielectric constant tensor:
#      x y z
#    x 1.884670 0.000000 -0.000560 
#    y 0.000000 1.836680 0.000000 
#    z -0.000560 0.000000 1.889540 
# 
# From -- ./inp_files/16752.got.cif
#   From: 2010.03.12/outbox.cif.g09.slc.cpg/sg5_9_cif.got.tgz:16752.got - 2010.03.31 09:47:26.
