data_PCOD8049576
_publ_section_title
;
Structure prediction by ZEFSAII (Michael W. Deem and Ramdas Pophale) SiO2 
 PCOD8049576
Probable space group: C 2
;
_chemical_formula_sum "Si O2"
_cell_formula_units_Z 28
_cell_length_a 5.979116
_cell_length_b 22.286947
_cell_length_c 11.922041
_cell_angle_alpha 90.000000
_cell_angle_beta 121.289282
_cell_angle_gamma 90.000000
_cell_volume 1357.621471
_symmetry_space_group_name_H-M "C 2"
_symmetry_group_IT_number 5
_symmetry_cell_setting 'monoclinic'
loop_
_space_group_symop_operation_xyz
x,y,z
-x,y,-z
1/2+x,1/2+y,z
1/2-x,1/2+y,-z
loop_
_atom_site_type_symbol
_atom_site_label
_atom_site_fract_x
_atom_site_fract_y
_atom_site_fract_z
Si Si1 0.311063 0.440660 0.188436
Si Si2 0.500000 0.262136 0.000000
Si Si3 0.248734 0.863740 0.363835
Si Si4 0.000000 0.976485 0.000000
Si Si5 0.796983 0.676459 0.128202
Si Si6 0.411365 0.259511 0.355030
Si Si7 0.011568 0.551830 0.872741
Si Si8 0.953274 0.344173 0.185643
O O1 0.527613 0.414170 0.330363
O O2 0.396643 0.438380 0.079636
O O3 0.058985 0.396690 0.132270
O O4 0.238672 0.508036 0.213274
O O5 0.474927 0.221049 0.102279
O O6 0.762463 0.301736 0.064744
O O7 0.500000 0.881164 0.500000
O O8 0.292050 0.873662 0.243595
O O9 0.153972 0.795650 0.362608
O O10 0.233216 0.017867 0.103947
O O11 0.798945 0.704145 0.253314
O O12 0.968228 0.615567 0.184402
O O13 0.500000 0.667650 0.000000
O O14 0.500000 0.235503 0.500000
O O15 0.178701 0.306833 0.306664
O O16 0.000000 0.567706 0.000000
#
# Coordination Sequence:
#
# PCOD8049576 Si02
#       8
#     4   2   4   2   4   4   4   4
#     4  10  24  39  61  99 124 170 218 271 325 407
#     4  12  24  39  62 102 132 171 212 282 342 386
#     4  11  22  40  64  90 127 175 215 272 334 396
#     4  10  20  41  60  94 130 167 206 262 338 390
#     4  12  23  41  66  99 132 172 225 281 324 392
#     4  11  23  41  64  99 134 177 221 263 337 415
#     4  10  21  39  64  92 126 172 218 269 333 390
#     4  11  23  40  62  98 137 163 215 276 341 399
#
# _framework density 20.624305
#
# number of rings (size 3 to 8) (size 9 to 14) (size 15 to 20)
#    0.000    1.143    5.714    0.857    0.000    4.571 
#    2.571    0.000    0.000    5.143    3.714    0.000 
#    0.000    0.000    0.000    0.000    0.000    0.000 
#
# Total GULP energy -173479.161416 kJ/mol
# GULP energy per Si atom -12391.368673 kJ/mol
# Density = 2.057736 g / cm^3
# Si number density = 20.624305 Si / 1000 Ang^3
#
#
#
# Elastic Constant Matrix: (Units=GPa)
#
#
# Indices 1 2 3 4 5 6 
#
# 1 97.0361 50.0152 35.5448 0.0000 -3.3512 0.0000
# 2 50.0152 139.9600 58.1778 0.0000 4.6695 0.0000
# 3 35.5448 58.1778 94.5839 0.0000 4.2443 0.0000
# 4 0.0000 0.0000 0.0000 17.1541 0.0000 1.5696
# 5 -3.3512 4.6695 4.2443 0.0000 37.3853 0.0000
# 6 0.0000 0.0000 0.0000 1.5696 0.0000 17.6566
#
#
#
# Elastic Compliance Matrix: (Units=1/GPa)
#
#
# Indices 1 2 3 4 5 6 
#
# 1 0.013288 -0.003630 -0.002849 0.000000 0.001968 0.000000
# 2 -0.003630 0.010601 -0.005109 0.000000 -0.001070 0.000000
# 3 -0.002849 -0.005109 0.014844 0.000000 -0.001303 0.000000
# 4 0.000000 0.000000 0.000000 0.058773 0.000000 -0.005225
# 5 0.001968 -0.001070 -0.001303 0.000000 0.027206 0.000000
# 6 0.000000 0.000000 0.000000 -0.005225 0.000000 0.057101
#
#
# Mechanical properties :
#
#
# Convention : Reuss Voigt Hill
#
# Bulk Modulus (GPa) = 64.27615 68.78395 66.53005
# Shear Modulus (GPa) = 23.78970 26.96201 25.37585
#
# Velocity S-wave (km/s) = 3.39998 3.61957 3.51149
# Velocity P-wave (km/s) = 6.82979 7.13384 6.98347
#
# Compressibility (1/GPa) = 0.01555787
#
# Stress axis : x y z
#
# Youngs Moduli (GPa) = 75.25576 94.32861 67.36664
#
# Poissons Ratio (x) = 0.34239 0.19195
# Poissons Ratio (y) = 0.27316 0.34415
# Poissons Ratio (z) = 0.21443 0.48189
#
# Static dielectric constant tensor:
#      x y z
#    x 4.101630 0.000000 0.076140 
#    y 0.000000 3.746960 0.000000 
#    z 0.076140 0.000000 3.414830 
# 
# 
# High freq. dielectric constant tensor:
#      x y z
#    x 1.830830 0.000000 0.000740 
#    y 0.000000 1.799860 0.000000 
#    z 0.000740 0.000000 1.771550 
# 
# From -- ./inp_files/33994.got.cif
#   From: 2010.03.12/outbox.cif.g09.slc.cpg/sg5_17_cif.got.tgz:33994.got - 2010.03.31 09:47:26.
