data_PCOD8049346
_publ_section_title
;
Structure prediction by ZEFSAII (Michael W. Deem and Ramdas Pophale) SiO2 
 PCOD8049346
Probable space group: C 2
;
_chemical_formula_sum "Si O2"
_cell_formula_units_Z 30
_cell_length_a 15.339453
_cell_length_b 11.337877
_cell_length_c 18.893749
_cell_angle_alpha 90.000000
_cell_angle_beta 156.453138
_cell_angle_gamma 90.000000
_cell_volume 1312.730112
_symmetry_space_group_name_H-M "C 2"
_symmetry_group_IT_number 5
_symmetry_cell_setting 'monoclinic'
loop_
_space_group_symop_operation_xyz
x,y,z
-x,y,-z
1/2+x,1/2+y,z
1/2-x,1/2+y,-z
loop_
_atom_site_type_symbol
_atom_site_label
_atom_site_fract_x
_atom_site_fract_y
_atom_site_fract_z
Si Si1 0.046608 0.142960 0.755003
Si Si2 0.242585 0.723252 0.810483
Si Si3 0.619982 0.961846 0.757386
Si Si4 0.370650 0.383850 0.147883
Si Si5 0.418094 0.756725 0.362179
Si Si6 0.000000 0.818993 0.500000
Si Si7 0.586654 0.871217 0.268239
Si Si8 0.044563 0.780531 0.929963
O O1 0.993424 0.167258 0.632179
O O2 0.908968 0.233660 0.701857
O O3 0.007712 0.008289 0.747697
O O4 0.302131 0.166302 0.959061
O O5 0.197214 0.591541 0.800406
O O6 0.121262 0.811434 0.773449
O O7 0.136000 0.737345 0.654535
O O8 0.500000 0.748582 0.000000
O O9 0.527636 0.892669 0.619448
O O10 0.433923 0.958972 0.679811
O O11 0.826802 0.890331 0.940815
O O12 0.516042 0.317983 0.196058
O O13 0.117490 0.393550 0.935870
O O14 0.500000 0.721333 0.500000
O O15 0.157166 0.746404 0.171728
O O16 0.817459 0.900108 0.402589
#
# Coordination Sequence:
#
# PCOD8049346 Si02
#       8
#     4   4   4   4   4   2   4   4
#     4   9  20  41  65  95 127 170 224 271 323 399
#     4  12  25  43  69 101 136 179 227 275 344 396
#     4   9  21  41  69  94 130 168 225 282 323 400
#     4  10  22  40  68  92 132 179 216 274 336 401
#     4  10  20  38  63  96 129 164 217 275 329 390
#     4  12  26  46  64 102 144 170 226 284 328 420
#     4   9  22  43  69  97 134 170 225 283 339 397
#     4   9  20  37  68  92 122 168 220 268 323 401
#
# _framework density 22.853137
#
# number of rings (size 3 to 8) (size 9 to 14) (size 15 to 20)
#    0.000    2.667    1.333    2.400    8.400    4.267 
#    3.600    0.000    0.000    0.000    0.000    0.000 
#    0.000    0.000    0.000    0.000    0.000    0.000 
#
# Total GULP energy -185906.010438 kJ/mol
# GULP energy per Si atom -12393.734029 kJ/mol
# Density = 2.280112 g / cm^3
# Si number density = 22.853137 Si / 1000 Ang^3
#
#
#
# Elastic Constant Matrix: (Units=GPa)
#
#
# Indices 1 2 3 4 5 6 
#
# 1 97.5432 -6.8675 22.0181 0.0223 -14.4134 0.0113
# 2 -6.8675 54.1912 -6.8429 0.0452 -27.9240 0.0196
# 3 22.0181 -6.8429 65.0794 0.0221 -19.5989 0.0077
# 4 0.0223 0.0452 0.0221 11.5039 0.0152 -4.8763
# 5 -14.4134 -27.9240 -19.5989 0.0152 47.6811 0.0071
# 6 0.0113 0.0196 0.0077 -4.8763 0.0071 24.9668
#
#
#
# Elastic Compliance Matrix: (Units=1/GPa)
#
#
# Indices 1 2 3 4 5 6 
#
# 1 0.011706 0.003714 -0.002110 -0.000047 0.004846 -0.000018
# 2 0.003714 0.032476 0.009386 -0.000218 0.024000 -0.000079
# 3 -0.002110 0.009386 0.021148 -0.000107 0.013552 -0.000038
# 4 -0.000047 -0.000218 -0.000107 0.094775 -0.000219 0.018511
# 5 0.004846 0.024000 0.013552 -0.000219 0.042064 -0.000080
# 6 -0.000018 -0.000079 -0.000038 0.018511 -0.000080 0.043669
#
#
# Mechanical properties :
#
#
# Convention : Reuss Voigt Hill
#
# Bulk Modulus (GPa) = 11.45343 25.93658 18.69501
# Shear Modulus (GPa) = 19.76592 30.73077 25.24835
#
# Velocity S-wave (km/s) = 2.94413 3.67100 3.32747
# Velocity P-wave (km/s) = 4.07183 5.41685 4.79177
#
# Compressibility (1/GPa) = 0.08731009
#
# Stress axis : x y z
#
# Youngs Moduli (GPa) = 85.42733 30.79158 47.28600
#
# Poissons Ratio (x) = -0.11437 0.09979
# Poissons Ratio (y) = -0.31730 -0.44383
# Poissons Ratio (z) = 0.18028 -0.28901
#
# Static dielectric constant tensor:
#      x y z
#    x 4.522790 0.000000 -0.093340 
#    y 0.000000 3.772060 -0.000010 
#    z -0.093340 -0.000010 3.972510 
# 
# 
# High freq. dielectric constant tensor:
#      x y z
#    x 1.922590 0.000000 -0.009510 
#    y 0.000000 1.872600 0.000000 
#    z -0.009510 0.000000 1.891100 
# 
# From -- ./inp_files/61656.got.cif
#   From: 2010.03.12/outbox.cif.g09.slc.cpg/sg5_31_cif.got.tgz:61656.got - 2010.03.31 09:47:26.
