data_PCOD8049831
_publ_section_title
;
Structure prediction by ZEFSAII (Michael W. Deem and Ramdas Pophale) SiO2 
 PCOD8049831
Probable space group: C 2
;
_chemical_formula_sum "Si O2"
_cell_formula_units_Z 32
_cell_length_a 14.924633
_cell_length_b 13.633865
_cell_length_c 9.662404
_cell_angle_alpha 90.000000
_cell_angle_beta 118.617115
_cell_angle_gamma 90.000000
_cell_volume 1725.930012
_symmetry_space_group_name_H-M "C 2"
_symmetry_group_IT_number 5
_symmetry_cell_setting 'monoclinic'
loop_
_space_group_symop_operation_xyz
x,y,z
-x,y,-z
1/2+x,1/2+y,z
1/2-x,1/2+y,-z
loop_
_atom_site_type_symbol
_atom_site_label
_atom_site_fract_x
_atom_site_fract_y
_atom_site_fract_z
Si Si1 0.752928 0.644870 0.471204
Si Si2 0.620233 0.014062 0.250459
Si Si3 0.233268 0.820331 0.909608
Si Si4 0.747727 0.603812 0.147930
Si Si5 0.716058 0.357698 0.583972
Si Si6 0.938702 0.018116 0.593611
Si Si7 0.577626 0.457052 0.941992
Si Si8 0.386542 0.983884 0.062195
O O1 0.847380 0.607881 0.635247
O O2 0.771256 0.616157 0.326258
O O3 0.758391 0.762157 0.487671
O O4 0.644035 0.604736 0.444301
O O5 0.504952 0.979481 0.183593
O O6 0.684853 0.924285 0.356356
O O7 0.639976 0.037611 0.102979
O O8 0.255747 0.705049 0.942407
O O9 0.191215 0.836045 0.724609
O O10 0.146334 0.864161 0.946556
O O11 0.340742 0.874286 0.018026
O O12 0.839324 0.541715 0.153847
O O13 0.643000 0.544872 0.056022
O O14 0.617692 0.413185 0.451547
O O15 0.000000 0.042984 0.500000
O O16 0.020292 0.010745 0.775102
O O17 0.500000 0.416471 0.000000
#
# Coordination Sequence:
#
# PCOD8049831 Si02
#       8
#     4   4   4   4   4   4   4   4
#     4  10  21  37  59  84 111 146 190 235 271 336
#     4   9  19  37  58  79 109 149 184 230 277 331
#     4   9  19  37  58  82 111 148 186 231 275 336
#     4  10  21  37  57  85 113 146 188 231 282 329
#     4   9  19  37  60  81 109 148 194 224 274 338
#     4  11  21  38  61  84 115 152 188 230 286 340
#     4  11  21  38  57  88 118 145 186 238 284 331
#     4   9  19  37  57  80 111 146 185 227 282 331
#
# _framework density 18.540728999999999
#
# number of rings (size 3 to 8) (size 9 to 14) (size 15 to 20)
#    0.000    2.250    2.500    0.000    1.750    2.500 
#    6.750    0.000    5.500    0.000    0.000    0.000 
#    0.000    0.000    0.000    0.000    0.000    0.000 
#
# Total GULP energy -198364.081964 kJ/mol
# GULP energy per Si atom -12397.755123 kJ/mol
# Density = 1.849853 g / cm^3
# Si number density = 18.540729 Si / 1000 Ang^3
#
#
#
# Elastic Constant Matrix: (Units=GPa)
#
#
# Indices 1 2 3 4 5 6 
#
# 1 108.7830 31.3625 29.2471 0.0000 -5.8488 0.0000
# 2 31.3625 97.4527 17.2053 0.0000 -7.1324 0.0000
# 3 29.2471 17.2053 71.2646 0.0000 3.3871 0.0000
# 4 0.0000 0.0000 0.0000 24.4377 0.0000 -6.3314
# 5 -5.8488 -7.1324 3.3871 0.0000 30.2044 0.0000
# 6 0.0000 0.0000 0.0000 -6.3314 0.0000 17.0642
#
#
#
# Elastic Compliance Matrix: (Units=1/GPa)
#
#
# Indices 1 2 3 4 5 6 
#
# 1 0.011168 -0.002741 -0.004015 0.000000 0.001965 0.000000
# 2 -0.002741 0.011638 -0.001800 0.000000 0.002419 0.000000
# 3 -0.004015 -0.001800 0.016258 0.000000 -0.003026 0.000000
# 4 0.000000 0.000000 0.000000 0.045272 0.000000 0.016798
# 5 0.001965 0.002419 -0.003026 0.000000 0.034399 0.000000
# 6 0.000000 0.000000 0.000000 0.016798 0.000000 0.064835
#
#
# Mechanical properties :
#
#
# Convention : Reuss Voigt Hill
#
# Bulk Modulus (GPa) = 45.55283 48.12555 46.83919
# Shear Modulus (GPa) = 24.03837 27.65361 25.84599
#
# Velocity S-wave (km/s) = 3.60462 3.86619 3.73770
# Velocity P-wave (km/s) = 6.47664 6.77812 6.62909
#
# Compressibility (1/GPa) = 0.02195253
#
# Stress axis : x y z
#
# Youngs Moduli (GPa) = 89.54061 85.92208 61.50713
#
# Poissons Ratio (x) = 0.23555 0.24695
# Poissons Ratio (y) = 0.24547 0.11070
# Poissons Ratio (z) = 0.35950 0.15464
#
# Static dielectric constant tensor:
#      x y z
#    x 3.480010 0.000000 -0.004300 
#    y 0.000000 3.465220 0.000000 
#    z -0.004300 0.000000 3.465510 
# 
# 
# High freq. dielectric constant tensor:
#      x y z
#    x 1.725410 0.000000 0.001180 
#    y 0.000000 1.710310 0.000000 
#    z 0.001180 0.000000 1.722540 
# 
# From -- ./inp_files/24628.got.cif
#   From: 2010.03.12/outbox.cif.g09.slc.cpg/sg5_13_cif.got.tgz:24628.got - 2010.03.31 09:47:26.
