data_PCOD8049068
_publ_section_title
;
Structure prediction by ZEFSAII (Michael W. Deem and Ramdas Pophale) SiO2 
 PCOD8049068
Probable space group: C 2
;
_chemical_formula_sum "Si O2"
_cell_formula_units_Z 28
_cell_length_a 15.492629
_cell_length_b 8.354710
_cell_length_c 11.809640
_cell_angle_alpha 90.000000
_cell_angle_beta 123.363585
_cell_angle_gamma 90.000000
_cell_volume 1276.680944
_symmetry_space_group_name_H-M "C 2"
_symmetry_group_IT_number 5
_symmetry_cell_setting 'monoclinic'
loop_
_space_group_symop_operation_xyz
x,y,z
-x,y,-z
1/2+x,1/2+y,z
1/2-x,1/2+y,-z
loop_
_atom_site_type_symbol
_atom_site_label
_atom_site_fract_x
_atom_site_fract_y
_atom_site_fract_z
Si Si1 0.977313 0.646260 0.603457
Si Si2 0.379885 0.280210 0.921293
Si Si3 0.197774 0.065998 0.705763
Si Si4 0.719015 0.586526 0.223423
Si Si5 0.836249 0.793495 0.147739
Si Si6 0.874357 0.369259 0.442581
Si Si7 0.765401 0.801833 0.448485
O O1 0.974952 0.449049 0.578360
O O2 0.864922 0.702431 0.562112
O O3 0.000000 0.735235 0.500000
O O4 0.058966 0.693844 0.756541
O O5 0.310034 0.146287 0.810383
O O6 0.369961 0.454112 0.854483
O O7 0.500000 0.227950 0.000000
O O8 0.330866 0.309561 0.009833
O O9 0.111413 0.203141 0.615673
O O10 0.159851 0.966300 0.787839
O O11 0.204076 0.960710 0.597571
O O12 0.736555 0.697541 0.124765
O O13 0.831457 0.505521 0.325754
O O14 0.691807 0.696131 0.312514
O O15 0.788070 0.344383 0.474635
#
# Coordination Sequence:
#
# PCOD8049068 Si02
#       7
#     4   4   4   4   4   4   4
#     4  11  20  40  60  92 125 159 196 245 309 365
#     4  11  25  40  64  89 116 160 218 254 292 352
#     4  10  21  40  61  92 120 165 201 246 304 359
#     4   9  20  40  59  84 125 163 194 245 308 352
#     4  11  22  42  65  84 126 166 197 250 303 363
#     4  10  20  35  63  93 126 153 195 246 304 363
#     4  10  20  37  65  89 128 158 192 252 307 356
#
# _framework density 21.931868999999999
#
# number of rings (size 3 to 8) (size 9 to 14) (size 15 to 20)
#    0.000    1.714    4.286    2.571    6.000    0.000 
#    2.571    2.857    3.143    0.000    0.000    0.000 
#    0.000    0.000    0.000    0.000    0.000    0.000 
#
# Total GULP energy -173504.217385 kJ/mol
# GULP energy per Si atom -12393.158385 kJ/mol
# Density = 2.188195 g / cm^3
# Si number density = 21.931869 Si / 1000 Ang^3
#
#
#
# Elastic Constant Matrix: (Units=GPa)
#
#
# Indices 1 2 3 4 5 6 
#
# 1 57.7706 10.2005 9.1554 0.0000 1.1816 0.0000
# 2 10.2005 134.4808 29.7109 0.0000 7.6950 0.0000
# 3 9.1554 29.7109 58.4363 0.0000 7.4228 0.0000
# 4 0.0000 0.0000 0.0000 27.6965 0.0000 3.8315
# 5 1.1816 7.6950 7.4228 0.0000 40.0731 0.0000
# 6 0.0000 0.0000 0.0000 3.8315 0.0000 18.3847
#
#
#
# Elastic Compliance Matrix: (Units=1/GPa)
#
#
# Indices 1 2 3 4 5 6 
#
# 1 0.017832 -0.000831 -0.002381 0.000000 0.000075 0.000000
# 2 -0.000831 0.008443 -0.004055 0.000000 -0.000846 0.000000
# 3 -0.002381 -0.004055 0.019908 0.000000 -0.002839 0.000000
# 4 0.000000 0.000000 0.000000 0.037177 0.000000 -0.007748
# 5 0.000075 -0.000846 -0.002839 0.000000 0.025640 0.000000
# 6 0.000000 0.000000 0.000000 -0.007748 0.000000 0.056008
#
#
# Mechanical properties :
#
#
# Convention : Reuss Voigt Hill
#
# Bulk Modulus (GPa) = 31.59589 38.75792 35.17690
# Shear Modulus (GPa) = 26.30285 30.67226 28.48755
#
# Velocity S-wave (km/s) = 3.46685 3.74374 3.60795
# Velocity P-wave (km/s) = 5.51933 6.03306 5.78190
#
# Compressibility (1/GPa) = 0.03164969
#
# Stress axis : x y z
#
# Youngs Moduli (GPa) = 56.07794 118.43634 50.23083
#
# Poissons Ratio (x) = 0.09840 0.11959
# Poissons Ratio (y) = 0.04659 0.20370
# Poissons Ratio (z) = 0.13352 0.48029
#
# Static dielectric constant tensor:
#      x y z
#    x 3.909990 0.000000 -0.110980 
#    y 0.000000 4.308920 0.000000 
#    z -0.110980 0.000000 3.857540 
# 
# 
# High freq. dielectric constant tensor:
#      x y z
#    x 1.850950 0.000000 -0.014470 
#    y 0.000000 1.875060 0.000000 
#    z -0.014470 0.000000 1.848120 
# 
# From -- ./inp_files/42018.got.cif
#   From: 2010.03.12/outbox.cif.g09.slc.cpg/sg5_22_cif.got.tgz:42018.got - 2010.03.31 09:47:26.
