data_PCOD8049845
_publ_section_title
;
Structure prediction by ZEFSAII (Michael W. Deem and Ramdas Pophale) SiO2 
 PCOD8049845
Probable space group: C 2
;
_chemical_formula_sum "Si O2"
_cell_formula_units_Z 30
_cell_length_a 14.499815
_cell_length_b 5.131272
_cell_length_c 20.508124
_cell_angle_alpha 90.000000
_cell_angle_beta 121.048455
_cell_angle_gamma 90.000000
_cell_volume 1307.248435
_symmetry_space_group_name_H-M "C 2"
_symmetry_group_IT_number 5
_symmetry_cell_setting 'monoclinic'
loop_
_space_group_symop_operation_xyz
x,y,z
-x,y,-z
1/2+x,1/2+y,z
1/2-x,1/2+y,-z
loop_
_atom_site_type_symbol
_atom_site_label
_atom_site_fract_x
_atom_site_fract_y
_atom_site_fract_z
Si Si1 0.272259 0.388110 0.091169
Si Si2 0.500000 0.024555 0.500000
Si Si3 0.698345 0.316866 0.748352
Si Si4 0.623264 0.887924 0.925245
Si Si5 0.177928 0.739311 0.474053
Si Si6 0.145360 0.317189 0.661750
Si Si7 0.428365 0.810349 0.774055
Si Si8 0.383693 0.309242 0.689293
O O1 0.263487 0.333453 0.163768
O O2 0.309710 0.684295 0.094277
O O3 0.353433 0.182993 0.088167
O O4 0.155188 0.352413 0.013043
O O5 0.595447 0.202811 0.504402
O O6 0.551078 0.838916 0.573822
O O7 0.626299 0.558705 0.697715
O O8 0.804458 0.314975 0.744697
O O9 0.634125 0.053571 0.709186
O O10 0.497920 0.829646 0.865965
O O11 0.238519 0.469051 0.477828
O O12 0.111686 0.828322 0.386764
O O13 0.260529 0.315768 0.668112
O O14 0.453999 0.546680 0.744042
O O15 0.450634 0.056323 0.735717
#
# Coordination Sequence:
#
# PCOD8049845 Si02
#       8
#     4   2   4   4   4   4   4   4
#     4  10  21  38  60  89 128 164 205 266 319 368
#     4  12  28  46  74 102 132 184 238 276 360 422
#     4  10  22  40  63  89 127 164 204 273 318 374
#     4  10  21  37  60  90 126 166 209 259 313 391
#     4  12  27  46  71  98 137 178 226 294 343 409
#     4  10  23  41  64  92 127 164 216 272 329 401
#     4  10  21  38  65  90 123 167 211 252 325 389
#     4  10  21  42  64  89 130 170 203 277 332 379
#
# _framework density 22.948968000000001
#
# number of rings (size 3 to 8) (size 9 to 14) (size 15 to 20)
#    0.000    1.600    1.333    2.400    3.733    5.867 
#    0.000    0.000    0.000    9.600    0.000    0.000 
#    0.000    0.000    0.000    0.000    0.000    0.000 
#
# Total GULP energy -185990.139419 kJ/mol
# GULP energy per Si atom -12399.342628 kJ/mol
# Density = 2.289673 g / cm^3
# Si number density = 22.948968 Si / 1000 Ang^3
#
#
#
# Elastic Constant Matrix: (Units=GPa)
#
#
# Indices 1 2 3 4 5 6 
#
# 1 54.1395 21.8227 15.2920 0.0000 1.2560 0.0000
# 2 21.8227 147.5573 44.2270 0.0000 -0.3504 -0.0002
# 3 15.2920 44.2270 171.5873 0.0000 -0.2949 -0.0001
# 4 0.0000 0.0000 0.0000 40.3681 0.0000 2.8479
# 5 1.2560 -0.3504 -0.2949 0.0000 41.2447 0.0000
# 6 0.0000 -0.0002 -0.0001 2.8479 0.0000 8.7200
#
#
#
# Elastic Compliance Matrix: (Units=1/GPa)
#
#
# Indices 1 2 3 4 5 6 
#
# 1 0.019847 -0.002608 -0.001098 0.000000 -0.000634 0.000000
# 2 -0.002608 0.007687 -0.001749 0.000000 0.000132 0.000000
# 3 -0.001098 -0.001749 0.006377 0.000000 0.000064 0.000000
# 4 0.000000 0.000000 0.000000 0.025356 0.000000 -0.008281
# 5 -0.000634 0.000132 0.000064 0.000000 0.024266 0.000000
# 6 0.000000 0.000000 0.000000 -0.008281 0.000000 0.117384
#
#
# Mechanical properties :
#
#
# Convention : Reuss Voigt Hill
#
# Bulk Modulus (GPa) = 43.47418 59.55195 51.51306
# Shear Modulus (GPa) = 22.77981 37.52939 30.15460
#
# Velocity S-wave (km/s) = 3.15402 4.04832 3.62883
# Velocity P-wave (km/s) = 5.67880 6.91794 6.32877
#
# Compressibility (1/GPa) = 0.02300216
#
# Stress axis : x y z
#
# Youngs Moduli (GPa) = 50.38629 130.08725 156.82283
#
# Poissons Ratio (x) = 0.33923 0.17215
# Poissons Ratio (y) = 0.13139 0.27424
# Poissons Ratio (z) = 0.05531 0.22749
#
# Static dielectric constant tensor:
#      x y z
#    x 3.703870 0.000000 0.144340 
#    y 0.000000 4.613460 0.000000 
#    z 0.144340 0.000000 4.316330 
# 
# 
# High freq. dielectric constant tensor:
#      x y z
#    x 1.875440 0.000000 0.011710 
#    y 0.000000 1.922400 0.000000 
#    z 0.011710 0.000000 1.923280 
# 
# From -- ./inp_files/61266.got.cif
#   From: 2010.03.12/outbox.cif.g09.slc.cpg/sg5_31_cif.got.tgz:61266.got - 2010.03.31 09:47:26.
