data_PCOD8049693
_publ_section_title
;
Structure prediction by ZEFSAII (Michael W. Deem and Ramdas Pophale) SiO2 
 PCOD8049693
Probable space group: C 2
;
_chemical_formula_sum "Si O2"
_cell_formula_units_Z 28
_cell_length_a 7.743150
_cell_length_b 11.145012
_cell_length_c 20.256997
_cell_angle_alpha 90.000000
_cell_angle_beta 52.514147
_cell_angle_gamma 90.000000
_cell_volume 1387.146060
_symmetry_space_group_name_H-M "C 2"
_symmetry_group_IT_number 5
_symmetry_cell_setting 'monoclinic'
loop_
_space_group_symop_operation_xyz
x,y,z
-x,y,-z
1/2+x,1/2+y,z
1/2-x,1/2+y,-z
loop_
_atom_site_type_symbol
_atom_site_label
_atom_site_fract_x
_atom_site_fract_y
_atom_site_fract_z
Si Si1 0.089941 0.280260 0.782915
Si Si2 0.738589 0.153497 0.937561
Si Si3 0.116731 0.378289 0.637123
Si Si4 0.760405 0.131219 0.439408
Si Si5 0.291665 0.407768 0.855578
Si Si6 0.000000 0.224447 0.000000
Si Si7 0.209230 0.027098 0.706095
Si Si8 0.500000 0.512655 0.500000
O O1 0.045854 0.350422 0.727019
O O2 0.203566 0.375896 0.804029
O O3 0.221871 0.155016 0.741958
O O4 0.852026 0.249547 0.864535
O O5 0.885855 0.141954 0.970299
O O6 0.699019 0.027949 0.909679
O O7 0.500000 0.209500 0.000000
O O8 0.125941 0.260409 0.590351
O O9 0.356905 0.434022 0.583045
O O10 0.946427 0.471037 0.646997
O O11 0.500000 0.140144 0.500000
O O12 0.851930 0.052348 0.356398
O O13 0.834887 0.085541 0.492958
O O14 0.206137 0.301185 0.923547
O O15 0.548529 0.433705 0.781935
#
# Coordination Sequence:
#
# PCOD8049693 Si02
#       8
#     4   4   4   4   4   2   4   2
#     4   9  22  41  62  89 127 161 210 257 299 374
#     4  10  21  41  63  93 127 164 206 255 307 365
#     4  11  23  41  64  94 123 167 207 255 313 362
#     4  11  23  42  61  93 130 158 211 260 300 374
#     4  10  20  43  62  90 129 163 203 261 305 359
#     4  10  22  40  62  94 128 164 210 254 302 368
#     4  10  22  40  64  90 126 164 208 257 307 364
#     4  12  24  38  66  92 124 172 206 252 320 358
#
# _framework density 20.185327999999998
#
# number of rings (size 3 to 8) (size 9 to 14) (size 15 to 20)
#    0.000    1.714    2.857    0.857    2.000    2.286 
#    9.000    0.000    0.000    0.000    0.000    0.000 
#    0.000    0.000    0.000    0.000    0.000    0.000 
#
# Total GULP energy -173460.530930 kJ/mol
# GULP energy per Si atom -12390.037924 kJ/mol
# Density = 2.013939 g / cm^3
# Si number density = 20.185328 Si / 1000 Ang^3
#
#
#
# Elastic Constant Matrix: (Units=GPa)
#
#
# Indices 1 2 3 4 5 6 
#
# 1 111.4092 58.0032 51.8655 0.0000 2.2258 0.0001
# 2 58.0032 88.7849 35.4080 0.0000 2.2567 0.0001
# 3 51.8655 35.4080 114.5845 0.0001 -4.5617 0.0000
# 4 0.0000 0.0000 0.0001 24.4761 0.0000 3.8830
# 5 2.2258 2.2567 -4.5617 0.0000 38.0929 0.0000
# 6 0.0001 0.0001 0.0000 3.8830 0.0000 23.3493
#
#
#
# Elastic Compliance Matrix: (Units=1/GPa)
#
#
# Indices 1 2 3 4 5 6 
#
# 1 0.015348 -0.008232 -0.004441 0.000000 -0.000941 0.000000
# 2 -0.008232 0.017320 -0.001656 0.000000 -0.000743 0.000000
# 3 -0.004441 -0.001656 0.011317 0.000000 0.001713 0.000000
# 4 0.000000 0.000000 0.000000 0.041963 0.000000 -0.006979
# 5 -0.000941 -0.000743 0.001713 0.000000 0.026556 0.000000
# 6 0.000000 0.000000 0.000000 -0.006979 0.000000 0.043988
#
#
# Mechanical properties :
#
#
# Convention : Reuss Voigt Hill
#
# Bulk Modulus (GPa) = 65.23774 67.25910 66.24842
# Shear Modulus (GPa) = 26.28002 28.48378 27.38190
#
# Velocity S-wave (km/s) = 3.61215 3.76055 3.68710
# Velocity P-wave (km/s) = 7.05595 7.22833 7.14266
#
# Compressibility (1/GPa) = 0.01532855
#
# Stress axis : x y z
#
# Youngs Moduli (GPa) = 65.15597 57.73604 88.36216
#
# Poissons Ratio (x) = 0.47527 0.39239
# Poissons Ratio (y) = 0.53635 0.14630
# Poissons Ratio (z) = 0.28934 0.09559
#
# Static dielectric constant tensor:
#      x y z
#    x 3.622230 0.000000 0.051510 
#    y 0.000000 3.629040 0.000000 
#    z 0.051510 0.000000 4.073290 
# 
# 
# High freq. dielectric constant tensor:
#      x y z
#    x 1.768900 0.000000 0.000060 
#    y 0.000000 1.780440 0.000000 
#    z 0.000060 0.000000 1.819420 
# 
# From -- ./inp_files/50165.got.cif
#   From: 2010.03.12/outbox.cif.g09.slc.cpg/sg5_26_cif.got.tgz:50165.got - 2010.03.31 09:47:26.
