data_PCOD8049681
_publ_section_title
;
Structure prediction by ZEFSAII (Michael W. Deem and Ramdas Pophale) SiO2 
 PCOD8049681
Probable space group: C 2
;
_chemical_formula_sum "Si O2"
_cell_formula_units_Z 32
_cell_length_a 18.498489
_cell_length_b 14.702547
_cell_length_c 12.416916
_cell_angle_alpha 90.000000
_cell_angle_beta 28.211341
_cell_angle_gamma 90.000000
_cell_volume 1596.435323
_symmetry_space_group_name_H-M "C 2"
_symmetry_group_IT_number 5
_symmetry_cell_setting 'monoclinic'
loop_
_space_group_symop_operation_xyz
x,y,z
-x,y,-z
1/2+x,1/2+y,z
1/2-x,1/2+y,-z
loop_
_atom_site_type_symbol
_atom_site_label
_atom_site_fract_x
_atom_site_fract_y
_atom_site_fract_z
Si Si1 0.795708 0.436330 0.546656
Si Si2 0.171374 0.101712 0.822266
Si Si3 0.128918 0.369033 0.127214
Si Si4 0.078878 0.901942 0.639387
Si Si5 0.851020 0.195403 0.754677
Si Si6 0.671484 0.531497 0.060706
Si Si7 0.334139 0.283395 0.671656
Si Si8 0.120282 0.798610 0.928506
O O1 0.782483 0.541278 0.600906
O O2 0.712869 0.431323 0.541705
O O3 0.717031 0.376428 0.742571
O O4 0.964861 0.401024 0.300152
O O5 0.245054 0.199822 0.736774
O O6 0.167187 0.056471 0.942847
O O7 0.000000 0.107459 0.000000
O O8 0.106500 0.289469 0.242952
O O9 0.198249 0.457163 0.092651
O O10 0.235484 0.333089 0.892039
O O11 0.151447 0.851579 0.444664
O O12 0.994632 0.988825 0.696887
O O13 0.956514 0.840188 0.863895
O O14 0.792757 0.119953 0.914752
O O15 0.721921 0.213831 0.834159
O O16 0.000000 0.156750 0.500000
O O17 0.500000 0.253697 0.500000
O O18 0.000000 0.758965 0.000000
#
# Coordination Sequence:
#
# PCOD8049681 Si02
#       8
#     4   4   4   4   4   4   4   4
#     4  11  23  43  72 101 133 177 235 292 331 407
#     4  12  25  45  72 104 137 180 238 288 344 416
#     4  12  26  44  69 104 139 179 231 286 347 408
#     4  11  23  44  70  94 138 185 219 276 356 406
#     4  12  24  42  69 103 132 175 233 279 337 409
#     4  12  25  44  70  98 138 179 228 280 349 409
#     4  12  27  45  68 100 144 183 229 289 352 417
#     4  10  20  42  70  98 129 175 226 282 336 397
#
# _framework density 20.044657999999998
#
# number of rings (size 3 to 8) (size 9 to 14) (size 15 to 20)
#    0.000    0.500    7.500    0.375    5.250    0.000 
#    0.000    1.250    0.000    0.000    0.000    0.000 
#    0.000    0.000    0.000    0.000    0.000    0.000 
#
# Total GULP energy -198427.633284 kJ/mol
# GULP energy per Si atom -12401.727080 kJ/mol
# Density = 1.999904 g / cm^3
# Si number density = 20.044658 Si / 1000 Ang^3
#
#
#
# Elastic Constant Matrix: (Units=GPa)
#
#
# Indices 1 2 3 4 5 6 
#
# 1 108.6919 41.8180 30.1143 0.0000 -6.4262 0.0001
# 2 41.8180 99.8851 18.6696 0.0000 -6.7277 0.0001
# 3 30.1143 18.6696 91.2094 0.0002 -8.2026 0.0000
# 4 0.0000 0.0000 0.0002 29.7861 -0.0002 -6.0164
# 5 -6.4262 -6.7277 -8.2026 -0.0002 30.4597 0.0000
# 6 0.0001 0.0001 0.0000 -6.0164 0.0000 31.2212
#
#
#
# Elastic Compliance Matrix: (Units=1/GPa)
#
#
# Indices 1 2 3 4 5 6 
#
# 1 0.011709 -0.004307 -0.002918 0.000000 0.000733 0.000000
# 2 -0.004307 0.012088 -0.000916 0.000000 0.001515 0.000000
# 3 -0.002918 -0.000916 0.012340 0.000000 0.002505 0.000000
# 4 0.000000 0.000000 0.000000 0.034932 0.000000 0.006732
# 5 0.000733 0.001515 0.002505 0.000000 0.033994 0.000000
# 6 0.000000 0.000000 0.000000 0.006732 0.000000 0.033327
#
#
# Mechanical properties :
#
#
# Convention : Reuss Voigt Hill
#
# Bulk Modulus (GPa) = 50.36765 53.44337 51.90551
# Shear Modulus (GPa) = 30.99959 32.23904 31.61931
#
# Velocity S-wave (km/s) = 3.93686 4.01479 3.97601
# Velocity P-wave (km/s) = 6.77107 6.94344 6.85780
#
# Compressibility (1/GPa) = 0.01985401
#
# Stress axis : x y z
#
# Youngs Moduli (GPa) = 85.40084 82.72618 81.03648
#
# Poissons Ratio (x) = 0.35634 0.23650
# Poissons Ratio (y) = 0.36786 0.07422
# Poissons Ratio (z) = 0.24924 0.07577
#
# Static dielectric constant tensor:
#      x y z
#    x 3.870300 0.000000 -0.165480 
#    y 0.000000 3.565810 0.000000 
#    z -0.165480 0.000000 3.821150 
# 
# 
# High freq. dielectric constant tensor:
#      x y z
#    x 1.802110 0.000000 -0.003050 
#    y 0.000000 1.779340 0.000000 
#    z -0.003050 0.000000 1.781430 
# 
# From -- ./inp_files/44945.got.cif
#   From: 2010.03.12/outbox.cif.g09.slc.cpg/sg5_23_cif.got.tgz:44945.got - 2010.03.31 09:47:26.
