data_PCOD8049176
_publ_section_title
;
Structure prediction by ZEFSAII (Michael W. Deem and Ramdas Pophale) SiO2 
 PCOD8049176
Probable space group: C 2
;
_chemical_formula_sum "Si O2"
_cell_formula_units_Z 28
_cell_length_a 13.962451
_cell_length_b 11.519672
_cell_length_c 17.154139
_cell_angle_alpha 90.000000
_cell_angle_beta 145.897946
_cell_angle_gamma 90.000000
_cell_volume 1546.952563
_symmetry_space_group_name_H-M "C 2"
_symmetry_group_IT_number 5
_symmetry_cell_setting 'monoclinic'
loop_
_space_group_symop_operation_xyz
x,y,z
-x,y,-z
1/2+x,1/2+y,z
1/2-x,1/2+y,-z
loop_
_atom_site_type_symbol
_atom_site_label
_atom_site_fract_x
_atom_site_fract_y
_atom_site_fract_z
Si Si1 0.683852 0.730640 0.768474
Si Si2 0.701300 0.529260 0.011107
Si Si3 0.000000 0.890993 0.000000
Si Si4 0.011660 0.362659 0.232561
Si Si5 0.655275 0.480788 0.804617
Si Si6 0.000000 0.168616 0.500000
Si Si7 0.389321 0.449260 0.496315
Si Si8 0.610016 0.767589 0.004324
O O1 0.557628 0.769867 0.752194
O O2 0.731976 0.594609 0.812810
O O3 0.594494 0.750347 0.625056
O O4 0.850080 0.807203 0.872500
O O5 0.622377 0.513345 0.872080
O O6 0.558570 0.470795 0.968579
O O7 0.887768 0.474185 0.148122
O O8 0.728730 0.664709 0.050481
O O9 0.204634 0.393771 0.384214
O O10 0.014210 0.308448 0.148414
O O11 0.485192 0.440192 0.644333
O O12 0.785539 0.374152 0.889187
O O13 0.133044 0.084920 0.542592
O O14 0.500000 0.388754 0.500000
O O15 0.500000 0.713993 0.000000
#
# Coordination Sequence:
#
# PCOD8049176 Si02
#       8
#     4   4   2   4   4   2   4   4
#     4  10  20  37  57  82 109 144 183 229 268 328
#     4  10  21  39  53  86 113 144 183 223 281 325
#     4  10  22  36  58  80 114 144 180 228 272 330
#     4  10  21  37  59  79 113 147 181 227 278 326
#     4  10  21  37  55  86 106 144 190 225 276 322
#     4   8  20  36  56  80 108 142 184 230 266 320
#     4   9  19  38  56  79 112 141 187 229 267 329
#     4  11  21  35  59  82 115 145 180 234 269 333
#
# _framework density 18.100102
#
# number of rings (size 3 to 8) (size 9 to 14) (size 15 to 20)
#    0.429    1.714    2.143    0.857    1.000    2.286 
#    5.143    0.000    0.000    0.000    0.000    0.000 
#    0.000    0.000    0.000    0.000    0.000    0.000 
#
# Total GULP energy -173521.659655 kJ/mol
# GULP energy per Si atom -12394.404261 kJ/mol
# Density = 1.805891 g / cm^3
# Si number density = 18.100102 Si / 1000 Ang^3
#
#
#
# Elastic Constant Matrix: (Units=GPa)
#
#
# Indices 1 2 3 4 5 6 
#
# 1 82.6294 23.7464 50.0762 -0.0004 -7.5701 0.0000
# 2 23.7464 86.5662 43.3391 -0.0005 -2.0607 0.0000
# 3 50.0762 43.3391 125.6920 -0.0009 -13.4543 0.0000
# 4 -0.0004 -0.0005 -0.0009 14.9937 -0.0002 -0.0461
# 5 -7.5701 -2.0607 -13.4543 -0.0002 35.9729 0.0001
# 6 0.0000 0.0000 0.0000 -0.0461 0.0001 18.2555
#
#
#
# Elastic Compliance Matrix: (Units=1/GPa)
#
#
# Indices 1 2 3 4 5 6 
#
# 1 0.016150 -0.001502 -0.005794 0.000000 0.001146 0.000000
# 2 -0.001502 0.014139 -0.004400 0.000000 -0.001152 0.000000
# 3 -0.005794 -0.004400 0.012109 0.000000 0.003058 0.000000
# 4 0.000000 0.000000 0.000000 0.066695 0.000001 0.000169
# 5 0.001146 -0.001152 0.003058 0.000001 0.029117 0.000000
# 6 0.000000 0.000000 0.000000 0.000169 0.000000 0.054778
#
#
# Mechanical properties :
#
#
# Convention : Reuss Voigt Hill
#
# Bulk Modulus (GPa) = 52.61498 58.80124 55.70811
# Shear Modulus (GPa) = 22.45005 25.69281 24.07143
#
# Velocity S-wave (km/s) = 3.52565 3.77169 3.65074
# Velocity P-wave (km/s) = 6.76059 7.17808 6.97246
#
# Compressibility (1/GPa) = 0.01900599
#
# Stress axis : x y z
#
# Youngs Moduli (GPa) = 61.91925 70.72414 82.58599
#
# Poissons Ratio (x) = 0.10625 0.47847
# Poissons Ratio (y) = 0.09303 0.36338
# Poissons Ratio (z) = 0.35873 0.31119
#
# Static dielectric constant tensor:
#      x y z
#    x 3.358410 0.000000 -0.237390 
#    y 0.000000 3.329740 0.000000 
#    z -0.237390 0.000000 3.227760 
# 
# 
# High freq. dielectric constant tensor:
#      x y z
#    x 1.701630 0.000000 -0.020980 
#    y 0.000000 1.698290 0.000000 
#    z -0.020980 0.000000 1.694890 
# 
# From -- ./inp_files/30851.got.cif
#   From: 2010.03.12/outbox.cif.g09.slc.cpg/sg5_16_cif.got.tgz:30851.got - 2010.03.31 09:47:26.
