data_PCOD8049605
_publ_section_title
;
Structure prediction by ZEFSAII (Michael W. Deem and Ramdas Pophale) SiO2 
 PCOD8049605
Probable space group: C 2
;
_chemical_formula_sum "Si O2"
_cell_formula_units_Z 24
_cell_length_a 14.305488
_cell_length_b 11.645592
_cell_length_c 10.727911
_cell_angle_alpha 90.000000
_cell_angle_beta 139.251140
_cell_angle_gamma 90.000000
_cell_volume 1166.602091
_symmetry_space_group_name_H-M "C 2"
_symmetry_group_IT_number 5
_symmetry_cell_setting 'monoclinic'
loop_
_space_group_symop_operation_xyz
x,y,z
-x,y,-z
1/2+x,1/2+y,z
1/2-x,1/2+y,-z
loop_
_atom_site_type_symbol
_atom_site_label
_atom_site_fract_x
_atom_site_fract_y
_atom_site_fract_z
Si Si1 0.919147 0.653360 0.034165
Si Si2 0.000000 0.265835 0.500000
Si Si3 0.081932 0.094168 0.191973
Si Si4 0.797448 0.859857 0.753572
Si Si5 0.611166 0.568925 0.776956
Si Si6 0.151138 0.734552 0.443777
Si Si7 0.000000 0.872249 0.500000
O O1 0.878748 0.778742 0.935838
O O2 0.781180 0.588426 0.946944
O O3 0.000000 0.587848 0.000000
O O4 0.023062 0.656605 0.258894
O O5 0.129419 0.352027 0.608646
O O6 0.028468 0.180781 0.643717
O O7 0.205766 0.161697 0.388413
O O8 0.958677 0.047840 0.159861
O O9 0.150013 0.989337 0.181408
O O10 0.000000 0.167446 0.000000
O O11 0.818023 0.827652 0.630115
O O12 0.595680 0.452760 0.683304
O O13 0.105493 0.792998 0.526426
#
# Coordination Sequence:
#
# PCOD8049605 Si02
#       7
#     4   2   4   4   4   4   2
#     4   9  21  40  68  91 121 163 208 252 292 369
#     4   9  18  39  68  92 114 165 210 249 282 378
#     4  12  25  41  63  92 126 162 203 259 309 359
#     4  10  20  41  67  92 121 164 209 246 304 366
#     4  10  21  41  67  89 119 164 214 240 303 370
#     4  11  23  41  62  93 130 154 203 262 311 351
#     4  11  24  39  66  88 126 169 196 253 318 360
#
# _framework density 20.572565999999998
#
# number of rings (size 3 to 8) (size 9 to 14) (size 15 to 20)
#    0.000    1.667    3.333    1.500    4.667    0.667 
#    0.000    2.500    0.000    0.000    0.000    0.000 
#    0.000    0.000    0.000    0.000    0.000    0.000 
#
# Total GULP energy -148711.463759 kJ/mol
# GULP energy per Si atom -12392.621980 kJ/mol
# Density = 2.052574 g / cm^3
# Si number density = 20.572566 Si / 1000 Ang^3
#
#
#
# Elastic Constant Matrix: (Units=GPa)
#
#
# Indices 1 2 3 4 5 6 
#
# 1 138.0455 36.8688 62.2808 0.0000 13.8998 0.0000
# 2 36.8688 46.0386 24.5096 0.0000 5.3607 0.0000
# 3 62.2808 24.5096 148.4253 0.0000 8.3539 0.0000
# 4 0.0000 0.0000 0.0000 13.2132 0.0000 1.5269
# 5 13.8998 5.3607 8.3539 0.0000 41.7382 0.0000
# 6 0.0000 0.0000 0.0000 1.5269 0.0000 29.8739
#
#
#
# Elastic Compliance Matrix: (Units=1/GPa)
#
#
# Indices 1 2 3 4 5 6 
#
# 1 0.010688 -0.006571 -0.003284 0.000000 -0.002058 0.000000
# 2 -0.006571 0.028074 -0.001819 0.000000 -0.001053 0.000000
# 3 -0.003284 -0.001819 0.008436 0.000000 -0.000361 0.000000
# 4 0.000000 0.000000 0.000000 0.076132 0.000000 -0.003891
# 5 -0.002058 -0.001053 -0.000361 0.000000 0.024852 0.000000
# 6 0.000000 0.000000 0.000000 -0.003891 0.000000 0.033673
#
#
# Mechanical properties :
#
#
# Convention : Reuss Voigt Hill
#
# Bulk Modulus (GPa) = 41.92921 64.42529 53.17725
# Shear Modulus (GPa) = 23.45731 30.88840 27.17285
#
# Velocity S-wave (km/s) = 3.38038 3.87904 3.63826
# Velocity P-wave (km/s) = 5.97171 7.17264 6.59955
#
# Compressibility (1/GPa) = 0.02384972
#
# Stress axis : x y z
#
# Youngs Moduli (GPa) = 93.56531 35.61953 118.53891
#
# Poissons Ratio (x) = 0.23406 0.38925
# Poissons Ratio (y) = 0.61483 0.21566
# Poissons Ratio (z) = 0.30724 0.06480
#
# Static dielectric constant tensor:
#      x y z
#    x 3.929530 0.000000 0.105320 
#    y 0.000000 3.337260 0.000000 
#    z 0.105320 0.000000 3.887960 
# 
# 
# High freq. dielectric constant tensor:
#      x y z
#    x 1.821740 0.000000 0.006920 
#    y 0.000000 1.767310 0.000000 
#    z 0.006920 0.000000 1.816850 
# 
# From -- ./inp_files/42559.got.cif
#   From: 2010.03.12/outbox.cif.g09.slc.cpg/sg5_22_cif.got.tgz:42559.got - 2010.03.31 09:47:26.
