data_PCOD8049464
_publ_section_title
;
Structure prediction by ZEFSAII (Michael W. Deem and Ramdas Pophale) SiO2 
 PCOD8049464
Probable space group: C 2
;
_chemical_formula_sum "Si O2"
_cell_formula_units_Z 32
_cell_length_a 11.935531
_cell_length_b 14.192605
_cell_length_c 18.570097
_cell_angle_alpha 90.000000
_cell_angle_beta 150.707182
_cell_angle_gamma 90.000000
_cell_volume 1539.109089
_symmetry_space_group_name_H-M "C 2"
_symmetry_group_IT_number 5
_symmetry_cell_setting 'monoclinic'
loop_
_space_group_symop_operation_xyz
x,y,z
-x,y,-z
1/2+x,1/2+y,z
1/2-x,1/2+y,-z
loop_
_atom_site_type_symbol
_atom_site_label
_atom_site_fract_x
_atom_site_fract_y
_atom_site_fract_z
Si Si1 0.359519 0.129020 0.519642
Si Si2 0.531075 0.588347 0.595737
Si Si3 0.135814 0.922255 0.737352
Si Si4 0.137062 0.299023 0.646630
Si Si5 0.147207 0.104633 0.250250
Si Si6 0.218393 0.335933 0.433843
Si Si7 0.960346 0.319286 0.819474
Si Si8 0.587637 0.414335 0.878949
O O1 0.223688 0.085729 0.375432
O O2 0.624318 0.096420 0.671141
O O3 0.367592 0.241205 0.516437
O O4 0.225498 0.102118 0.516606
O O5 0.500000 0.540388 0.500000
O O6 0.695372 0.526642 0.740413
O O7 0.663321 0.686633 0.659917
O O8 0.309449 0.845078 0.804140
O O9 0.150601 0.914355 0.830471
O O10 0.877370 0.912813 0.561303
O O11 0.383634 0.344329 0.782230
O O12 0.000000 0.335565 0.500000
O O13 0.014532 0.328875 0.651615
O O14 0.018402 0.205283 0.170972
O O15 0.973597 0.021002 0.130337
O O16 0.159306 0.361358 0.318792
O O17 0.202788 0.371530 0.959233
#
# Coordination Sequence:
#
# PCOD8049464 Si02
#       8
#     4   4   4   4   4   4   4   4
#     4   9  18  36  65 103 123 164 224 277 319 378
#     4  10  21  35  61 101 135 163 210 279 336 377
#     4  12  22  42  67 100 126 176 222 276 323 394
#     4  10  22  40  64 100 133 169 215 278 328 384
#     4  10  21  40  68  93 131 174 222 270 325 397
#     4  10  20  39  70  94 130 164 221 275 323 379
#     4  11  25  43  64  97 135 176 218 269 335 395
#     4  12  26  41  68  98 132 177 221 269 334 397
#
# _framework density 20.791250000000002
#
# number of rings (size 3 to 8) (size 9 to 14) (size 15 to 20)
#    0.000    1.500    3.750    1.500    3.500    1.500 
#    0.000    0.000    5.500    0.000    0.000    0.000 
#    0.000    0.000    0.000    0.000    0.000    0.000 
#
# Total GULP energy -198402.802670 kJ/mol
# GULP energy per Si atom -12400.175167 kJ/mol
# Density = 2.074393 g / cm^3
# Si number density = 20.791250 Si / 1000 Ang^3
#
#
#
# Elastic Constant Matrix: (Units=GPa)
#
#
# Indices 1 2 3 4 5 6 
#
# 1 102.0538 24.4653 19.1435 0.0023 1.2668 0.0008
# 2 24.4653 102.3510 45.1908 0.0100 7.2245 0.0027
# 3 19.1435 45.1908 87.1874 0.0201 11.2001 0.0059
# 4 0.0023 0.0100 0.0201 28.5286 0.0033 0.4908
# 5 1.2668 7.2245 11.2001 0.0033 19.6315 0.0001
# 6 0.0008 0.0027 0.0059 0.4908 0.0001 27.1636
#
#
#
# Elastic Compliance Matrix: (Units=1/GPa)
#
#
# Indices 1 2 3 4 5 6 
#
# 1 0.010520 -0.001954 -0.001405 0.000001 0.000842 0.000000
# 2 -0.001954 0.013050 -0.006188 0.000000 -0.001146 0.000000
# 3 -0.001405 -0.006188 0.015842 -0.000008 -0.006670 -0.000003
# 4 0.000001 0.000000 -0.000008 0.035064 -0.000001 -0.000634
# 5 0.000842 -0.001146 -0.006670 -0.000001 0.055112 0.000001
# 6 0.000000 0.000000 -0.000003 -0.000634 0.000001 0.036825
#
#
# Mechanical properties :
#
#
# Convention : Reuss Voigt Hill
#
# Bulk Modulus (GPa) = 49.21543 52.13237 50.67390
# Shear Modulus (GPa) = 26.00364 28.58424 27.29394
#
# Velocity S-wave (km/s) = 3.54036 3.71188 3.62713
# Velocity P-wave (km/s) = 6.35884 6.59540 6.47820
#
# Compressibility (1/GPa) = 0.02031883
#
# Stress axis : x y z
#
# Youngs Moduli (GPa) = 95.05451 76.62618 63.12167
#
# Poissons Ratio (x) = 0.14969 0.08872
# Poissons Ratio (y) = 0.18570 0.39060
# Poissons Ratio (z) = 0.13360 0.47417
#
# Static dielectric constant tensor:
#      x y z
#    x 3.907720 -0.000010 -0.009890 
#    y -0.000010 3.947650 -0.000010 
#    z -0.009890 -0.000010 3.461930 
# 
# 
# High freq. dielectric constant tensor:
#      x y z
#    x 1.829040 0.000000 0.004830 
#    y 0.000000 1.825260 0.000000 
#    z 0.004830 0.000000 1.774010 
# 
# From -- ./inp_files/60715.got.cif
#   From: 2010.03.12/outbox.cif.g09.slc.cpg/sg5_31_cif.got.tgz:60715.got - 2010.03.31 09:47:26.
