data_PCOD8049300
_publ_section_title
;
Structure prediction by ZEFSAII (Michael W. Deem and Ramdas Pophale) SiO2 
 PCOD8049300
Probable space group: C 2
;
_chemical_formula_sum "Si O2"
_cell_formula_units_Z 30
_cell_length_a 22.566606
_cell_length_b 8.895280
_cell_length_c 9.818858
_cell_angle_alpha 90.000000
_cell_angle_beta 132.570926
_cell_angle_gamma 90.000000
_cell_volume 1451.524906
_symmetry_space_group_name_H-M "C 2"
_symmetry_group_IT_number 5
_symmetry_cell_setting 'monoclinic'
loop_
_space_group_symop_operation_xyz
x,y,z
-x,y,-z
1/2+x,1/2+y,z
1/2-x,1/2+y,-z
loop_
_atom_site_type_symbol
_atom_site_label
_atom_site_fract_x
_atom_site_fract_y
_atom_site_fract_z
Si Si1 0.359444 0.428950 0.945144
Si Si2 0.000000 0.810653 0.500000
Si Si3 0.323060 0.936376 0.030966
Si Si4 0.934508 0.389987 0.744763
Si Si5 0.646947 0.510075 0.753503
Si Si6 0.905777 0.239738 0.963210
Si Si7 0.044929 0.658180 0.844352
Si Si8 0.679919 0.836017 0.684570
O O1 0.380432 0.570298 0.879207
O O2 0.272778 0.352504 0.780840
O O3 0.366131 0.501575 0.105195
O O4 0.430593 0.306544 0.032183
O O5 0.925262 0.916789 0.426103
O O6 0.986740 0.701286 0.352928
O O7 0.334580 0.947875 0.211840
O O8 0.369790 0.075622 0.039965
O O9 0.230328 0.931627 0.845454
O O10 0.355347 0.781600 0.018762
O O11 0.885729 0.358346 0.808975
O O12 0.876427 0.384193 0.526544
O O13 0.979506 0.552377 0.818178
O O14 0.000449 0.255163 0.846558
O O15 0.652717 0.674677 0.697632
#
# Coordination Sequence:
#
# PCOD8049300 Si02
#       8
#     4   2   4   4   4   4   4   4
#     4  10  21  39  65  90 126 165 214 249 326 371
#     4  10  22  32  62  98 134 144 210 260 326 356
#     4  10  20  38  65  86 129 162 208 248 328 367
#     4  10  24  41  64  89 130 160 224 255 316 362
#     4  10  21  35  60 100 127 161 201 269 309 375
#     4  10  22  44  61  87 127 178 199 262 314 376
#     4  10  20  38  59  95 123 168 199 268 306 378
#     4  11  21  37  66  97 121 164 213 262 308 382
#
# _framework density 20.667919999999999
#
# number of rings (size 3 to 8) (size 9 to 14) (size 15 to 20)
#    0.000    1.867    2.667    0.800    3.733    2.667 
#    2.400    5.333    0.000    0.000    0.000    0.000 
#    0.000    0.000    0.000    0.000    0.000    0.000 
#
# Total GULP energy -185865.933649 kJ/mol
# GULP energy per Si atom -12391.062243 kJ/mol
# Density = 2.062088 g / cm^3
# Si number density = 20.667920 Si / 1000 Ang^3
#
#
#
# Elastic Constant Matrix: (Units=GPa)
#
#
# Indices 1 2 3 4 5 6 
#
# 1 63.2778 37.7547 40.9887 0.0000 2.7383 0.0000
# 2 37.7547 129.1239 46.3966 0.0000 7.8778 0.0000
# 3 40.9887 46.3966 117.6169 0.0000 8.8110 0.0000
# 4 0.0000 0.0000 0.0000 21.6198 0.0000 -2.9226
# 5 2.7383 7.8778 8.8110 0.0000 21.5574 0.0000
# 6 0.0000 0.0000 0.0000 -2.9226 0.0000 27.1469
#
#
#
# Elastic Compliance Matrix: (Units=1/GPa)
#
#
# Indices 1 2 3 4 5 6 
#
# 1 0.022361 -0.004406 -0.006151 0.000000 0.001284 0.000000
# 2 -0.004406 0.009968 -0.002234 0.000000 -0.002170 0.000000
# 3 -0.006151 -0.002234 0.011767 0.000000 -0.003212 0.000000
# 4 0.000000 0.000000 0.000000 0.046937 0.000000 0.005053
# 5 0.001284 -0.002170 -0.003212 0.000000 0.048330 0.000000
# 6 0.000000 0.000000 0.000000 0.005053 0.000000 0.037381
#
#
# Mechanical properties :
#
#
# Convention : Reuss Voigt Hill
#
# Bulk Modulus (GPa) = 54.01181 62.25541 58.13361
# Shear Modulus (GPa) = 23.98104 26.39005 25.18555
#
# Velocity S-wave (km/s) = 3.41002 3.57720 3.49461
# Velocity P-wave (km/s) = 6.45710 6.87378 6.66870
#
# Compressibility (1/GPa) = 0.01851447
#
# Stress axis : x y z
#
# Youngs Moduli (GPa) = 44.72077 100.32122 84.98013
#
# Poissons Ratio (x) = 0.44206 0.52268
# Poissons Ratio (y) = 0.19706 0.18984
# Poissons Ratio (z) = 0.27506 0.22411
#
# Static dielectric constant tensor:
#      x y z
#    x 3.696380 0.000000 0.106630 
#    y 0.000000 3.895950 0.000000 
#    z 0.106630 0.000000 3.655410 
# 
# 
# High freq. dielectric constant tensor:
#      x y z
#    x 1.794950 0.000000 0.011200 
#    y 0.000000 1.815580 0.000000 
#    z 0.011200 0.000000 1.797750 
# 
# From -- ./inp_files/47296.got.cif
#   From: 2010.03.12/outbox.cif.g09.slc.cpg/sg5_24_cif.got.tgz:47296.got - 2010.03.31 09:47:26.
