data_PCOD8049171
_publ_section_title
;
Structure prediction by ZEFSAII (Michael W. Deem and Ramdas Pophale) SiO2 
 PCOD8049171
Probable space group: C 2
;
_chemical_formula_sum "Si O2"
_cell_formula_units_Z 28
_cell_length_a 17.949393
_cell_length_b 5.016749
_cell_length_c 17.683230
_cell_angle_alpha 90.000000
_cell_angle_beta 120.412665
_cell_angle_gamma 90.000000
_cell_volume 1373.230324
_symmetry_space_group_name_H-M "C 2"
_symmetry_group_IT_number 5
_symmetry_cell_setting 'monoclinic'
loop_
_space_group_symop_operation_xyz
x,y,z
-x,y,-z
1/2+x,1/2+y,z
1/2-x,1/2+y,-z
loop_
_atom_site_type_symbol
_atom_site_label
_atom_site_fract_x
_atom_site_fract_y
_atom_site_fract_z
Si Si1 0.232772 0.310780 0.807678
Si Si2 0.432069 0.909341 0.790164
Si Si3 0.003645 0.905182 0.911134
Si Si4 0.745555 0.310489 0.721514
Si Si5 0.052778 0.849212 0.602459
Si Si6 0.540336 0.848519 0.697164
Si Si7 0.700559 0.350680 0.002822
O O1 0.251404 0.499671 0.745834
O O2 0.134540 0.360359 0.783750
O O3 0.247787 0.000769 0.796628
O O4 0.296304 0.406568 0.906188
O O5 0.468567 0.689760 0.866617
O O6 0.330788 0.874480 0.717126
O O7 0.474507 0.902923 0.730235
O O8 0.443909 0.186424 0.840262
O O9 0.100573 0.866437 0.928010
O O10 0.000000 0.881404 0.000000
O O11 0.654815 0.370170 0.632620
O O12 0.029812 0.564009 0.625450
O O13 0.000000 0.900417 0.500000
O O14 0.024952 0.063260 0.650998
O O15 0.759353 0.558766 0.988085
#
# Coordination Sequence:
#
# PCOD8049171 Si02
#       7
#     4   4   4   4   4   4   4
#     4  10  20  37  54  77 107 148 193 227 275 342
#     4  12  23  40  57  85 118 152 196 237 284 343
#     4  12  25  39  57  83 119 159 196 243 287 325
#     4  10  21  37  60  79 109 150 184 224 280 345
#     4  10  21  40  63  89 114 144 186 231 285 352
#     4  10  21  37  61  85 114 150 184 234 288 337
#     4  12  23  36  55  80 109 147 194 244 282 318
#
# _framework density 20.389878
#
# number of rings (size 3 to 8) (size 9 to 14) (size 15 to 20)
#    0.000    1.143    0.000    7.714    0.000    2.286 
#    0.000    1.429    0.000    0.000    0.000    0.000 
#    0.000    0.000    0.000    0.000    0.000    0.000 
#
# Total GULP energy -173614.489958 kJ/mol
# GULP energy per Si atom -12401.034997 kJ/mol
# Density = 2.034347 g / cm^3
# Si number density = 20.389878 Si / 1000 Ang^3
#
#
#
# Elastic Constant Matrix: (Units=GPa)
#
#
# Indices 1 2 3 4 5 6 
#
# 1 129.5329 7.6414 28.8544 0.0022 10.0157 -0.0061
# 2 7.6414 81.5453 6.2876 0.0051 2.7330 -0.0136
# 3 28.8544 6.2876 79.3998 0.0010 12.0080 -0.0003
# 4 0.0022 0.0051 0.0010 24.8753 0.0005 2.3385
# 5 10.0157 2.7330 12.0080 0.0005 26.9296 0.0001
# 6 -0.0061 -0.0136 -0.0003 2.3385 0.0001 26.9181
#
#
#
# Elastic Compliance Matrix: (Units=1/GPa)
#
#
# Indices 1 2 3 4 5 6 
#
# 1 0.008513 -0.000521 -0.002768 -0.000001 -0.001879 0.000002
# 2 -0.000521 0.012390 -0.000676 -0.000003 -0.000762 0.000006
# 3 -0.002768 -0.000676 0.014463 0.000000 -0.005351 -0.000001
# 4 -0.000001 -0.000003 0.000000 0.040532 0.000000 -0.003521
# 5 -0.001879 -0.000762 -0.005351 0.000000 0.040296 -0.000001
# 6 0.000002 0.000006 -0.000001 -0.003521 -0.000001 0.037456
#
#
# Mechanical properties :
#
#
# Convention : Reuss Voigt Hill
#
# Bulk Modulus (GPa) = 36.45133 41.78274 39.11704
# Shear Modulus (GPa) = 29.28683 32.25757 30.77220
#
# Velocity S-wave (km/s) = 3.79402 3.98180 3.88904
# Velocity P-wave (km/s) = 6.09170 6.45570 6.27634
#
# Compressibility (1/GPa) = 0.02743384
#
# Stress axis : x y z
#
# Youngs Moduli (GPa) = 117.47158 80.71243 69.14064
#
# Poissons Ratio (x) = 0.04207 0.19139
# Poissons Ratio (y) = 0.06124 0.04677
# Poissons Ratio (z) = 0.32518 0.05460
#
# Static dielectric constant tensor:
#      x y z
#    x 3.824550 0.000000 0.272550 
#    y 0.000000 3.867780 0.000000 
#    z 0.272550 0.000000 3.393310 
# 
# 
# High freq. dielectric constant tensor:
#      x y z
#    x 1.803840 0.000000 0.014240 
#    y 0.000000 1.817320 0.000000 
#    z 0.014240 0.000000 1.768080 
# 
# From -- ./inp_files/55495.got.cif
#   From: 2010.03.12/outbox.cif.g09.slc.cpg/sg5_28_cif.got.tgz:55495.got - 2010.03.31 09:47:26.
