data_PCOD8049917
_publ_section_title
;
Structure prediction by ZEFSAII (Michael W. Deem and Ramdas Pophale) SiO2 
 PCOD8049917
Probable space group: C 2
;
_chemical_formula_sum "Si O2"
_cell_formula_units_Z 30
_cell_length_a 20.629792
_cell_length_b 9.035187
_cell_length_c 17.482055
_cell_angle_alpha 90.000000
_cell_angle_beta 28.138171
_cell_angle_gamma 90.000000
_cell_volume 1536.730724
_symmetry_space_group_name_H-M "C 2"
_symmetry_group_IT_number 5
_symmetry_cell_setting 'monoclinic'
loop_
_space_group_symop_operation_xyz
x,y,z
-x,y,-z
1/2+x,1/2+y,z
1/2-x,1/2+y,-z
loop_
_atom_site_type_symbol
_atom_site_label
_atom_site_fract_x
_atom_site_fract_y
_atom_site_fract_z
Si Si1 0.407269 0.794510 0.299720
Si Si2 0.736538 0.482836 0.928538
Si Si3 0.664124 0.075081 0.550123
Si Si4 0.000000 0.142227 0.500000
Si Si5 0.016704 0.348361 0.616677
Si Si6 0.896710 0.747371 0.825116
Si Si7 0.404256 0.706959 0.028165
Si Si8 0.875436 0.860555 0.678591
O O1 0.306934 0.656908 0.388616
O O2 0.487891 0.764475 0.295949
O O3 0.326575 0.952053 0.391044
O O4 0.515862 0.805298 0.118033
O O5 0.865553 0.406606 0.752383
O O6 0.792453 0.608350 0.928785
O O7 0.640595 0.552320 0.963026
O O8 0.649302 0.361794 0.063317
O O9 0.547125 0.193085 0.693783
O O10 0.621314 0.988389 0.516189
O O11 0.067212 0.241145 0.496977
O O12 0.878478 0.038248 0.660726
O O13 0.903326 0.829842 0.737716
O O14 0.271451 0.797945 0.195215
O O15 0.500000 0.671127 0.000000
O O16 0.000000 0.785572 0.500000
#
# Coordination Sequence:
#
# PCOD8049917 Si02
#       8
#     4   4   4   2   4   4   4   4
#     4  10  23  42  63  93 131 173 218 265 331 386
#     4  10  22  39  66  93 128 166 217 281 317 394
#     4   9  23  38  63  96 126 175 211 276 317 398
#     4  10  22  38  70  92 132 166 220 278 320 394
#     4   9  21  40  59 101 122 168 219 269 322 383
#     4  10  21  38  64  95 124 166 222 269 324 385
#     4  11  25  41  63  96 132 176 215 271 333 392
#     4   9  23  38  63  95 126 175 213 270 323 386
#
# _framework density 19.521961999999998
#
# number of rings (size 3 to 8) (size 9 to 14) (size 15 to 20)
#    1.200    1.067    0.000    1.600    7.467    2.133 
#    8.400    0.000    0.000    1.600    0.000    0.000 
#    0.000    0.000    0.000    0.000    0.000    0.000 
#
# Total GULP energy -185909.573486 kJ/mol
# GULP energy per Si atom -12393.971566 kJ/mol
# Density = 1.947753 g / cm^3
# Si number density = 19.521962 Si / 1000 Ang^3
#
#
#
# Elastic Constant Matrix: (Units=GPa)
#
#
# Indices 1 2 3 4 5 6 
#
# 1 93.4949 41.4433 33.3166 0.0000 -6.5936 0.0000
# 2 41.4433 118.1406 54.1911 0.0002 -2.0600 -0.0001
# 3 33.3166 54.1911 94.5924 0.0001 -11.4261 0.0000
# 4 0.0000 0.0002 0.0001 36.9161 -0.0001 1.8647
# 5 -6.5936 -2.0600 -11.4261 -0.0001 24.5459 0.0000
# 6 0.0000 -0.0001 0.0000 1.8647 0.0000 30.8592
#
#
#
# Elastic Compliance Matrix: (Units=1/GPa)
#
#
# Indices 1 2 3 4 5 6 
#
# 1 0.013259 -0.003514 -0.002397 0.000000 0.002151 0.000000
# 2 -0.003514 0.012529 -0.006280 0.000000 -0.002816 0.000000
# 3 -0.002397 -0.006280 0.015758 0.000000 0.006165 0.000000
# 4 0.000000 0.000000 0.000000 0.027171 0.000000 -0.001642
# 5 0.002151 -0.002816 0.006165 0.000000 0.043951 0.000000
# 6 0.000000 0.000000 0.000000 -0.001642 0.000000 0.032505
#
#
# Mechanical properties :
#
#
# Convention : Reuss Voigt Hill
#
# Bulk Modulus (GPa) = 58.26167 62.68110 60.47138
# Shear Modulus (GPa) = 28.52618 30.28268 29.40443
#
# Velocity S-wave (km/s) = 3.82676 3.94281 3.88522
# Velocity P-wave (km/s) = 7.03096 7.27361 7.15331
#
# Compressibility (1/GPa) = 0.01716394
#
# Stress axis : x y z
#
# Youngs Moduli (GPa) = 75.41803 79.81568 63.45856
#
# Poissons Ratio (x) = 0.28050 0.15211
# Poissons Ratio (y) = 0.26505 0.39852
# Poissons Ratio (z) = 0.18077 0.50124
#
# Static dielectric constant tensor:
#      x y z
#    x 3.346930 0.000000 -0.064290 
#    y 0.000000 3.598400 0.000000 
#    z -0.064290 0.000000 3.443510 
# 
# 
# High freq. dielectric constant tensor:
#      x y z
#    x 1.741620 0.000000 -0.003780 
#    y 0.000000 1.762280 0.000000 
#    z -0.003780 0.000000 1.753450 
# 
# From -- ./inp_files/62762.got.cif
#   From: 2010.03.12/outbox.cif.g09.slc.cpg/sg5_32_cif.got.tgz:62762.got - 2010.03.31 09:47:26.
