data_PCOD8049358
_publ_section_title
;
Structure prediction by ZEFSAII (Michael W. Deem and Ramdas Pophale) SiO2 
 PCOD8049358
Probable space group: C 2
;
_chemical_formula_sum "Si O2"
_cell_formula_units_Z 20
_cell_length_a 9.095994
_cell_length_b 10.219490
_cell_length_c 11.457683
_cell_angle_alpha 90.000000
_cell_angle_beta 78.477798
_cell_angle_gamma 90.000000
_cell_volume 1043.601332
_symmetry_space_group_name_H-M "C 2"
_symmetry_group_IT_number 5
_symmetry_cell_setting 'monoclinic'
loop_
_space_group_symop_operation_xyz
x,y,z
-x,y,-z
1/2+x,1/2+y,z
1/2-x,1/2+y,-z
loop_
_atom_site_type_symbol
_atom_site_label
_atom_site_fract_x
_atom_site_fract_y
_atom_site_fract_z
Si Si1 0.602257 0.257110 0.737771
Si Si2 0.053489 0.494295 0.860445
Si Si3 0.331433 0.821269 0.524257
Si Si4 0.262490 0.288275 0.719431
Si Si5 0.276490 0.995754 0.733838
O O1 0.616081 0.139989 0.828081
O O2 0.718318 0.225162 0.613032
O O3 0.439240 0.281564 0.710826
O O4 0.649953 0.391853 0.794924
O O5 0.181592 0.384912 0.822719
O O6 0.917271 0.472292 0.794488
O O7 0.000000 0.482457 0.000000
O O8 0.500000 0.762536 0.500000
O O9 0.273295 0.841338 0.403146
O O10 0.329454 0.961934 0.592320
O O11 0.203775 0.139917 0.748484
#
# Coordination Sequence:
#
# PCOD8049358 Si02
#       5
#     4   4   4   4   4
#     4   9  23  40  62  92 126 163 207 252 312 369
#     4  11  24  43  64  88 127 172 211 255 306 365
#     4  10  20  38  64  91 132 156 199 255 319 370
#     4  11  21  39  65  94 122 167 206 257 314 367
#     4   9  23  40  58  92 126 162 203 258 306 364
#
# _framework density 19.164407000000001
#
# number of rings (size 3 to 8) (size 9 to 14) (size 15 to 20)
#    1.200    0.800    2.000    0.600    2.800    6.400 
#    0.000    1.000    0.000    0.000    0.000    0.000 
#    0.000    0.000    0.000    0.000    0.000    0.000 
#
# Total GULP energy -123922.938754 kJ/mol
# GULP energy per Si atom -12392.293875 kJ/mol
# Density = 1.912079 g / cm^3
# Si number density = 19.164407 Si / 1000 Ang^3
#
#
#
# Elastic Constant Matrix: (Units=GPa)
#
#
# Indices 1 2 3 4 5 6 
#
# 1 102.0730 70.4560 50.3024 0.0000 -12.4944 0.0000
# 2 70.4560 145.6529 52.5677 0.0000 -8.2213 0.0000
# 3 50.3024 52.5677 105.9505 0.0000 -25.4090 0.0000
# 4 0.0000 0.0000 0.0000 26.8853 0.0000 -4.0401
# 5 -12.4944 -8.2213 -25.4090 0.0000 22.0955 0.0000
# 6 0.0000 0.0000 0.0000 -4.0401 0.0000 31.7575
#
#
#
# Elastic Compliance Matrix: (Units=1/GPa)
#
#
# Indices 1 2 3 4 5 6 
#
# 1 0.016502 -0.006359 -0.004155 0.000000 0.002187 0.000000
# 2 -0.006359 0.010899 -0.003146 0.000000 -0.003158 0.000000
# 3 -0.004155 -0.003146 0.016746 0.000000 0.015737 0.000000
# 4 0.000000 0.000000 0.000000 0.037920 0.000000 0.004824
# 5 0.002187 -0.003158 0.015737 0.000000 0.063417 0.000000
# 6 0.000000 0.000000 0.000000 0.004824 0.000000 0.032102
#
#
# Mechanical properties :
#
#
# Convention : Reuss Voigt Hill
#
# Bulk Modulus (GPa) = 59.42939 77.81428 68.62184
# Shear Modulus (GPa) = 23.75141 28.17101 25.96121
#
# Velocity S-wave (km/s) = 3.52426 3.83817 3.68456
# Velocity P-wave (km/s) = 6.90204 7.76748 7.34751
#
# Compressibility (1/GPa) = 0.01682669
#
# Stress axis : x y z
#
# Youngs Moduli (GPa) = 60.59987 91.75286 59.71659
#
# Poissons Ratio (x) = 0.58348 0.24811
# Poissons Ratio (y) = 0.38537 0.18785
# Poissons Ratio (z) = 0.25178 0.28862
#
# Static dielectric constant tensor:
#      x y z
#    x 3.508530 0.000000 0.020870 
#    y 0.000000 3.600880 0.000000 
#    z 0.020870 0.000000 3.938300 
# 
# 
# High freq. dielectric constant tensor:
#      x y z
#    x 1.751850 0.000000 0.003960 
#    y 0.000000 1.743130 0.000000 
#    z 0.003960 0.000000 1.728460 
# 
# From -- ./inp_files/34954.got.cif
#   From: 2010.03.12/outbox.cif.g09.slc.cpg/sg5_18_cif.got.tgz:34954.got - 2010.03.31 09:47:26.
