data_PCOD8049234
_publ_section_title
;
Structure prediction by ZEFSAII (Michael W. Deem and Ramdas Pophale) SiO2 
 PCOD8049234
Probable space group: C 2
;
_chemical_formula_sum "Si O2"
_cell_formula_units_Z 28
_cell_length_a 12.064797
_cell_length_b 12.773917
_cell_length_c 10.379304
_cell_angle_alpha 90.000000
_cell_angle_beta 60.039658
_cell_angle_gamma 90.000000
_cell_volume 1385.850513
_symmetry_space_group_name_H-M "C 2"
_symmetry_group_IT_number 5
_symmetry_cell_setting 'monoclinic'
loop_
_space_group_symop_operation_xyz
x,y,z
-x,y,-z
1/2+x,1/2+y,z
1/2-x,1/2+y,-z
loop_
_atom_site_type_symbol
_atom_site_label
_atom_site_fract_x
_atom_site_fract_y
_atom_site_fract_z
Si Si1 0.352556 0.172370 0.828286
Si Si2 0.588486 0.604539 0.075767
Si Si3 0.442026 0.669061 0.401613
Si Si4 0.693320 0.239521 0.422512
Si Si5 0.326128 0.447857 0.460534
Si Si6 0.010374 0.876605 0.142975
Si Si7 0.944090 0.546226 0.403112
O O1 0.284701 0.193111 0.730666
O O2 0.422552 0.277949 0.830460
O O3 0.445848 0.068394 0.768690
O O4 0.233829 0.143359 0.985875
O O5 0.537455 0.671687 0.225610
O O6 0.595534 0.481291 0.104528
O O7 0.500000 0.623140 0.000000
O O8 0.500000 0.716338 0.500000
O O9 0.322412 0.739718 0.431624
O O10 0.402599 0.550210 0.454731
O O11 0.643229 0.358917 0.451267
O O12 0.590638 0.167585 0.552612
O O13 0.373099 0.404466 0.292164
O O14 0.175314 0.474117 0.562833
O O15 0.000000 0.845612 0.000000
O O16 0.000000 0.494095 0.500000
#
# Coordination Sequence:
#
# PCOD8049234 Si02
#       7
#     4   4   4   4   4   4   4
#     4  11  21  41  64  88 121 166 209 248 312 377
#     4  10  21  42  62  87 127 165 201 251 313 376
#     4  10  22  37  61  92 121 160 203 256 305 360
#     4  10  20  37  62  88 120 156 203 250 308 370
#     4  10  21  38  60  90 122 151 208 257 310 363
#     4  10  23  38  61  87 119 167 205 257 316 373
#     4   9  20  35  61  90 114 158 199 252 300 369
#
# _framework density 20.204198999999999
#
# number of rings (size 3 to 8) (size 9 to 14) (size 15 to 20)
#    0.000    2.000    2.857    0.000   10.000    1.714 
#    2.571    0.000    0.000    0.000    0.000    0.000 
#    0.000    0.000    0.000    0.000    0.000    0.000 
#
# Total GULP energy -173442.032610 kJ/mol
# GULP energy per Si atom -12388.716615 kJ/mol
# Density = 2.015821 g / cm^3
# Si number density = 20.204199 Si / 1000 Ang^3
#
#
#
# Elastic Constant Matrix: (Units=GPa)
#
#
# Indices 1 2 3 4 5 6 
#
# 1 85.4769 6.4304 36.9523 0.0000 -7.6172 0.0000
# 2 6.4304 63.5845 8.8689 0.0000 -8.5847 0.0000
# 3 36.9523 8.8689 97.6118 0.0000 -11.4728 0.0000
# 4 0.0000 0.0000 0.0000 19.4027 0.0000 -6.2187
# 5 -7.6172 -8.5847 -11.4728 0.0000 34.9433 0.0000
# 6 0.0000 0.0000 0.0000 -6.2187 0.0000 0.8484
#
#
#
# Elastic Compliance Matrix: (Units=1/GPa)
#
#
# Indices 1 2 3 4 5 6 
#
# 1 0.014069 -0.000538 -0.005130 0.000000 0.001250 0.000000
# 2 -0.000538 0.016391 -0.000859 0.000000 0.003627 0.000000
# 3 -0.005130 -0.000859 0.012595 0.000000 0.002806 0.000000
# 4 0.000000 0.000000 0.000000 -0.038194 0.000000 -0.279973
# 5 0.001250 0.003627 0.002806 0.000000 0.030703 0.000000
# 6 0.000000 0.000000 0.000000 -0.279973 0.000000 -0.873530
#
#
# Mechanical properties :
#
#
# Convention : Reuss Voigt Hill
#
# Bulk Modulus (GPa) = 33.33415 39.01957 36.17686
# Shear Modulus (GPa) = -6.13563 24.00030 8.93233
#
# Velocity S-wave (km/s) = -1.74454 3.45031 2.10490
# Velocity P-wave (km/s) = 3.53222 5.93527 4.88385
#
# Compressibility (1/GPa) = 0.02999926
#
# Stress axis : x y z
#
# Youngs Moduli (GPa) = 71.07959 61.00857 79.39941
#
# Poissons Ratio (x) = 0.03285 0.40732
# Poissons Ratio (y) = 0.03827 0.06821
# Poissons Ratio (z) = 0.36464 0.05241
#
# Static dielectric constant tensor:
#      x y z
#    x 3.638030 0.000000 -0.116290 
#    y 0.000000 3.503290 0.000000 
#    z -0.116290 0.000000 3.768940 
# 
# 
# High freq. dielectric constant tensor:
#      x y z
#    x 1.779530 0.000000 -0.014690 
#    y 0.000000 1.782740 0.000000 
#    z -0.014690 0.000000 1.787120 
# 
# From -- ./inp_files/20424.got.cif
#   From: 2010.03.12/outbox.cif.g09.slc.cpg/sg5_11_cif.got.tgz:20424.got - 2010.03.31 09:47:26.
