data_PCOD8049815
_publ_section_title
;
Structure prediction by ZEFSAII (Michael W. Deem and Ramdas Pophale) SiO2 
 PCOD8049815
Probable space group: C 2
;
_chemical_formula_sum "Si O2"
_cell_formula_units_Z 32
_cell_length_a 16.481687
_cell_length_b 8.788899
_cell_length_c 10.579350
_cell_angle_alpha 90.000000
_cell_angle_beta 89.224538
_cell_angle_gamma 90.000000
_cell_volume 1532.340722
_symmetry_space_group_name_H-M "C 2"
_symmetry_group_IT_number 5
_symmetry_cell_setting 'monoclinic'
loop_
_space_group_symop_operation_xyz
x,y,z
-x,y,-z
1/2+x,1/2+y,z
1/2-x,1/2+y,-z
loop_
_atom_site_type_symbol
_atom_site_label
_atom_site_fract_x
_atom_site_fract_y
_atom_site_fract_z
Si Si1 0.537428 0.398440 0.624385
Si Si2 0.799374 0.730650 0.398433
Si Si3 0.432310 0.493816 0.102651
Si Si4 0.304402 0.005248 0.630623
Si Si5 0.861598 0.502236 0.205866
Si Si6 0.033413 0.606625 0.263397
Si Si7 0.212130 0.190861 0.836394
Si Si8 0.627740 0.195319 0.020271
O O1 0.500000 0.482732 0.500000
O O2 0.629032 0.353116 0.589397
O O3 0.535146 0.501057 0.752430
O O4 0.482365 0.248816 0.644952
O O5 0.797488 0.610964 0.510200
O O6 0.807380 0.633807 0.270456
O O7 0.717066 0.830084 0.399276
O O8 0.359976 0.613830 0.082422
O O9 0.500000 0.542308 0.000000
O O10 0.400765 0.323549 0.077754
O O11 0.395841 0.003161 0.680695
O O12 0.242333 0.067751 0.735703
O O13 0.821952 0.339525 0.233776
O O14 0.953359 0.502716 0.257042
O O15 0.862550 0.537401 0.056002
O O16 0.058394 0.674061 0.126603
O O17 0.286144 0.243459 0.923085
#
# Coordination Sequence:
#
# PCOD8049815 Si02
#       8
#     4   4   4   4   4   4   4   4
#     4  11  20  39  66  95 124 176 219 261 319 406
#     4  11  22  38  67  87 129 164 221 264 331 387
#     4  12  22  42  68  95 127 173 223 274 322 394
#     4  11  22  41  62  94 120 169 213 271 320 395
#     4  11  22  40  60  89 125 168 208 271 327 388
#     4  10  21  36  66  87 121 166 220 254 323 397
#     4  11  25  39  60  93 134 159 211 276 333 381
#     4  11  20  39  64  90 120 170 218 262 328 397
#
# _framework density 20.883082999999999
#
# number of rings (size 3 to 8) (size 9 to 14) (size 15 to 20)
#    0.000    1.000    6.250    1.875    0.000    2.000 
#    0.000    2.500    0.000    0.000    0.000    0.000 
#    0.000    0.000    0.000    0.000    0.000    0.000 
#
# Total GULP energy -198444.529987 kJ/mol
# GULP energy per Si atom -12402.783124 kJ/mol
# Density = 2.083555 g / cm^3
# Si number density = 20.883083 Si / 1000 Ang^3
#
#
#
# Elastic Constant Matrix: (Units=GPa)
#
#
# Indices 1 2 3 4 5 6 
#
# 1 95.3863 35.6433 35.3198 0.0000 -3.3554 0.0000
# 2 35.6433 65.7642 16.4108 0.0000 9.9581 0.0000
# 3 35.3198 16.4108 109.1070 0.0000 7.0348 0.0000
# 4 0.0000 0.0000 0.0000 14.0909 0.0000 3.5927
# 5 -3.3554 9.9581 7.0348 0.0000 26.9938 0.0000
# 6 0.0000 0.0000 0.0000 3.5927 0.0000 28.4930
#
#
#
# Elastic Compliance Matrix: (Units=1/GPa)
#
#
# Indices 1 2 3 4 5 6 
#
# 1 0.015257 -0.008151 -0.004098 0.000000 0.005971 0.000000
# 2 -0.008151 0.020935 0.000054 0.000000 -0.008750 0.000000
# 3 -0.004098 0.000054 0.010698 0.000000 -0.003317 0.000000
# 4 0.000000 0.000000 0.000000 0.073325 0.000000 -0.009246
# 5 0.005971 -0.008750 -0.003317 0.000000 0.041880 0.000000
# 6 0.000000 0.000000 0.000000 -0.009246 0.000000 0.036262
#
#
# Mechanical properties :
#
#
# Convention : Reuss Voigt Hill
#
# Bulk Modulus (GPa) = 44.44449 49.44502 46.94476
# Shear Modulus (GPa) = 21.71588 26.10777 23.91183
#
# Velocity S-wave (km/s) = 3.22821 3.53964 3.38751
# Velocity P-wave (km/s) = 5.93497 6.35876 6.15052
#
# Compressibility (1/GPa) = 0.02249998
#
# Stress axis : x y z
#
# Youngs Moduli (GPa) = 65.54475 47.76729 93.47827
#
# Poissons Ratio (x) = 0.38933 0.38307
# Poissons Ratio (y) = 0.53422 -0.00503
# Poissons Ratio (z) = 0.26860 -0.00257
#
# Static dielectric constant tensor:
#      x y z
#    x 3.898950 0.000000 -0.080070 
#    y 0.000000 3.412090 0.000000 
#    z -0.080070 0.000000 3.911440 
# 
# 
# High freq. dielectric constant tensor:
#      x y z
#    x 1.827260 0.000000 -0.003830 
#    y 0.000000 1.786820 0.000000 
#    z -0.003830 0.000000 1.827210 
# 
# From -- ./inp_files/41984.got.cif
#   From: 2010.03.12/outbox.cif.g09.slc.cpg/sg5_21_cif.got.tgz:41984.got - 2010.03.31 09:47:26.
