data_PCOD8049054
_publ_section_title
;
Structure prediction by ZEFSAII (Michael W. Deem and Ramdas Pophale) SiO2 
 PCOD8049054
Probable space group: C 2
;
_chemical_formula_sum "Si O2"
_cell_formula_units_Z 32
_cell_length_a 19.672333
_cell_length_b 8.210616
_cell_length_c 14.663617
_cell_angle_alpha 90.000000
_cell_angle_beta 138.185523
_cell_angle_gamma 90.000000
_cell_volume 1579.125794
_symmetry_space_group_name_H-M "C 2"
_symmetry_group_IT_number 5
_symmetry_cell_setting 'monoclinic'
loop_
_space_group_symop_operation_xyz
x,y,z
-x,y,-z
1/2+x,1/2+y,z
1/2-x,1/2+y,-z
loop_
_atom_site_type_symbol
_atom_site_label
_atom_site_fract_x
_atom_site_fract_y
_atom_site_fract_z
Si Si1 0.700447 0.334320 0.353709
Si Si2 0.476335 0.376795 0.074241
Si Si3 0.976325 0.647366 0.378423
Si Si4 0.299567 0.189852 0.452874
Si Si5 0.281175 0.194714 0.820742
Si Si6 0.663778 0.898228 0.844643
Si Si7 0.281154 0.329425 0.241649
Si Si8 0.836218 0.126030 0.017002
O O1 0.577709 0.323893 0.228208
O O2 0.738089 0.262044 0.488056
O O3 0.750017 0.512085 0.391347
O O4 0.735391 0.222974 0.303673
O O5 0.500000 0.456463 0.000000
O O6 0.396196 0.228630 0.974068
O O7 0.433388 0.517320 0.094800
O O8 0.933417 0.506813 0.272018
O O9 0.896166 0.795504 0.318308
O O10 0.000000 0.567713 0.500000
O O11 0.077696 0.700307 0.427183
O O12 0.264624 0.301269 0.332983
O O13 0.206397 0.322079 0.794292
O O14 0.250027 0.012048 0.814609
O O15 0.749976 0.012212 0.977388
O O16 0.627113 0.762224 0.877218
O O17 0.206376 0.201969 0.118620
#
# Coordination Sequence:
#
# PCOD8049054 Si02
#       8
#     4   4   4   4   4   4   4   4
#     4  11  23  40  59  82 117 158 196 234 280 339
#     4   9  20  39  58  82 117 153 190 238 289 338
#     4   9  20  39  58  82 117 153 190 238 289 338
#     4  11  23  40  59  82 117 158 196 234 280 339
#     4  10  20  38  62  87 115 148 189 241 296 344
#     4  10  20  35  59  87 115 147 188 241 295 345
#     4  10  20  38  62  87 115 148 189 241 296 344
#     4  10  20  35  59  87 115 147 188 241 295 345
#
# _framework density 20.264377
#
# number of rings (size 3 to 8) (size 9 to 14) (size 15 to 20)
#    0.000    2.000    0.000    5.250    0.000    7.000 
#    0.000   13.750    0.000    0.000    0.000    0.000 
#    0.000    0.000    0.000    0.000    0.000    0.000 
#
# Total GULP energy -198326.962950 kJ/mol
# GULP energy per Si atom -12395.435184 kJ/mol
# Density = 2.021825 g / cm^3
# Si number density = 20.264377 Si / 1000 Ang^3
#
#
#
# Elastic Constant Matrix: (Units=GPa)
#
#
# Indices 1 2 3 4 5 6 
#
# 1 62.9863 32.9445 48.5798 0.0000 -6.5234 0.0000
# 2 32.9445 114.2636 33.6300 0.0000 2.7269 0.0000
# 3 48.5798 33.6300 61.5700 0.0000 -2.1974 0.0000
# 4 0.0000 0.0000 0.0000 25.7524 0.0000 -3.8644
# 5 -6.5234 2.7269 -2.1974 0.0000 29.8352 0.0000
# 6 0.0000 0.0000 0.0000 -3.8644 0.0000 26.4020
#
#
#
# Elastic Compliance Matrix: (Units=1/GPa)
#
#
# Indices 1 2 3 4 5 6 
#
# 1 0.042799 -0.003160 -0.031782 0.000000 0.007306 0.000000
# 2 -0.003160 0.010718 -0.003430 0.000000 -0.001923 0.000000
# 3 -0.031782 -0.003430 0.043068 0.000000 -0.003464 0.000000
# 4 0.000000 0.000000 0.000000 0.039703 0.000000 0.005811
# 5 0.007306 -0.001923 -0.003464 0.000000 0.035036 0.000000
# 6 0.000000 0.000000 0.000000 0.005811 0.000000 0.038727
#
#
# Mechanical properties :
#
#
# Convention : Reuss Voigt Hill
#
# Bulk Modulus (GPa) = 50.40010 52.12539 51.26275
# Shear Modulus (GPa) = 17.04108 24.64228 20.84168
#
# Velocity S-wave (km/s) = 2.90304 3.49096 3.21048
# Velocity P-wave (km/s) = 6.01349 6.48287 6.25259
#
# Compressibility (1/GPa) = 0.01984123
#
# Stress axis : x y z
#
# Youngs Moduli (GPa) = 23.36507 93.30013 23.21895
#
# Poissons Ratio (x) = 0.29483 0.73795
# Poissons Ratio (y) = 0.07383 0.07963
# Poissons Ratio (z) = 0.74260 0.31999
#
# Static dielectric constant tensor:
#      x y z
#    x 3.755130 0.000000 0.014040 
#    y 0.000000 3.612650 0.000000 
#    z 0.014040 0.000000 3.758170 
# 
# 
# High freq. dielectric constant tensor:
#      x y z
#    x 1.795280 0.000000 -0.011550 
#    y 0.000000 1.782640 0.000000 
#    z -0.011550 0.000000 1.793140 
# 
# From -- ./inp_files/56838.got.cif
#   From: 2010.03.12/outbox.cif.g09.slc.cpg/sg5_29_cif.got.tgz:56838.got - 2010.03.31 09:47:26.
