data_PCOD8049194
_publ_section_title
;
Structure prediction by ZEFSAII (Michael W. Deem and Ramdas Pophale) SiO2 
 PCOD8049194
Probable space group: C 2
;
_chemical_formula_sum "Si O2"
_cell_formula_units_Z 24
_cell_length_a 9.279491
_cell_length_b 19.292848
_cell_length_c 12.604291
_cell_angle_alpha 90.000000
_cell_angle_beta 36.198627
_cell_angle_gamma 90.000000
_cell_volume 1332.669042
_symmetry_space_group_name_H-M "C 2"
_symmetry_group_IT_number 5
_symmetry_cell_setting 'monoclinic'
loop_
_space_group_symop_operation_xyz
x,y,z
-x,y,-z
1/2+x,1/2+y,z
1/2-x,1/2+y,-z
loop_
_atom_site_type_symbol
_atom_site_label
_atom_site_fract_x
_atom_site_fract_y
_atom_site_fract_z
Si Si1 0.500000 0.346750 0.000000
Si Si2 0.267788 0.327697 0.568975
Si Si3 0.467926 0.091785 0.643505
Si Si4 0.500000 0.665739 0.000000
Si Si5 0.648255 0.748813 0.106318
Si Si6 0.871931 0.198421 0.462010
Si Si7 0.543675 0.935446 0.350334
O O1 0.393995 0.293686 0.974975
O O2 0.292746 0.394723 0.175125
O O3 0.500000 0.342585 0.500000
O O4 0.293097 0.267223 0.463837
O O5 0.068257 0.304691 0.774085
O O6 0.190630 0.399028 0.560784
O O7 0.500000 0.096307 0.500000
O O8 0.199760 0.121208 0.821315
O O9 0.692262 0.132152 0.565906
O O10 0.458097 0.013492 0.693364
O O11 0.340172 0.708765 0.010767
O O12 0.586453 0.697298 0.243901
O O13 0.000000 0.203100 0.500000
O O14 0.500000 0.936446 0.500000
#
# Coordination Sequence:
#
# PCOD8049194 Si02
#       7
#     2   4   4   2   4   4   4
#     4  10  21  40  54  90 119 142 212 234 291 354
#     4   9  18  35  57  86 116 142 201 241 293 348
#     4  11  22  39  57  85 123 156 205 238 294 360
#     4  12  21  36  60  88 117 158 190 248 305 336
#     4   9  22  33  59  89 112 153 188 248 295 336
#     4  10  20  37  59  87 118 151 197 252 292 346
#     4  10  22  37  60  83 114 166 194 242 296 347
#
# _framework density 18.008973000000001
#
# number of rings (size 3 to 8) (size 9 to 14) (size 15 to 20)
#    1.000    1.000    1.667    2.500    2.333    2.000 
#    0.000    0.000    0.000    0.000    0.000    0.000 
#    0.000    0.000    0.000    0.000    0.000    0.000 
#
# Total GULP energy -148670.548418 kJ/mol
# GULP energy per Si atom -12389.212368 kJ/mol
# Density = 1.796798 g / cm^3
# Si number density = 18.008973 Si / 1000 Ang^3
#
#
#
# Elastic Constant Matrix: (Units=GPa)
#
#
# Indices 1 2 3 4 5 6 
#
# 1 138.6085 72.2855 38.4253 0.0001 -10.9796 0.0054
# 2 72.2855 143.0914 45.0436 0.0049 -11.5141 0.0037
# 3 38.4253 45.0436 66.3228 -0.0168 -3.8873 0.0261
# 4 0.0001 0.0049 -0.0168 -18.5928 0.0096 5.8647
# 5 -10.9796 -11.5141 -3.8873 0.0096 30.6618 -0.0134
# 6 0.0054 0.0037 0.0261 5.8647 -0.0134 30.9188
#
#
#
# Elastic Compliance Matrix: (Units=1/GPa)
#
#
# Indices 1 2 3 4 5 6 
#
# 1 0.010361 -0.004114 -0.003105 0.000003 0.001772 0.000001
# 2 -0.004114 0.010732 -0.004791 0.000009 0.001949 0.000003
# 3 -0.003105 -0.004791 0.020109 -0.000023 -0.000361 -0.000012
# 4 0.000003 0.000009 -0.000023 -0.050748 0.000022 0.009626
# 5 0.001772 0.001949 -0.000361 0.000022 0.033934 0.000010
# 6 0.000001 0.000003 -0.000012 0.009626 0.000010 0.030517
#
#
# Mechanical properties :
#
#
# Convention : Reuss Voigt Hill
#
# Bulk Modulus (GPa) = 58.19877 73.28127 65.74002
# Shear Modulus (GPa) = 59.06465 21.41544 40.24004
#
# Velocity S-wave (km/s) = 5.73311 3.45215 4.73212
# Velocity P-wave (km/s) = 8.72992 7.52793 8.15111
#
# Compressibility (1/GPa) = 0.01718249
#
# Stress axis : x y z
#
# Youngs Moduli (GPa) = 96.51329 93.18051 49.72874
#
# Poissons Ratio (x) = 0.38337 0.15440
# Poissons Ratio (y) = 0.39708 0.23824
# Poissons Ratio (z) = 0.29967 0.44640
#
# Static dielectric constant tensor:
#      x y z
#    x 2.774220 0.000030 0.293060 
#    y 0.000030 3.519320 -0.000020 
#    z 0.293060 -0.000020 3.115790 
# 
# 
# High freq. dielectric constant tensor:
#      x y z
#    x 1.695660 0.000000 -0.005520 
#    y 0.000000 1.692200 0.000000 
#    z -0.005520 0.000000 1.693460 
# 
# From -- ./inp_files/37138.got.cif
#   From: 2010.03.12/outbox.cif.g09.slc.cpg/sg5_19_cif.got.tgz:37138.got - 2010.03.31 09:47:26.
