data_PCOD8049954
_publ_section_title
;
Structure prediction by ZEFSAII (Michael W. Deem and Ramdas Pophale) SiO2 
 PCOD8049954
Probable space group: C 2
;
_chemical_formula_sum "Si O2"
_cell_formula_units_Z 28
_cell_length_a 14.094641
_cell_length_b 11.534625
_cell_length_c 8.985158
_cell_angle_alpha 90.000000
_cell_angle_beta 58.836477
_cell_angle_gamma 90.000000
_cell_volume 1249.975916
_symmetry_space_group_name_H-M "C 2"
_symmetry_group_IT_number 5
_symmetry_cell_setting 'monoclinic'
loop_
_space_group_symop_operation_xyz
x,y,z
-x,y,-z
1/2+x,1/2+y,z
1/2-x,1/2+y,-z
loop_
_atom_site_type_symbol
_atom_site_label
_atom_site_fract_x
_atom_site_fract_y
_atom_site_fract_z
Si Si1 0.763415 0.502910 0.749238
Si Si2 0.540047 0.542093 0.801336
Si Si3 0.000000 0.426646 0.000000
Si Si4 0.734632 0.248523 0.691063
Si Si5 0.498645 0.292451 0.177238
Si Si6 0.169145 0.603887 0.009069
Si Si7 0.442210 0.780069 0.313506
Si Si8 0.000000 0.450554 0.500000
O O1 0.675063 0.554796 0.703445
O O2 0.735458 0.367023 0.785706
O O3 0.750866 0.556223 0.925701
O O4 0.887784 0.526642 0.582284
O O5 0.497832 0.423266 0.755372
O O6 0.496241 0.655599 0.750481
O O7 0.500000 0.544955 0.000000
O O8 0.083284 0.505634 0.026947
O O9 0.926464 0.342793 0.166656
O O10 0.620421 0.234272 0.689616
O O11 0.829254 0.253727 0.491637
O O12 0.742549 0.145653 0.808022
O O13 0.599361 0.209484 0.143272
O O14 0.500000 0.305744 0.000000
O O15 0.519792 0.866492 0.343250
#
# Coordination Sequence:
#
# PCOD8049954 Si02
#       8
#     4   4   2   4   4   4   4   2
#     4  10  22  37  64  94 130 170 219 274 335 391
#     4  10  21  39  61  87 127 173 216 264 330 402
#     4  12  22  38  66  98 132 174 224 278 328 402
#     4   9  20  37  58  94 126 170 213 265 336 392
#     4   8  16  35  58  83 119 168 208 257 331 389
#     4  11  20  38  67  94 130 174 224 275 327 404
#     4  11  23  38  62  96 131 171 219 277 333 388
#     4  10  22  42  62  96 134 170 220 278 340 390
#
# _framework density 22.400433
#
# number of rings (size 3 to 8) (size 9 to 14) (size 15 to 20)
#    0.000    2.000    4.286    0.857    0.000    8.000 
#    0.000    0.000    0.000    7.714    0.000    0.000 
#    0.000    0.000    0.000    0.000    0.000    0.000 
#
# Total GULP energy -173442.744741 kJ/mol
# GULP energy per Si atom -12388.767481 kJ/mol
# Density = 2.234945 g / cm^3
# Si number density = 22.400433 Si / 1000 Ang^3
#
#
#
# Elastic Constant Matrix: (Units=GPa)
#
#
# Indices 1 2 3 4 5 6 
#
# 1 37.4927 7.9208 15.9901 0.0000 -7.3307 0.0000
# 2 7.9208 109.2221 40.3287 0.0000 11.0724 0.0000
# 3 15.9901 40.3287 94.9011 0.0000 -9.8161 0.0000
# 4 0.0000 0.0000 0.0000 28.9793 0.0000 2.4125
# 5 -7.3307 11.0724 -9.8161 0.0000 33.4817 0.0000
# 6 0.0000 0.0000 0.0000 2.4125 0.0000 15.9729
#
#
#
# Elastic Compliance Matrix: (Units=1/GPa)
#
#
# Indices 1 2 3 4 5 6 
#
# 1 0.029730 -0.001327 -0.003843 0.000000 0.005821 0.000000
# 2 -0.001327 0.011834 -0.005404 0.000000 -0.005788 0.000000
# 3 -0.003843 -0.005404 0.014004 0.000000 0.005051 0.000000
# 4 0.000000 0.000000 0.000000 0.034947 0.000000 -0.005278
# 5 0.005821 -0.005788 0.005051 0.000000 0.034537 0.000000
# 6 0.000000 0.000000 0.000000 -0.005278 0.000000 0.063403
#
#
# Mechanical properties :
#
#
# Convention : Reuss Voigt Hill
#
# Bulk Modulus (GPa) = 29.05388 41.12167 35.08777
# Shear Modulus (GPa) = 22.61668 27.51187 25.06427
#
# Velocity S-wave (km/s) = 3.18095 3.50835 3.34865
# Velocity P-wave (km/s) = 5.14681 5.89989 5.53617
#
# Compressibility (1/GPa) = 0.03441881
#
# Stress axis : x y z
#
# Youngs Moduli (GPa) = 33.63662 84.50170 71.40927
#
# Poissons Ratio (x) = 0.11214 0.27443
# Poissons Ratio (y) = 0.04464 0.38590
# Poissons Ratio (z) = 0.12927 0.45665
#
# Static dielectric constant tensor:
#      x y z
#    x 4.392830 0.000000 -0.491750 
#    y 0.000000 4.564340 0.000000 
#    z -0.491750 0.000000 4.029400 
# 
# 
# High freq. dielectric constant tensor:
#      x y z
#    x 1.857250 0.000000 -0.025470 
#    y 0.000000 1.888960 0.000000 
#    z -0.025470 0.000000 1.867810 
# 
# From -- ./inp_files/23808.got.cif
#   From: 2010.03.12/outbox.cif.g09.slc.cpg/sg5_12_cif.got.tgz:23808.got - 2010.03.31 09:47:26.
