data_PCOD8049136
_publ_section_title
;
Structure prediction by ZEFSAII (Michael W. Deem and Ramdas Pophale) SiO2 
 PCOD8049136
Probable space group: C 2
;
_chemical_formula_sum "Si O2"
_cell_formula_units_Z 30
_cell_length_a 15.402676
_cell_length_b 11.266554
_cell_length_c 9.133082
_cell_angle_alpha 90.000000
_cell_angle_beta 62.407305
_cell_angle_gamma 90.000000
_cell_volume 1404.646631
_symmetry_space_group_name_H-M "C 2"
_symmetry_group_IT_number 5
_symmetry_cell_setting 'monoclinic'
loop_
_space_group_symop_operation_xyz
x,y,z
-x,y,-z
1/2+x,1/2+y,z
1/2-x,1/2+y,-z
loop_
_atom_site_type_symbol
_atom_site_label
_atom_site_fract_x
_atom_site_fract_y
_atom_site_fract_z
Si Si1 0.833948 0.095910 0.707002
Si Si2 0.821453 0.289877 0.150382
Si Si3 0.214457 0.919631 0.481305
Si Si4 0.832855 0.508097 0.968277
Si Si5 0.494277 0.455385 0.716666
Si Si6 0.000000 0.111818 0.000000
Si Si7 0.722465 0.857511 0.253565
Si Si8 0.356359 0.260123 0.925011
O O1 0.842965 0.237789 0.685016
O O2 0.774804 0.046199 0.610658
O O3 0.942423 0.038854 0.634614
O O4 0.776168 0.050635 0.896652
O O5 0.765362 0.314401 0.347376
O O6 0.743776 0.250144 0.089309
O O7 0.903403 0.190239 0.101533
O O8 0.873746 0.410750 0.050629
O O9 0.265037 0.920870 0.600118
O O10 0.098204 0.903721 0.586781
O O11 0.830357 0.453875 0.807282
O O12 0.899297 0.627022 0.915679
O O13 0.434659 0.334522 0.777655
O O14 0.494812 0.529239 0.864334
O O15 0.828317 0.820005 0.103359
#
# Coordination Sequence:
#
# PCOD8049136 Si02
#       8
#     4   4   4   4   4   2   4   4
#     4  10  21  39  61  92 134 175 211 273 332 396
#     4  10  23  42  63  95 131 173 218 278 336 387
#     4  11  24  38  61  99 137 162 216 284 338 368
#     4   9  18  39  65  86 129 180 216 259 333 406
#     4  12  22  39  68 103 126 168 234 271 323 398
#     4  12  26  40  74 102 124 178 246 270 310 418
#     4  10  20  36  62  94 129 176 216 265 336 393
#     4  10  20  38  67  92 131 177 219 264 333 409
#
# _framework density 21.357685
#
# number of rings (size 3 to 8) (size 9 to 14) (size 15 to 20)
#    0.000    1.600    4.000    3.600    3.733    0.000 
#    0.000    4.667    0.000    1.600    0.000    0.000 
#    0.000    0.000    0.000    0.000    0.000    0.000 
#
# Total GULP energy -185884.677668 kJ/mol
# GULP energy per Si atom -12392.311845 kJ/mol
# Density = 2.130907 g / cm^3
# Si number density = 21.357685 Si / 1000 Ang^3
#
#
#
# Elastic Constant Matrix: (Units=GPa)
#
#
# Indices 1 2 3 4 5 6 
#
# 1 69.0387 32.0338 39.7452 0.0000 -2.3957 0.0000
# 2 32.0338 122.6279 42.5957 0.0000 -0.0143 0.0000
# 3 39.7452 42.5957 120.3705 0.0000 13.7489 0.0000
# 4 0.0000 0.0000 0.0000 26.1634 0.0000 2.2376
# 5 -2.3957 -0.0143 13.7489 0.0000 39.2703 0.0000
# 6 0.0000 0.0000 0.0000 2.2376 0.0000 5.8274
#
#
#
# Elastic Compliance Matrix: (Units=1/GPa)
#
#
# Indices 1 2 3 4 5 6 
#
# 1 0.019263 -0.003076 -0.005631 0.000000 0.003146 0.000000
# 2 -0.003076 0.009844 -0.002549 0.000000 0.000708 0.000000
# 3 -0.005631 -0.002549 0.011571 0.000000 -0.004396 0.000000
# 4 0.000000 0.000000 0.000000 0.039519 0.000000 -0.015175
# 5 0.003146 0.000708 -0.004396 0.000000 0.027196 0.000000
# 6 0.000000 0.000000 0.000000 -0.015175 0.000000 0.177429
#
#
# Mechanical properties :
#
#
# Convention : Reuss Voigt Hill
#
# Bulk Modulus (GPa) = 55.04726 60.08739 57.56732
# Shear Modulus (GPa) = 15.95466 27.42971 21.69219
#
# Velocity S-wave (km/s) = 2.73614 3.58760 3.19040
# Velocity P-wave (km/s) = 5.98430 6.73470 6.37056
#
# Compressibility (1/GPa) = 0.01816621
#
# Stress axis : x y z
#
# Youngs Moduli (GPa) = 51.91374 101.58917 86.42223
#
# Poissons Ratio (x) = 0.31244 0.48667
# Poissons Ratio (y) = 0.15966 0.22027
# Poissons Ratio (z) = 0.29234 0.25893
#
# Static dielectric constant tensor:
#      x y z
#    x 3.506050 0.000000 0.108040 
#    y 0.000000 4.171230 0.000000 
#    z 0.108040 0.000000 4.066700 
# 
# 
# High freq. dielectric constant tensor:
#      x y z
#    x 1.799420 0.000000 0.012350 
#    y 0.000000 1.846930 0.000000 
#    z 0.012350 0.000000 1.847880 
# 
# From -- ./inp_files/23869.got.cif
#   From: 2010.03.12/outbox.cif.g09.slc.cpg/sg5_12_cif.got.tgz:23869.got - 2010.03.31 09:47:26.
