data_PCOD8049387
_publ_section_title
;
Structure prediction by ZEFSAII (Michael W. Deem and Ramdas Pophale) SiO2 
 PCOD8049387
Probable space group: C 2
;
_chemical_formula_sum "Si O2"
_cell_formula_units_Z 22
_cell_length_a 16.070181
_cell_length_b 8.893351
_cell_length_c 14.780049
_cell_angle_alpha 90.000000
_cell_angle_beta 28.001967
_cell_angle_gamma 90.000000
_cell_volume 991.743599
_symmetry_space_group_name_H-M "C 2"
_symmetry_group_IT_number 5
_symmetry_cell_setting 'monoclinic'
loop_
_space_group_symop_operation_xyz
x,y,z
-x,y,-z
1/2+x,1/2+y,z
1/2-x,1/2+y,-z
loop_
_atom_site_type_symbol
_atom_site_label
_atom_site_fract_x
_atom_site_fract_y
_atom_site_fract_z
Si Si1 0.827314 0.151520 0.988585
Si Si2 0.500000 0.368992 0.000000
Si Si3 0.042172 0.468388 0.358666
Si Si4 0.779709 0.179442 0.827755
Si Si5 0.706153 0.607783 0.691055
Si Si6 0.800253 0.374821 0.168433
O O1 0.757234 0.144579 0.954872
O O2 0.040126 0.132605 0.784540
O O3 0.728871 0.018434 0.137034
O O4 0.782382 0.303680 0.085347
O O5 0.596805 0.261821 0.978432
O O6 0.652983 0.475344 0.811926
O O7 0.047587 0.286690 0.351478
O O8 0.000000 0.529279 0.500000
O O9 0.871706 0.544499 0.471473
O O10 0.808775 0.030731 0.737219
O O11 0.763201 0.759224 0.692147
O O12 0.000000 0.417867 0.000000
#
# Coordination Sequence:
#
# PCOD8049387 Si02
#       6
#     4   2   4   4   4   4
#     4  11  23  44  69 100 140 184 227 288 349 414
#     4  12  20  42  70  92 142 198 222 280 352 430
#     4  12  22  44  73  97 133 192 234 267 352 429
#     4  12  24  40  69 109 140 174 238 294 345 396
#     4  11  21  45  70  91 133 198 231 264 356 427
#     4  10  20  38  67  99 131 179 229 282 338 404
#
# _framework density 22.183153999999998
#
# number of rings (size 3 to 8) (size 9 to 14) (size 15 to 20)
#    0.000    0.727    9.091    1.091    0.000    0.000 
#    6.545    0.000    0.000    0.000    0.000    0.000 
#    0.000    0.000    0.000    0.000    0.000    0.000 
#
# Total GULP energy -136277.487684 kJ/mol
# GULP energy per Si atom -12388.862517 kJ/mol
# Density = 2.213266 g / cm^3
# Si number density = 22.183154 Si / 1000 Ang^3
#
#
#
# Elastic Constant Matrix: (Units=GPa)
#
#
# Indices 1 2 3 4 5 6 
#
# 1 111.6828 55.7553 21.3043 0.0002 7.7420 -0.0001
# 2 55.7553 168.4215 44.2061 0.0002 -15.5068 -0.0001
# 3 21.3043 44.2061 66.7538 0.0004 -16.1289 -0.0002
# 4 0.0002 0.0002 0.0004 22.9394 -0.0002 -7.1278
# 5 7.7420 -15.5068 -16.1289 -0.0002 28.4321 0.0001
# 6 -0.0001 -0.0001 -0.0002 -7.1278 0.0001 28.7314
#
#
#
# Elastic Compliance Matrix: (Units=1/GPa)
#
#
# Indices 1 2 3 4 5 6 
#
# 1 0.011907 -0.003807 -0.002971 0.000000 -0.007004 0.000000
# 2 -0.003807 0.008453 -0.003498 0.000000 0.003662 0.000000
# 3 -0.002971 -0.003498 0.020836 0.000000 0.010721 0.000000
# 4 0.000000 0.000000 0.000000 0.047234 0.000000 0.011718
# 5 -0.007004 0.003662 0.010721 0.000000 0.045158 0.000000
# 6 0.000000 0.000000 0.000000 0.011718 0.000000 0.037712
#
#
# Mechanical properties :
#
#
# Convention : Reuss Voigt Hill
#
# Bulk Modulus (GPa) = 48.44225 65.48772 56.96499
# Shear Modulus (GPa) = 25.15947 31.06008 28.10977
#
# Velocity S-wave (km/s) = 3.37140 3.74594 3.56359
# Velocity P-wave (km/s) = 6.08604 6.94945 6.53203
#
# Compressibility (1/GPa) = 0.02064314
#
# Stress axis : x y z
#
# Youngs Moduli (GPa) = 83.98687 118.30154 47.99489
#
# Poissons Ratio (x) = 0.45032 0.14261
# Poissons Ratio (y) = 0.31970 0.16789
# Poissons Ratio (z) = 0.24956 0.41382
#
# Static dielectric constant tensor:
#      x y z
#    x 3.968870 0.000000 -0.352040 
#    y 0.000000 4.212920 0.000000 
#    z -0.352040 0.000000 3.836320 
# 
# 
# High freq. dielectric constant tensor:
#      x y z
#    x 1.873820 0.000000 -0.024650 
#    y 0.000000 1.885590 0.000000 
#    z -0.024650 0.000000 1.837170 
# 
# From -- ./inp_files/55701.got.cif
#   From: 2010.03.12/outbox.cif.g09.slc.cpg/sg5_28_cif.got.tgz:55701.got - 2010.03.31 09:47:26.
