data_PCOD8049391
_publ_section_title
;
Structure prediction by ZEFSAII (Michael W. Deem and Ramdas Pophale) SiO2 
 PCOD8049391
Probable space group: C 2
;
_chemical_formula_sum "Si O2"
_cell_formula_units_Z 30
_cell_length_a 20.089191
_cell_length_b 8.366206
_cell_length_c 16.338371
_cell_angle_alpha 90.000000
_cell_angle_beta 152.661013
_cell_angle_gamma 90.000000
_cell_volume 1261.109526
_symmetry_space_group_name_H-M "C 2"
_symmetry_group_IT_number 5
_symmetry_cell_setting 'monoclinic'
loop_
_space_group_symop_operation_xyz
x,y,z
-x,y,-z
1/2+x,1/2+y,z
1/2-x,1/2+y,-z
loop_
_atom_site_type_symbol
_atom_site_label
_atom_site_fract_x
_atom_site_fract_y
_atom_site_fract_z
Si Si1 0.453975 0.571980 0.332529
Si Si2 0.500000 0.319446 0.500000
Si Si3 0.765766 0.871540 0.564630
Si Si4 0.747683 0.818206 0.814108
Si Si5 0.811833 0.574304 0.380104
Si Si6 0.409773 0.785262 0.785986
Si Si7 0.440259 0.533433 0.133888
Si Si8 0.200307 0.605956 0.275761
O O1 0.394835 0.432903 0.329610
O O2 0.392830 0.740108 0.297648
O O3 0.387180 0.552133 0.169081
O O4 0.628642 0.563748 0.529794
O O5 0.424100 0.215802 0.487528
O O6 0.689402 0.806720 0.401686
O O7 0.838389 0.725535 0.693064
O O8 0.652004 0.965914 0.500215
O O9 0.890690 0.991582 0.674157
O O10 0.831656 0.692840 0.846334
O O11 0.686835 0.967693 0.698596
O O12 0.854094 0.888681 0.998776
O O13 0.654774 0.654865 0.221642
O O14 0.561891 0.704453 0.919637
O O15 0.409460 0.954570 0.833771
#
# Coordination Sequence:
#
# PCOD8049391 Si02
#       8
#     4   2   4   4   4   4   4   4
#     4  12  22  43  72  95 138 184 239 282 333 422
#     4  12  22  38  68 100 130 180 234 294 316 410
#     4  10  20  38  68 104 131 171 232 290 348 399
#     4  11  26  43  64 100 143 188 215 278 365 421
#     4  10  23  35  63  98 141 169 230 279 342 402
#     4  11  19  41  69 102 126 175 240 292 335 402
#     4  11  25  43  67  97 146 174 226 292 353 414
#     4  11  20  40  72 104 129 179 238 286 336 408
#
# _framework density 23.788575000000002
#
# number of rings (size 3 to 8) (size 9 to 14) (size 15 to 20)
#    0.000    1.067    5.333    0.800    3.733    5.867 
#    0.000    5.333    0.000    0.000    0.000    0.000 
#    0.000    0.000    0.000    0.000    0.000    0.000 
#
# Total GULP energy -185859.476239 kJ/mol
# GULP energy per Si atom -12390.631749 kJ/mol
# Density = 2.373443 g / cm^3
# Si number density = 23.788575 Si / 1000 Ang^3
#
#
#
# Elastic Constant Matrix: (Units=GPa)
#
#
# Indices 1 2 3 4 5 6 
#
# 1 123.9653 62.3743 33.1936 0.0000 -27.5838 0.0000
# 2 62.3743 157.7289 30.2830 0.0000 -10.3258 0.0000
# 3 33.1936 30.2830 43.2412 0.0000 -17.2740 0.0000
# 4 0.0000 0.0000 0.0000 32.0557 0.0000 1.9153
# 5 -27.5838 -10.3258 -17.2740 0.0000 31.5392 0.0000
# 6 0.0000 0.0000 0.0000 1.9153 0.0000 55.9956
#
#
#
# Elastic Compliance Matrix: (Units=1/GPa)
#
#
# Indices 1 2 3 4 5 6 
#
# 1 0.012766 -0.003759 -0.004095 0.000000 0.007692 0.000000
# 2 -0.003759 0.008438 -0.004140 0.000000 -0.002792 0.000000
# 3 -0.004095 -0.004140 0.034813 0.000000 0.014131 0.000000
# 4 0.000000 0.000000 0.000000 0.031260 0.000000 -0.001069
# 5 0.007692 -0.002792 0.014131 0.000000 0.045259 0.000000
# 6 0.000000 0.000000 0.000000 -0.001069 0.000000 0.017895
#
#
# Mechanical properties :
#
#
# Convention : Reuss Voigt Hill
#
# Bulk Modulus (GPa) = 31.21897 64.07079 47.64488
# Shear Modulus (GPa) = 27.01327 37.19040 32.10184
#
# Velocity S-wave (km/s) = 3.37346 3.95824 3.67749
# Velocity P-wave (km/s) = 5.32218 6.91969 6.17283
#
# Compressibility (1/GPa) = 0.03203181
#
# Stress axis : x y z
#
# Youngs Moduli (GPa) = 78.33410 118.50654 28.72464
#
# Poissons Ratio (x) = 0.44542 0.11762
# Poissons Ratio (y) = 0.29443 0.11891
# Poissons Ratio (z) = 0.32075 0.49057
#
# Static dielectric constant tensor:
#      x y z
#    x 4.668140 0.000000 -0.164390 
#    y 0.000000 4.853890 0.000000 
#    z -0.164390 0.000000 3.594140 
# 
# 
# High freq. dielectric constant tensor:
#      x y z
#    x 1.962310 0.000000 -0.020370 
#    y 0.000000 1.969110 0.000000 
#    z -0.020370 0.000000 1.880130 
# 
# From -- ./inp_files/62784.got.cif
#   From: 2010.03.12/outbox.cif.g09.slc.cpg/sg5_32_cif.got.tgz:62784.got - 2010.03.31 09:47:26.
