data_PCOD8049749
_publ_section_title
;
Structure prediction by ZEFSAII (Michael W. Deem and Ramdas Pophale) SiO2 
 PCOD8049749
Probable space group: C 2
;
_chemical_formula_sum "Si O2"
_cell_formula_units_Z 30
_cell_length_a 14.143099
_cell_length_b 18.913998
_cell_length_c 7.983685
_cell_angle_alpha 90.000000
_cell_angle_beta 47.975973
_cell_angle_gamma 90.000000
_cell_volume 1586.502349
_symmetry_space_group_name_H-M "C 2"
_symmetry_group_IT_number 5
_symmetry_cell_setting 'monoclinic'
loop_
_space_group_symop_operation_xyz
x,y,z
-x,y,-z
1/2+x,1/2+y,z
1/2-x,1/2+y,-z
loop_
_atom_site_type_symbol
_atom_site_label
_atom_site_fract_x
_atom_site_fract_y
_atom_site_fract_z
Si Si1 0.540101 0.036350 0.211668
Si Si2 0.297621 0.033341 0.314385
Si Si3 0.636785 0.240934 0.530539
Si Si4 0.500000 0.769004 0.500000
Si Si5 0.636200 0.182723 0.183921
Si Si6 0.709426 0.878469 0.680245
Si Si7 0.556466 0.881209 0.189098
Si Si8 0.280144 0.678000 0.667293
O O1 0.388869 0.049579 0.365126
O O2 0.593575 0.100779 0.258660
O O3 0.563938 0.959132 0.266832
O O4 0.608115 0.031932 0.953609
O O5 0.194379 0.095155 0.405099
O O6 0.230543 0.957038 0.417201
O O7 0.698213 0.206123 0.288236
O O8 0.484388 0.233993 0.706060
O O9 0.680117 0.322556 0.490981
O O10 0.678850 0.203448 0.651363
O O11 0.588215 0.820158 0.284189
O O12 0.411792 0.719401 0.489292
O O13 0.731837 0.189746 0.914824
O O14 0.586347 0.868538 0.709368
O O15 0.664774 0.870782 0.923491
#
# Coordination Sequence:
#
# PCOD8049749 Si02
#       8
#     4   4   4   2   4   4   4   4
#     4   8  14  30  52  78 100 131 169 223 268 294
#     4   8  15  30  55  71 101 140 172 210 261 303
#     4  11  20  33  54  81 108 134 170 217 270 311
#     4  12  22  32  50  80 108 144 172 206 268 318
#     4  10  21  34  55  82 104 135 176 219 267 307
#     4   9  17  34  52  75 102 140 174 213 259 309
#     4   9  18  31  51  75 108 134 172 218 260 307
#     4  11  21  37  52  77 111 138 175 217 256 312
#
# _framework density 18.909521000000002
#
# number of rings (size 3 to 8) (size 9 to 14) (size 15 to 20)
#    0.000    2.400    2.667    2.800    0.000    1.067 
#    0.000    1.333    0.000    0.000    0.000    5.600 
#    0.000    0.000    0.000    0.000    0.000    0.000 
#
# Total GULP energy -185855.042276 kJ/mol
# GULP energy per Si atom -12390.336152 kJ/mol
# Density = 1.886648 g / cm^3
# Si number density = 18.909521 Si / 1000 Ang^3
#
#
#
# Elastic Constant Matrix: (Units=GPa)
#
#
# Indices 1 2 3 4 5 6 
#
# 1 40.6890 25.0794 4.6007 0.0000 8.8959 0.0000
# 2 25.0794 154.2804 19.5396 0.0000 -7.5567 0.0000
# 3 4.6007 19.5396 34.2120 0.0000 9.4704 0.0000
# 4 0.0000 0.0000 0.0000 21.8965 0.0000 -8.2508
# 5 8.8959 -7.5567 9.4704 0.0000 27.4322 0.0000
# 6 0.0000 0.0000 0.0000 -8.2508 0.0000 12.2861
#
#
#
# Elastic Compliance Matrix: (Units=1/GPa)
#
#
# Indices 1 2 3 4 5 6 
#
# 1 0.030672 -0.005947 0.002740 0.000000 -0.012531 0.000000
# 2 -0.005947 0.008487 -0.005781 0.000000 0.006262 0.000000
# 3 0.002740 -0.005781 0.036321 0.000000 -0.015020 0.000000
# 4 0.000000 0.000000 0.000000 0.061141 0.000000 0.041060
# 5 -0.012531 0.006262 -0.015020 0.000000 0.047428 0.000000
# 6 0.000000 0.000000 0.000000 0.041060 0.000000 0.108967
#
#
# Mechanical properties :
#
#
# Convention : Reuss Voigt Hill
#
# Bulk Modulus (GPa) = 17.38988 36.40233 26.89610
# Shear Modulus (GPa) = 15.14424 24.32038 19.73231
#
# Velocity S-wave (km/s) = 2.83305 3.59018 3.23385
# Velocity P-wave (km/s) = 4.46295 6.03974 5.31019
#
# Compressibility (1/GPa) = 0.05750470
#
# Stress axis : x y z
#
# Youngs Moduli (GPa) = 32.60319 117.82295 27.53259
#
# Poissons Ratio (x) = 0.70067 -0.07545
# Poissons Ratio (y) = 0.19388 0.15917
# Poissons Ratio (z) = -0.08935 0.68116
#
# Static dielectric constant tensor:
#      x y z
#    x 3.209060 0.000000 0.276830 
#    y 0.000000 3.890120 0.000000 
#    z 0.276830 0.000000 3.177020 
# 
# 
# High freq. dielectric constant tensor:
#      x y z
#    x 1.707420 0.000000 0.028910 
#    y 0.000000 1.754430 0.000000 
#    z 0.028910 0.000000 1.702330 
# 
# From -- ./inp_files/21487.got.cif
#   From: 2010.03.12/outbox.cif.g09.slc.cpg/sg5_11_cif.got.tgz:21487.got - 2010.03.31 09:47:26.
