data_PCOD8049570
_publ_section_title
;
Structure prediction by ZEFSAII (Michael W. Deem and Ramdas Pophale) SiO2 
 PCOD8049570
Probable space group: C 2
;
_chemical_formula_sum "Si O2"
_cell_formula_units_Z 28
_cell_length_a 16.657965
_cell_length_b 5.738449
_cell_length_c 14.247179
_cell_angle_alpha 90.000000
_cell_angle_beta 71.022536
_cell_angle_gamma 90.000000
_cell_volume 1287.876439
_symmetry_space_group_name_H-M "C 2"
_symmetry_group_IT_number 5
_symmetry_cell_setting 'monoclinic'
loop_
_space_group_symop_operation_xyz
x,y,z
-x,y,-z
1/2+x,1/2+y,z
1/2-x,1/2+y,-z
loop_
_atom_site_type_symbol
_atom_site_label
_atom_site_fract_x
_atom_site_fract_y
_atom_site_fract_z
Si Si1 0.126435 0.729620 0.498181
Si Si2 0.545868 0.867036 0.658904
Si Si3 0.737519 0.805911 0.226813
Si Si4 0.903762 0.619242 0.812752
Si Si5 0.209897 0.641825 0.985023
Si Si6 0.693257 0.555628 0.631640
Si Si7 0.586995 0.500847 0.335571
O O1 0.061859 0.555655 0.572654
O O2 0.210418 0.601818 0.431375
O O3 0.149233 0.929074 0.562186
O O4 0.078931 0.824735 0.424780
O O5 0.635659 0.785564 0.669571
O O6 0.494777 0.663748 0.626030
O O7 0.487699 0.964816 0.765585
O O8 0.791140 0.668650 0.127033
O O9 0.676576 0.633687 0.308330
O O10 0.679660 0.008080 0.204252
O O11 0.807115 0.907412 0.272343
O O12 0.918073 0.872290 0.762715
O O13 0.883996 0.640886 0.931582
O O14 0.247905 0.382410 0.990655
#
# Coordination Sequence:
#
# PCOD8049570 Si02
#       7
#     4   4   4   4   4   4   4
#     4  12  25  43  65  93 135 180 230 274 339 410
#     4  11  27  43  64  97 137 182 222 283 345 407
#     4  10  22  40  70 105 131 172 230 283 343 409
#     4  10  21  42  68 102 133 170 227 287 343 406
#     4  10  20  40  73 110 137 176 231 297 348 412
#     4  12  24  43  64  95 136 181 226 277 339 418
#     4  11  23  44  66  96 134 172 232 284 335 405
#
# _framework density 21.741215
#
# number of rings (size 3 to 8) (size 9 to 14) (size 15 to 20)
#    0.000    1.143    4.286    1.714    0.000    3.429 
#    0.000    0.000    0.000    5.143    0.000    0.000 
#    0.000    0.000    0.000    0.000    0.000    0.000 
#
# Total GULP energy -173552.531711 kJ/mol
# GULP energy per Si atom -12396.609408 kJ/mol
# Density = 2.169173 g / cm^3
# Si number density = 21.741215 Si / 1000 Ang^3
#
#
#
# Elastic Constant Matrix: (Units=GPa)
#
#
# Indices 1 2 3 4 5 6 
#
# 1 35.8376 4.5661 33.0511 0.0000 -15.2907 0.0001
# 2 4.5661 84.3275 20.6423 0.0012 -13.7720 -0.0004
# 3 33.0511 20.6423 130.4296 0.0002 -22.1627 -0.0001
# 4 0.0000 0.0012 0.0002 83.8311 0.0000 -25.6374
# 5 -15.2907 -13.7720 -22.1627 0.0000 25.7286 0.0000
# 6 0.0001 -0.0004 -0.0001 -25.6374 0.0000 48.6070
#
#
#
# Elastic Compliance Matrix: (Units=1/GPa)
#
#
# Indices 1 2 3 4 5 6 
#
# 1 0.043767 0.002976 -0.008049 0.000000 0.020671 0.000000
# 2 0.002976 0.013315 -0.001581 0.000000 0.007534 0.000000
# 3 -0.008049 -0.001581 0.010544 0.000000 0.003452 0.000000
# 4 0.000000 0.000000 0.000000 0.014223 0.000000 0.007502
# 5 0.020671 0.007534 0.003452 0.000000 0.058158 0.000000
# 6 0.000000 0.000000 0.000000 0.007502 0.000000 0.024530
#
#
# Mechanical properties :
#
#
# Convention : Reuss Voigt Hill
#
# Bulk Modulus (GPa) = 18.41039 40.79039 29.60039
# Shear Modulus (GPa) = 25.51653 44.45569 34.98611
#
# Velocity S-wave (km/s) = 3.42957 4.52681 4.01584
# Velocity P-wave (km/s) = 4.91619 6.79156 5.92850
#
# Compressibility (1/GPa) = 0.05431715
#
# Stress axis : x y z
#
# Youngs Moduli (GPa) = 22.84803 75.10405 94.84484
#
# Poissons Ratio (x) = -0.22354 0.76344
# Poissons Ratio (y) = -0.06800 0.14998
# Poissons Ratio (z) = 0.18391 0.11876
#
# Static dielectric constant tensor:
#      x y z
#    x 2.949950 0.000000 -0.277160 
#    y 0.000000 4.233580 0.000000 
#    z -0.277160 0.000000 4.359760 
# 
# 
# High freq. dielectric constant tensor:
#      x y z
#    x 1.821200 0.000000 -0.022530 
#    y 0.000000 1.873230 0.000000 
#    z -0.022530 0.000000 1.865860 
# 
# From -- ./inp_files/55277.got.cif
#   From: 2010.03.12/outbox.cif.g09.slc.cpg/sg5_28_cif.got.tgz:55277.got - 2010.03.31 09:47:26.
