data_PCOD8049239
_publ_section_title
;
Structure prediction by ZEFSAII (Michael W. Deem and Ramdas Pophale) SiO2 
 PCOD8049239
Probable space group: C 2
;
_chemical_formula_sum "Si O2"
_cell_formula_units_Z 30
_cell_length_a 5.291831
_cell_length_b 24.114134
_cell_length_c 11.819176
_cell_angle_alpha 90.000000
_cell_angle_beta 89.536666
_cell_angle_gamma 90.000000
_cell_volume 1508.171173
_symmetry_space_group_name_H-M "C 2"
_symmetry_group_IT_number 5
_symmetry_cell_setting 'monoclinic'
loop_
_space_group_symop_operation_xyz
x,y,z
-x,y,-z
1/2+x,1/2+y,z
1/2-x,1/2+y,-z
loop_
_atom_site_type_symbol
_atom_site_label
_atom_site_fract_x
_atom_site_fract_y
_atom_site_fract_z
Si Si1 0.606013 0.835070 0.376411
Si Si2 0.200516 0.647348 0.808397
Si Si3 0.000000 0.185173 0.000000
Si Si4 0.657762 0.241301 0.180039
Si Si5 0.900842 0.860242 0.744825
Si Si6 0.490952 0.473549 0.866619
Si Si7 0.519161 0.710314 0.369133
Si Si8 0.506690 0.036662 0.134403
O O1 0.500000 0.847902 0.500000
O O2 0.388598 0.861183 0.297356
O O3 0.659733 0.769559 0.358191
O O4 0.882496 0.861536 0.353975
O O5 0.379958 0.638845 0.916387
O O6 0.338483 0.657821 0.688199
O O7 0.999603 0.597085 0.804553
O O8 0.088449 0.706358 0.844555
O O9 0.153908 0.228155 0.922481
O O10 0.576722 0.305300 0.178790
O O11 0.755742 0.220720 0.304048
O O12 0.966689 0.911650 0.822621
O O13 0.246869 0.506283 0.822397
O O14 0.746053 0.504097 0.822197
O O15 0.500000 0.470048 0.000000
O O16 0.500000 0.693411 0.500000
O O17 0.500000 0.042919 0.000000
#
# Coordination Sequence:
#
# PCOD8049239 Si02
#       8
#     4   4   2   4   4   4   4   4
#     4  10  20  37  62  91 120 156 197 249 295 361
#     4  11  21  36  59  87 117 157 197 252 301 358
#     4  10  22  34  52  90 126 154 198 238 324 362
#     4  10  21  35  56  90 120 162 189 246 309 366
#     4  11  21  39  60  88 123 153 203 241 304 359
#     4  10  23  40  58  86 116 162 199 245 289 352
#     4   9  20  36  56  88 125 155 200 241 301 366
#     4  10  22  38  60  82 115 157 209 242 290 351
#
# _framework density 19.891639999999999
#
# number of rings (size 3 to 8) (size 9 to 14) (size 15 to 20)
#    0.000    1.867    1.333    2.400    6.533    1.600 
#    3.600    0.000    0.000    3.200    0.000    0.000 
#    0.000    0.000    0.000    0.000    0.000    0.000 
#
# Total GULP energy -185859.057421 kJ/mol
# GULP energy per Si atom -12390.603828 kJ/mol
# Density = 1.984637 g / cm^3
# Si number density = 19.891640 Si / 1000 Ang^3
#
#
#
# Elastic Constant Matrix: (Units=GPa)
#
#
# Indices 1 2 3 4 5 6 
#
# 1 105.4049 42.6462 27.8622 0.0000 -13.0058 0.0000
# 2 42.6462 123.6421 29.9545 0.0000 -3.0956 0.0000
# 3 27.8622 29.9545 87.8172 0.0000 -2.4337 0.0000
# 4 0.0000 0.0000 0.0000 17.1470 0.0000 -1.3527
# 5 -13.0058 -3.0956 -2.4337 0.0000 14.4884 0.0000
# 6 0.0000 0.0000 0.0000 -1.3527 0.0000 33.8936
#
#
#
# Elastic Compliance Matrix: (Units=1/GPa)
#
#
# Indices 1 2 3 4 5 6 
#
# 1 0.012892 -0.003560 -0.002589 0.000000 0.010378 0.000000
# 2 -0.003560 0.009827 -0.002264 0.000000 -0.001476 0.000000
# 3 -0.002589 -0.002264 0.012963 0.000000 -0.000630 0.000000
# 4 0.000000 0.000000 0.000000 0.058503 0.000000 0.002335
# 5 0.010378 -0.001476 -0.000630 0.000000 0.077915 0.000000
# 6 0.000000 0.000000 0.000000 0.002335 0.000000 0.029597
#
#
# Mechanical properties :
#
#
# Convention : Reuss Voigt Hill
#
# Bulk Modulus (GPa) = 53.02549 57.53221 55.27885
# Shear Modulus (GPa) = 22.24119 27.53256 24.88687
#
# Velocity S-wave (km/s) = 3.34745 3.72442 3.54096
# Velocity P-wave (km/s) = 6.45412 6.89062 6.67594
#
# Compressibility (1/GPa) = 0.01885885
#
# Stress axis : x y z
#
# Youngs Moduli (GPa) = 77.56618 101.75930 77.14143
#
# Poissons Ratio (x) = 0.36224 0.19968
# Poissons Ratio (y) = 0.27612 0.17461
# Poissons Ratio (z) = 0.20078 0.23033
#
# Static dielectric constant tensor:
#      x y z
#    x 3.930360 0.000000 -0.106750 
#    y 0.000000 3.534630 0.000000 
#    z -0.106750 0.000000 3.710730 
# 
# 
# High freq. dielectric constant tensor:
#      x y z
#    x 1.789250 0.000000 -0.005020 
#    y 0.000000 1.762010 0.000000 
#    z -0.005020 0.000000 1.755670 
# 
# From -- ./inp_files/33968.got.cif
#   From: 2010.03.12/outbox.cif.g09.slc.cpg/sg5_17_cif.got.tgz:33968.got - 2010.03.31 09:47:26.
