data_PCOD8049582
_publ_section_title
;
Structure prediction by ZEFSAII (Michael W. Deem and Ramdas Pophale) SiO2 
 PCOD8049582
Probable space group: C 2
;
_chemical_formula_sum "Si O2"
_cell_formula_units_Z 26
_cell_length_a 18.805649
_cell_length_b 8.117692
_cell_length_c 8.672288
_cell_angle_alpha 90.000000
_cell_angle_beta 95.058729
_cell_angle_gamma 90.000000
_cell_volume 1318.741390
_symmetry_space_group_name_H-M "C 2"
_symmetry_group_IT_number 5
_symmetry_cell_setting 'monoclinic'
loop_
_space_group_symop_operation_xyz
x,y,z
-x,y,-z
1/2+x,1/2+y,z
1/2-x,1/2+y,-z
loop_
_atom_site_type_symbol
_atom_site_label
_atom_site_fract_x
_atom_site_fract_y
_atom_site_fract_z
Si Si1 0.353676 0.532850 0.434994
Si Si2 0.944292 0.269561 0.264885
Si Si3 0.408476 0.609603 0.756341
Si Si4 0.170642 0.281602 0.000612
Si Si5 0.775104 0.592516 0.801927
Si Si6 0.401186 0.266097 0.649983
Si Si7 0.500000 0.022847 0.500000
O O1 0.411551 0.599043 0.323455
O O2 0.361568 0.643980 0.592261
O O3 0.275092 0.541748 0.350002
O O4 0.369860 0.342228 0.483329
O O5 0.024047 0.231773 0.221251
O O6 0.944451 0.408238 0.397377
O O7 0.895139 0.339505 0.118900
O O8 0.357854 0.638006 0.892801
O O9 0.434482 0.418126 0.756107
O O10 0.198092 0.433189 0.104390
O O11 0.235468 0.213466 0.911978
O O12 0.841380 0.686018 0.743438
O O13 0.460289 0.132446 0.619794
#
# Coordination Sequence:
#
# PCOD8049582 Si02
#       7
#     4   4   4   4   4   4   2
#     4   9  22  38  65  86 120 160 206 248 298 356
#     4  11  21  40  64  92 119 162 200 255 305 359
#     4  10  20  41  62  88 121 155 209 244 303 359
#     4  11  25  40  62  88 127 163 198 250 308 365
#     4  11  24  41  60  91 125 160 203 247 305 366
#     4  10  23  36  63  92 117 157 202 255 296 351
#     4  12  20  38  64  92 122 150 212 254 298 360
#
# _framework density 19.715768000000001
#
# number of rings (size 3 to 8) (size 9 to 14) (size 15 to 20)
#    0.923    0.615    1.538    3.231    2.154    2.462 
#    0.000    3.077    0.000    0.000    0.000    0.000 
#    0.000    0.000    0.000    0.000    0.000    0.000 
#
# Total GULP energy -161154.152043 kJ/mol
# GULP energy per Si atom -12396.473234 kJ/mol
# Density = 1.967089 g / cm^3
# Si number density = 19.715768 Si / 1000 Ang^3
#
#
#
# Elastic Constant Matrix: (Units=GPa)
#
#
# Indices 1 2 3 4 5 6 
#
# 1 100.8092 47.6562 57.1693 0.0000 -7.1926 0.0000
# 2 47.6562 104.1969 34.9340 0.0000 -3.8747 0.0000
# 3 57.1693 34.9340 98.0051 0.0000 1.5789 0.0000
# 4 0.0000 0.0000 0.0000 38.5988 0.0000 -7.9906
# 5 -7.1926 -3.8747 1.5789 0.0000 34.8745 0.0000
# 6 0.0000 0.0000 0.0000 -7.9906 0.0000 26.6873
#
#
#
# Elastic Compliance Matrix: (Units=1/GPa)
#
#
# Indices 1 2 3 4 5 6 
#
# 1 0.017236 -0.004961 -0.008340 0.000000 0.003381 0.000000
# 2 -0.004961 0.012395 -0.001531 0.000000 0.000423 0.000000
# 3 -0.008340 -0.001531 0.015656 0.000000 -0.002599 0.000000
# 4 0.000000 0.000000 0.000000 0.027619 0.000000 0.008270
# 5 0.003381 0.000423 -0.002599 0.000000 0.029536 0.000000
# 6 0.000000 0.000000 0.000000 0.008270 0.000000 0.039947
#
#
# Mechanical properties :
#
#
# Convention : Reuss Voigt Hill
#
# Bulk Modulus (GPa) = 64.01055 64.72558 64.36806
# Shear Modulus (GPa) = 28.20652 30.91557 29.56104
#
# Velocity S-wave (km/s) = 3.78651 3.96417 3.87636
# Velocity P-wave (km/s) = 7.18707 7.33850 7.26318
#
# Compressibility (1/GPa) = 0.01562243
#
# Stress axis : x y z
#
# Youngs Moduli (GPa) = 58.01734 80.67505 63.87162
#
# Poissons Ratio (x) = 0.40025 0.53272
# Poissons Ratio (y) = 0.28784 0.09780
# Poissons Ratio (z) = 0.48389 0.12352
#
# Static dielectric constant tensor:
#      x y z
#    x 3.495470 0.000000 0.007660 
#    y 0.000000 3.518460 0.000000 
#    z 0.007660 0.000000 3.681420 
# 
# 
# High freq. dielectric constant tensor:
#      x y z
#    x 1.765270 0.000000 -0.007560 
#    y 0.000000 1.762340 0.000000 
#    z -0.007560 0.000000 1.773070 
# 
# From -- ./inp_files/26523.got.cif
#   From: 2010.03.12/outbox.cif.g09.slc.cpg/sg5_14_cif.got.tgz:26523.got - 2010.03.31 09:47:26.
