data_PCOD8049627
_publ_section_title
;
Structure prediction by ZEFSAII (Michael W. Deem and Ramdas Pophale) SiO2 
 PCOD8049627
Probable space group: C 2
;
_chemical_formula_sum "Si O2"
_cell_formula_units_Z 24
_cell_length_a 13.986183
_cell_length_b 5.171294
_cell_length_c 21.135141
_cell_angle_alpha 90.000000
_cell_angle_beta 52.863844
_cell_angle_gamma 90.000000
_cell_volume 1218.631992
_symmetry_space_group_name_H-M "C 2"
_symmetry_group_IT_number 5
_symmetry_cell_setting 'monoclinic'
loop_
_space_group_symop_operation_xyz
x,y,z
-x,y,-z
1/2+x,1/2+y,z
1/2-x,1/2+y,-z
loop_
_atom_site_type_symbol
_atom_site_label
_atom_site_fract_x
_atom_site_fract_y
_atom_site_fract_z
Si Si1 0.111440 0.981130 0.408506
Si Si2 0.708876 0.983746 0.554271
Si Si3 0.378941 0.666064 0.016652
Si Si4 0.852868 0.943989 0.896853
Si Si5 0.165433 0.453343 0.166399
Si Si6 0.927797 0.481856 0.658379
O O1 0.234239 0.983685 0.398856
O O2 0.109802 0.729938 0.366138
O O3 0.000000 0.977661 0.500000
O O4 0.107010 0.231919 0.367245
O O5 0.749873 0.733628 0.500050
O O6 0.567193 0.984182 0.619675
O O7 0.307589 0.481810 0.094606
O O8 0.291956 0.908849 0.033472
O O9 0.500000 0.770839 0.000000
O O10 0.412963 0.504477 0.940133
O O11 0.881388 0.175494 0.837084
O O12 0.905172 0.681295 0.844190
O O13 0.148219 0.483963 0.247513
#
# Coordination Sequence:
#
# PCOD8049627 Si02
#       6
#     4   4   4   4   4   4
#     4  12  23  41  67  88 122 166 210 249 303 371
#     4  12  23  40  66  92 116 165 212 246 305 369
#     4  10  21  41  68  87 121 166 205 246 298 372
#     4  10  20  42  60  92 121 159 207 245 296 372
#     4  10  22  42  61  90 132 154 198 261 310 348
#     4  12  24  43  61  92 132 156 199 271 301 352
#
# _framework density 19.694213999999999
#
# number of rings (size 3 to 8) (size 9 to 14) (size 15 to 20)
#    1.000    0.000    5.000    2.500    0.000    0.667 
#    6.000    0.000    0.000    0.000    0.000    0.000 
#    0.000    0.000    0.000    0.000    0.000    0.000 
#
# Total GULP energy -148777.439028 kJ/mol
# GULP energy per Si atom -12398.119919 kJ/mol
# Density = 1.964939 g / cm^3
# Si number density = 19.694214 Si / 1000 Ang^3
#
#
#
# Elastic Constant Matrix: (Units=GPa)
#
#
# Indices 1 2 3 4 5 6 
#
# 1 149.5865 43.9345 35.0641 -0.0184 18.1929 0.0409
# 2 43.9345 160.8698 47.6828 -0.0727 23.4754 0.0466
# 3 35.0641 47.6828 115.4456 -0.0290 36.6560 -0.0029
# 4 -0.0184 -0.0727 -0.0290 35.1956 -0.0080 10.5757
# 5 18.1929 23.4754 36.6560 -0.0080 28.6161 0.0016
# 6 0.0409 0.0466 -0.0029 10.5757 0.0016 29.4350
#
#
#
# Elastic Compliance Matrix: (Units=1/GPa)
#
#
# Indices 1 2 3 4 5 6 
#
# 1 0.007629 -0.001446 -0.000938 0.000002 -0.002462 -0.000009
# 2 -0.001446 0.007569 -0.001698 0.000018 -0.003115 -0.000016
# 3 -0.000938 -0.001698 0.015198 0.000003 -0.017479 0.000005
# 4 0.000002 0.000018 0.000003 0.031851 -0.000010 -0.011444
# 5 -0.002462 -0.003115 -0.017479 -0.000010 0.061456 0.000007
# 6 -0.000009 -0.000016 0.000005 -0.011444 0.000007 0.038085
#
#
# Mechanical properties :
#
#
# Convention : Reuss Voigt Hill
#
# Bulk Modulus (GPa) = 44.98034 75.47386 60.22710
# Shear Modulus (GPa) = 28.19067 38.59738 33.39402
#
# Velocity S-wave (km/s) = 3.78751 4.43180 4.12227
# Velocity P-wave (km/s) = 6.48197 8.03703 7.30102
#
# Compressibility (1/GPa) = 0.02223194
#
# Stress axis : x y z
#
# Youngs Moduli (GPa) = 131.07507 132.11751 65.79728
#
# Poissons Ratio (x) = 0.19107 0.06172
# Poissons Ratio (y) = 0.18956 0.11172
# Poissons Ratio (z) = 0.12295 0.22433
#
# Static dielectric constant tensor:
#      x y z
#    x 3.655970 -0.000070 0.158810 
#    y -0.000070 3.706120 -0.000020 
#    z 0.158810 -0.000020 3.486860 
# 
# 
# High freq. dielectric constant tensor:
#      x y z
#    x 1.755130 0.000000 0.020340 
#    y 0.000000 1.784220 0.000000 
#    z 0.020340 0.000000 1.760870 
# 
# From -- ./inp_files/64851.got.cif
#   From: 2010.03.12/outbox.cif.g09.slc.cpg/sg5_33_cif.got.tgz:64851.got - 2010.03.31 09:47:26.
