data_PCOD8049494
_publ_section_title
;
Structure prediction by ZEFSAII (Michael W. Deem and Ramdas Pophale) SiO2 
 PCOD8049494
Probable space group: C 2
;
_chemical_formula_sum "Si O2"
_cell_formula_units_Z 24
_cell_length_a 6.493658
_cell_length_b 13.346946
_cell_length_c 19.438552
_cell_angle_alpha 90.000000
_cell_angle_beta 134.963203
_cell_angle_gamma 90.000000
_cell_volume 1192.062334
_symmetry_space_group_name_H-M "C 2"
_symmetry_group_IT_number 5
_symmetry_cell_setting 'monoclinic'
loop_
_space_group_symop_operation_xyz
x,y,z
-x,y,-z
1/2+x,1/2+y,z
1/2-x,1/2+y,-z
loop_
_atom_site_type_symbol
_atom_site_label
_atom_site_fract_x
_atom_site_fract_y
_atom_site_fract_z
Si Si1 0.816123 0.465700 0.592873
Si Si2 0.138092 0.804689 0.653400
Si Si3 0.750000 0.114306 0.750000
Si Si4 0.361908 0.804689 0.846600
Si Si5 0.000000 0.877884 0.000000
Si Si6 0.500000 0.877884 0.500000
Si Si7 0.683877 0.465700 0.907127
O O1 0.500000 0.509874 0.500000
O O2 0.783146 0.358292 0.622640
O O3 0.967000 0.543967 0.680086
O O4 0.004849 0.448994 0.568551
O O5 0.243687 0.687802 0.681154
O O6 0.250000 0.858707 0.750000
O O7 0.787235 0.809129 0.566471
O O8 0.756313 0.187802 0.818846
O O9 0.033000 0.043967 0.819914
O O10 0.712765 0.809129 0.933529
O O11 0.216853 0.858292 0.877360
O O12 0.995150 0.948994 0.931449
O O13 0.000000 0.509874 0.000000
#
# Coordination Sequence:
#
# PCOD8049494 Si02
#       7
#     4   4   4   4   2   2   4
#     4  10  21  41  61  87 122 154 196 244 291 350
#     4   9  21  38  61  88 117 152 199 243 288 344
#     4  10  22  38  64  90 112 160 200 234 302 344
#     4   9  21  38  61  88 117 152 199 243 288 344
#     4  10  20  40  62  84 126 154 188 252 290 342
#     4  10  20  40  62  84 126 154 188 252 290 342
#     4  10  21  41  61  87 122 154 196 244 291 350
#
# _framework density 20.133175999999999
#
# number of rings (size 3 to 8) (size 9 to 14) (size 15 to 20)
#    1.000    1.333    0.000    2.000    2.333    0.000 
#    9.000   10.000    0.000    0.000    0.000    0.000 
#    0.000    0.000    0.000    0.000    0.000    0.000 
#
# Total GULP energy -148683.922748 kJ/mol
# GULP energy per Si atom -12390.326896 kJ/mol
# Density = 2.008735 g / cm^3
# Si number density = 20.133176 Si / 1000 Ang^3
#
#
#
# Elastic Constant Matrix: (Units=GPa)
#
#
# Indices 1 2 3 4 5 6 
#
# 1 106.8189 52.6543 39.9524 -0.0003 -8.6251 0.0000
# 2 52.6543 129.4470 68.5601 -0.0001 16.9572 0.0000
# 3 39.9524 68.5601 133.4635 -0.0015 14.4477 -0.0001
# 4 -0.0003 -0.0001 -0.0015 36.3755 -0.0006 -6.8165
# 5 -8.6251 16.9572 14.4477 -0.0006 22.5959 0.0000
# 6 0.0000 0.0000 -0.0001 -6.8165 0.0000 18.6403
#
#
#
# Elastic Compliance Matrix: (Units=1/GPa)
#
#
# Indices 1 2 3 4 5 6 
#
# 1 0.014120 -0.005968 -0.002395 0.000000 0.011400 0.000000
# 2 -0.005968 0.013646 -0.004156 0.000000 -0.009862 0.000000
# 3 -0.002395 -0.004156 0.010857 0.000000 -0.004738 0.000000
# 4 0.000000 0.000000 0.000000 0.029514 0.000001 0.010793
# 5 0.011400 -0.009862 -0.004738 0.000001 0.059037 0.000000
# 6 0.000000 0.000000 0.000000 0.010793 0.000000 0.057594
#
#
# Mechanical properties :
#
#
# Convention : Reuss Voigt Hill
#
# Bulk Modulus (GPa) = 73.61081 76.89588 75.25334
# Shear Modulus (GPa) = 23.32813 29.42651 26.37732
#
# Velocity S-wave (km/s) = 3.40765 3.82723 3.62352
# Velocity P-wave (km/s) = 7.21970 7.60307 7.41387
#
# Compressibility (1/GPa) = 0.01358496
#
# Stress axis : x y z
#
# Youngs Moduli (GPa) = 70.82214 73.28304 92.10481
#
# Poissons Ratio (x) = 0.43738 0.22058
# Poissons Ratio (y) = 0.42269 0.38275
# Poissons Ratio (z) = 0.16961 0.30454
#
# Static dielectric constant tensor:
#      x y z
#    x 3.343860 0.000000 -0.023930 
#    y 0.000000 3.356800 0.000000 
#    z -0.023930 0.000000 3.975600 
# 
# 
# High freq. dielectric constant tensor:
#      x y z
#    x 1.756310 0.000000 0.003970 
#    y 0.000000 1.761670 0.000000 
#    z 0.003970 0.000000 1.814420 
# 
# From -- ./inp_files/64072.got.cif
#   From: 2010.03.12/outbox.cif.g09.slc.cpg/sg5_33_cif.got.tgz:64072.got - 2010.03.31 09:47:26.
