data_PCOD8049512
_publ_section_title
;
Structure prediction by ZEFSAII (Michael W. Deem and Ramdas Pophale) SiO2 
 PCOD8049512
Probable space group: C 2
;
_chemical_formula_sum "Si O2"
_cell_formula_units_Z 20
_cell_length_a 14.223741
_cell_length_b 11.317820
_cell_length_c 6.505401
_cell_angle_alpha 90.000000
_cell_angle_beta 72.293112
_cell_angle_gamma 90.000000
_cell_volume 997.637190
_symmetry_space_group_name_H-M "C 2"
_symmetry_group_IT_number 5
_symmetry_cell_setting 'monoclinic'
loop_
_space_group_symop_operation_xyz
x,y,z
-x,y,-z
1/2+x,1/2+y,z
1/2-x,1/2+y,-z
loop_
_atom_site_type_symbol
_atom_site_label
_atom_site_fract_x
_atom_site_fract_y
_atom_site_fract_z
Si Si1 0.986260 0.252160 0.272688
Si Si2 0.000000 0.712602 0.500000
Si Si3 0.097193 0.616920 0.813846
Si Si4 0.345261 0.871745 0.104968
Si Si5 0.000000 0.030472 0.000000
Si Si6 0.866971 0.829949 0.932639
O O1 0.877295 0.301794 0.289716
O O2 0.987734 0.115304 0.204571
O O3 0.000000 0.259131 0.500000
O O4 0.070466 0.335899 0.116403
O O5 0.075574 0.631266 0.582874
O O6 0.056796 0.793256 0.296848
O O7 0.168536 0.508301 0.819646
O O8 0.141042 0.736832 0.877011
O O9 0.000000 0.581102 0.000000
O O10 0.239851 0.834819 0.093593
O O11 0.096008 0.950429 0.984389
#
# Coordination Sequence:
#
# PCOD8049512 Si02
#       6
#     4   2   4   4   2   4
#     4  10  24  43  62  89 123 164 203 246 305 365
#     4  10  22  40  62  92 118 162 210 242 308 356
#     4  10  20  40  64  88 121 157 204 258 301 350
#     4  10  23  41  64  90 124 160 199 257 302 356
#     4  10  22  42  62  86 132 158 198 258 296 356
#     4  11  23  41  64  90 124 162 202 252 303 357
#
# _framework density 20.047367999999999
#
# number of rings (size 3 to 8) (size 9 to 14) (size 15 to 20)
#    0.000    2.000    5.000    0.000    8.400    1.600 
#    0.000    0.000    0.000    0.000    0.000    0.000 
#    0.000    0.000    0.000    0.000    0.000    0.000 
#
# Total GULP energy -123901.254692 kJ/mol
# GULP energy per Si atom -12390.125469 kJ/mol
# Density = 2.000174 g / cm^3
# Si number density = 20.047368 Si / 1000 Ang^3
#
#
#
# Elastic Constant Matrix: (Units=GPa)
#
#
# Indices 1 2 3 4 5 6 
#
# 1 144.6750 51.0536 44.1869 0.0000 33.6360 0.0000
# 2 51.0536 153.8300 48.6427 0.0000 22.2286 0.0000
# 3 44.1869 48.6427 125.4092 0.0000 47.1205 0.0000
# 4 0.0000 0.0000 0.0000 7.3571 0.0000 4.6604
# 5 33.6360 22.2286 47.1205 0.0000 32.1274 0.0000
# 6 0.0000 0.0000 0.0000 4.6604 0.0000 13.0162
#
#
#
# Elastic Compliance Matrix: (Units=1/GPa)
#
#
# Indices 1 2 3 4 5 6 
#
# 1 0.009747 -0.002129 0.001498 0.000000 -0.010928 0.000000
# 2 -0.002129 0.007935 -0.002455 0.000000 0.000341 0.000000
# 3 0.001498 -0.002455 0.018599 0.000000 -0.027148 0.000000
# 4 0.000000 0.000000 0.000000 0.175793 0.000000 -0.062942
# 5 -0.010928 0.000341 -0.027148 0.000000 0.082148 0.000000
# 6 0.000000 0.000000 0.000000 -0.062942 0.000000 0.099363
#
#
# Mechanical properties :
#
#
# Convention : Reuss Voigt Hill
#
# Bulk Modulus (GPa) = 33.21582 79.07560 56.14571
# Shear Modulus (GPa) = 12.20126 29.16889 20.68508
#
# Velocity S-wave (km/s) = 2.46970 3.81858 3.21566
# Velocity P-wave (km/s) = 4.97365 7.67933 6.46952
#
# Compressibility (1/GPa) = 0.03010614
#
# Stress axis : x y z
#
# Youngs Moduli (GPa) = 102.59966 126.03138 53.76651
#
# Poissons Ratio (x) = 0.26835 -0.08052
# Poissons Ratio (y) = 0.21846 0.13202
# Poissons Ratio (z) = -0.15366 0.30945
#
# Static dielectric constant tensor:
#      x y z
#    x 3.688420 0.000000 0.421270 
#    y 0.000000 3.798430 0.000000 
#    z 0.421270 0.000000 3.628040 
# 
# 
# High freq. dielectric constant tensor:
#      x y z
#    x 1.776400 0.000000 0.035960 
#    y 0.000000 1.795580 0.000000 
#    z 0.035960 0.000000 1.770830 
# 
# From -- ./inp_files/6498.got.cif
#   From: 2010.03.12/outbox.cif.g09.slc.cpg/sg5_4_cif.got.tgz:6498.got - 2010.03.31 09:47:26.
