data_PCOD8049817
_publ_section_title
;
Structure prediction by ZEFSAII (Michael W. Deem and Ramdas Pophale) SiO2 
 PCOD8049817
Probable space group: C 2
;
_chemical_formula_sum "Si O2"
_cell_formula_units_Z 26
_cell_length_a 15.426646
_cell_length_b 8.664462
_cell_length_c 13.356247
_cell_angle_alpha 90.000000
_cell_angle_beta 132.890889
_cell_angle_gamma 90.000000
_cell_volume 1307.960969
_symmetry_space_group_name_H-M "C 2"
_symmetry_group_IT_number 5
_symmetry_cell_setting 'monoclinic'
loop_
_space_group_symop_operation_xyz
x,y,z
-x,y,-z
1/2+x,1/2+y,z
1/2-x,1/2+y,-z
loop_
_atom_site_type_symbol
_atom_site_label
_atom_site_fract_x
_atom_site_fract_y
_atom_site_fract_z
Si Si1 0.500000 0.554991 0.500000
Si Si2 0.359700 0.806873 0.510652
Si Si3 0.651546 0.718297 0.071058
Si Si4 0.000000 0.931136 0.000000
Si Si5 0.500000 0.048872 0.500000
Si Si6 0.593868 0.301358 0.711600
Si Si7 0.093625 0.878452 0.271065
Si Si8 0.929307 0.241613 0.779660
O O1 0.420088 0.653492 0.513480
O O2 0.589891 0.451092 0.636326
O O3 0.219018 0.799351 0.390302
O O4 0.392163 0.837113 0.652681
O O5 0.404279 0.951592 0.484256
O O6 0.781048 0.768305 0.135388
O O7 0.642019 0.790694 0.176065
O O8 0.611347 0.538666 0.051547
O O9 0.565398 0.781237 0.915580
O O10 0.955764 0.821560 0.875592
O O11 0.577722 0.148718 0.634961
O O12 0.492401 0.314540 0.712845
O O13 0.095563 0.063777 0.269607
#
# Coordination Sequence:
#
# PCOD8049817 Si02
#       8
#     2   4   4   2   2   4   4   4
#     4  10  24  38  58  88 128 152 204 244 308 340
#     4  11  22  40  59  89 120 164 196 253 293 361
#     4   8  18  36  61  84 117 152 203 237 295 354
#     4   8  18  42  60  88 114 166 194 244 300 362
#     4  10  24  36  56  90 120 154 212 246 298 346
#     4  11  21  39  59  92 116 161 199 253 294 357
#     4  10  21  36  67  83 121 154 203 237 308 344
#     4   9  19  39  61  88 113 166 195 245 295 355
#
# _framework density 19.878267999999998
#
# number of rings (size 3 to 8) (size 9 to 14) (size 15 to 20)
#    0.000    2.769    1.538    1.846    6.462    0.000 
#   11.077    0.000    0.000    0.000    0.000    0.000 
#    0.000    0.000    0.000    0.000    0.000    0.000 
#
# Total GULP energy -161059.672484 kJ/mol
# GULP energy per Si atom -12389.205576 kJ/mol
# Density = 1.983302 g / cm^3
# Si number density = 19.878268 Si / 1000 Ang^3
#
#
#
# Elastic Constant Matrix: (Units=GPa)
#
#
# Indices 1 2 3 4 5 6 
#
# 1 106.8914 32.4431 77.0632 0.0000 -0.1804 0.0000
# 2 32.4431 64.3258 35.8729 0.0000 4.1184 0.0000
# 3 77.0632 35.8729 164.2443 0.0000 -2.9580 0.0000
# 4 0.0000 0.0000 0.0000 84.2470 0.0000 -42.2533
# 5 -0.1804 4.1184 -2.9580 0.0000 49.0971 0.0000
# 6 0.0000 0.0000 0.0000 -42.2533 0.0000 35.0292
#
#
#
# Elastic Compliance Matrix: (Units=1/GPa)
#
#
# Indices 1 2 3 4 5 6 
#
# 1 0.015056 -0.004164 -0.006154 0.000000 0.000034 0.000000
# 2 -0.004164 0.019000 -0.002228 0.000000 -0.001743 0.000000
# 3 -0.006154 -0.002228 0.009476 0.000000 0.000735 0.000000
# 4 0.000000 0.000000 0.000000 0.030048 0.000000 0.036245
# 5 0.000034 -0.001743 0.000735 0.000000 0.020558 0.000000
# 6 0.000000 0.000000 0.000000 0.036245 0.000000 0.072267
#
#
# Mechanical properties :
#
#
# Convention : Reuss Voigt Hill
#
# Bulk Modulus (GPa) = 54.22836 69.58000 61.90418
# Shear Modulus (GPa) = 25.29808 46.34681 35.82245
#
# Velocity S-wave (km/s) = 3.57129 4.83383 4.24971
# Velocity P-wave (km/s) = 6.65920 8.13840 7.43568
#
# Compressibility (1/GPa) = 0.01844054
#
# Stress axis : x y z
#
# Youngs Moduli (GPa) = 66.41881 52.63240 105.53176
#
# Poissons Ratio (x) = 0.21914 0.64947
# Poissons Ratio (y) = 0.27655 0.23508
# Poissons Ratio (z) = 0.40876 0.11724
#
# Static dielectric constant tensor:
#      x y z
#    x 3.623510 0.000000 -0.250300 
#    y 0.000000 3.320760 0.000000 
#    z -0.250300 0.000000 3.907780 
# 
# 
# High freq. dielectric constant tensor:
#      x y z
#    x 1.776210 0.000000 -0.009970 
#    y 0.000000 1.740780 0.000000 
#    z -0.009970 0.000000 1.789700 
# 
# From -- ./inp_files/45968.got.cif
#   From: 2010.03.12/outbox.cif.g09.slc.cpg/sg5_23_cif.got.tgz:45968.got - 2010.03.31 09:47:26.
