data_PCOD8049432
_publ_section_title
;
Structure prediction by ZEFSAII (Michael W. Deem and Ramdas Pophale) SiO2 
 PCOD8049432
Probable space group: C 2
;
_chemical_formula_sum "Si O2"
_cell_formula_units_Z 26
_cell_length_a 12.082452
_cell_length_b 20.688598
_cell_length_c 8.318910
_cell_angle_alpha 90.000000
_cell_angle_beta 34.249919
_cell_angle_gamma 90.000000
_cell_volume 1170.333280
_symmetry_space_group_name_H-M "C 2"
_symmetry_group_IT_number 5
_symmetry_cell_setting 'monoclinic'
loop_
_space_group_symop_operation_xyz
x,y,z
-x,y,-z
1/2+x,1/2+y,z
1/2-x,1/2+y,-z
loop_
_atom_site_type_symbol
_atom_site_label
_atom_site_fract_x
_atom_site_fract_y
_atom_site_fract_z
Si Si1 0.500000 0.477480 0.500000
Si Si2 0.834579 0.426187 0.893338
Si Si3 0.000000 0.314219 0.500000
Si Si4 0.271500 0.269265 0.732048
Si Si5 0.398117 0.574121 0.369396
Si Si6 0.500000 0.886370 0.000000
Si Si7 0.205660 0.549919 0.267270
Si Si8 0.908048 0.219097 0.356953
O O1 0.361218 0.524343 0.559084
O O2 0.375118 0.432090 0.766771
O O3 0.851134 0.479438 0.735471
O O4 0.851233 0.356973 0.786038
O O5 0.003733 0.429951 0.831818
O O6 0.137964 0.268605 0.443753
O O7 0.500000 0.270671 0.500000
O O8 0.193992 0.341930 0.788495
O O9 0.247019 0.228663 0.599143
O O10 0.134174 0.233244 0.029362
O O11 0.268634 0.548018 0.377226
O O12 0.358977 0.646718 0.475852
O O13 0.626389 0.579558 0.044063
O O14 0.000000 0.590264 0.500000
#
# Coordination Sequence:
#
# PCOD8049432 Si02
#       8
#     2   4   2   4   4   2   4   4
#     4  10  25  42  66 100 127 196 218 276 332 404
#     4  11  23  40  68  96 134 172 224 274 337 401
#     4  12  21  42  66 102 129 178 220 276 350 380
#     4  10  20  39  64  98 127 177 219 262 350 400
#     4  10  22  43  62  99 136 172 237 269 332 395
#     4  10  22  40  60  94 132 180 214 266 340 410
#     4  10  21  38  67  99 130 177 217 284 326 389
#     4  10  22  40  68  94 137 177 218 284 328 405
#
# _framework density 22.215893999999999
#
# number of rings (size 3 to 8) (size 9 to 14) (size 15 to 20)
#    0.000    1.846    3.846    2.308    3.231    2.462 
#    0.000    3.846    3.385    3.692    0.000    0.000 
#    0.000    0.000    0.000    0.000    0.000    0.000 
#
# Total GULP energy -161058.406543 kJ/mol
# GULP energy per Si atom -12389.108196 kJ/mol
# Density = 2.216533 g / cm^3
# Si number density = 22.215894 Si / 1000 Ang^3
#
#
#
# Elastic Constant Matrix: (Units=GPa)
#
#
# Indices 1 2 3 4 5 6 
#
# 1 144.2766 62.0374 58.1533 -0.0001 -3.5131 0.0002
# 2 62.0374 125.0141 28.2466 -0.0001 13.5851 0.0002
# 3 58.1533 28.2466 92.6077 -0.0004 -9.3983 0.0005
# 4 -0.0001 -0.0001 -0.0004 7.6186 0.0001 0.9673
# 5 -3.5131 13.5851 -9.3983 0.0001 48.0094 -0.0003
# 6 0.0002 0.0002 0.0005 0.9673 -0.0003 28.8639
#
#
#
# Elastic Compliance Matrix: (Units=1/GPa)
#
#
# Indices 1 2 3 4 5 6 
#
# 1 0.011042 -0.004338 -0.005514 0.000000 0.000956 0.000000
# 2 -0.004338 0.010742 -0.000911 0.000000 -0.003535 0.000000
# 3 -0.005514 -0.000911 0.014818 0.000001 0.002755 0.000000
# 4 0.000000 0.000000 0.000001 0.131819 0.000000 -0.004418
# 5 0.000956 -0.003535 0.002755 0.000000 0.022439 0.000000
# 6 0.000000 0.000000 0.000000 -0.004418 0.000000 0.034793
#
#
# Mechanical properties :
#
#
# Convention : Reuss Voigt Hill
#
# Bulk Modulus (GPa) = 66.32865 73.19701 69.76283
# Shear Modulus (GPa) = 19.82521 31.12912 25.47717
#
# Velocity S-wave (km/s) = 2.99053 3.74733 3.39012
# Velocity P-wave (km/s) = 6.46881 7.19325 6.84063
#
# Compressibility (1/GPa) = 0.01507644
#
# Stress axis : x y z
#
# Youngs Moduli (GPa) = 90.56381 93.09527 67.48442
#
# Poissons Ratio (x) = 0.40381 0.37209
# Poissons Ratio (y) = 0.39282 0.06150
# Poissons Ratio (z) = 0.49935 0.08484
#
# Static dielectric constant tensor:
#      x y z
#    x 4.363950 0.000000 0.140640 
#    y 0.000000 4.087710 0.000000 
#    z 0.140640 0.000000 3.836990 
# 
# 
# High freq. dielectric constant tensor:
#      x y z
#    x 1.884710 0.000000 0.014970 
#    y 0.000000 1.876740 0.000000 
#    z 0.014970 0.000000 1.847840 
# 
# From -- ./inp_files/21915.got.cif
#   From: 2010.03.12/outbox.cif.g09.slc.cpg/sg5_11_cif.got.tgz:21915.got - 2010.03.31 09:47:26.
