data_PCOD8049718
_publ_section_title
;
Structure prediction by ZEFSAII (Michael W. Deem and Ramdas Pophale) SiO2 
 PCOD8049718
Probable space group: C 2
;
_chemical_formula_sum "Si O2"
_cell_formula_units_Z 28
_cell_length_a 17.562224
_cell_length_b 6.533162
_cell_length_c 12.347284
_cell_angle_alpha 90.000000
_cell_angle_beta 119.989640
_cell_angle_gamma 90.000000
_cell_volume 1227.016314
_symmetry_space_group_name_H-M "C 2"
_symmetry_group_IT_number 5
_symmetry_cell_setting 'monoclinic'
loop_
_space_group_symop_operation_xyz
x,y,z
-x,y,-z
1/2+x,1/2+y,z
1/2-x,1/2+y,-z
loop_
_atom_site_type_symbol
_atom_site_label
_atom_site_fract_x
_atom_site_fract_y
_atom_site_fract_z
Si Si1 0.818494 0.496170 0.640633
Si Si2 0.500000 0.571867 0.000000
Si Si3 0.408429 0.542703 0.258124
Si Si4 0.252327 0.757199 0.233184
Si Si5 0.882243 0.767392 0.039125
Si Si6 0.192291 0.637284 0.603613
Si Si7 0.506345 0.875996 0.822142
Si Si8 0.000000 0.817901 0.500000
O O1 0.812740 0.693076 0.715502
O O2 0.785974 0.533123 0.496062
O O3 0.758423 0.327311 0.656321
O O4 0.921554 0.454068 0.699175
O O5 0.578277 0.428984 0.017197
O O6 0.466699 0.718705 0.881220
O O7 0.333737 0.599107 0.291494
O O8 0.374664 0.366496 0.152196
O O9 0.431798 0.753662 0.215681
O O10 0.490377 0.455497 0.384920
O O11 0.283614 0.987609 0.279890
O O12 0.212037 0.729630 0.083384
O O13 0.938146 0.558666 0.083998
O O14 0.088961 0.688052 0.545649
#
# Coordination Sequence:
#
# PCOD8049718 Si02
#       8
#     4   2   4   4   4   4   4   2
#     4  12  25  47  73 109 143 184 254 296 370 436
#     4  10  20  44  68 106 136 182 240 300 364 426
#     4  11  29  45  71 107 146 196 247 305 362 452
#     4  12  27  46  74 106 151 191 243 303 373 433
#     4  11  25  46  71 109 146 190 249 298 370 447
#     4  12  28  46  74 108 144 196 239 315 363 441
#     4  11  25  43  77 104 145 197 238 309 371 434
#     4  12  28  52  72 104 154 190 254 300 384 436
#
# _framework density 22.819582
#
# number of rings (size 3 to 8) (size 9 to 14) (size 15 to 20)
#    0.000    0.571    2.857    3.857   10.000    3.429 
#    0.000    0.000    0.000    0.000    0.000    0.000 
#    0.000    0.000    0.000    0.000    0.000    0.000 
#
# Total GULP energy -173601.544654 kJ/mol
# GULP energy per Si atom -12400.110332 kJ/mol
# Density = 2.276764 g / cm^3
# Si number density = 22.819582 Si / 1000 Ang^3
#
#
#
# Elastic Constant Matrix: (Units=GPa)
#
#
# Indices 1 2 3 4 5 6 
#
# 1 83.8305 41.4690 26.2615 0.0000 8.5557 0.0000
# 2 41.4690 127.2541 52.5532 0.0000 5.4687 0.0000
# 3 26.2615 52.5532 138.7195 0.0000 8.7848 0.0000
# 4 0.0000 0.0000 0.0000 34.8984 0.0000 3.9838
# 5 8.5557 5.4687 8.7848 0.0000 41.9483 0.0000
# 6 0.0000 0.0000 0.0000 3.9838 0.0000 34.1500
#
#
#
# Elastic Compliance Matrix: (Units=1/GPa)
#
#
# Indices 1 2 3 4 5 6 
#
# 1 0.014566 -0.004233 -0.001014 0.000000 -0.002207 0.000000
# 2 -0.004233 0.010556 -0.003208 0.000000 0.000159 0.000000
# 3 -0.001014 -0.003208 0.008692 0.000000 -0.001195 0.000000
# 4 0.000000 0.000000 0.000000 0.029041 0.000000 -0.003388
# 5 -0.002207 0.000159 -0.001195 0.000000 0.024518 0.000000
# 6 0.000000 0.000000 0.000000 -0.003388 0.000000 0.029678
#
#
# Mechanical properties :
#
#
# Convention : Reuss Voigt Hill
#
# Bulk Modulus (GPa) = 59.15937 65.59681 62.37809
# Shear Modulus (GPa) = 35.81804 37.50070 36.65937
#
# Velocity S-wave (km/s) = 3.96614 4.05823 4.01245
# Velocity P-wave (km/s) = 6.85236 7.12511 6.99006
#
# Compressibility (1/GPa) = 0.01690349
#
# Stress axis : x y z
#
# Youngs Moduli (GPa) = 68.65454 94.73677 115.05279
#
# Poissons Ratio (x) = 0.40102 0.11668
# Poissons Ratio (y) = 0.29061 0.36905
# Poissons Ratio (z) = 0.06962 0.30388
#
# Static dielectric constant tensor:
#      x y z
#    x 3.938310 0.000000 -0.045070 
#    y 0.000000 4.242730 0.000000 
#    z -0.045070 0.000000 4.108490 
# 
# 
# High freq. dielectric constant tensor:
#      x y z
#    x 1.900550 0.000000 -0.004960 
#    y 0.000000 1.912450 0.000000 
#    z -0.004960 0.000000 1.907710 
# 
# From -- ./inp_files/45620.got.cif
#   From: 2010.03.12/outbox.cif.g09.slc.cpg/sg5_23_cif.got.tgz:45620.got - 2010.03.31 09:47:26.
