data_PCOD8049137
_publ_section_title
;
Structure prediction by ZEFSAII (Michael W. Deem and Ramdas Pophale) SiO2 
 PCOD8049137
Probable space group: C 2
;
_chemical_formula_sum "Si O2"
_cell_formula_units_Z 32
_cell_length_a 15.115047
_cell_length_b 22.313430
_cell_length_c 8.800774
_cell_angle_alpha 90.000000
_cell_angle_beta 149.924154
_cell_angle_gamma 90.000000
_cell_volume 1487.513619
_symmetry_space_group_name_H-M "C 2"
_symmetry_group_IT_number 5
_symmetry_cell_setting 'monoclinic'
loop_
_space_group_symop_operation_xyz
x,y,z
-x,y,-z
1/2+x,1/2+y,z
1/2-x,1/2+y,-z
loop_
_atom_site_type_symbol
_atom_site_label
_atom_site_fract_x
_atom_site_fract_y
_atom_site_fract_z
Si Si1 0.998035 0.637380 0.823709
Si Si2 0.479796 0.910105 0.149441
Si Si3 0.877119 0.169756 0.694908
Si Si4 0.221883 0.527932 0.116041
Si Si5 0.969343 0.048568 0.207090
Si Si6 0.321903 0.848079 0.163910
Si Si7 0.657906 0.431417 0.137834
Si Si8 0.186053 0.216041 0.721109
O O1 0.798970 0.649659 0.472617
O O2 0.000000 0.656859 0.000000
O O3 0.047509 0.568141 0.879419
O O4 0.151307 0.677207 0.971672
O O5 0.370827 0.852361 0.056226
O O6 0.669561 0.924195 0.502316
O O7 0.500000 0.902610 0.000000
O O8 0.347727 0.961710 0.008674
O O9 0.826400 0.214288 0.481473
O O10 0.992185 0.112386 0.812747
O O11 0.000000 0.204418 0.000000
O O12 0.326010 0.554092 0.127264
O O13 0.342986 0.527736 0.446102
O O14 0.891457 0.000571 0.971622
O O15 0.500000 0.874520 0.500000
O O16 0.169411 0.892792 0.998182
O O17 0.283746 0.781581 0.165666
O O18 0.500000 0.402584 0.000000
O O19 0.000000 0.188296 0.500000
#
# Coordination Sequence:
#
# PCOD8049137 Si02
#       8
#     4   4   4   4   4   4   4   4
#     4  10  20  36  62  97 131 175 222 273 343 412
#     4  11  23  40  65  96 137 179 232 289 346 413
#     4  11  24  39  61 100 141 171 231 282 346 412
#     4  11  21  36  61  94 138 179 223 266 346 418
#     4  11  22  37  59  93 141 180 213 278 338 415
#     4   9  21  43  66  94 126 176 236 292 336 409
#     4  11  23  39  60  94 136 180 227 269 345 404
#     4  10  20  43  71  87 126 180 228 284 348 409
#
# _framework density 21.512409000000002
#
# number of rings (size 3 to 8) (size 9 to 14) (size 15 to 20)
#    0.000    1.500    3.750    2.250    3.500    1.500 
#    0.000    7.500    0.000   13.500    0.000    0.000 
#    0.000    0.000    0.000    0.000    0.000    0.000 
#
# Total GULP energy -198218.656651 kJ/mol
# GULP energy per Si atom -12388.666041 kJ/mol
# Density = 2.146345 g / cm^3
# Si number density = 21.512409 Si / 1000 Ang^3
#
#
#
# Elastic Constant Matrix: (Units=GPa)
#
#
# Indices 1 2 3 4 5 6 
#
# 1 123.3968 47.4820 38.9667 0.0000 9.9108 0.0000
# 2 47.4820 102.0964 19.4301 0.0000 -0.2203 0.0000
# 3 38.9667 19.4301 90.1866 0.0000 -1.2866 0.0000
# 4 0.0000 0.0000 0.0000 19.5842 0.0000 -0.3877
# 5 9.9108 -0.2203 -1.2866 0.0000 29.3919 0.0000
# 6 0.0000 0.0000 0.0000 -0.3877 0.0000 34.2318
#
#
#
# Elastic Compliance Matrix: (Units=1/GPa)
#
#
# Indices 1 2 3 4 5 6 
#
# 1 0.011462 -0.004573 -0.004025 0.000000 -0.004075 0.000000
# 2 -0.004573 0.012038 -0.000595 0.000000 0.001606 0.000000
# 3 -0.004025 -0.000595 0.012983 0.000000 0.001921 0.000000
# 4 0.000000 0.000000 0.000000 0.051073 0.000000 0.000578
# 5 -0.004075 0.001606 0.001921 0.000000 0.035493 0.000000
# 6 0.000000 0.000000 0.000000 0.000578 0.000000 0.029219
#
#
# Mechanical properties :
#
#
# Convention : Reuss Voigt Hill
#
# Bulk Modulus (GPa) = 55.25892 58.60416 56.93154
# Shear Modulus (GPa) = 28.29851 30.62831 29.46341
#
# Velocity S-wave (km/s) = 3.63085 3.77736 3.70483
# Velocity P-wave (km/s) = 6.58181 6.80630 6.69499
#
# Compressibility (1/GPa) = 0.01809663
#
# Stress axis : x y z
#
# Youngs Moduli (GPa) = 87.24321 83.06835 77.02482
#
# Poissons Ratio (x) = 0.37991 0.31005
# Poissons Ratio (y) = 0.39900 0.04580
# Poissons Ratio (z) = 0.35118 0.04939
#
# Static dielectric constant tensor:
#      x y z
#    x 4.360770 0.000000 0.289590 
#    y 0.000000 3.555190 0.000000 
#    z 0.289590 0.000000 4.085380 
# 
# 
# High freq. dielectric constant tensor:
#      x y z
#    x 1.860580 0.000000 0.020400 
#    y 0.000000 1.822910 0.000000 
#    z 0.020400 0.000000 1.834530 
# 
# From -- ./inp_files/25682.got.cif
#   From: 2010.03.12/outbox.cif.g09.slc.cpg/sg5_13_cif.got.tgz:25682.got - 2010.03.31 09:47:26.
