data_PCOD8049889
_publ_section_title
;
Structure prediction by ZEFSAII (Michael W. Deem and Ramdas Pophale) SiO2 
 PCOD8049889
Probable space group: C 2
;
_chemical_formula_sum "Si O2"
_cell_formula_units_Z 22
_cell_length_a 8.363086
_cell_length_b 11.591688
_cell_length_c 13.300373
_cell_angle_alpha 90.000000
_cell_angle_beta 53.546242
_cell_angle_gamma 90.000000
_cell_volume 1037.086385
_symmetry_space_group_name_H-M "C 2"
_symmetry_group_IT_number 5
_symmetry_cell_setting 'monoclinic'
loop_
_space_group_symop_operation_xyz
x,y,z
-x,y,-z
1/2+x,1/2+y,z
1/2-x,1/2+y,-z
loop_
_atom_site_type_symbol
_atom_site_label
_atom_site_fract_x
_atom_site_fract_y
_atom_site_fract_z
Si Si1 0.865488 0.424990 0.211520
Si Si2 0.500000 0.748294 0.000000
Si Si3 0.274401 0.307281 0.554173
Si Si4 0.172584 0.578997 0.366345
Si Si5 0.432231 0.376941 0.294346
Si Si6 0.913694 0.650230 0.822042
O O1 0.869981 0.392381 0.328527
O O2 0.638457 0.428482 0.259603
O O3 0.976085 0.548099 0.159215
O O4 0.983184 0.328915 0.104334
O O5 0.688283 0.663910 0.945050
O O6 0.500000 0.329399 0.500000
O O7 0.217147 0.176311 0.606465
O O8 0.268852 0.335491 0.438302
O O9 0.328090 0.481380 0.273964
O O10 0.083250 0.637016 0.299956
O O11 0.000000 0.525033 0.500000
O O12 0.471001 0.271420 0.202942
#
# Coordination Sequence:
#
# PCOD8049889 Si02
#       6
#     4   2   4   4   4   4
#     4  10  21  41  62  81 119 155 193 246 292 340
#     4  10  22  40  60  84 112 160 200 244 298 334
#     4   9  16  35  60  84 116 154 181 227 290 347
#     4  11  19  38  63  88 125 155 187 237 291 352
#     4  10  21  38  61  90 120 154 190 231 299 356
#     4  11  22  41  61  87 115 154 200 244 292 345
#
# _framework density 21.213277000000001
#
# number of rings (size 3 to 8) (size 9 to 14) (size 15 to 20)
#    0.000    1.818    7.273    1.091    0.000    2.909 
#    6.545    0.000    0.000    0.000    0.000    0.000 
#    0.000    0.000    0.000    0.000    0.000    0.000 
#
# Total GULP energy -136325.997386 kJ/mol
# GULP energy per Si atom -12393.272490 kJ/mol
# Density = 2.116500 g / cm^3
# Si number density = 21.213277 Si / 1000 Ang^3
#
#
#
# Elastic Constant Matrix: (Units=GPa)
#
#
# Indices 1 2 3 4 5 6 
#
# 1 29.6233 41.0056 13.3960 0.0000 -12.4072 0.0000
# 2 41.0056 136.5507 30.5856 0.0000 -33.1763 0.0000
# 3 13.3960 30.5856 93.7862 0.0000 -19.5195 0.0000
# 4 0.0000 0.0000 0.0000 36.0895 0.0000 -16.6864
# 5 -12.4072 -33.1763 -19.5195 0.0000 22.2409 0.0000
# 6 0.0000 0.0000 0.0000 -16.6864 0.0000 39.8883
#
#
#
# Elastic Compliance Matrix: (Units=1/GPa)
#
#
# Indices 1 2 3 4 5 6 
#
# 1 0.059421 -0.015327 -0.001650 0.000000 0.008837 0.000000
# 2 -0.015327 0.015443 0.000205 0.000000 0.014666 0.000000
# 3 -0.001650 0.000205 0.013095 0.000000 0.010879 0.000000
# 4 0.000000 0.000000 0.000000 0.034353 0.000000 0.014371
# 5 0.008837 0.014666 0.010879 0.000000 0.081317 0.000000
# 6 0.000000 0.000000 0.000000 0.014371 0.000000 0.031082
#
#
# Mechanical properties :
#
#
# Convention : Reuss Voigt Hill
#
# Bulk Modulus (GPa) = 18.37678 47.77050 33.07364
# Shear Modulus (GPa) = 17.45845 31.30862 24.38353
#
# Velocity S-wave (km/s) = 2.87190 3.84591 3.39403
# Velocity P-wave (km/s) = 4.43608 6.50303 5.56633
#
# Compressibility (1/GPa) = 0.05441651
#
# Stress axis : x y z
#
# Youngs Moduli (GPa) = 16.82910 64.75286 76.36225
#
# Poissons Ratio (x) = 0.99249 0.12597
# Poissons Ratio (y) = 0.25794 -0.01568
# Poissons Ratio (z) = 0.02776 -0.01330
#
# Static dielectric constant tensor:
#      x y z
#    x 3.296150 0.000000 -0.090610 
#    y 0.000000 3.901720 0.000000 
#    z -0.090610 0.000000 4.024680 
# 
# 
# High freq. dielectric constant tensor:
#      x y z
#    x 1.779710 0.000000 -0.012600 
#    y 0.000000 1.840560 0.000000 
#    z -0.012600 0.000000 1.835530 
# 
# From -- ./inp_files/35179.got.cif
#   From: 2010.03.12/outbox.cif.g09.slc.cpg/sg5_18_cif.got.tgz:35179.got - 2010.03.31 09:47:26.
