data_PCOD8049401
_publ_section_title
;
Structure prediction by ZEFSAII (Michael W. Deem and Ramdas Pophale) SiO2 
 PCOD8049401
Probable space group: C 2
;
_chemical_formula_sum "Si O2"
_cell_formula_units_Z 28
_cell_length_a 11.895083
_cell_length_b 14.198376
_cell_length_c 8.484769
_cell_angle_alpha 90.000000
_cell_angle_beta 115.932855
_cell_angle_gamma 90.000000
_cell_volume 1288.707103
_symmetry_space_group_name_H-M "C 2"
_symmetry_group_IT_number 5
_symmetry_cell_setting 'monoclinic'
loop_
_space_group_symop_operation_xyz
x,y,z
-x,y,-z
1/2+x,1/2+y,z
1/2-x,1/2+y,-z
loop_
_atom_site_type_symbol
_atom_site_label
_atom_site_fract_x
_atom_site_fract_y
_atom_site_fract_z
Si Si1 0.000000 0.701620 0.500000
Si Si2 0.875536 0.227235 0.020684
Si Si3 0.366684 0.693925 0.370301
Si Si4 0.853864 0.622717 0.138441
Si Si5 0.355908 0.941055 0.961095
Si Si6 0.000000 0.745281 0.000000
Si Si7 0.648321 0.484180 0.570008
Si Si8 0.152724 0.819927 0.366525
O O1 0.038578 0.632400 0.665687
O O2 0.110882 0.767906 0.502381
O O3 0.874806 0.176017 0.188848
O O4 0.766476 0.173841 0.859042
O O5 0.846509 0.337056 0.026638
O O6 0.000000 0.209618 0.000000
O O7 0.500000 0.733591 0.500000
O O8 0.333094 0.595872 0.437154
O O9 0.274605 0.774381 0.368492
O O10 0.826093 0.514116 0.082789
O O11 0.890327 0.677120 0.997629
O O12 0.247883 0.949218 0.762661
O O13 0.500000 0.961309 0.000000
O O14 0.955227 0.813036 0.831573
O O15 0.500000 0.461332 0.500000
O O16 0.683186 0.428388 0.430393
#
# Coordination Sequence:
#
# PCOD8049401 Si02
#       8
#     2   4   4   4   4   2   4   4
#     4  10  24  36  72 106 136 172 240 304 336 406
#     4  11  25  45  71 100 142 187 229 286 354 426
#     4  11  26  46  68  99 144 188 224 288 357 420
#     4  11  21  46  69 100 139 182 240 290 351 414
#     4  11  24  43  72 101 137 190 232 291 359 414
#     4  10  20  38  74 102 136 178 234 304 342 406
#     4  11  24  45  72 100 140 189 233 288 357 417
#     4  11  22  44  73 102 137 186 237 285 353 421
#
# _framework density 21.727202999999999
#
# number of rings (size 3 to 8) (size 9 to 14) (size 15 to 20)
#    0.000    1.143    4.286    0.857   10.000    0.000 
#    3.857    0.000    7.857    0.000    0.000    0.000 
#    0.000    0.000    0.000    0.000    0.000    0.000 
#
# Total GULP energy -173546.874930 kJ/mol
# GULP energy per Si atom -12396.205352 kJ/mol
# Density = 2.167775 g / cm^3
# Si number density = 21.727203 Si / 1000 Ang^3
#
#
#
# Elastic Constant Matrix: (Units=GPa)
#
#
# Indices 1 2 3 4 5 6 
#
# 1 114.4488 53.0078 35.8277 0.0000 9.4308 0.0000
# 2 53.0078 135.1525 41.3286 0.0000 -1.7830 0.0000
# 3 35.8277 41.3286 100.0449 0.0000 6.9233 0.0000
# 4 0.0000 0.0000 0.0000 33.9309 0.0000 -10.4808
# 5 9.4308 -1.7830 6.9233 0.0000 38.5377 0.0000
# 6 0.0000 0.0000 0.0000 -10.4808 0.0000 19.6743
#
#
#
# Elastic Compliance Matrix: (Units=1/GPa)
#
#
# Indices 1 2 3 4 5 6 
#
# 1 0.011446 -0.003804 -0.002351 0.000000 -0.002555 0.000000
# 2 -0.003804 0.009774 -0.002806 0.000000 0.001887 0.000000
# 3 -0.002351 -0.002806 0.012116 0.000000 -0.001731 0.000000
# 4 0.000000 0.000000 0.000000 0.035276 0.000000 0.018792
# 5 -0.002555 0.001887 -0.001731 0.000000 0.026972 0.000000
# 6 0.000000 0.000000 0.000000 0.018792 0.000000 0.060839
#
#
# Mechanical properties :
#
#
# Convention : Reuss Voigt Hill
#
# Bulk Modulus (GPa) = 64.87304 67.77490 66.32397
# Shear Modulus (GPa) = 27.85785 33.06072 30.45928
#
# Velocity S-wave (km/s) = 3.58462 3.90504 3.74825
# Velocity P-wave (km/s) = 6.85970 7.18288 7.02315
#
# Compressibility (1/GPa) = 0.01541472
#
# Stress axis : x y z
#
# Youngs Moduli (GPa) = 87.36862 102.31296 82.53363
#
# Poissons Ratio (x) = 0.38920 0.19401
# Poissons Ratio (y) = 0.33235 0.23158
# Poissons Ratio (z) = 0.20538 0.28708
#
# Static dielectric constant tensor:
#      x y z
#    x 3.997580 0.000000 0.281090 
#    y 0.000000 3.894110 0.000000 
#    z 0.281090 0.000000 4.088580 
# 
# 
# High freq. dielectric constant tensor:
#      x y z
#    x 1.851520 0.000000 0.019340 
#    y 0.000000 1.848650 0.000000 
#    z 0.019340 0.000000 1.858960 
# 
# From -- ./inp_files/20762.got.cif
#   From: 2010.03.12/outbox.cif.g09.slc.cpg/sg5_11_cif.got.tgz:20762.got - 2010.03.31 09:47:26.
