data_PCOD8049085
_publ_section_title
;
Structure prediction by ZEFSAII (Michael W. Deem and Ramdas Pophale) SiO2 
 PCOD8049085
Probable space group: C 2
;
_chemical_formula_sum "Si O2"
_cell_formula_units_Z 32
_cell_length_a 15.071840
_cell_length_b 8.094113
_cell_length_c 16.104608
_cell_angle_alpha 90.000000
_cell_angle_beta 124.406572
_cell_angle_gamma 90.000000
_cell_volume 1620.933788
_symmetry_space_group_name_H-M "C 2"
_symmetry_group_IT_number 5
_symmetry_cell_setting 'monoclinic'
loop_
_space_group_symop_operation_xyz
x,y,z
-x,y,-z
1/2+x,1/2+y,z
1/2-x,1/2+y,-z
loop_
_atom_site_type_symbol
_atom_site_label
_atom_site_fract_x
_atom_site_fract_y
_atom_site_fract_z
Si Si1 0.548070 0.323320 0.331248
Si Si2 0.111316 0.580833 0.026300
Si Si3 0.810326 0.033000 0.716213
Si Si4 0.303780 0.776593 0.848409
Si Si5 0.618713 0.222451 0.531626
Si Si6 0.370439 0.482236 0.333720
Si Si7 0.373190 0.080481 0.160986
Si Si8 0.210556 0.289376 0.788256
O O1 0.602314 0.449201 0.296284
O O2 0.629384 0.225175 0.436397
O O3 0.489345 0.440476 0.366137
O O4 0.471194 0.191569 0.246177
O O5 0.110356 0.392690 0.060837
O O6 0.213408 0.687714 0.108836
O O7 0.111956 0.567876 0.928390
O O8 0.000000 0.662957 0.000000
O O9 0.856935 0.186714 0.795678
O O10 0.704523 0.089242 0.610206
O O11 0.785270 0.899579 0.771676
O O12 0.209224 0.895359 0.771083
O O13 0.245935 0.650670 0.881706
O O14 0.500000 0.164039 0.500000
O O15 0.645491 0.406569 0.582532
O O16 0.352362 0.677170 0.312977
O O17 0.375515 0.898074 0.204531
#
# Coordination Sequence:
#
# PCOD8049085 Si02
#       8
#     4   4   4   4   4   4   4   4
#     4  10  20  36  56  81 110 143 183 227 270 319
#     4  11  21  34  54  83 112 141 181 232 274 318
#     4  10  20  36  57  81 108 141 181 231 275 317
#     4   8  18  36  53  73 107 146 179 215 271 329
#     4   9  18  37  57  77 110 149 180 218 274 334
#     4   8  17  34  56  76 104 142 181 218 265 326
#     4  10  20  37  57  78 108 148 184 222 270 331
#     4  10  20  36  57  81 108 144 183 223 273 330
#
# _framework density 19.741707999999999
#
# number of rings (size 3 to 8) (size 9 to 14) (size 15 to 20)
#    0.000    2.500    0.000    3.750    0.000    2.000 
#    0.000   16.875    0.000    0.000    0.000    0.000 
#    0.000    0.000    0.000    0.000    0.000    0.000 
#
# Total GULP energy -198208.899381 kJ/mol
# GULP energy per Si atom -12388.056211 kJ/mol
# Density = 1.969677 g / cm^3
# Si number density = 19.741708 Si / 1000 Ang^3
#
#
#
# Elastic Constant Matrix: (Units=GPa)
#
#
# Indices 1 2 3 4 5 6 
#
# 1 78.9901 34.1814 34.8603 0.0000 -13.0694 0.0000
# 2 34.1814 99.4397 44.3967 0.0000 -0.2518 0.0000
# 3 34.8603 44.3967 108.7132 0.0000 -12.6684 0.0000
# 4 0.0000 0.0000 0.0000 24.9303 0.0000 -1.6511
# 5 -13.0694 -0.2518 -12.6684 0.0000 30.8912 0.0000
# 6 0.0000 0.0000 0.0000 -1.6511 0.0000 32.2918
#
#
#
# Elastic Compliance Matrix: (Units=1/GPa)
#
#
# Indices 1 2 3 4 5 6 
#
# 1 0.016853 -0.004492 -0.002881 0.000000 0.005912 0.000000
# 2 -0.004492 0.013622 -0.004548 0.000000 -0.003655 0.000000
# 3 -0.002881 -0.004548 0.012427 0.000000 0.003841 0.000000
# 4 0.000000 0.000000 0.000000 0.040248 0.000000 0.002058
# 5 0.005912 -0.003655 0.003841 0.000000 0.036418 0.000000
# 6 0.000000 0.000000 0.000000 0.002058 0.000000 0.031073
#
#
# Mechanical properties :
#
#
# Convention : Reuss Voigt Hill
#
# Bulk Modulus (GPa) = 52.46583 57.11329 54.78956
# Shear Modulus (GPa) = 27.64917 29.20299 28.42608
#
# Velocity S-wave (km/s) = 3.74645 3.85028 3.79872
# Velocity P-wave (km/s) = 6.73412 6.98278 6.85958
#
# Compressibility (1/GPa) = 0.01906002
#
# Stress axis : x y z
#
# Youngs Moduli (GPa) = 59.33585 73.41126 80.46787
#
# Poissons Ratio (x) = 0.32976 0.23181
# Poissons Ratio (y) = 0.26653 0.36600
# Poissons Ratio (z) = 0.17093 0.33391
#
# Static dielectric constant tensor:
#      x y z
#    x 3.510180 0.000000 -0.061400 
#    y 0.000000 3.943680 0.000000 
#    z -0.061400 0.000000 3.831800 
# 
# 
# High freq. dielectric constant tensor:
#      x y z
#    x 1.748830 0.000000 -0.008820 
#    y 0.000000 1.767520 0.000000 
#    z -0.008820 0.000000 1.777870 
# 
# From -- ./inp_files/54152.got.cif
#   From: 2010.03.12/outbox.cif.g09.slc.cpg/sg5_28_cif.got.tgz:54152.got - 2010.03.31 09:47:26.
