data_PCOD8049345
_publ_section_title
;
Structure prediction by ZEFSAII (Michael W. Deem and Ramdas Pophale) SiO2 
 PCOD8049345
Probable space group: C 2
;
_chemical_formula_sum "Si O2"
_cell_formula_units_Z 20
_cell_length_a 14.397134
_cell_length_b 12.231031
_cell_length_c 12.103979
_cell_angle_alpha 90.000000
_cell_angle_beta 152.979223
_cell_angle_gamma 90.000000
_cell_volume 968.329108
_symmetry_space_group_name_H-M "C 2"
_symmetry_group_IT_number 5
_symmetry_cell_setting 'monoclinic'
loop_
_space_group_symop_operation_xyz
x,y,z
-x,y,-z
1/2+x,1/2+y,z
1/2-x,1/2+y,-z
loop_
_atom_site_type_symbol
_atom_site_label
_atom_site_fract_x
_atom_site_fract_y
_atom_site_fract_z
Si Si1 0.597035 0.564300 0.936972
Si Si2 0.533638 0.457247 0.409349
Si Si3 0.657299 0.036586 0.423143
Si Si4 0.627183 0.237025 0.845325
Si Si5 0.623370 0.883806 0.734314
O O1 0.626859 0.521047 0.840328
O O2 0.356389 0.567578 0.711107
O O3 0.707788 0.681686 0.063245
O O4 0.718263 0.476986 0.141301
O O5 0.500000 0.491490 0.500000
O O6 0.761932 0.492244 0.610477
O O7 0.497856 0.327595 0.355182
O O8 0.528060 0.146555 0.271871
O O9 0.534359 0.937720 0.346994
O O10 0.751585 0.284885 0.080316
O O11 0.500000 0.835453 0.500000
#
# Coordination Sequence:
#
# PCOD8049345 Si02
#       5
#     4   4   4   4   4
#     4   8  20  38  59  84 128 156 201 253 307 358
#     4   9  20  40  63  87 121 161 205 255 305 365
#     4   9  21  40  63  85 131 159 199 257 320 350
#     4  10  20  38  63  91 119 162 205 258 299 370
#     4  10  21  38  60  89 126 159 205 248 300 375
#
# _framework density 20.654133999999999
#
# number of rings (size 3 to 8) (size 9 to 14) (size 15 to 20)
#    1.200    1.600    0.000    0.000    2.800    4.800 
#    0.000   11.000    0.000    0.000    0.000    0.000 
#    0.000    0.000    0.000    0.000    0.000    0.000 
#
# Total GULP energy -123886.027332 kJ/mol
# GULP energy per Si atom -12388.602733 kJ/mol
# Density = 2.060712 g / cm^3
# Si number density = 20.654134 Si / 1000 Ang^3
#
#
#
# Elastic Constant Matrix: (Units=GPa)
#
#
# Indices 1 2 3 4 5 6 
#
# 1 79.6240 11.8600 23.8987 -0.0014 21.2140 -0.0024
# 2 11.8600 78.3606 17.1026 -0.0103 27.3421 -0.0099
# 3 23.8987 17.1026 87.3443 -0.0062 27.8722 -0.0065
# 4 -0.0014 -0.0103 -0.0062 37.4354 0.0027 14.3491
# 5 21.2140 27.3421 27.8722 0.0027 34.3353 0.0019
# 6 -0.0024 -0.0099 -0.0065 14.3491 0.0019 20.4788
#
#
#
# Elastic Compliance Matrix: (Units=1/GPa)
#
#
# Indices 1 2 3 4 5 6 
#
# 1 0.015275 0.001225 -0.001480 0.000000 -0.009212 0.000003
# 2 0.001225 0.017896 0.001282 0.000003 -0.016049 0.000009
# 3 -0.001480 0.001282 0.015705 0.000002 -0.012855 0.000005
# 4 0.000000 0.000003 0.000002 0.036521 -0.000006 -0.025590
# 5 -0.009212 -0.016049 -0.012855 -0.000006 0.058032 -0.000014
# 6 0.000003 0.000009 0.000005 -0.025590 -0.000014 0.066761
#
#
# Mechanical properties :
#
#
# Convention : Reuss Voigt Hill
#
# Bulk Modulus (GPa) = 19.63422 39.00574 29.31998
# Shear Modulus (GPa) = 22.21105 31.28105 26.74605
#
# Velocity S-wave (km/s) = 3.28286 3.89590 3.60244
# Velocity P-wave (km/s) = 4.88839 6.25808 5.61516
#
# Compressibility (1/GPa) = 0.05093149
#
# Stress axis : x y z
#
# Youngs Moduli (GPa) = 65.46626 55.87787 63.67370
#
# Poissons Ratio (x) = -0.06848 0.09422
# Poissons Ratio (y) = -0.08023 -0.08162
# Poissons Ratio (z) = 0.09687 -0.07163
#
# Static dielectric constant tensor:
#      x y z
#    x 3.322490 0.000000 0.268120 
#    y 0.000000 3.656630 -0.000010 
#    z 0.268120 -0.000010 3.816610 
# 
# 
# High freq. dielectric constant tensor:
#      x y z
#    x 1.774970 0.000000 0.021160 
#    y 0.000000 1.807380 0.000000 
#    z 0.021160 0.000000 1.812350 
# 
# From -- ./inp_files/42593.got.cif
#   From: 2010.03.12/outbox.cif.g09.slc.cpg/sg5_22_cif.got.tgz:42593.got - 2010.03.31 09:47:26.
