data_PCOD8049959
_publ_section_title
;
Structure prediction by ZEFSAII (Michael W. Deem and Ramdas Pophale) SiO2 
 PCOD8049959
Probable space group: C 2
;
_chemical_formula_sum "Si O2"
_cell_formula_units_Z 24
_cell_length_a 17.669422
_cell_length_b 8.734815
_cell_length_c 15.111760
_cell_angle_alpha 90.000000
_cell_angle_beta 30.577314
_cell_angle_gamma 90.000000
_cell_volume 1186.460613
_symmetry_space_group_name_H-M "C 2"
_symmetry_group_IT_number 5
_symmetry_cell_setting 'monoclinic'
loop_
_space_group_symop_operation_xyz
x,y,z
-x,y,-z
1/2+x,1/2+y,z
1/2-x,1/2+y,-z
loop_
_atom_site_type_symbol
_atom_site_label
_atom_site_fract_x
_atom_site_fract_y
_atom_site_fract_z
Si Si1 0.858917 0.984540 0.823535
Si Si2 0.824597 0.982566 0.169361
Si Si3 0.329274 0.127163 0.833216
Si Si4 0.669101 0.635039 0.514457
Si Si5 0.169872 0.173041 0.318538
Si Si6 0.855458 0.490355 0.474187
O O1 0.854167 0.803340 0.828966
O O2 0.815975 0.042945 0.769196
O O3 0.023114 0.038350 0.686478
O O4 0.740188 0.047303 0.011675
O O5 0.771085 0.816371 0.189137
O O6 0.758544 0.020646 0.331602
O O7 0.775013 0.108747 0.147691
O O8 0.000000 0.984386 0.000000
O O9 0.484814 0.047036 0.655035
O O10 0.720681 0.602408 0.361522
O O11 0.804128 0.586551 0.440951
O O12 0.633955 0.813348 0.562877
O O13 0.000000 0.232282 0.500000
#
# Coordination Sequence:
#
# PCOD8049959 Si02
#       6
#     4   4   4   4   4   4
#     4  11  23  40  63  89 122 160 204 252 302 361
#     4  11  23  40  62  89 122 158 200 250 305 362
#     4  12  24  40  62  88 121 162 204 253 306 359
#     4  10  21  39  61  92 125 161 202 246 297 355
#     4   9  20  40  63  89 124 160 197 245 299 359
#     4  11  23  39  63  91 126 163 201 248 299 358
#
# _framework density 20.228231000000001
#
# number of rings (size 3 to 8) (size 9 to 14) (size 15 to 20)
#    0.000    1.333    0.000    7.500    0.000    9.333 
#    0.000    0.833    0.000    0.000    0.000    0.000 
#    0.000    0.000    0.000    0.000    0.000    0.000 
#
# Total GULP energy -148875.336877 kJ/mol
# GULP energy per Si atom -12406.278073 kJ/mol
# Density = 2.018219 g / cm^3
# Si number density = 20.228231 Si / 1000 Ang^3
#
#
#
# Elastic Constant Matrix: (Units=GPa)
#
#
# Indices 1 2 3 4 5 6 
#
# 1 122.1641 48.4025 45.5386 0.0000 -4.0519 0.0000
# 2 48.4025 135.4544 46.9684 0.0000 -2.4000 0.0000
# 3 45.5386 46.9684 119.9428 0.0000 -8.2751 0.0000
# 4 0.0000 0.0000 0.0000 33.6699 0.0000 6.6051
# 5 -4.0519 -2.4000 -8.2751 0.0000 33.7145 0.0000
# 6 0.0000 0.0000 0.0000 6.6051 0.0000 65.4846
#
#
#
# Elastic Compliance Matrix: (Units=1/GPa)
#
#
# Indices 1 2 3 4 5 6 
#
# 1 0.010325 -0.002699 -0.002839 0.000000 0.000352 0.000000
# 2 -0.002699 0.009249 -0.002619 0.000000 -0.000309 0.000000
# 3 -0.002839 -0.002619 0.010583 0.000000 0.002070 0.000000
# 4 0.000000 0.000000 0.000000 0.030300 0.000000 -0.003056
# 5 0.000352 -0.000309 0.002070 0.000000 0.030189 0.000000
# 6 0.000000 0.000000 0.000000 -0.003056 0.000000 0.015579
#
#
# Mechanical properties :
#
#
# Convention : Reuss Voigt Hill
#
# Bulk Modulus (GPa) = 72.22815 73.26450 72.74632
# Shear Modulus (GPa) = 39.32251 42.35059 40.83655
#
# Velocity S-wave (km/s) = 4.41380 4.58059 4.49797
# Velocity P-wave (km/s) = 7.85873 8.01706 7.93829
#
# Compressibility (1/GPa) = 0.01384502
#
# Stress axis : x y z
#
# Youngs Moduli (GPa) = 96.85284 108.11426 94.48746
#
# Poissons Ratio (x) = 0.29178 0.26824
# Poissons Ratio (y) = 0.26139 0.24743
# Poissons Ratio (z) = 0.27496 0.28311
#
# Static dielectric constant tensor:
#      x y z
#    x 3.825860 0.000000 0.099570 
#    y 0.000000 3.616920 0.000000 
#    z 0.099570 0.000000 3.652020 
# 
# 
# High freq. dielectric constant tensor:
#      x y z
#    x 1.805030 0.000000 0.005430 
#    y 0.000000 1.789700 0.000000 
#    z 0.005430 0.000000 1.791960 
# 
# From -- ./inp_files/32454.got.cif
#   From: 2010.03.12/outbox.cif.g09.slc.cpg/sg5_17_cif.got.tgz:32454.got - 2010.03.31 09:47:26.
