data_PCOD8049294
_publ_section_title
;
Structure prediction by ZEFSAII (Michael W. Deem and Ramdas Pophale) SiO2 
 PCOD8049294
Probable space group: C 2
;
_chemical_formula_sum "Si O2"
_cell_formula_units_Z 30
_cell_length_a 20.897115
_cell_length_b 5.198996
_cell_length_c 23.489882
_cell_angle_alpha 90.000000
_cell_angle_beta 153.649356
_cell_angle_gamma 90.000000
_cell_volume 1132.755063
_symmetry_space_group_name_H-M "C 2"
_symmetry_group_IT_number 5
_symmetry_cell_setting 'monoclinic'
loop_
_space_group_symop_operation_xyz
x,y,z
-x,y,-z
1/2+x,1/2+y,z
1/2-x,1/2+y,-z
loop_
_atom_site_type_symbol
_atom_site_label
_atom_site_fract_x
_atom_site_fract_y
_atom_site_fract_z
Si Si1 0.052805 0.160270 0.451264
Si Si2 0.666310 0.628359 0.424099
Si Si3 0.666740 0.863760 0.310547
Si Si4 0.570575 0.190631 0.832474
Si Si5 0.203071 0.177588 0.220722
Si Si6 0.728901 0.160056 0.180721
Si Si7 0.000000 0.545494 0.500000
Si Si8 0.188730 0.196397 0.879992
O O1 0.056083 0.224259 0.385901
O O2 0.886975 0.109336 0.332553
O O3 0.094565 0.388400 0.528037
O O4 0.161715 0.925527 0.552169
O O5 0.699941 0.327491 0.460702
O O6 0.617792 0.661706 0.319975
O O7 0.580399 0.131496 0.255126
O O8 0.620784 0.729271 0.214931
O O9 0.597233 0.958248 0.809315
O O10 0.576163 0.453353 0.798582
O O11 0.696952 0.193846 0.978789
O O12 0.145941 0.401215 0.132847
O O13 0.377044 0.203549 0.368495
O O14 0.159159 0.906501 0.157006
O O15 0.723944 0.186767 0.109094
#
# Coordination Sequence:
#
# PCOD8049294 Si02
#       8
#     4   4   4   4   4   4   2   4
#     4  10  21  36  58  88 121 160 201 248 308 362
#     4  10  22  35  52  81 119 155 190 244 304 359
#     4  11  22  39  60  92 128 160 207 260 314 378
#     4  10  23  40  70  92 120 161 200 262 324 371
#     4  11  23  37  59  87 121 167 204 246 304 359
#     4  11  23  39  62  88 122 164 206 250 295 368
#     4  10  20  38  58  84 126 170 210 248 294 382
#     4  10  22  45  65  93 120 157 211 255 314 384
#
# _framework density 26.484102
#
# number of rings (size 3 to 8) (size 9 to 14) (size 15 to 20)
#    0.000    1.600    0.000    4.800    0.000   14.400 
#    0.000    0.667    0.000    3.200    0.000    0.000 
#    0.000    0.000    0.000    0.000    0.000    0.000 
#
# Total GULP energy -185884.127733 kJ/mol
# GULP energy per Si atom -12392.275182 kJ/mol
# Density = 2.642382 g / cm^3
# Si number density = 26.484102 Si / 1000 Ang^3
#
#
#
# Elastic Constant Matrix: (Units=GPa)
#
#
# Indices 1 2 3 4 5 6 
#
# 1 200.0898 83.1872 7.6699 0.0031 -38.6965 0.0268
# 2 83.1872 185.2537 9.5276 0.0247 -23.2998 0.1102
# 3 7.6699 9.5276 16.1428 -0.0098 0.7605 0.0066
# 4 0.0031 0.0247 -0.0098 18.3060 -0.0021 -4.5638
# 5 -38.6965 -23.2998 0.7605 -0.0021 32.2464 0.0051
# 6 0.0268 0.1102 0.0066 -4.5638 0.0051 48.8172
#
#
#
# Elastic Compliance Matrix: (Units=1/GPa)
#
#
# Indices 1 2 3 4 5 6 
#
# 1 0.007477 -0.002300 -0.002542 0.000002 0.007371 0.000001
# 2 -0.002300 0.006876 -0.003073 -0.000014 0.002281 -0.000015
# 3 -0.002542 -0.003073 0.065290 0.000040 -0.006811 0.000004
# 4 0.000002 -0.000014 0.000040 0.055931 -0.000006 0.005229
# 5 0.007371 0.002281 -0.006811 -0.000006 0.041665 -0.000013
# 6 0.000001 -0.000015 0.000004 0.005229 -0.000013 0.020973
#
#
# Mechanical properties :
#
#
# Convention : Reuss Voigt Hill
#
# Bulk Modulus (GPa) = 15.67095 66.91731 41.29413
# Shear Modulus (GPa) = 21.24843 39.94735 30.59789
#
# Velocity S-wave (km/s) = 2.83558 3.88796 3.40270
# Velocity P-wave (km/s) = 4.08052 6.74365 5.57349
#
# Compressibility (1/GPa) = 0.06381232
#
# Stress axis : x y z
#
# Youngs Moduli (GPa) = 133.74863 145.44303 15.31633
#
# Poissons Ratio (x) = 0.33446 0.03894
# Poissons Ratio (y) = 0.30757 0.04706
# Poissons Ratio (z) = 0.34004 0.44693
#
# Static dielectric constant tensor:
#      x y z
#    x 4.943510 -0.000070 -0.138060 
#    y -0.000070 4.868620 -0.000020 
#    z -0.138060 -0.000020 4.400660 
# 
# 
# High freq. dielectric constant tensor:
#      x y z
#    x 2.074730 0.000000 -0.014040 
#    y 0.000000 2.065630 0.000000 
#    z -0.014040 0.000000 2.047160 
# 
# From -- ./inp_files/69376.got.cif
#   From: 2010.03.12/outbox.cif.g09.slc.cpg/sg5_35_cif.got.tgz:69376.got - 2010.03.31 09:47:26.
