data_PCOD8049091
_publ_section_title
;
Structure prediction by ZEFSAII (Michael W. Deem and Ramdas Pophale) SiO2 
 PCOD8049091
Probable space group: C 2
;
_chemical_formula_sum "Si O2"
_cell_formula_units_Z 26
_cell_length_a 13.828279
_cell_length_b 9.702376
_cell_length_c 10.931872
_cell_angle_alpha 90.000000
_cell_angle_beta 110.367301
_cell_angle_gamma 90.000000
_cell_volume 1375.001398
_symmetry_space_group_name_H-M "C 2"
_symmetry_group_IT_number 5
_symmetry_cell_setting 'monoclinic'
loop_
_space_group_symop_operation_xyz
x,y,z
-x,y,-z
1/2+x,1/2+y,z
1/2-x,1/2+y,-z
loop_
_atom_site_type_symbol
_atom_site_label
_atom_site_fract_x
_atom_site_fract_y
_atom_site_fract_z
Si Si1 0.971108 0.170040 0.621061
Si Si2 0.905881 0.476956 0.536989
Si Si3 0.500000 0.269729 0.000000
Si Si4 0.139780 0.674515 0.264374
Si Si5 0.686379 0.670740 0.844594
Si Si6 0.306638 0.437150 0.955108
Si Si7 0.311433 0.476325 0.680787
O O1 0.930546 0.323605 0.588974
O O2 0.877438 0.084222 0.634238
O O3 0.000000 0.109899 0.500000
O O4 0.066378 0.166721 0.757274
O O5 0.888969 0.562129 0.650992
O O6 0.806757 0.483983 0.408720
O O7 0.000000 0.539714 0.500000
O O8 0.447554 0.170757 0.877989
O O9 0.415626 0.364154 0.031656
O O10 0.250119 0.641713 0.251493
O O11 0.143473 0.825025 0.327734
O O12 0.716570 0.820618 0.913270
O O13 0.715967 0.552373 0.954382
O O14 0.315842 0.509775 0.826860
#
# Coordination Sequence:
#
# PCOD8049091 Si02
#       7
#     4   4   2   4   4   4   4
#     4  11  22  38  60  83 114 149 187 230 279 332
#     4  11  22  37  58  83 112 145 186 234 279 326
#     4   8  18  36  56  78 112 148 184 228 274 328
#     4  10  21  37  57  82 112 145 186 230 277 327
#     4  10  21  38  59  84 114 149 185 229 278 332
#     4  10  20  36  58  82 112 148 188 229 276 327
#     4  10  21  39  58  80 113 148 186 229 277 335
#
# _framework density 18.909072999999999
#
# number of rings (size 3 to 8) (size 9 to 14) (size 15 to 20)
#    0.000    2.154    0.000    7.385    0.000    6.769 
#    0.000    4.615    0.000    0.000    0.000    0.000 
#    0.000    0.000    0.000    0.000    0.000    0.000 
#
# Total GULP energy -161203.520368 kJ/mol
# GULP energy per Si atom -12400.270798 kJ/mol
# Density = 1.886603 g / cm^3
# Si number density = 18.909073 Si / 1000 Ang^3
#
#
#
# Elastic Constant Matrix: (Units=GPa)
#
#
# Indices 1 2 3 4 5 6 
#
# 1 77.6143 40.5314 45.3574 0.0000 7.3596 0.0000
# 2 40.5314 68.1789 34.2859 0.0000 -18.0584 0.0000
# 3 45.3574 34.2859 77.5054 0.0000 8.0045 0.0000
# 4 0.0000 0.0000 0.0000 33.5756 0.0000 -9.9467
# 5 7.3596 -18.0584 8.0045 0.0000 43.5739 0.0000
# 6 0.0000 0.0000 0.0000 -9.9467 0.0000 37.5857
#
#
#
# Elastic Compliance Matrix: (Units=1/GPa)
#
#
# Indices 1 2 3 4 5 6 
#
# 1 0.025256 -0.013089 -0.008143 0.000000 -0.008194 0.000000
# 2 -0.013089 0.030538 -0.007527 0.000000 0.016249 0.000000
# 3 -0.008143 -0.007527 0.021587 0.000000 -0.005710 0.000000
# 4 0.000000 0.000000 0.000000 0.032317 0.000000 0.008552
# 5 -0.008194 0.016249 -0.005710 0.000000 0.032117 0.000000
# 6 0.000000 0.000000 0.000000 0.008552 0.000000 0.028869
#
#
# Mechanical properties :
#
#
# Convention : Reuss Voigt Hill
#
# Bulk Modulus (GPa) = 50.34928 51.51643 50.93285
# Shear Modulus (GPa) = 21.29252 29.82196 25.55724
#
# Velocity S-wave (km/s) = 3.35930 3.97561 3.68038
# Velocity P-wave (km/s) = 6.45999 6.95539 6.71226
#
# Compressibility (1/GPa) = 0.01986126
#
# Stress axis : x y z
#
# Youngs Moduli (GPa) = 39.59505 32.74616 46.32337
#
# Poissons Ratio (x) = 0.42863 0.37723
# Poissons Ratio (y) = 0.51828 0.34868
# Poissons Ratio (z) = 0.32244 0.24648
#
# Static dielectric constant tensor:
#      x y z
#    x 3.569640 0.000000 0.137510 
#    y 0.000000 3.371390 0.000000 
#    z 0.137510 0.000000 3.586050 
# 
# 
# High freq. dielectric constant tensor:
#      x y z
#    x 1.741180 0.000000 0.013040 
#    y 0.000000 1.724960 0.000000 
#    z 0.013040 0.000000 1.747960 
# 
# From -- ./inp_files/41820.got.cif
#   From: 2010.03.12/outbox.cif.g09.slc.cpg/sg5_21_cif.got.tgz:41820.got - 2010.03.31 09:47:26.
