data_PCOD8049258
_publ_section_title
;
Structure prediction by ZEFSAII (Michael W. Deem and Ramdas Pophale) SiO2 
 PCOD8049258
Probable space group: C 2
;
_chemical_formula_sum "Si O2"
_cell_formula_units_Z 30
_cell_length_a 11.538606
_cell_length_b 15.385798
_cell_length_c 17.418051
_cell_angle_alpha 90.000000
_cell_angle_beta 150.122854
_cell_angle_gamma 90.000000
_cell_volume 1540.373412
_symmetry_space_group_name_H-M "C 2"
_symmetry_group_IT_number 5
_symmetry_cell_setting 'monoclinic'
loop_
_space_group_symop_operation_xyz
x,y,z
-x,y,-z
1/2+x,1/2+y,z
1/2-x,1/2+y,-z
loop_
_atom_site_type_symbol
_atom_site_label
_atom_site_fract_x
_atom_site_fract_y
_atom_site_fract_z
Si Si1 0.602874 0.361070 0.637087
Si Si2 0.056046 0.784125 0.846793
Si Si3 0.376711 0.459736 0.200487
Si Si4 0.186068 0.720312 0.438242
Si Si5 0.483485 0.746502 0.183736
Si Si6 0.000000 0.591577 0.000000
Si Si7 0.296653 0.741252 0.237245
Si Si8 0.771992 0.588291 0.414243
O O1 0.500000 0.403308 0.500000
O O2 0.667575 0.434134 0.736104
O O3 0.409015 0.294796 0.558961
O O4 0.840010 0.313258 0.752025
O O5 0.948352 0.723093 0.719060
O O6 0.867225 0.802749 0.805458
O O7 0.138480 0.876692 0.862743
O O8 0.278756 0.730919 0.004884
O O9 0.634022 0.499246 0.345178
O O10 0.183286 0.528944 0.061385
O O11 0.460333 0.729833 0.578792
O O12 0.149789 0.627616 0.458773
O O13 0.355542 0.782284 0.187565
O O14 0.612347 0.656948 0.276883
O O15 0.154396 0.650243 0.146361
O O16 0.000000 0.562612 0.500000
#
# Coordination Sequence:
#
# PCOD8049258 Si02
#       8
#     4   4   4   4   4   2   4   4
#     4  11  20  40  63  91 121 162 208 249 298 369
#     4  11  23  37  60  98 122 152 208 262 293 356
#     4  11  25  37  60  96 126 153 198 264 312 344
#     4  10  20  37  64  87 119 157 211 245 293 360
#     4  11  19  39  69  87 118 168 207 240 297 379
#     4  12  20  42  60  88 126 162 202 236 318 368
#     4  11  20  38  68  85 119 169 207 237 297 379
#     4  11  20  42  65  86 124 167 201 242 311 375
#
# _framework density 19.475798000000001
#
# number of rings (size 3 to 8) (size 9 to 14) (size 15 to 20)
#    0.000    1.067    8.000    1.200    0.000    3.733 
#    2.400    0.000    0.000    0.000    0.000    0.000 
#    0.000    0.000    0.000    0.000    0.000    0.000 
#
# Total GULP energy -185935.661674 kJ/mol
# GULP energy per Si atom -12395.710778 kJ/mol
# Density = 1.943147 g / cm^3
# Si number density = 19.475798 Si / 1000 Ang^3
#
#
#
# Elastic Constant Matrix: (Units=GPa)
#
#
# Indices 1 2 3 4 5 6 
#
# 1 124.4033 39.1354 60.8678 0.0022 12.4265 -0.0035
# 2 39.1354 56.0798 31.8848 0.0155 2.4818 0.0017
# 3 60.8678 31.8848 138.2649 0.0270 -0.4711 0.0029
# 4 0.0022 0.0155 0.0270 24.0641 0.0028 16.6518
# 5 12.4265 2.4818 -0.4711 0.0028 33.0042 -0.0025
# 6 -0.0035 0.0017 0.0029 16.6518 -0.0025 27.3141
#
#
#
# Elastic Compliance Matrix: (Units=1/GPa)
#
#
# Indices 1 2 3 4 5 6 
#
# 1 0.012377 -0.006149 -0.004045 0.000011 -0.004255 -0.000005
# 2 -0.006149 0.023663 -0.002748 -0.000018 0.000497 0.000009
# 3 -0.004045 -0.002748 0.009653 -0.000014 0.001868 0.000007
# 4 0.000011 -0.000018 -0.000014 0.071878 -0.000012 -0.043820
# 5 -0.004255 0.000497 0.001868 -0.000012 0.031891 0.000010
# 6 -0.000005 0.000009 0.000007 -0.043820 0.000010 0.063326
#
#
# Mechanical properties :
#
#
# Convention : Reuss Voigt Hill
#
# Bulk Modulus (GPa) = 50.48245 64.72489 57.60367
# Shear Modulus (GPa) = 20.38516 29.33380 24.85948
#
# Velocity S-wave (km/s) = 3.23877 3.88515 3.57659
# Velocity P-wave (km/s) = 6.32163 7.30968 6.83354
#
# Compressibility (1/GPa) = 0.01980887
#
# Stress axis : x y z
#
# Youngs Moduli (GPa) = 80.79447 42.25920 103.59019
#
# Poissons Ratio (x) = 0.25986 0.41904
# Poissons Ratio (y) = 0.49681 0.28469
# Poissons Ratio (z) = 0.32683 0.11614
#
# Static dielectric constant tensor:
#      x y z
#    x 3.805170 0.000000 0.146600 
#    y 0.000000 3.284420 -0.000010 
#    z 0.146600 -0.000010 3.795670 
# 
# 
# High freq. dielectric constant tensor:
#      x y z
#    x 1.766920 0.000000 0.017220 
#    y 0.000000 1.723810 0.000000 
#    z 0.017220 0.000000 1.775310 
# 
# From -- ./inp_files/20685.got.cif
#   From: 2010.03.12/outbox.cif.g09.slc.cpg/sg5_11_cif.got.tgz:20685.got - 2010.03.31 09:47:26.
