data_PCOD8049758
_publ_section_title
;
Structure prediction by ZEFSAII (Michael W. Deem and Ramdas Pophale) SiO2 
 PCOD8049758
Probable space group: C 2
;
_chemical_formula_sum "Si O2"
_cell_formula_units_Z 32
_cell_length_a 26.307923
_cell_length_b 8.910871
_cell_length_c 20.613808
_cell_angle_alpha 90.000000
_cell_angle_beta 19.719759
_cell_angle_gamma 90.000000
_cell_volume 1630.555761
_symmetry_space_group_name_H-M "C 2"
_symmetry_group_IT_number 5
_symmetry_cell_setting 'monoclinic'
loop_
_space_group_symop_operation_xyz
x,y,z
-x,y,-z
1/2+x,1/2+y,z
1/2-x,1/2+y,-z
loop_
_atom_site_type_symbol
_atom_site_label
_atom_site_fract_x
_atom_site_fract_y
_atom_site_fract_z
Si Si1 0.622762 0.027540 0.401353
Si Si2 0.362315 0.551101 0.631396
Si Si3 0.668942 0.661551 0.531461
Si Si4 0.976046 0.284010 0.652822
Si Si5 0.648076 0.968321 0.785374
Si Si6 0.856239 0.136578 0.211707
Si Si7 0.879015 0.920814 0.303538
Si Si8 0.208046 0.793348 0.892768
O O1 0.500000 0.101821 0.500000
O O2 0.723940 0.148817 0.316979
O O3 0.543506 0.947435 0.557978
O O4 0.726438 0.917859 0.234250
O O5 0.500000 0.458096 0.500000
O O6 0.454654 0.684130 0.487040
O O7 0.280178 0.444121 0.679358
O O8 0.233492 0.626874 0.831890
O O9 0.523372 0.721343 0.666477
O O10 0.799549 0.592319 0.328904
O O11 0.746096 0.800592 0.476223
O O12 0.607111 0.535502 0.653700
O O13 0.794993 0.292816 0.858420
O O14 0.620133 0.804232 0.787128
O O15 0.500000 0.029530 0.000000
O O16 0.831674 0.014352 0.296986
O O17 0.000000 0.080760 0.000000
O O18 0.033174 0.828020 0.113295
#
# Coordination Sequence:
#
# PCOD8049758 Si02
#       8
#     4   4   4   4   4   4   4   4
#     4   9  16  31  57  88 111 140 187 234 284 335
#     4   8  15  30  55  85 110 137 181 235 284 333
#     4  11  23  39  57  81 114 155 196 235 285 343
#     4   8  16  33  56  81 110 140 186 239 276 339
#     4  10  21  35  55  82 119 148 184 233 288 334
#     4  11  21  34  54  88 118 150 190 238 283 337
#     4  12  23  37  59  80 117 153 196 236 287 342
#     4   9  17  32  59  86 107 144 191 232 288 339
#
# _framework density 19.625211
#
# number of rings (size 3 to 8) (size 9 to 14) (size 15 to 20)
#    0.000    2.250    2.500    3.000    0.000    1.000 
#    0.000    1.250    2.750    3.000    0.000    0.000 
#    0.000    0.000    0.000    0.000    0.000    0.000 
#
# Total GULP energy -198223.679407 kJ/mol
# GULP energy per Si atom -12388.979963 kJ/mol
# Density = 1.958054 g / cm^3
# Si number density = 19.625211 Si / 1000 Ang^3
#
#
#
# Elastic Constant Matrix: (Units=GPa)
#
#
# Indices 1 2 3 4 5 6 
#
# 1 110.7617 24.6627 35.0268 -0.0001 -17.9214 0.0000
# 2 24.6627 58.2993 12.9881 -0.0004 -0.3917 -0.0001
# 3 35.0268 12.9881 55.4272 -0.0005 -12.3556 0.0000
# 4 -0.0001 -0.0004 -0.0005 -1.6623 -0.0001 -6.6038
# 5 -17.9214 -0.3917 -12.3556 -0.0001 26.2883 0.0001
# 6 0.0000 -0.0001 0.0000 -6.6038 0.0001 26.4164
#
#
#
# Elastic Compliance Matrix: (Units=1/GPa)
#
#
# Indices 1 2 3 4 5 6 
#
# 1 0.012708 -0.004051 -0.005768 0.000001 0.005892 0.000000
# 2 -0.004051 0.019477 -0.002854 -0.000002 -0.003813 0.000000
# 3 -0.005768 -0.002854 0.023982 -0.000003 0.007297 -0.000001
# 4 0.000001 -0.000002 -0.000003 -0.301823 -0.000001 -0.075452
# 5 0.005892 -0.003813 0.007297 -0.000001 0.045429 0.000000
# 6 0.000000 0.000000 -0.000001 -0.075452 0.000000 0.018993
#
#
# Mechanical properties :
#
#
# Convention : Reuss Voigt Hill
#
# Bulk Modulus (GPa) = 32.44557 41.09369 36.76963
# Shear Modulus (GPa) = -34.33721 20.32919 -7.00401
#
# Velocity S-wave (km/s) = -4.18742 3.22199 -1.89120
# Velocity P-wave (km/s) = 2.60975 5.90138 3.74269
#
# Compressibility (1/GPa) = 0.03082085
#
# Stress axis : x y z
#
# Youngs Moduli (GPa) = 78.69177 51.34299 41.69799
#
# Poissons Ratio (x) = 0.20801 0.24051
# Poissons Ratio (y) = 0.31880 0.11899
# Poissons Ratio (z) = 0.45388 0.14652
#
# Static dielectric constant tensor:
#      x y z
#    x 3.686420 0.000000 -0.348450 
#    y 0.000000 3.291630 0.000000 
#    z -0.348450 0.000000 3.418880 
# 
# 
# High freq. dielectric constant tensor:
#      x y z
#    x 1.764390 0.000000 -0.028210 
#    y 0.000000 1.751440 0.000000 
#    z -0.028210 0.000000 1.741200 
# 
# From -- ./inp_files/67563.got.cif
#   From: 2010.03.12/outbox.cif.g09.slc.cpg/sg5_34_cif.got.tgz:67563.got - 2010.03.31 09:47:26.
