data_PCOD8049366
_publ_section_title
;
Structure prediction by ZEFSAII (Michael W. Deem and Ramdas Pophale) SiO2 
 PCOD8049366
Probable space group: C 2
;
_chemical_formula_sum "Si O2"
_cell_formula_units_Z 30
_cell_length_a 15.921628
_cell_length_b 16.322000
_cell_length_c 11.142724
_cell_angle_alpha 90.000000
_cell_angle_beta 31.218883
_cell_angle_gamma 90.000000
_cell_volume 1500.862382
_symmetry_space_group_name_H-M "C 2"
_symmetry_group_IT_number 5
_symmetry_cell_setting 'monoclinic'
loop_
_space_group_symop_operation_xyz
x,y,z
-x,y,-z
1/2+x,1/2+y,z
1/2-x,1/2+y,-z
loop_
_atom_site_type_symbol
_atom_site_label
_atom_site_fract_x
_atom_site_fract_y
_atom_site_fract_z
Si Si1 0.616014 0.994700 0.554704
Si Si2 0.240631 0.624233 0.721204
Si Si3 0.500000 0.739900 0.500000
Si Si4 0.032373 0.656336 0.764054
Si Si5 0.371554 0.443913 0.062003
Si Si6 0.538742 0.307339 0.321095
Si Si7 0.625551 0.470248 0.566688
Si Si8 0.151220 0.362066 0.155340
O O1 0.731310 0.995668 0.297313
O O2 0.711258 0.959520 0.554018
O O3 0.448940 0.944179 0.748025
O O4 0.570797 0.089562 0.616468
O O5 0.346371 0.685493 0.667439
O O6 0.189114 0.667949 0.658748
O O7 0.338788 0.539789 0.576124
O O8 0.094669 0.611416 0.992243
O O9 0.524406 0.793237 0.349666
O O10 0.984368 0.739886 0.755785
O O11 0.279553 0.370426 0.108634
O O12 0.500000 0.405949 0.000000
O O13 0.474600 0.497042 0.838200
O O14 0.500000 0.271200 0.500000
O O15 0.420209 0.384480 0.440393
O O16 0.729092 0.334522 0.098081
#
# Coordination Sequence:
#
# PCOD8049366 Si02
#       8
#     4   4   2   4   4   4   4   4
#     4  10  20  38  65  90 126 159 218 256 315 377
#     4  10  23  41  65  93 124 162 211 260 316 376
#     4  12  22  36  64  94 124 148 216 268 310 360
#     4  10  23  43  64  90 123 172 209 261 315 378
#     4   9  18  35  60  90 123 161 202 253 306 377
#     4  11  25  43  61  90 131 169 214 257 327 378
#     4   9  22  40  64  90 123 171 202 257 321 380
#     4  11  22  37  59  96 119 164 210 265 311 368
#
# _framework density 19.988509000000001
#
# number of rings (size 3 to 8) (size 9 to 14) (size 15 to 20)
#    0.000    1.867    2.667    0.000    4.667    3.200 
#    4.800    0.000    0.000    0.000    0.000    0.000 
#    0.000    0.000    0.000    0.000    0.000    0.000 
#
# Total GULP energy -185861.637285 kJ/mol
# GULP energy per Si atom -12390.775819 kJ/mol
# Density = 1.994301 g / cm^3
# Si number density = 19.988509 Si / 1000 Ang^3
#
#
#
# Elastic Constant Matrix: (Units=GPa)
#
#
# Indices 1 2 3 4 5 6 
#
# 1 51.7925 25.0020 29.1881 -0.0005 0.6514 0.0004
# 2 25.0020 89.1607 37.7580 -0.0004 3.8711 0.0002
# 3 29.1881 37.7580 105.5713 -0.0008 9.6913 0.0006
# 4 -0.0005 -0.0004 -0.0008 23.4975 0.0005 2.1066
# 5 0.6514 3.8711 9.6913 0.0005 34.0295 -0.0004
# 6 0.0004 0.0002 0.0006 2.1066 -0.0004 28.8390
#
#
#
# Elastic Compliance Matrix: (Units=1/GPa)
#
#
# Indices 1 2 3 4 5 6 
#
# 1 0.024518 -0.004728 -0.005231 0.000000 0.001558 0.000000
# 2 -0.004728 0.014130 -0.003704 0.000000 -0.000462 0.000000
# 3 -0.005231 -0.003704 0.012523 0.000000 -0.003045 0.000000
# 4 0.000000 0.000000 0.000000 0.042838 -0.000001 -0.003129
# 5 0.001558 -0.000462 -0.003045 -0.000001 0.030276 0.000001
# 6 0.000000 0.000000 0.000000 -0.003129 0.000001 0.034904
#
#
# Mechanical properties :
#
#
# Convention : Reuss Voigt Hill
#
# Bulk Modulus (GPa) = 41.93637 47.82451 44.88044
# Shear Modulus (GPa) = 25.71171 27.57830 26.64500
#
# Velocity S-wave (km/s) = 3.59043 3.71847 3.65501
# Velocity P-wave (km/s) = 6.18175 6.51260 6.34933
#
# Compressibility (1/GPa) = 0.02384565
#
# Stress axis : x y z
#
# Youngs Moduli (GPa) = 40.78570 70.77062 79.85418
#
# Poissons Ratio (x) = 0.33459 0.41771
# Poissons Ratio (y) = 0.19283 0.29579
# Poissons Ratio (z) = 0.21335 0.26215
#
# Static dielectric constant tensor:
#      x y z
#    x 3.705450 0.000000 -0.144020 
#    y 0.000000 3.343250 0.000000 
#    z -0.144020 0.000000 4.072210 
# 
# 
# High freq. dielectric constant tensor:
#      x y z
#    x 1.776520 0.000000 -0.005490 
#    y 0.000000 1.757120 0.000000 
#    z -0.005490 0.000000 1.797150 
# 
# From -- ./inp_files/44903.got.cif
#   From: 2010.03.12/outbox.cif.g09.slc.cpg/sg5_23_cif.got.tgz:44903.got - 2010.03.31 09:47:26.
