data_PCOD8049214
_publ_section_title
;
Structure prediction by ZEFSAII (Michael W. Deem and Ramdas Pophale) SiO2 
 PCOD8049214
Probable space group: C 2
;
_chemical_formula_sum "Si O2"
_cell_formula_units_Z 24
_cell_length_a 27.703350
_cell_length_b 7.605501
_cell_length_c 11.060618
_cell_angle_alpha 90.000000
_cell_angle_beta 25.409300
_cell_angle_gamma 90.000000
_cell_volume 999.952928
_symmetry_space_group_name_H-M "C 2"
_symmetry_group_IT_number 5
_symmetry_cell_setting 'monoclinic'
loop_
_space_group_symop_operation_xyz
x,y,z
-x,y,-z
1/2+x,1/2+y,z
1/2-x,1/2+y,-z
loop_
_atom_site_type_symbol
_atom_site_label
_atom_site_fract_x
_atom_site_fract_y
_atom_site_fract_z
Si Si1 0.324622 0.237630 0.435621
Si Si2 0.675379 0.015321 0.064378
Si Si3 0.198211 0.894003 0.998514
Si Si4 0.398941 0.700682 0.900337
Si Si5 0.301789 0.858948 0.501485
Si Si6 0.398942 0.552269 0.400336
O O1 0.298385 0.329101 0.367252
O O2 0.416025 0.358657 0.300518
O O3 0.370902 0.038333 0.312682
O O4 0.208314 0.219449 0.771152
O O5 0.791687 0.033501 0.728846
O O6 0.701614 0.923850 0.132750
O O7 0.629098 0.214618 0.187316
O O8 0.583975 0.894294 0.199480
O O9 0.118117 0.064808 0.173097
O O10 0.250000 0.876476 0.749999
O O11 0.500000 0.626475 0.750001
O O12 0.381883 0.688143 0.326903
#
# Coordination Sequence:
#
# PCOD8049214 Si02
#       6
#     4   4   4   4   4   4
#     4  10  20  39  63  83 122 165 199 256 318 363
#     4  10  20  39  63  83 122 165 199 256 318 363
#     4  10  20  37  61  86 120 163 203 247 318 375
#     4  10  22  38  62  90 117 158 215 257 304 372
#     4  10  20  37  61  86 120 163 203 247 318 375
#     4  10  22  38  62  90 117 158 215 257 304 372
#
# _framework density 24.001128000000001
#
# number of rings (size 3 to 8) (size 9 to 14) (size 15 to 20)
#    0.000    2.000    3.333    0.000    0.000    2.667 
#    0.000    0.000   14.667    0.000    0.000    0.000 
#    0.000    0.000    0.000    0.000    0.000    0.000 
#
# Total GULP energy -148665.677765 kJ/mol
# GULP energy per Si atom -12388.806480 kJ/mol
# Density = 2.394650 g / cm^3
# Si number density = 24.001128 Si / 1000 Ang^3
#
#
#
# Elastic Constant Matrix: (Units=GPa)
#
#
# Indices 1 2 3 4 5 6 
#
# 1 153.9202 75.7291 20.5575 0.0000 -24.6073 0.0000
# 2 75.7291 211.1288 18.6009 0.0000 -17.0537 0.0000
# 3 20.5575 18.6009 33.8239 0.0000 -24.0697 0.0000
# 4 0.0000 0.0000 0.0000 20.0589 0.0000 -11.7552
# 5 -24.6073 -17.0537 -24.0697 0.0000 34.9170 0.0000
# 6 0.0000 0.0000 0.0000 -11.7552 0.0000 57.0404
#
#
#
# Elastic Compliance Matrix: (Units=1/GPa)
#
#
# Indices 1 2 3 4 5 6 
#
# 1 0.008588 -0.002673 -0.000730 0.000000 0.004244 0.000000
# 2 -0.002673 0.005830 -0.001758 0.000000 -0.000249 0.000000
# 3 -0.000730 -0.001758 0.058883 0.000000 0.039218 0.000000
# 4 0.000000 0.000000 0.000000 0.056701 0.000000 0.011685
# 5 0.004244 -0.000249 0.039218 0.000000 0.058543 0.000000
# 6 0.000000 0.000000 0.000000 0.011685 0.000000 0.019940
#
#
# Mechanical properties :
#
#
# Convention : Reuss Voigt Hill
#
# Bulk Modulus (GPa) = 15.87830 69.84976 42.86403
# Shear Modulus (GPa) = 20.85066 41.33563 31.09314
#
# Velocity S-wave (km/s) = 2.95063 4.15449 3.60319
# Velocity P-wave (km/s) = 4.27063 7.22350 5.93368
#
# Compressibility (1/GPa) = 0.06297902
#
# Stress axis : x y z
#
# Youngs Moduli (GPa) = 116.44069 171.52141 16.98277
#
# Poissons Ratio (x) = 0.45854 0.01239
# Poissons Ratio (y) = 0.31129 0.02986
# Poissons Ratio (z) = 0.08495 0.30159
#
# Static dielectric constant tensor:
#      x y z
#    x 4.495720 0.000000 0.033850 
#    y 0.000000 5.880940 0.000000 
#    z 0.033850 0.000000 3.620580 
# 
# 
# High freq. dielectric constant tensor:
#      x y z
#    x 1.966030 0.000000 0.007800 
#    y 0.000000 1.989520 0.000000 
#    z 0.007800 0.000000 1.888230 
# 
# From -- ./inp_files/47229.got.cif
#   From: 2010.03.12/outbox.cif.g09.slc.cpg/sg5_24_cif.got.tgz:47229.got - 2010.03.31 09:47:26.
