data_PCOD8049339
_publ_section_title
;
Structure prediction by ZEFSAII (Michael W. Deem and Ramdas Pophale) SiO2 
 PCOD8049339
Probable space group: C 2
;
_chemical_formula_sum "Si O2"
_cell_formula_units_Z 24
_cell_length_a 16.580996
_cell_length_b 9.572762
_cell_length_c 13.627673
_cell_angle_alpha 90.000000
_cell_angle_beta 29.543499
_cell_angle_gamma 90.000000
_cell_volume 1066.573184
_symmetry_space_group_name_H-M "C 2"
_symmetry_group_IT_number 5
_symmetry_cell_setting 'monoclinic'
loop_
_space_group_symop_operation_xyz
x,y,z
-x,y,-z
1/2+x,1/2+y,z
1/2-x,1/2+y,-z
loop_
_atom_site_type_symbol
_atom_site_label
_atom_site_fract_x
_atom_site_fract_y
_atom_site_fract_z
Si Si1 0.743926 0.111350 0.375903
Si Si2 0.822341 0.815949 0.231212
Si Si3 0.003270 0.732233 0.767736
Si Si4 0.298929 0.615516 0.800280
Si Si5 0.915728 0.022534 0.382125
Si Si6 0.685778 0.896988 0.782945
O O1 0.565612 0.146818 0.607550
O O2 0.799695 0.229266 0.238639
O O3 0.729669 0.962752 0.338359
O O4 0.871924 0.106530 0.330316
O O5 0.850633 0.735823 0.304546
O O6 0.709742 0.720758 0.282069
O O7 0.000000 0.846780 0.000000
O O8 0.969111 0.892099 0.772343
O O9 0.840647 0.655095 0.974636
O O10 0.475789 0.624628 0.664401
O O11 0.283371 0.457940 0.773397
O O12 0.754242 0.963943 0.609051
O O13 0.500000 0.945258 0.000000
#
# Coordination Sequence:
#
# PCOD8049339 Si02
#       6
#     4   4   4   4   4   4
#     4  10  20  38  63  87 113 153 198 237 285 351
#     4   9  18  36  61  86 116 155 193 235 289 352
#     4   9  20  38  60  84 118 157 194 234 287 352
#     4  11  21  38  60  86 119 154 189 241 294 335
#     4  10  22  39  60  88 120 151 194 247 288 335
#     4  11  22  37  62  89 117 156 196 234 289 355
#
# _framework density 22.501973
#
# number of rings (size 3 to 8) (size 9 to 14) (size 15 to 20)
#    0.000    2.000    0.000    4.500    0.000    1.333 
#    0.000    3.333    0.000   24.000    0.000    0.000 
#    0.000    0.000    0.000    0.000    0.000    0.000 
#
# Total GULP energy -148790.951135 kJ/mol
# GULP energy per Si atom -12399.245928 kJ/mol
# Density = 2.245076 g / cm^3
# Si number density = 22.501973 Si / 1000 Ang^3
#
#
#
# Elastic Constant Matrix: (Units=GPa)
#
#
# Indices 1 2 3 4 5 6 
#
# 1 85.2125 34.4458 25.5296 0.0000 -7.2197 0.0000
# 2 34.4458 126.1088 53.4276 0.0000 3.2907 0.0000
# 3 25.5296 53.4276 98.2220 0.0000 11.4785 0.0000
# 4 0.0000 0.0000 0.0000 38.6234 0.0000 12.7853
# 5 -7.2197 3.2907 11.4785 0.0000 26.1176 0.0000
# 6 0.0000 0.0000 0.0000 12.7853 0.0000 33.6715
#
#
#
# Elastic Compliance Matrix: (Units=1/GPa)
#
#
# Indices 1 2 3 4 5 6 
#
# 1 0.014183 -0.002837 -0.002786 0.000000 0.005503 0.000000
# 2 -0.002837 0.010909 -0.005212 0.000000 0.000132 0.000000
# 3 -0.002786 -0.005212 0.014498 0.000000 -0.006485 0.000000
# 4 0.000000 0.000000 0.000000 0.029613 0.000000 -0.011244
# 5 0.005503 0.000132 -0.006485 0.000000 0.042643 0.000000
# 6 0.000000 0.000000 0.000000 -0.011244 0.000000 0.033968
#
#
# Mechanical properties :
#
#
# Convention : Reuss Voigt Hill
#
# Bulk Modulus (GPa) = 55.80438 59.59434 57.69936
# Shear Modulus (GPa) = 28.82515 32.75851 30.79183
#
# Velocity S-wave (km/s) = 3.58300 3.81964 3.70321
# Velocity P-wave (km/s) = 6.47848 6.78192 6.63194
#
# Compressibility (1/GPa) = 0.01791974
#
# Stress axis : x y z
#
# Youngs Moduli (GPa) = 70.50574 91.66445 68.97406
#
# Poissons Ratio (x) = 0.26007 0.19218
# Poissons Ratio (y) = 0.20004 0.35950
# Poissons Ratio (z) = 0.19644 0.47776
#
# Static dielectric constant tensor:
#      x y z
#    x 3.870360 0.000000 0.337070 
#    y 0.000000 4.131110 0.000000 
#    z 0.337070 0.000000 4.027320 
# 
# 
# High freq. dielectric constant tensor:
#      x y z
#    x 1.862370 0.000000 0.021400 
#    y 0.000000 1.892090 0.000000 
#    z 0.021400 0.000000 1.889810 
# 
# From -- ./inp_files/55697.got.cif
#   From: 2010.03.12/outbox.cif.g09.slc.cpg/sg5_28_cif.got.tgz:55697.got - 2010.03.31 09:47:26.
