data_PCOD8049250
_publ_section_title
;
Structure prediction by ZEFSAII (Michael W. Deem and Ramdas Pophale) SiO2 
 PCOD8049250
Probable space group: C 2
;
_chemical_formula_sum "Si O2"
_cell_formula_units_Z 30
_cell_length_a 15.150722
_cell_length_b 9.128806
_cell_length_c 26.776528
_cell_angle_alpha 90.000000
_cell_angle_beta 24.156685
_cell_angle_gamma 90.000000
_cell_volume 1515.558148
_symmetry_space_group_name_H-M "C 2"
_symmetry_group_IT_number 5
_symmetry_cell_setting 'monoclinic'
loop_
_space_group_symop_operation_xyz
x,y,z
-x,y,-z
1/2+x,1/2+y,z
1/2-x,1/2+y,-z
loop_
_atom_site_type_symbol
_atom_site_label
_atom_site_fract_x
_atom_site_fract_y
_atom_site_fract_z
Si Si1 0.965087 0.963910 0.872750
Si Si2 0.331947 0.759992 0.265827
Si Si3 0.610993 0.426254 0.289175
Si Si4 0.500000 0.107790 0.500000
Si Si5 0.075344 0.793380 0.206831
Si Si6 0.412224 0.026830 0.855984
Si Si7 0.679966 0.860037 0.470744
Si Si8 0.729597 0.710077 0.273944
O O1 0.883959 0.895897 0.862326
O O2 0.140951 0.857488 0.809323
O O3 0.066272 0.120632 0.812335
O O4 0.761738 0.996622 0.011941
O O5 0.206985 0.846307 0.287339
O O6 0.189951 0.714019 0.385782
O O7 0.507499 0.866342 0.201210
O O8 0.701202 0.359716 0.190094
O O9 0.350925 0.402858 0.426040
O O10 0.674610 0.599027 0.256920
O O11 0.565632 0.009565 0.513167
O O12 0.169729 0.628221 0.147975
O O13 0.816400 0.792355 0.353449
O O14 0.613119 0.126094 0.769752
O O15 0.499241 0.747424 0.582320
#
# Coordination Sequence:
#
# PCOD8049250 Si02
#       8
#     4   4   4   2   4   4   4   4
#     4  11  20  39  64  84 123 165 215 251 293 368
#     4  11  21  37  58  95 119 158 205 254 309 366
#     4   9  23  37  61  95 123 156 201 258 326 366
#     4  12  20  36  60  88 122 160 198 248 306 372
#     4   9  20  41  63  86 121 164 200 258 313 365
#     4  10  22  37  60  90 120 164 214 253 295 365
#     4  10  20  37  63  91 121 156 201 253 320 373
#     4  10  20  38  62  92 120 164 204 251 319 370
#
# _framework density 19.794688000000001
#
# number of rings (size 3 to 8) (size 9 to 14) (size 15 to 20)
#    0.800    1.067    2.667    2.400    1.867    2.133 
#    0.000    8.667    0.000    3.200    0.000    0.000 
#    0.000    0.000    0.000    0.000    0.000    0.000 
#
# Total GULP energy -185823.327940 kJ/mol
# GULP energy per Si atom -12388.221863 kJ/mol
# Density = 1.974963 g / cm^3
# Si number density = 19.794688 Si / 1000 Ang^3
#
#
#
# Elastic Constant Matrix: (Units=GPa)
#
#
# Indices 1 2 3 4 5 6 
#
# 1 55.9307 36.1418 8.6855 0.0041 10.2773 0.0041
# 2 36.1418 158.1274 53.9592 0.0093 8.6970 0.0017
# 3 8.6855 53.9592 92.6173 0.0092 20.7955 0.0087
# 4 0.0041 0.0093 0.0092 47.5324 -0.0040 5.3891
# 5 10.2773 8.6970 20.7955 -0.0040 20.7110 -0.0064
# 6 0.0041 0.0017 0.0087 5.3891 -0.0064 40.0709
#
#
#
# Elastic Compliance Matrix: (Units=1/GPa)
#
#
# Indices 1 2 3 4 5 6 
#
# 1 0.023684 -0.006178 0.004434 -0.000002 -0.013610 -0.000005
# 2 -0.006178 0.009550 -0.006162 0.000000 0.005242 0.000002
# 3 0.004434 -0.006162 0.017925 -0.000003 -0.017611 -0.000006
# 4 -0.000002 0.000000 -0.000003 0.021364 0.000008 -0.002873
# 5 -0.013610 0.005242 -0.017611 0.000008 0.070520 0.000015
# 6 -0.000005 0.000002 -0.000006 -0.002873 0.000015 0.025342
#
#
# Mechanical properties :
#
#
# Convention : Reuss Voigt Hill
#
# Bulk Modulus (GPa) = 28.28952 56.02761 42.15857
# Shear Modulus (GPa) = 25.51300 35.52211 30.51755
#
# Velocity S-wave (km/s) = 3.59399 4.24078 3.93071
# Velocity P-wave (km/s) = 5.61648 7.23497 6.47648
#
# Compressibility (1/GPa) = 0.03534878
#
# Stress axis : x y z
#
# Youngs Moduli (GPa) = 42.22340 104.70890 55.78661
#
# Poissons Ratio (x) = 0.64686 -0.24736
# Poissons Ratio (y) = 0.26084 0.34374
# Poissons Ratio (z) = -0.18722 0.64518
#
# Static dielectric constant tensor:
#      x y z
#    x 3.435690 0.000020 -0.106830 
#    y 0.000020 4.140840 0.000080 
#    z -0.106830 0.000080 3.540760 
# 
# 
# High freq. dielectric constant tensor:
#      x y z
#    x 1.741410 0.000000 -0.004540 
#    y 0.000000 1.788910 0.000000 
#    z -0.004540 0.000000 1.769420 
# 
# From -- ./inp_files/72115.got.cif
#   From: 2010.03.12/outbox.cif.g09.slc.cpg/sg5_37_cif.got.tgz:72115.got - 2010.03.31 09:47:26.
