data_PCOD8049444
_publ_section_title
;
Structure prediction by ZEFSAII (Michael W. Deem and Ramdas Pophale) SiO2 
 PCOD8049444
Probable space group: C 2
;
_chemical_formula_sum "Si O2"
_cell_formula_units_Z 30
_cell_length_a 27.690346
_cell_length_b 10.170362
_cell_length_c 8.224885
_cell_angle_alpha 90.000000
_cell_angle_beta 140.263132
_cell_angle_gamma 90.000000
_cell_volume 1480.723742
_symmetry_space_group_name_H-M "C 2"
_symmetry_group_IT_number 5
_symmetry_cell_setting 'monoclinic'
loop_
_space_group_symop_operation_xyz
x,y,z
-x,y,-z
1/2+x,1/2+y,z
1/2-x,1/2+y,-z
loop_
_atom_site_type_symbol
_atom_site_label
_atom_site_fract_x
_atom_site_fract_y
_atom_site_fract_z
Si Si1 0.023342 0.022180 0.879508
Si Si2 0.085290 0.403826 0.740454
Si Si3 0.353898 0.181320 0.149329
Si Si4 0.347016 0.720119 0.835773
Si Si5 0.380470 0.675885 0.404134
Si Si6 0.000000 0.844312 0.500000
Si Si7 0.272872 0.814131 0.342601
Si Si8 0.743551 0.590198 0.130222
O O1 0.961090 0.127899 0.669057
O O2 0.104076 0.096485 0.106723
O O3 0.025789 0.923481 0.730196
O O4 0.000000 0.962787 0.000000
O O5 0.136560 0.532658 0.886935
O O6 0.111145 0.318008 0.655426
O O7 0.000000 0.451130 0.500000
O O8 0.093650 0.313846 0.920508
O O9 0.432471 0.252695 0.389636
O O10 0.302142 0.179066 0.178335
O O11 0.312731 0.262895 0.899374
O O12 0.301784 0.818959 0.600507
O O13 0.277365 0.667757 0.761732
O O14 0.326821 0.699210 0.416493
O O15 0.336889 0.571523 0.173871
O O16 0.281844 0.952723 0.274831
#
# Coordination Sequence:
#
# PCOD8049444 Si02
#       8
#     4   4   4   4   4   2   4   4
#     4  12  23  43  68  99 130 174 225 268 322 395
#     4  11  20  39  68  91 121 163 215 267 321 389
#     4  11  24  43  66  91 125 174 215 264 337 397
#     4  11  24  39  65  97 130 170 213 274 325 385
#     4  10  20  39  66  89 123 166 215 259 317 387
#     4  12  26  48  68  92 134 176 220 276 330 394
#     4  11  22  40  61  95 129 161 210 269 325 384
#     4  10  23  42  62  91 127 175 215 264 333 390
#
# _framework density 20.260361
#
# number of rings (size 3 to 8) (size 9 to 14) (size 15 to 20)
#    0.000    1.067    4.667    3.200    1.867    0.000 
#    4.800    0.000    0.000    0.000    0.000    0.000 
#    0.000    0.000    0.000    0.000    0.000    0.000 
#
# Total GULP energy -185868.204423 kJ/mol
# GULP energy per Si atom -12391.213628 kJ/mol
# Density = 2.021425 g / cm^3
# Si number density = 20.260361 Si / 1000 Ang^3
#
#
#
# Elastic Constant Matrix: (Units=GPa)
#
#
# Indices 1 2 3 4 5 6 
#
# 1 96.4820 24.3273 35.5343 0.0000 3.6601 0.0000
# 2 24.3273 75.9858 30.9095 0.0000 0.1659 0.0000
# 3 35.5343 30.9095 94.8876 0.0000 2.9804 0.0000
# 4 0.0000 0.0000 0.0000 25.2880 0.0000 10.0241
# 5 3.6601 0.1659 2.9804 0.0000 36.5093 0.0000
# 6 0.0000 0.0000 0.0000 10.0241 0.0000 28.8274
#
#
#
# Elastic Compliance Matrix: (Units=1/GPa)
#
#
# Indices 1 2 3 4 5 6 
#
# 1 0.012421 -0.002414 -0.003836 0.000000 -0.000921 0.000000
# 2 -0.002414 0.015644 -0.004208 0.000000 0.000514 0.000000
# 3 -0.003836 -0.004208 0.013368 0.000000 -0.000688 0.000000
# 4 0.000000 0.000000 0.000000 0.045867 0.000000 -0.015949
# 5 -0.000921 0.000514 -0.000688 0.000000 0.027536 0.000000
# 6 0.000000 0.000000 0.000000 -0.015949 0.000000 0.040235
#
#
# Mechanical properties :
#
#
# Convention : Reuss Voigt Hill
#
# Bulk Modulus (GPa) = 48.74270 49.87751 49.31011
# Shear Modulus (GPa) = 27.34828 29.89721 28.62275
#
# Velocity S-wave (km/s) = 3.67800 3.84559 3.76273
# Velocity P-wave (km/s) = 6.49210 6.66256 6.57788
#
# Compressibility (1/GPa) = 0.02051589
#
# Stress axis : x y z
#
# Youngs Moduli (GPa) = 80.50760 63.92263 74.80668
#
# Poissons Ratio (x) = 0.15432 0.28698
# Poissons Ratio (y) = 0.19436 0.31479
# Poissons Ratio (z) = 0.30885 0.26899
#
# Static dielectric constant tensor:
#      x y z
#    x 3.868860 0.000000 -0.022810 
#    y 0.000000 3.479220 0.000000 
#    z -0.022810 0.000000 3.776130 
# 
# 
# High freq. dielectric constant tensor:
#      x y z
#    x 1.797020 0.000000 0.009180 
#    y 0.000000 1.779770 0.000000 
#    z 0.009180 0.000000 1.791180 
# 
# From -- ./inp_files/32537.got.cif
#   From: 2010.03.12/outbox.cif.g09.slc.cpg/sg5_17_cif.got.tgz:32537.got - 2010.03.31 09:47:26.
