data_PCOD8049471
_publ_section_title
;
Structure prediction by ZEFSAII (Michael W. Deem and Ramdas Pophale) SiO2 
 PCOD8049471
Probable space group: C 2
;
_chemical_formula_sum "Si O2"
_cell_formula_units_Z 30
_cell_length_a 21.153438
_cell_length_b 14.302020
_cell_length_c 16.149518
_cell_angle_alpha 90.000000
_cell_angle_beta 17.638816
_cell_angle_gamma 90.000000
_cell_volume 1480.481081
_symmetry_space_group_name_H-M "C 2"
_symmetry_group_IT_number 5
_symmetry_cell_setting 'monoclinic'
loop_
_space_group_symop_operation_xyz
x,y,z
-x,y,-z
1/2+x,1/2+y,z
1/2-x,1/2+y,-z
loop_
_atom_site_type_symbol
_atom_site_label
_atom_site_fract_x
_atom_site_fract_y
_atom_site_fract_z
Si Si1 0.579674 0.871800 0.102472
Si Si2 0.593919 0.047139 0.188705
Si Si3 0.267909 0.834122 0.258314
Si Si4 0.873595 0.867032 0.395324
Si Si5 0.234385 0.127866 0.734917
Si Si6 0.500000 0.824974 0.500000
Si Si7 0.763214 0.246464 0.943127
Si Si8 0.699506 0.477140 0.910440
O O1 0.348990 0.834767 0.363983
O O2 0.673134 0.800180 0.052371
O O3 0.569388 0.979933 0.140908
O O4 0.735752 0.877664 0.828602
O O5 0.363416 0.077106 0.502755
O O6 0.687259 0.980584 0.142791
O O7 0.742558 0.135813 0.985238
O O8 0.147596 0.893906 0.479650
O O9 0.167633 0.730499 0.376244
O O10 0.500000 0.821034 0.000000
O O11 0.044170 0.783605 0.178515
O O12 0.958170 0.953435 0.233871
O O13 0.238270 0.075322 0.817989
O O14 0.000000 0.129239 0.000000
O O15 0.447596 0.761057 0.645232
O O16 0.301751 0.893211 0.728827
#
# Coordination Sequence:
#
# PCOD8049471 Si02
#       8
#     4   4   4   4   4   2   4   4
#     4  11  22  41  65  90 124 169 204 251 320 368
#     4  12  22  39  61  94 123 162 212 253 309 370
#     4   9  20  37  60  88 123 157 204 253 303 364
#     4  10  21  41  62  89 126 162 199 259 307 363
#     4  11  20  34  60  95 120 155 206 260 307 363
#     4  10  20  40  60  76 128 158 196 258 304 354
#     4  11  23  42  61  91 127 163 206 262 305 370
#     4  11  20  37  60  88 123 157 204 259 303 364
#
# _framework density 20.263683
#
# number of rings (size 3 to 8) (size 9 to 14) (size 15 to 20)
#    0.000    1.333    5.333    1.600    0.000    0.533 
#    4.800    2.000    0.000    0.000    0.000    0.000 
#    0.000    0.000    0.000    0.000    0.000    0.000 
#
# Total GULP energy -185892.268088 kJ/mol
# GULP energy per Si atom -12392.817873 kJ/mol
# Density = 2.021756 g / cm^3
# Si number density = 20.263683 Si / 1000 Ang^3
#
#
#
# Elastic Constant Matrix: (Units=GPa)
#
#
# Indices 1 2 3 4 5 6 
#
# 1 84.9340 38.3771 36.9325 -0.0133 17.1356 0.0019
# 2 38.3771 96.1354 47.5231 -0.0100 19.9082 0.0042
# 3 36.9325 47.5231 108.9100 -0.0338 21.1038 0.0073
# 4 -0.0133 -0.0100 -0.0338 30.7989 0.0187 9.8613
# 5 17.1356 19.9082 21.1038 0.0187 38.9476 -0.0030
# 6 0.0019 0.0042 0.0073 9.8613 -0.0030 24.1267
#
#
#
# Elastic Compliance Matrix: (Units=1/GPa)
#
#
# Indices 1 2 3 4 5 6 
#
# 1 0.015518 -0.004131 -0.002844 0.000005 -0.003174 -0.000002
# 2 -0.004131 0.014967 -0.004469 0.000001 -0.003411 -0.000002
# 3 -0.002844 -0.004469 0.012750 0.000017 -0.003373 -0.000010
# 4 0.000005 0.000001 0.000017 0.037358 -0.000031 -0.015269
# 5 -0.003174 -0.003411 -0.003373 -0.000031 0.030643 0.000018
# 6 -0.000002 -0.000002 -0.000010 -0.015269 0.000018 0.047689
#
#
# Mechanical properties :
#
#
# Convention : Reuss Voigt Hill
#
# Bulk Modulus (GPa) = 49.15076 59.51609 54.33343
# Shear Modulus (GPa) = 26.51178 29.91776 28.21477
#
# Velocity S-wave (km/s) = 3.62102 3.84659 3.73551
# Velocity P-wave (km/s) = 6.46457 7.01163 6.74365
#
# Compressibility (1/GPa) = 0.02034557
#
# Stress axis : x y z
#
# Youngs Moduli (GPa) = 64.44192 66.81511 78.43108
#
# Poissons Ratio (x) = 0.27603 0.22310
# Poissons Ratio (y) = 0.26622 0.35049
# Poissons Ratio (z) = 0.18330 0.29858
#
# Static dielectric constant tensor:
#      x y z
#    x 3.997460 0.000000 0.213440 
#    y 0.000000 3.723470 -0.000010 
#    z 0.213440 -0.000010 4.057650 
# 
# 
# High freq. dielectric constant tensor:
#      x y z
#    x 1.781180 0.000000 0.011050 
#    y 0.000000 1.772300 0.000000 
#    z 0.011050 0.000000 1.808980 
# 
# From -- ./inp_files/20392.got.cif
#   From: 2010.03.12/outbox.cif.g09.slc.cpg/sg5_11_cif.got.tgz:20392.got - 2010.03.31 09:47:26.
