data_PCOD8049360
_publ_section_title
;
Structure prediction by ZEFSAII (Michael W. Deem and Ramdas Pophale) SiO2 
 PCOD8049360
Probable space group: C 2
;
_chemical_formula_sum "Si O2"
_cell_formula_units_Z 32
_cell_length_a 19.065102
_cell_length_b 13.727509
_cell_length_c 14.435620
_cell_angle_alpha 90.000000
_cell_angle_beta 157.982003
_cell_angle_gamma 90.000000
_cell_volume 1416.378138
_symmetry_space_group_name_H-M "C 2"
_symmetry_group_IT_number 5
_symmetry_cell_setting 'monoclinic'
loop_
_space_group_symop_operation_xyz
x,y,z
-x,y,-z
1/2+x,1/2+y,z
1/2-x,1/2+y,-z
loop_
_atom_site_type_symbol
_atom_site_label
_atom_site_fract_x
_atom_site_fract_y
_atom_site_fract_z
Si Si1 0.311643 0.405640 0.728489
Si Si2 0.091791 0.896518 0.350414
Si Si3 0.289651 0.610337 0.501406
Si Si4 0.084067 0.235127 0.504589
Si Si5 0.012001 0.518837 0.755815
Si Si6 0.954730 0.663226 0.345330
Si Si7 0.226814 0.329770 0.001718
Si Si8 0.670876 0.742337 0.279926
O O1 0.369753 0.351772 0.704283
O O2 0.226519 0.325353 0.694782
O O3 0.162973 0.489331 0.524120
O O4 0.500000 0.454409 0.000000
O O5 0.263304 0.854069 0.622017
O O6 0.889766 0.862520 0.133575
O O7 0.087921 0.012770 0.344275
O O8 0.305434 0.649935 0.415254
O O9 0.072637 0.579677 0.260675
O O10 0.377844 0.687995 0.682491
O O11 0.000000 0.198011 0.500000
O O12 0.917919 0.271231 0.236559
O O13 0.137658 0.586544 0.841068
O O14 0.130358 0.423801 0.933227
O O15 0.153528 0.687819 0.546377
O O16 0.000000 0.616081 0.500000
O O17 0.816637 0.756788 0.188256
O O18 0.500000 0.741389 0.000000
#
# Coordination Sequence:
#
# PCOD8049360 Si02
#       8
#     4   4   4   4   4   4   4   4
#     4  10  20  38  64  95 131 171 222 276 341 399
#     4  10  21  40  65  97 133 176 223 279 335 404
#     4  10  22  41  66  95 131 175 226 274 328 413
#     4  11  23  41  65  93 132 183 226 275 339 401
#     4   9  22  40  63  97 135 172 221 273 343 403
#     4  10  23  38  64 100 129 167 221 274 332 399
#     4  10  23  41  64  96 134 174 215 282 342 395
#     4  10  22  41  67  95 134 176 221 274 338 400
#
# _framework density 22.592838
#
# number of rings (size 3 to 8) (size 9 to 14) (size 15 to 20)
#    0.000    2.000    1.250    0.750    3.500    7.500 
#    0.000    3.125    2.750    0.000    0.000    0.000 
#    0.000    0.000    0.000    0.000    0.000    0.000 
#
# Total GULP energy -198260.598749 kJ/mol
# GULP energy per Si atom -12391.287422 kJ/mol
# Density = 2.254142 g / cm^3
# Si number density = 22.592838 Si / 1000 Ang^3
#
#
#
# Elastic Constant Matrix: (Units=GPa)
#
#
# Indices 1 2 3 4 5 6 
#
# 1 125.9937 45.1136 5.6132 -0.0004 -2.0940 -0.0002
# 2 45.1136 97.4545 30.8307 -0.0004 10.1426 -0.0003
# 3 5.6132 30.8307 70.9352 -0.0001 8.3334 -0.0001
# 4 -0.0004 -0.0004 -0.0001 20.5015 -0.0003 6.6482
# 5 -2.0940 10.1426 8.3334 -0.0003 20.3949 -0.0002
# 6 -0.0002 -0.0003 -0.0001 6.6482 -0.0002 34.6674
#
#
#
# Elastic Compliance Matrix: (Units=1/GPa)
#
#
# Indices 1 2 3 4 5 6 
#
# 1 0.009810 -0.005224 0.001125 0.000000 0.003146 0.000000
# 2 -0.005224 0.014998 -0.005426 0.000000 -0.005778 0.000000
# 3 0.001125 -0.005426 0.016845 0.000000 -0.004069 0.000000
# 4 0.000000 0.000000 0.000000 0.052011 0.000001 -0.009974
# 5 0.003146 -0.005778 -0.004069 0.000001 0.053891 0.000000
# 6 0.000000 0.000000 0.000000 -0.009974 0.000000 0.030758
#
#
# Mechanical properties :
#
#
# Convention : Reuss Voigt Hill
#
# Bulk Modulus (GPa) = 44.24662 50.83314 47.53988
# Shear Modulus (GPa) = 24.40246 29.30116 26.85181
#
# Velocity S-wave (km/s) = 3.29005 3.60519 3.45122
# Velocity P-wave (km/s) = 5.83605 6.31493 6.08020
#
# Compressibility (1/GPa) = 0.02260060
#
# Stress axis : x y z
#
# Youngs Moduli (GPa) = 101.93969 66.67716 59.36551
#
# Poissons Ratio (x) = 0.34835 -0.06678
# Poissons Ratio (y) = 0.53257 0.32213
# Poissons Ratio (z) = -0.11467 0.36181
#
# Static dielectric constant tensor:
#      x y z
#    x 4.368320 0.000000 0.159880 
#    y 0.000000 4.251620 0.000000 
#    z 0.159880 0.000000 3.902860 
# 
# 
# High freq. dielectric constant tensor:
#      x y z
#    x 1.892800 0.000000 0.024730 
#    y 0.000000 1.891750 0.000000 
#    z 0.024730 0.000000 1.866050 
# 
# From -- ./inp_files/57194.got.cif
#   From: 2010.03.12/outbox.cif.g09.slc.cpg/sg5_29_cif.got.tgz:57194.got - 2010.03.31 09:47:26.
