data_PCOD8049850
_publ_section_title
;
Structure prediction by ZEFSAII (Michael W. Deem and Ramdas Pophale) SiO2 
 PCOD8049850
Probable space group: C 2
;
_chemical_formula_sum "Si O2"
_cell_formula_units_Z 24
_cell_length_a 4.947244
_cell_length_b 13.107404
_cell_length_c 18.541825
_cell_angle_alpha 90.000000
_cell_angle_beta 74.896593
_cell_angle_gamma 90.000000
_cell_volume 1160.821630
_symmetry_space_group_name_H-M "C 2"
_symmetry_group_IT_number 5
_symmetry_cell_setting 'monoclinic'
loop_
_space_group_symop_operation_xyz
x,y,z
-x,y,-z
1/2+x,1/2+y,z
1/2-x,1/2+y,-z
loop_
_atom_site_type_symbol
_atom_site_label
_atom_site_fract_x
_atom_site_fract_y
_atom_site_fract_z
Si Si1 0.651884 0.512430 0.068428
Si Si2 0.281342 0.839066 0.661084
Si Si3 0.348351 0.428141 0.586209
Si Si4 0.000000 0.688771 0.000000
Si Si5 0.260468 0.515021 0.229974
Si Si6 0.306318 0.603953 0.695281
Si Si7 0.500000 0.837736 0.000000
O O1 0.406701 0.510865 0.143002
O O2 0.500000 0.510360 0.000000
O O3 0.849030 0.612243 0.067349
O O4 0.860996 0.415822 0.067775
O O5 0.546608 0.876638 0.596106
O O6 0.292692 0.721525 0.678410
O O7 0.008570 0.857664 0.632199
O O8 0.266678 0.900387 0.737489
O O9 0.500000 0.434538 0.500000
O O10 0.319369 0.542600 0.619021
O O11 0.753818 0.763658 0.996958
O O12 0.419179 0.585333 0.276570
O O13 0.957708 0.565716 0.239494
#
# Coordination Sequence:
#
# PCOD8049850 Si02
#       7
#     4   4   4   2   4   4   2
#     4  11  25  42  66  94 128 164 218 278 327 380
#     4  10  21  41  60  89 125 162 205 247 303 370
#     4  10  21  37  61  92 125 158 202 253 299 360
#     4  11  24  41  60  88 126 159 204 265 328 390
#     4  10  24  39  63  87 123 163 209 254 310 369
#     4  10  22  41  61  90 123 165 204 249 304 375
#     4  11  24  43  62  90 124 159 204 263 330 390
#
# _framework density 20.67501
#
# number of rings (size 3 to 8) (size 9 to 14) (size 15 to 20)
#    0.000    1.667    1.667    1.500    4.667    4.000 
#    0.000    0.000    0.000    0.000    0.000    0.000 
#    0.000    0.000    0.000    0.000    0.000    0.000 
#
# Total GULP energy -148694.875500 kJ/mol
# GULP energy per Si atom -12391.239625 kJ/mol
# Density = 2.062795 g / cm^3
# Si number density = 20.675010 Si / 1000 Ang^3
#
#
#
# Elastic Constant Matrix: (Units=GPa)
#
#
# Indices 1 2 3 4 5 6 
#
# 1 74.0529 34.5659 3.0683 0.0000 -9.9000 0.0000
# 2 34.5659 187.3747 41.4444 0.0000 -7.5620 0.0000
# 3 3.0683 41.4444 117.7304 0.0000 -30.4407 0.0000
# 4 0.0000 0.0000 0.0000 10.3017 0.0000 -4.2645
# 5 -9.9000 -7.5620 -30.4407 0.0000 30.4035 0.0000
# 6 0.0000 0.0000 0.0000 -4.2645 0.0000 26.5015
#
#
#
# Elastic Compliance Matrix: (Units=1/GPa)
#
#
# Indices 1 2 3 4 5 6 
#
# 1 0.015802 -0.003187 0.002477 0.000000 0.006833 0.000000
# 2 -0.003187 0.006445 -0.002752 0.000000 -0.002190 0.000000
# 3 0.002477 -0.002752 0.012724 0.000000 0.012861 0.000000
# 4 0.000000 0.000000 0.000000 0.104000 0.000000 0.016735
# 5 0.006833 -0.002190 0.012861 0.000000 0.047448 0.000000
# 6 0.000000 0.000000 0.000000 0.016735 0.000000 0.040427
#
#
# Mechanical properties :
#
#
# Convention : Reuss Voigt Hill
#
# Bulk Modulus (GPa) = 35.65543 59.70169 47.67856
# Shear Modulus (GPa) = 20.56601 33.44661 27.00631
#
# Velocity S-wave (km/s) = 3.15735 4.02647 3.61810
# Velocity P-wave (km/s) = 5.52946 7.11024 6.36908
#
# Compressibility (1/GPa) = 0.02804622
#
# Stress axis : x y z
#
# Youngs Moduli (GPa) = 63.28157 155.15425 78.59339
#
# Poissons Ratio (x) = 0.49451 -0.19466
# Poissons Ratio (y) = 0.20169 0.21630
# Poissons Ratio (z) = -0.15674 0.42701
#
# Static dielectric constant tensor:
#      x y z
#    x 4.112120 0.000000 -0.260640 
#    y 0.000000 4.109760 0.000000 
#    z -0.260640 0.000000 3.458900 
# 
# 
# High freq. dielectric constant tensor:
#      x y z
#    x 1.835680 0.000000 -0.023440 
#    y 0.000000 1.821720 0.000000 
#    z -0.023440 0.000000 1.784000 
# 
# From -- ./inp_files/58597.got.cif
#   From: 2010.03.12/outbox.cif.g09.slc.cpg/sg5_30_cif.got.tgz:58597.got - 2010.03.31 09:47:26.
