data_PCOD8049426
_publ_section_title
;
Structure prediction by ZEFSAII (Michael W. Deem and Ramdas Pophale) SiO2 
 PCOD8049426
Probable space group: C 2
;
_chemical_formula_sum "Si O2"
_cell_formula_units_Z 28
_cell_length_a 20.973372
_cell_length_b 8.586337
_cell_length_c 23.372031
_cell_angle_alpha 90.000000
_cell_angle_beta 160.865774
_cell_angle_gamma 90.000000
_cell_volume 1379.615793
_symmetry_space_group_name_H-M "C 2"
_symmetry_group_IT_number 5
_symmetry_cell_setting 'monoclinic'
loop_
_space_group_symop_operation_xyz
x,y,z
-x,y,-z
1/2+x,1/2+y,z
1/2-x,1/2+y,-z
loop_
_atom_site_type_symbol
_atom_site_label
_atom_site_fract_x
_atom_site_fract_y
_atom_site_fract_z
Si Si1 0.203711 0.651320 0.820958
Si Si2 0.518983 0.919517 0.952227
Si Si3 0.971033 0.166690 0.714088
Si Si4 0.287780 0.150098 0.303196
Si Si5 0.466238 0.500647 0.828141
Si Si6 0.926394 0.653298 0.096613
Si Si7 0.896949 0.524301 0.639643
O O1 0.219377 0.596236 0.768560
O O2 0.988173 0.621697 0.663195
O O3 0.273266 0.832537 0.883672
O O4 0.338241 0.539747 0.972458
O O5 0.354968 0.791023 0.803583
O O6 0.479856 0.063313 0.877350
O O7 0.500000 0.986803 0.000000
O O8 0.915408 0.340828 0.650305
O O9 0.833389 0.062582 0.556007
O O10 0.932460 0.120214 0.747289
O O11 0.196523 0.141667 0.891843
O O12 0.500000 0.207009 0.500000
O O13 0.218014 0.008559 0.284859
O O14 0.488618 0.325592 0.825042
O O15 0.987035 0.568046 0.205376
#
# Coordination Sequence:
#
# PCOD8049426 Si02
#       7
#     4   4   4   4   4   4   4
#     4  10  20  39  64  89 125 171 218 258 322 383
#     4   9  22  41  65  92 122 175 216 263 327 386
#     4  12  25  42  65  99 134 171 219 266 330 388
#     4  10  21  40  64  92 127 170 222 265 318 391
#     4  11  22  41  65  92 127 175 216 264 327 383
#     4  12  24  43  67  94 138 169 214 274 326 384
#     4  12  25  40  67 100 128 174 217 270 324 393
#
# _framework density 20.295507000000001
#
# number of rings (size 3 to 8) (size 9 to 14) (size 15 to 20)
#    0.000    1.143    2.857    4.714    4.000    1.143 
#    2.571    0.714    0.000    0.000    0.000    0.000 
#    0.000    0.000    0.000    0.000    0.000    0.000 
#
# Total GULP energy -173591.936581 kJ/mol
# GULP energy per Si atom -12399.424041 kJ/mol
# Density = 2.024931 g / cm^3
# Si number density = 20.295507 Si / 1000 Ang^3
#
#
#
# Elastic Constant Matrix: (Units=GPa)
#
#
# Indices 1 2 3 4 5 6 
#
# 1 104.5952 45.8249 25.7609 -0.0062 4.3904 -0.0024
# 2 45.8249 54.1621 28.7940 -0.0079 -11.5157 -0.0009
# 3 25.7609 28.7940 119.3311 -0.0240 -0.6380 -0.0090
# 4 -0.0062 -0.0079 -0.0240 21.6576 -0.0011 -4.6012
# 5 4.3904 -11.5157 -0.6380 -0.0011 20.8993 0.0023
# 6 -0.0024 -0.0009 -0.0090 -4.6012 0.0023 31.3164
#
#
#
# Elastic Compliance Matrix: (Units=1/GPa)
#
#
# Indices 1 2 3 4 5 6 
#
# 1 0.018208 -0.018667 0.000498 -0.000001 -0.014095 0.000002
# 2 -0.018667 0.043506 -0.006320 0.000004 0.027701 -0.000003
# 3 0.000498 -0.006320 0.009780 0.000009 -0.003288 0.000004
# 4 -0.000001 0.000004 0.000009 0.047661 0.000005 0.007003
# 5 -0.014095 0.027701 -0.003288 0.000005 0.065973 -0.000005
# 6 0.000002 -0.000003 0.000004 0.007003 -0.000005 0.032961
#
#
# Mechanical properties :
#
#
# Convention : Reuss Voigt Hill
#
# Bulk Modulus (GPa) = 44.41177 53.20535 48.80856
# Shear Modulus (GPa) = 18.21021 26.62191 22.41606
#
# Velocity S-wave (km/s) = 2.99867 3.62569 3.32698
# Velocity P-wave (km/s) = 5.82404 6.61814 6.23375
#
# Compressibility (1/GPa) = 0.02251655
#
# Stress axis : x y z
#
# Youngs Moduli (GPa) = 54.92113 22.98529 102.25077
#
# Poissons Ratio (x) = 0.42907 -0.05094
# Poissons Ratio (y) = 1.02521 0.64622
# Poissons Ratio (z) = -0.02736 0.14527
#
# Static dielectric constant tensor:
#      x y z
#    x 3.900560 -0.000010 0.076780 
#    y -0.000010 3.525770 -0.000010 
#    z 0.076780 -0.000010 3.842230 
# 
# 
# High freq. dielectric constant tensor:
#      x y z
#    x 1.799650 0.000000 -0.005420 
#    y 0.000000 1.779350 0.000000 
#    z -0.005420 0.000000 1.800830 
# 
# From -- ./inp_files/69445.got.cif
#   From: 2010.03.12/outbox.cif.g09.slc.cpg/sg5_35_cif.got.tgz:69445.got - 2010.03.31 09:47:26.
