data_PCOD8049016
_publ_section_title
;
Structure prediction by ZEFSAII (Michael W. Deem and Ramdas Pophale) SiO2 
 PCOD8049016
Probable space group: C 2
;
_chemical_formula_sum "Si O2"
_cell_formula_units_Z 28
_cell_length_a 5.391615
_cell_length_b 31.319556
_cell_length_c 7.521531
_cell_angle_alpha 90.000000
_cell_angle_beta 64.273876
_cell_angle_gamma 90.000000
_cell_volume 1144.214059
_symmetry_space_group_name_H-M "C 2"
_symmetry_group_IT_number 5
_symmetry_cell_setting 'monoclinic'
loop_
_space_group_symop_operation_xyz
x,y,z
-x,y,-z
1/2+x,1/2+y,z
1/2-x,1/2+y,-z
loop_
_atom_site_type_symbol
_atom_site_label
_atom_site_fract_x
_atom_site_fract_y
_atom_site_fract_z
Si Si1 0.862354 0.859900 0.236123
Si Si2 0.851535 0.956113 0.232944
Si Si3 0.000709 0.142204 0.205051
Si Si4 0.124355 0.318855 0.778280
Si Si5 0.000000 0.694851 0.000000
Si Si6 0.151530 0.504656 0.765107
Si Si7 0.291508 0.228734 0.713835
Si Si8 0.000000 0.074870 0.500000
O O1 0.825596 0.908401 0.315846
O O2 0.552384 0.840315 0.324981
O O3 0.051988 0.833478 0.318277
O O4 0.000000 0.857968 0.000000
O O5 0.547077 0.977101 0.302488
O O6 0.049354 0.982463 0.303528
O O7 0.000000 0.955082 0.000000
O O8 0.294028 0.162289 0.161453
O O9 0.914874 0.103447 0.357325
O O10 0.802919 0.181657 0.306541
O O11 0.000000 0.126908 0.000000
O O12 0.075808 0.267690 0.776850
O O13 0.000000 0.336438 0.000000
O O14 0.112870 0.727061 0.111980
O O15 0.227048 0.548594 0.641309
O O16 0.000000 0.514024 0.000000
O O17 0.500000 0.243665 0.500000
#
# Coordination Sequence:
#
# PCOD8049016 Si02
#       8
#     4   4   4   4   2   4   4   2
#     4   9  18  33  64  99 132 181 235 287 341 419
#     4   9  18  40  67  99 137 183 233 282 362 428
#     4  10  24  46  69 101 137 186 232 296 357 430
#     4  10  20  34  62 101 135 180 239 287 338 411
#     4  10  22  44  72  94 132 190 226 296 348 426
#     4  10  23  42  70 102 140 184 233 300 359 436
#     4  11  24  42  66  97 142 187 235 284 359 425
#     4  12  26  46  72 106 140 184 244 302 368 434
#
# _framework density 24.470949000000001
#
# number of rings (size 3 to 8) (size 9 to 14) (size 15 to 20)
#    0.000    2.000    0.000    3.000    6.000    5.714 
#   10.286    0.000    9.429    0.000    0.000    0.000 
#    0.000    0.000    0.000    0.000    0.000    0.000 
#
# Total GULP energy -173504.810239 kJ/mol
# GULP energy per Si atom -12393.200731 kJ/mol
# Density = 2.441525 g / cm^3
# Si number density = 24.470949 Si / 1000 Ang^3
#
#
#
# Elastic Constant Matrix: (Units=GPa)
#
#
# Indices 1 2 3 4 5 6 
#
# 1 171.8840 79.3582 33.3634 0.0000 -20.9440 0.0000
# 2 79.3582 172.7841 64.2864 0.0000 14.4685 0.0000
# 3 33.3634 64.2864 57.8019 0.0000 15.0982 0.0000
# 4 0.0000 0.0000 0.0000 38.1896 0.0000 27.3873
# 5 -20.9440 14.4685 15.0982 0.0000 14.8728 0.0000
# 6 0.0000 0.0000 0.0000 27.3873 0.0000 212.1114
#
#
#
# Elastic Compliance Matrix: (Units=1/GPa)
#
#
# Indices 1 2 3 4 5 6 
#
# 1 0.016858 -0.006012 -0.014659 0.000000 0.044469 0.000000
# 2 -0.006012 0.012066 -0.006357 0.000000 -0.013750 0.000000
# 3 -0.014659 -0.006357 0.049819 0.000000 -0.065033 0.000000
# 4 0.000000 0.000000 0.000000 0.028857 0.000000 -0.003726
# 5 0.044469 -0.013750 -0.065033 0.000000 0.209253 0.000000
# 6 0.000000 0.000000 0.000000 -0.003726 0.000000 0.005196
#
#
# Mechanical properties :
#
#
# Convention : Reuss Voigt Hill
#
# Bulk Modulus (GPa) = 40.51008 84.05400 62.28204
# Shear Modulus (GPa) = 13.00949 68.06555 40.53752
#
# Velocity S-wave (km/s) = 2.30821 5.27970 4.07450
# Velocity P-wave (km/s) = 4.86766 8.46109 6.90232
#
# Compressibility (1/GPa) = 0.02468522
#
# Stress axis : x y z
#
# Youngs Moduli (GPa) = 59.32041 82.88020 20.07247
#
# Poissons Ratio (x) = 0.49828 0.29425
# Poissons Ratio (y) = 0.35664 0.12761
# Poissons Ratio (z) = 0.86959 0.52690
#
# Static dielectric constant tensor:
#      x y z
#    x 1.451620 0.000000 -0.834080 
#    y 0.000000 4.301100 0.000000 
#    z -0.834080 0.000000 4.066940 
# 
# 
# High freq. dielectric constant tensor:
#      x y z
#    x 1.968270 0.000000 -0.002250 
#    y 0.000000 1.971200 0.000000 
#    z -0.002250 0.000000 1.985410 
# 
# From -- ./inp_files/13330.got.cif
#   From: 2010.03.12/outbox.cif.g09.slc.cpg/sg5_7_cif.got.tgz:13330.got - 2010.03.31 09:47:26.
