data_PCOD8049119
_publ_section_title
;
Structure prediction by ZEFSAII (Michael W. Deem and Ramdas Pophale) SiO2 
 PCOD8049119
Probable space group: C 2
;
_chemical_formula_sum "Si O2"
_cell_formula_units_Z 30
_cell_length_a 11.918565
_cell_length_b 8.117046
_cell_length_c 23.323656
_cell_angle_alpha 90.000000
_cell_angle_beta 140.582016
_cell_angle_gamma 90.000000
_cell_volume 1432.761429
_symmetry_space_group_name_H-M "C 2"
_symmetry_group_IT_number 5
_symmetry_cell_setting 'monoclinic'
loop_
_space_group_symop_operation_xyz
x,y,z
-x,y,-z
1/2+x,1/2+y,z
1/2-x,1/2+y,-z
loop_
_atom_site_type_symbol
_atom_site_label
_atom_site_fract_x
_atom_site_fract_y
_atom_site_fract_z
Si Si1 0.228945 0.989960 0.400769
Si Si2 0.966922 0.604640 0.400903
Si Si3 0.398794 0.448291 0.333526
Si Si4 0.662840 0.195231 0.295129
Si Si5 0.940314 0.289631 0.853048
Si Si6 0.500000 0.700795 0.000000
Si Si7 0.829474 0.482149 0.143741
Si Si8 0.724504 0.445754 0.222938
O O1 0.206739 0.802796 0.368669
O O2 0.038832 0.048278 0.349434
O O3 0.293970 0.105183 0.374499
O O4 0.371830 0.003722 0.508107
O O5 0.007362 0.796272 0.404897
O O6 0.912971 0.507490 0.322454
O O7 0.325070 0.567176 0.353749
O O8 0.239008 0.386612 0.231151
O O9 0.477327 0.104027 0.228056
O O10 0.646484 0.298960 0.229876
O O11 0.979128 0.316655 0.935804
O O12 0.916351 0.095616 0.831821
O O13 0.099107 0.358290 0.876446
O O14 0.328988 0.588387 0.945033
O O15 0.756782 0.382706 0.170690
#
# Coordination Sequence:
#
# PCOD8049119 Si02
#       8
#     4   4   4   4   4   2   4   4
#     4  10  20  37  56  81 117 150 192 246 287 328
#     4   9  20  36  54  81 113 149 193 242 290 332
#     4  10  21  39  59  83 114 156 197 233 290 349
#     4  10  21  36  60  85 109 154 201 233 287 350
#     4   9  20  39  61  85 118 153 187 235 291 344
#     4  10  20  36  60  90 120 146 186 240 288 342
#     4  10  21  39  61  85 117 154 191 235 288 347
#     4   9  19  37  57  79 112 152 190 231 285 341
#
# _framework density 20.938586000000001
#
# number of rings (size 3 to 8) (size 9 to 14) (size 15 to 20)
#    0.000    2.400    0.000    2.400    0.000    9.600 
#    0.000   16.000    0.000    1.600    0.000    0.000 
#    0.000    0.000    0.000    0.000    0.000    0.000 
#
# Total GULP energy -185951.301662 kJ/mol
# GULP energy per Si atom -12396.753444 kJ/mol
# Density = 2.089093 g / cm^3
# Si number density = 20.938586 Si / 1000 Ang^3
#
#
#
# Elastic Constant Matrix: (Units=GPa)
#
#
# Indices 1 2 3 4 5 6 
#
# 1 110.0176 27.6293 47.0740 0.0000 8.8525 0.0000
# 2 27.6293 61.7555 26.6503 0.0000 -2.4770 0.0000
# 3 47.0740 26.6503 90.2502 0.0000 -8.2624 0.0000
# 4 0.0000 0.0000 0.0000 26.2433 0.0000 -2.3609
# 5 8.8525 -2.4770 -8.2624 0.0000 39.9665 0.0000
# 6 0.0000 0.0000 0.0000 -2.3609 0.0000 28.9184
#
#
#
# Elastic Compliance Matrix: (Units=1/GPa)
#
#
# Indices 1 2 3 4 5 6 
#
# 1 0.012896 -0.003289 -0.006152 0.000000 -0.004332 0.000000
# 2 -0.003289 0.019396 -0.003910 0.000000 0.001122 0.000000
# 3 -0.006152 -0.003910 0.015846 0.000000 0.004396 0.000000
# 4 0.000000 0.000000 0.000000 0.038387 0.000000 0.003134
# 5 -0.004332 0.001122 0.004396 0.000000 0.026959 0.000000
# 6 0.000000 0.000000 0.000000 0.003134 0.000000 0.034836
#
#
# Mechanical properties :
#
#
# Convention : Reuss Voigt Hill
#
# Bulk Modulus (GPa) = 46.64564 51.63674 49.14119
# Shear Modulus (GPa) = 27.44730 29.73696 28.59213
#
# Velocity S-wave (km/s) = 3.62449 3.77264 3.69931
# Velocity P-wave (km/s) = 6.31202 6.60997 6.46271
#
# Compressibility (1/GPa) = 0.02143823
#
# Stress axis : x y z
#
# Youngs Moduli (GPa) = 77.54175 51.55596 63.10671
#
# Poissons Ratio (x) = 0.16955 0.38824
# Poissons Ratio (y) = 0.25501 0.24672
# Poissons Ratio (z) = 0.47705 0.20156
#
# Static dielectric constant tensor:
#      x y z
#    x 3.875950 0.000000 -0.063820 
#    y 0.000000 3.675430 0.000000 
#    z -0.063820 0.000000 3.760160 
# 
# 
# High freq. dielectric constant tensor:
#      x y z
#    x 1.831510 0.000000 -0.004510 
#    y 0.000000 1.799020 0.000000 
#    z -0.004510 0.000000 1.811530 
# 
# From -- ./inp_files/60218.got.cif
#   From: 2010.03.12/outbox.cif.g09.slc.cpg/sg5_31_cif.got.tgz:60218.got - 2010.03.31 09:47:26.
