data_PCOD8049818
_publ_section_title
;
Structure prediction by ZEFSAII (Michael W. Deem and Ramdas Pophale) SiO2 
 PCOD8049818
Probable space group: C 2
;
_chemical_formula_sum "Si O2"
_cell_formula_units_Z 28
_cell_length_a 17.417873
_cell_length_b 5.199984
_cell_length_c 15.060847
_cell_angle_alpha 90.000000
_cell_angle_beta 67.832762
_cell_angle_gamma 90.000000
_cell_volume 1263.275489
_symmetry_space_group_name_H-M "C 2"
_symmetry_group_IT_number 5
_symmetry_cell_setting 'monoclinic'
loop_
_space_group_symop_operation_xyz
x,y,z
-x,y,-z
1/2+x,1/2+y,z
1/2-x,1/2+y,-z
loop_
_atom_site_type_symbol
_atom_site_label
_atom_site_fract_x
_atom_site_fract_y
_atom_site_fract_z
Si Si1 0.640398 0.972920 0.553135
Si Si2 0.033663 0.503845 0.769148
Si Si3 0.743156 0.336285 0.234429
Si Si4 0.686722 0.227938 0.920159
Si Si5 0.154737 0.542999 0.124653
Si Si6 0.821288 0.974106 0.557302
Si Si7 0.891452 0.022756 0.183828
O O1 0.570791 0.934300 0.657560
O O2 0.728489 0.973031 0.562029
O O3 0.632118 0.736027 0.488546
O O4 0.626660 0.236099 0.505038
O O5 0.067661 0.786077 0.781048
O O6 0.935650 0.484300 0.799519
O O7 0.053351 0.277859 0.831124
O O8 0.810902 0.536933 0.165911
O O9 0.689645 0.265609 0.171945
O O10 0.682574 0.457372 0.334145
O O11 0.796573 0.101881 0.256842
O O12 0.781757 0.305289 0.899426
O O13 0.624276 0.453993 0.913740
O O14 0.644995 0.123250 0.026715
#
# Coordination Sequence:
#
# PCOD8049818 Si02
#       7
#     4   4   4   4   4   4   4
#     4  10  21  37  65 102 131 168 229 284 340 396
#     4  12  25  46  69 108 142 179 221 307 348 400
#     4  11  23  45  71 100 136 187 231 280 335 431
#     4  11  23  48  69 102 129 195 233 277 329 446
#     4  11  27  43  74  98 148 182 235 278 361 404
#     4  10  21  36  68  97 129 177 227 278 331 411
#     4  11  24  43  72  99 144 174 233 284 348 401
#
# _framework density 22.164605999999999
#
# number of rings (size 3 to 8) (size 9 to 14) (size 15 to 20)
#    0.000    1.143    4.286    0.857   10.000    0.571 
#    2.571    0.714    0.000    0.000    0.000    0.000 
#    0.000    0.000    0.000    0.000    0.000    0.000 
#
# Total GULP energy -173523.527333 kJ/mol
# GULP energy per Si atom -12394.537667 kJ/mol
# Density = 2.211416 g / cm^3
# Si number density = 22.164606 Si / 1000 Ang^3
#
#
#
# Elastic Constant Matrix: (Units=GPa)
#
#
# Indices 1 2 3 4 5 6 
#
# 1 45.9362 18.2436 8.4589 0.0021 -12.6180 -0.0093
# 2 18.2436 120.1842 33.5826 -0.0040 -1.2421 -0.0268
# 3 8.4589 33.5826 90.3189 0.0011 -2.3004 -0.0032
# 4 0.0021 -0.0040 0.0011 35.0035 0.0000 10.6725
# 5 -12.6180 -1.2421 -2.3004 0.0000 30.6150 -0.0023
# 6 -0.0093 -0.0268 -0.0032 10.6725 -0.0023 22.3185
#
#
#
# Elastic Compliance Matrix: (Units=1/GPa)
#
#
# Indices 1 2 3 4 5 6 
#
# 1 0.026290 -0.003648 -0.000835 -0.000005 0.010625 0.000010
# 2 -0.003648 0.009792 -0.003334 -0.000002 -0.001357 0.000010
# 3 -0.000835 -0.003334 0.012401 0.000000 0.000452 -0.000003
# 4 -0.000005 -0.000002 0.000000 0.033445 -0.000003 -0.015993
# 5 0.010625 -0.001357 0.000452 -0.000003 0.037022 0.000008
# 6 0.000010 0.000010 -0.000003 -0.015993 0.000008 0.052454
#
#
# Mechanical properties :
#
#
# Convention : Reuss Voigt Hill
#
# Bulk Modulus (GPa) = 30.44149 41.88995 36.16572
# Shear Modulus (GPa) = 25.25425 30.66436 27.95931
#
# Velocity S-wave (km/s) = 3.37915 3.72356 3.55553
# Velocity P-wave (km/s) = 5.38414 6.11776 5.76264
#
# Compressibility (1/GPa) = 0.03284990
#
# Stress axis : x y z
#
# Youngs Moduli (GPa) = 38.03688 102.12662 80.63741
#
# Poissons Ratio (x) = 0.37251 0.06736
# Poissons Ratio (y) = 0.13874 0.26882
# Poissons Ratio (z) = 0.03177 0.34046
#
# Static dielectric constant tensor:
#      x y z
#    x 3.743010 0.000000 0.112010 
#    y 0.000000 4.296430 0.000000 
#    z 0.112010 0.000000 3.898950 
# 
# 
# High freq. dielectric constant tensor:
#      x y z
#    x 1.850020 0.000000 0.012010 
#    y 0.000000 1.885700 0.000000 
#    z 0.012010 0.000000 1.865080 
# 
# From -- ./inp_files/55413.got.cif
#   From: 2010.03.12/outbox.cif.g09.slc.cpg/sg5_28_cif.got.tgz:55413.got - 2010.03.31 09:47:26.
