data_PCOD8049438
_publ_section_title
;
Structure prediction by ZEFSAII (Michael W. Deem and Ramdas Pophale) SiO2 
 PCOD8049438
Probable space group: C 2
;
_chemical_formula_sum "Si O2"
_cell_formula_units_Z 32
_cell_length_a 19.293302
_cell_length_b 11.341785
_cell_length_c 15.412463
_cell_angle_alpha 90.000000
_cell_angle_beta 154.133700
_cell_angle_gamma 90.000000
_cell_volume 1471.356704
_symmetry_space_group_name_H-M "C 2"
_symmetry_group_IT_number 5
_symmetry_cell_setting 'monoclinic'
loop_
_space_group_symop_operation_xyz
x,y,z
-x,y,-z
1/2+x,1/2+y,z
1/2-x,1/2+y,-z
loop_
_atom_site_type_symbol
_atom_site_label
_atom_site_fract_x
_atom_site_fract_y
_atom_site_fract_z
Si Si1 0.610924 0.435130 0.542693
Si Si2 0.883600 0.972732 0.991141
Si Si3 0.908344 0.222479 0.102788
Si Si4 0.899414 0.810154 0.167959
Si Si5 0.136063 0.608942 0.427298
Si Si6 0.233182 0.918925 0.322117
Si Si7 0.130605 0.265223 0.210471
Si Si8 0.168708 0.164622 0.520663
O O1 0.500000 0.407280 0.500000
O O2 0.529290 0.390546 0.362138
O O3 0.783588 0.372648 0.743133
O O4 0.647773 0.573474 0.576189
O O5 0.846202 0.872405 0.019775
O O6 0.067098 0.962117 0.173432
O O7 0.854029 0.103265 0.993605
O O8 0.762168 0.951059 0.774547
O O9 0.034079 0.301285 0.188900
O O10 0.991811 0.191838 0.287675
O O11 0.753466 0.300513 0.943272
O O12 0.969822 0.678297 0.229359
O O13 0.125304 0.478400 0.459133
O O14 0.238178 0.670357 0.618130
O O15 0.225797 0.605856 0.436650
O O16 0.244993 0.778765 0.344528
O O17 0.000000 0.206532 0.000000
#
# Coordination Sequence:
#
# PCOD8049438 Si02
#       8
#     4   4   4   4   4   4   4   4
#     4  11  24  43  65  92 140 174 216 280 338 400
#     4  11  22  43  67  99 139 172 222 282 338 390
#     4  11  23  38  70  94 132 177 220 276 337 397
#     4  11  23  44  64 101 136 175 219 281 339 389
#     4  10  21  38  70  94 130 168 225 273 327 402
#     4  11  22  41  71  99 127 176 232 277 328 407
#     4  10  20  39  65  98 122 166 223 270 331 395
#     4  11  23  42  65  94 131 179 219 267 343 400
#
# _framework density 21.748633999999999
#
# number of rings (size 3 to 8) (size 9 to 14) (size 15 to 20)
#    0.000    1.250    5.000    1.500    3.500    3.000 
#    2.250    1.250    0.000    0.000    0.000    0.000 
#    0.000    0.000    0.000    0.000    0.000    0.000 
#
# Total GULP energy -198378.465973 kJ/mol
# GULP energy per Si atom -12398.654123 kJ/mol
# Density = 2.169913 g / cm^3
# Si number density = 21.748634 Si / 1000 Ang^3
#
#
#
# Elastic Constant Matrix: (Units=GPa)
#
#
# Indices 1 2 3 4 5 6 
#
# 1 105.4153 47.5860 33.3721 0.0000 0.6408 0.0000
# 2 47.5860 93.8963 14.5103 -0.0001 2.3080 0.0000
# 3 33.3721 14.5103 44.0777 -0.0001 0.8828 -0.0001
# 4 0.0000 -0.0001 -0.0001 25.4133 -0.0001 0.0560
# 5 0.6408 2.3080 0.8828 -0.0001 35.6983 0.0000
# 6 0.0000 0.0000 -0.0001 0.0560 0.0000 36.6210
#
#
#
# Elastic Compliance Matrix: (Units=1/GPa)
#
#
# Indices 1 2 3 4 5 6 
#
# 1 0.015362 -0.006317 -0.009558 0.000000 0.000369 0.000000
# 2 -0.006317 0.013833 0.000245 0.000000 -0.000787 0.000000
# 3 -0.009558 0.000245 0.029855 0.000000 -0.000583 0.000000
# 4 0.000000 0.000000 0.000000 0.039350 0.000000 -0.000060
# 5 0.000369 -0.000787 -0.000583 0.000000 0.028071 0.000000
# 6 0.000000 0.000000 0.000000 -0.000060 0.000000 0.027307
#
#
# Mechanical properties :
#
#
# Convention : Reuss Voigt Hill
#
# Bulk Modulus (GPa) = 35.98635 48.25844 42.12239
# Shear Modulus (GPa) = 25.73316 29.40791 27.57054
#
# Velocity S-wave (km/s) = 3.44351 3.68118 3.56433
# Velocity P-wave (km/s) = 5.69146 6.34866 6.02902
#
# Compressibility (1/GPa) = 0.02778831
#
# Stress axis : x y z
#
# Youngs Moduli (GPa) = 65.09703 72.29060 33.49506
#
# Poissons Ratio (x) = 0.45667 0.32016
# Poissons Ratio (y) = 0.41123 -0.00820
# Poissons Ratio (z) = 0.62223 -0.01770
#
# Static dielectric constant tensor:
#      x y z
#    x 3.906840 0.000000 -0.102380 
#    y 0.000000 3.946500 0.000000 
#    z -0.102380 0.000000 3.846130 
# 
# 
# High freq. dielectric constant tensor:
#      x y z
#    x 1.849840 0.000000 -0.007580 
#    y 0.000000 1.850680 0.000000 
#    z -0.007580 0.000000 1.840210 
# 
# From -- ./inp_files/56042.got.cif
#   From: 2010.03.12/outbox.cif.g09.slc.cpg/sg5_29_cif.got.tgz:56042.got - 2010.03.31 09:47:26.
