data_PCOD8049990
_publ_section_title
;
Structure prediction by ZEFSAII (Michael W. Deem and Ramdas Pophale) SiO2 
 PCOD8049990
Probable space group: C 2
;
_chemical_formula_sum "Si O2"
_cell_formula_units_Z 32
_cell_length_a 6.497043
_cell_length_b 26.492820
_cell_length_c 13.174070
_cell_angle_alpha 90.000000
_cell_angle_beta 137.710490
_cell_angle_gamma 90.000000
_cell_volume 1525.807117
_symmetry_space_group_name_H-M "C 2"
_symmetry_group_IT_number 5
_symmetry_cell_setting 'monoclinic'
loop_
_space_group_symop_operation_xyz
x,y,z
-x,y,-z
1/2+x,1/2+y,z
1/2-x,1/2+y,-z
loop_
_atom_site_type_symbol
_atom_site_label
_atom_site_fract_x
_atom_site_fract_y
_atom_site_fract_z
Si Si1 0.822287 0.726670 0.152669
Si Si2 0.864281 0.645634 0.847331
Si Si3 0.207890 0.080840 0.323148
Si Si4 0.889450 0.815709 0.852362
Si Si5 0.798115 0.879010 0.178965
Si Si6 0.332364 0.056594 0.147638
Si Si7 0.738782 0.993293 0.178965
Si Si8 0.738445 0.291464 0.676852
O O1 0.820201 0.743754 0.269771
O O2 0.092477 0.686152 0.228318
O O3 0.862442 0.775539 0.096672
O O4 0.500000 0.702027 0.000000
O O5 0.510888 0.628550 0.730229
O O6 0.072427 0.596765 0.903328
O O7 0.000000 0.670276 0.000000
O O8 0.500000 0.083449 0.500000
O O9 0.343917 0.084229 0.259689
O O10 0.036654 0.027453 0.270320
O O11 0.564849 0.788075 0.740311
O O12 0.902794 0.862188 0.777482
O O13 0.000000 0.837194 0.000000
O O14 0.849295 0.936152 0.232863
O O15 0.774306 0.844851 0.270320
O O16 0.500000 0.872825 0.000000
O O17 0.570349 0.010116 0.222518
O O18 0.000000 0.035110 0.000000
O O19 0.500000 0.999479 0.000000
O O20 0.500000 0.288855 0.500000
#
# Coordination Sequence:
#
# PCOD8049990 Si02
#       8
#     4   4   4   4   4   4   4   4
#     4  11  23  39  69  97 123 166 225 267 318 389
#     4  11  23  39  69  97 123 166 225 267 318 389
#     4  11  24  43  63  95 135 173 209 269 333 387
#     4  11  19  40  67  89 126 171 212 268 322 376
#     4  10  21  39  63  97 128 168 230 268 313 388
#     4  11  19  40  67  89 126 171 212 268 322 376
#     4  10  21  39  63  97 128 168 230 268 313 388
#     4  11  24  43  63  95 135 173 209 269 333 387
#
# _framework density 20.972507
#
# number of rings (size 3 to 8) (size 9 to 14) (size 15 to 20)
#    0.000    1.250    5.000    2.250    0.000    5.000 
#    4.500    3.750    0.000    0.000    0.000    0.000 
#    0.000    0.000    0.000    0.000    0.000    0.000 
#
# Total GULP energy -198387.149013 kJ/mol
# GULP energy per Si atom -12399.196813 kJ/mol
# Density = 2.092477 g / cm^3
# Si number density = 20.972507 Si / 1000 Ang^3
#
#
#
# Elastic Constant Matrix: (Units=GPa)
#
#
# Indices 1 2 3 4 5 6 
#
# 1 131.3870 43.3956 39.4902 0.0000 5.7052 0.0000
# 2 43.3956 102.3609 21.6227 0.0000 3.1022 0.0000
# 3 39.4902 21.6227 117.6357 0.0000 -3.7462 0.0000
# 4 0.0000 0.0000 0.0000 14.7596 0.0000 2.4259
# 5 5.7052 3.1022 -3.7462 0.0000 27.2743 0.0000
# 6 0.0000 0.0000 0.0000 2.4259 0.0000 31.7852
#
#
#
# Elastic Compliance Matrix: (Units=1/GPa)
#
#
# Indices 1 2 3 4 5 6 
#
# 1 0.009642 -0.003465 -0.002663 0.000000 -0.001989 0.000000
# 2 -0.003465 0.011464 -0.000967 0.000000 -0.000712 0.000000
# 3 -0.002663 -0.000967 0.009636 0.000000 0.001991 0.000000
# 4 0.000000 0.000000 0.000000 0.068613 0.000000 -0.005237
# 5 -0.001989 -0.000712 0.001991 0.000000 0.037435 0.000000
# 6 0.000000 0.000000 0.000000 -0.005237 0.000000 0.031861
#
#
# Mechanical properties :
#
#
# Convention : Reuss Voigt Hill
#
# Bulk Modulus (GPa) = 60.41429 62.26674 61.34051
# Shear Modulus (GPa) = 26.54503 31.22217 28.88360
#
# Velocity S-wave (km/s) = 3.56154 3.86258 3.71511
# Velocity P-wave (km/s) = 6.76622 7.04605 6.90755
#
# Compressibility (1/GPa) = 0.01655238
#
# Stress axis : x y z
#
# Youngs Moduli (GPa) = 103.70841 87.22876 103.77756
#
# Poissons Ratio (x) = 0.30225 0.27640
# Poissons Ratio (y) = 0.35935 0.10032
# Poissons Ratio (z) = 0.27622 0.08432
#
# Static dielectric constant tensor:
#      x y z
#    x 4.595690 0.000000 0.166120 
#    y 0.000000 3.803030 0.000000 
#    z 0.166120 0.000000 3.429830 
# 
# 
# High freq. dielectric constant tensor:
#      x y z
#    x 1.845670 0.000000 0.008720 
#    y 0.000000 1.815760 0.000000 
#    z 0.008720 0.000000 1.784450 
# 
# From -- ./inp_files/49672.got.cif
#   From: 2010.03.12/outbox.cif.g09.slc.cpg/sg5_25_cif.got.tgz:49672.got - 2010.03.31 09:47:26.
