data_PCOD8049178
_publ_section_title
;
Structure prediction by ZEFSAII (Michael W. Deem and Ramdas Pophale) SiO2 
 PCOD8049178
Probable space group: C 2
;
_chemical_formula_sum "Si O2"
_cell_formula_units_Z 32
_cell_length_a 27.471168
_cell_length_b 8.938993
_cell_length_c 9.260711
_cell_angle_alpha 90.000000
_cell_angle_beta 47.536949
_cell_angle_gamma 90.000000
_cell_volume 1677.634726
_symmetry_space_group_name_H-M "C 2"
_symmetry_group_IT_number 5
_symmetry_cell_setting 'monoclinic'
loop_
_space_group_symop_operation_xyz
x,y,z
-x,y,-z
1/2+x,1/2+y,z
1/2-x,1/2+y,-z
loop_
_atom_site_type_symbol
_atom_site_label
_atom_site_fract_x
_atom_site_fract_y
_atom_site_fract_z
Si Si1 0.234035 0.211880 0.877313
Si Si2 0.874667 0.372511 0.078583
Si Si3 0.378671 0.176900 0.898770
Si Si4 0.373246 0.883392 0.419762
Si Si5 0.997391 0.187208 0.171550
Si Si6 0.499190 0.383446 0.670528
Si Si7 0.119177 0.684950 0.441947
Si Si8 0.249407 0.865217 0.862230
O O1 0.181101 0.257282 0.863349
O O2 0.307552 0.245748 0.669910
O O3 0.228406 0.036864 0.924773
O O4 0.220099 0.306809 0.049075
O O5 0.862859 0.398770 0.270555
O O6 0.869468 0.527579 0.006719
O O7 0.946801 0.307671 0.902437
O O8 0.441980 0.267540 0.828518
O O9 0.386055 0.137370 0.715337
O O10 0.314590 0.275427 0.057175
O O11 0.426501 0.756638 0.353455
O O12 0.303755 0.841222 0.630171
O O13 0.399459 0.041304 0.426406
O O14 0.012475 0.040242 0.231145
O O15 0.000000 0.141397 0.000000
O O16 0.500000 0.414610 0.500000
O O17 0.568826 0.316257 0.582982
#
# Coordination Sequence:
#
# PCOD8049178 Si02
#       8
#     4   4   4   4   4   4   4   4
#     4  10  20  37  57  82 114 144 179 226 274 324
#     4  11  22  37  57  80 111 148 186 224 268 327
#     4  10  21  37  59  84 111 144 182 227 277 323
#     4  10  22  38  56  80 110 148 186 222 271 328
#     4  10  23  39  54  79 114 147 180 226 279 324
#     4  10  21  37  60  86 108 139 187 231 270 325
#     4   9  20  38  57  82 111 141 180 227 275 325
#     4  10  21  37  58  83 113 145 180 225 278 324
#
# _framework density 19.074473999999999
#
# number of rings (size 3 to 8) (size 9 to 14) (size 15 to 20)
#    0.000    2.000    0.000    3.750    0.000    9.000 
#    0.000    2.500    0.000    0.000    0.000    0.000 
#    0.000    0.000    0.000    0.000    0.000    0.000 
#
# Total GULP energy -198467.270654 kJ/mol
# GULP energy per Si atom -12404.204416 kJ/mol
# Density = 1.903106 g / cm^3
# Si number density = 19.074474 Si / 1000 Ang^3
#
#
#
# Elastic Constant Matrix: (Units=GPa)
#
#
# Indices 1 2 3 4 5 6 
#
# 1 99.0918 54.4464 44.6430 0.0000 -4.4503 0.0000
# 2 54.4464 125.5181 59.7754 0.0000 5.2305 0.0000
# 3 44.6430 59.7754 96.8642 0.0000 -4.4177 0.0000
# 4 0.0000 0.0000 0.0000 26.7951 0.0000 -1.0286
# 5 -4.4503 5.2305 -4.4177 0.0000 21.6415 0.0000
# 6 0.0000 0.0000 0.0000 -1.0286 0.0000 31.0836
#
#
#
# Elastic Compliance Matrix: (Units=1/GPa)
#
#
# Indices 1 2 3 4 5 6 
#
# 1 0.014445 -0.004686 -0.003612 0.000000 0.003366 0.000000
# 2 -0.004686 0.013192 -0.006228 0.000000 -0.005423 0.000000
# 3 -0.003612 -0.006228 0.016016 0.000000 0.004032 0.000000
# 4 0.000000 0.000000 0.000000 0.037368 0.000000 0.001237
# 5 0.003366 -0.005423 0.004032 0.000000 0.049033 0.000000
# 6 0.000000 0.000000 0.000000 0.001237 0.000000 0.032212
#
#
# Mechanical properties :
#
#
# Convention : Reuss Voigt Hill
#
# Bulk Modulus (GPa) = 68.49475 71.02263 69.75869
# Shear Modulus (GPa) = 25.48611 26.74466 26.11539
#
# Velocity S-wave (km/s) = 3.65929 3.74855 3.70419
# Velocity P-wave (km/s) = 7.33764 7.48670 7.41254
#
# Compressibility (1/GPa) = 0.01459966
#
# Stress axis : x y z
#
# Youngs Moduli (GPa) = 69.22902 75.80546 62.43746
#
# Poissons Ratio (x) = 0.35520 0.22554
# Poissons Ratio (y) = 0.32439 0.38889
# Poissons Ratio (z) = 0.25007 0.47215
#
# Static dielectric constant tensor:
#      x y z
#    x 3.627160 0.000000 -0.153820 
#    y 0.000000 3.446200 0.000000 
#    z -0.153820 0.000000 3.488990 
# 
# 
# High freq. dielectric constant tensor:
#      x y z
#    x 1.749820 0.000000 -0.011750 
#    y 0.000000 1.748840 0.000000 
#    z -0.011750 0.000000 1.742290 
# 
# From -- ./inp_files/31648.got.cif
#   From: 2010.03.12/outbox.cif.g09.slc.cpg/sg5_16_cif.got.tgz:31648.got - 2010.03.31 09:47:26.
