data_PCOD8049208
_publ_section_title
;
Structure prediction by ZEFSAII (Michael W. Deem and Ramdas Pophale) SiO2 
 PCOD8049208
Probable space group: C 2
;
_chemical_formula_sum "Si O2"
_cell_formula_units_Z 24
_cell_length_a 16.406015
_cell_length_b 9.076085
_cell_length_c 13.347143
_cell_angle_alpha 90.000000
_cell_angle_beta 145.992040
_cell_angle_gamma 90.000000
_cell_volume 1111.580864
_symmetry_space_group_name_H-M "C 2"
_symmetry_group_IT_number 5
_symmetry_cell_setting 'monoclinic'
loop_
_space_group_symop_operation_xyz
x,y,z
-x,y,-z
1/2+x,1/2+y,z
1/2-x,1/2+y,-z
loop_
_atom_site_type_symbol
_atom_site_label
_atom_site_fract_x
_atom_site_fract_y
_atom_site_fract_z
Si Si1 0.083932 0.445550 0.343144
Si Si2 0.838611 0.771158 0.020905
Si Si3 0.318244 0.927300 0.961329
Si Si4 0.337091 0.254911 0.598320
Si Si5 0.874764 0.468125 0.307668
Si Si6 0.658903 0.281700 0.631893
O O1 0.195327 0.328727 0.506306
O O2 0.182885 0.581080 0.407939
O O3 0.959475 0.511227 0.291248
O O4 0.987754 0.381154 0.153224
O O5 0.782922 0.825374 0.071697
O O6 0.012005 0.803119 0.195234
O O7 0.796849 0.601185 0.960420
O O8 0.762702 0.864107 0.854431
O O9 0.277928 0.886631 0.806429
O O10 0.322841 0.300103 0.467677
O O11 0.820488 0.612272 0.311505
O O12 0.000000 0.384558 0.500000
O O13 0.500000 0.339698 0.500000
#
# Coordination Sequence:
#
# PCOD8049208 Si02
#       6
#     4   4   4   4   4   4
#     4  10  22  39  59  88 123 156 196 251 309 351
#     4  10  21  37  62  87 121 159 205 247 301 360
#     4  10  20  37  60  90 119 161 204 249 294 366
#     4  11  22  40  61  88 122 162 193 256 306 359
#     4  10  20  41  67  86 116 160 211 247 289 363
#     4  11  19  39  67  86 118 159 212 242 295 357
#
# _framework density 21.590869999999999
#
# number of rings (size 3 to 8) (size 9 to 14) (size 15 to 20)
#    0.000    1.667    5.000    2.000    0.000    5.333 
#    3.000    0.833    0.000    0.000    0.000    0.000 
#    0.000    0.000    0.000    0.000    0.000    0.000 
#
# Total GULP energy -148715.596313 kJ/mol
# GULP energy per Si atom -12392.966359 kJ/mol
# Density = 2.154173 g / cm^3
# Si number density = 21.590870 Si / 1000 Ang^3
#
#
#
# Elastic Constant Matrix: (Units=GPa)
#
#
# Indices 1 2 3 4 5 6 
#
# 1 24.4740 9.0364 11.9612 0.0000 -2.7169 0.0000
# 2 9.0364 95.6490 64.9193 0.0000 12.4263 0.0000
# 3 11.9612 64.9193 174.8581 0.0000 -6.7917 0.0000
# 4 0.0000 0.0000 0.0000 48.4598 0.0000 -1.1536
# 5 -2.7169 12.4263 -6.7917 0.0000 36.3866 0.0000
# 6 0.0000 0.0000 0.0000 -1.1536 0.0000 22.8400
#
#
#
# Elastic Compliance Matrix: (Units=1/GPa)
#
#
# Indices 1 2 3 4 5 6 
#
# 1 0.043388 -0.003669 -0.001442 0.000000 0.004224 0.000000
# 2 -0.003669 0.015610 -0.005804 0.000000 -0.006688 0.000000
# 3 -0.001442 -0.005804 0.008104 0.000000 0.003387 0.000000
# 4 0.000000 0.000000 0.000000 0.020660 0.000000 0.001043
# 5 0.004224 -0.006688 0.003387 0.000000 0.030714 0.000000
# 6 0.000000 0.000000 0.000000 0.001043 0.000000 0.043836
#
#
# Mechanical properties :
#
#
# Convention : Reuss Voigt Hill
#
# Bulk Modulus (GPa) = 22.08897 51.86833 36.97865
# Shear Modulus (GPa) = 25.09623 35.47491 30.28557
#
# Velocity S-wave (km/s) = 3.41303 4.05785 3.74933
# Velocity P-wave (km/s) = 5.07785 6.78457 5.99228
#
# Compressibility (1/GPa) = 0.04527147
#
# Stress axis : x y z
#
# Youngs Moduli (GPa) = 23.04791 64.06169 123.39531
#
# Poissons Ratio (x) = 0.23507 0.17788
# Poissons Ratio (y) = 0.08457 0.71622
# Poissons Ratio (z) = 0.03323 0.37183
#
# Static dielectric constant tensor:
#      x y z
#    x 3.524350 0.000000 -0.213360 
#    y 0.000000 3.694180 0.000000 
#    z -0.213360 0.000000 4.469300 
# 
# 
# High freq. dielectric constant tensor:
#      x y z
#    x 1.813110 0.000000 -0.010670 
#    y 0.000000 1.835680 0.000000 
#    z -0.010670 0.000000 1.877080 
# 
# From -- ./inp_files/28881.got.cif
#   From: 2010.03.12/outbox.cif.g09.slc.cpg/sg5_15_cif.got.tgz:28881.got - 2010.03.31 09:47:26.
