data_PCOD8049991
_publ_section_title
;
Structure prediction by ZEFSAII (Michael W. Deem and Ramdas Pophale) SiO2 
 PCOD8049991
Probable space group: C 2
;
_chemical_formula_sum "Si O2"
_cell_formula_units_Z 28
_cell_length_a 13.587804
_cell_length_b 11.903020
_cell_length_c 9.640390
_cell_angle_alpha 90.000000
_cell_angle_beta 69.233511
_cell_angle_gamma 90.000000
_cell_volume 1457.901145
_symmetry_space_group_name_H-M "C 2"
_symmetry_group_IT_number 5
_symmetry_cell_setting 'monoclinic'
loop_
_space_group_symop_operation_xyz
x,y,z
-x,y,-z
1/2+x,1/2+y,z
1/2-x,1/2+y,-z
loop_
_atom_site_type_symbol
_atom_site_label
_atom_site_fract_x
_atom_site_fract_y
_atom_site_fract_z
Si Si1 0.380347 0.246790 0.538115
Si Si2 0.245229 0.218037 0.845716
Si Si3 0.315792 0.509376 0.963409
Si Si4 0.879140 0.785856 0.028755
Si Si5 0.307544 0.136894 0.300836
Si Si6 0.889536 0.003069 0.617331
Si Si7 0.379876 0.938594 0.099845
O O1 0.500000 0.211850 0.500000
O O2 0.302991 0.175183 0.676970
O O3 0.356437 0.214605 0.393221
O O4 0.361298 0.378895 0.576313
O O5 0.166003 0.316988 0.840598
O O6 0.343495 0.259899 0.889783
O O7 0.175303 0.125498 0.958017
O O8 0.385628 0.507203 0.787522
O O9 0.192359 0.488626 0.988645
O O10 0.360565 0.419282 0.051965
O O11 0.802801 0.715979 0.167467
O O12 0.000000 0.752304 0.000000
O O13 0.191405 0.095595 0.400469
O O14 0.374146 0.023694 0.233602
O O15 0.000000 0.041825 0.500000
O O16 0.500000 0.926529 0.000000
#
# Coordination Sequence:
#
# PCOD8049991 Si02
#       7
#     4   4   4   4   4   4   4
#     4  11  23  38  64  89 125 164 205 251 307 362
#     4  11  21  43  61  91 124 161 200 260 301 367
#     4  10  22  40  64  91 121 157 216 252 301 362
#     4  11  21  37  64  94 116 156 212 250 298 366
#     4  11  22  39  64  91 122 158 206 253 311 359
#     4  10  21  42  61  85 129 166 197 255 314 362
#     4  10  21  39  64  86 123 159 200 253 313 354
#
# _framework density 19.205691000000002
#
# number of rings (size 3 to 8) (size 9 to 14) (size 15 to 20)
#    0.000    1.429    7.143    1.286    4.000    1.714 
#    2.571    0.000    0.000    0.857    0.000    0.000 
#    0.000    0.000    0.000    0.000    0.000    0.000 
#
# Total GULP energy -173519.999817 kJ/mol
# GULP energy per Si atom -12394.285701 kJ/mol
# Density = 1.916198 g / cm^3
# Si number density = 19.205691 Si / 1000 Ang^3
#
#
#
# Elastic Constant Matrix: (Units=GPa)
#
#
# Indices 1 2 3 4 5 6 
#
# 1 95.9580 24.3686 50.5991 0.0000 -28.9426 0.0000
# 2 24.3686 110.2789 51.5079 0.0000 -8.2235 0.0000
# 3 50.5991 51.5079 101.8349 0.0000 -18.5761 0.0000
# 4 0.0000 0.0000 0.0000 32.3075 0.0000 0.5939
# 5 -28.9426 -8.2235 -18.5761 0.0000 33.2393 0.0000
# 6 0.0000 0.0000 0.0000 0.5939 0.0000 14.0786
#
#
#
# Elastic Compliance Matrix: (Units=1/GPa)
#
#
# Indices 1 2 3 4 5 6 
#
# 1 0.017302 0.000093 -0.006560 0.000000 0.011422 0.000000
# 2 0.000093 0.011880 -0.006129 0.000000 -0.000405 0.000000
# 3 -0.006560 -0.006129 0.016548 0.000000 0.002019 0.000000
# 4 0.000000 0.000000 0.000000 0.030977 0.000000 -0.001307
# 5 0.011422 -0.000405 0.002019 0.000000 0.041059 0.000000
# 6 0.000000 0.000000 0.000000 -0.001307 0.000000 0.071085
#
#
# Mechanical properties :
#
#
# Convention : Reuss Voigt Hill
#
# Bulk Modulus (GPa) = 48.69313 62.33589 55.51451
# Shear Modulus (GPa) = 22.63589 28.03148 25.33369
#
# Velocity S-wave (km/s) = 3.43680 3.82454 3.63584
# Velocity P-wave (km/s) = 6.41540 7.21320 6.82596
#
# Compressibility (1/GPa) = 0.02053678
#
# Stress axis : x y z
#
# Youngs Moduli (GPa) = 57.79660 84.17671 60.43149
#
# Poissons Ratio (x) = -0.00779 0.39644
# Poissons Ratio (y) = -0.00535 0.37037
# Poissons Ratio (z) = 0.37916 0.51589
#
# Static dielectric constant tensor:
#      x y z
#    x 3.384610 0.000000 -0.131160 
#    y 0.000000 3.658530 0.000000 
#    z -0.131160 0.000000 3.500770 
# 
# 
# High freq. dielectric constant tensor:
#      x y z
#    x 1.733650 0.000000 -0.011370 
#    y 0.000000 1.750010 0.000000 
#    z -0.011370 0.000000 1.741390 
# 
# From -- ./inp_files/23582.got.cif
#   From: 2010.03.12/outbox.cif.g09.slc.cpg/sg5_12_cif.got.tgz:23582.got - 2010.03.31 09:47:26.
