data_PCOD8049148
_publ_section_title
;
Structure prediction by ZEFSAII (Michael W. Deem and Ramdas Pophale) SiO2 
 PCOD8049148
Probable space group: C 2
;
_chemical_formula_sum "Si O2"
_cell_formula_units_Z 24
_cell_length_a 11.387174
_cell_length_b 8.448487
_cell_length_c 22.735536
_cell_angle_alpha 90.000000
_cell_angle_beta 36.355125
_cell_angle_gamma 90.000000
_cell_volume 1296.581189
_symmetry_space_group_name_H-M "C 2"
_symmetry_group_IT_number 5
_symmetry_cell_setting 'monoclinic'
loop_
_space_group_symop_operation_xyz
x,y,z
-x,y,-z
1/2+x,1/2+y,z
1/2-x,1/2+y,-z
loop_
_atom_site_type_symbol
_atom_site_label
_atom_site_fract_x
_atom_site_fract_y
_atom_site_fract_z
Si Si1 0.623908 0.805100 0.637341
Si Si2 0.817721 0.231339 0.669327
Si Si3 0.448689 0.494914 0.278317
Si Si4 0.142517 0.501820 0.832703
Si Si5 0.000000 0.005067 0.500000
Si Si6 0.927660 0.284135 0.833527
Si Si7 0.000000 0.684487 0.000000
O O1 0.483742 0.831297 0.637361
O O2 0.661827 0.615892 0.631796
O O3 0.512761 0.872769 0.740746
O O4 0.827757 0.894393 0.543591
O O5 0.689541 0.349439 0.681460
O O6 0.924687 0.108598 0.583904
O O7 0.675957 0.141228 0.772026
O O8 0.647985 0.431733 0.229578
O O9 0.512194 0.597267 0.194797
O O10 0.015788 0.573225 0.936734
O O11 0.018362 0.358420 0.855459
O O12 0.690004 0.298572 0.930215
#
# Coordination Sequence:
#
# PCOD8049148 Si02
#       7
#     4   4   4   4   2   4   2
#     4   9  22  41  58  83 125 157 194 248 296 345
#     4  11  21  39  61  88 119 155 208 242 289 357
#     4   8  20  37  60  83 117 160 191 247 295 337
#     4  10  20  40  61  86 124 151 201 250 285 362
#     4  12  24  36  62  94 114 168 196 242 304 350
#     4   9  19  42  61  82 124 159 189 249 298 347
#     4  10  20  36  64  92 116 162 194 240 314 332
#
# _framework density 18.510217000000001
#
# number of rings (size 3 to 8) (size 9 to 14) (size 15 to 20)
#    1.000    1.333    3.333    0.000    0.000    8.667 
#    0.000    0.000    0.000    0.000    0.000    0.000 
#    0.000    0.000    0.000    0.000    0.000    0.000 
#
# Total GULP energy -148730.876567 kJ/mol
# GULP energy per Si atom -12394.239714 kJ/mol
# Density = 1.846809 g / cm^3
# Si number density = 18.510217 Si / 1000 Ang^3
#
#
#
# Elastic Constant Matrix: (Units=GPa)
#
#
# Indices 1 2 3 4 5 6 
#
# 1 131.1491 63.1995 42.1685 0.0000 -21.8854 -0.0001
# 2 63.1995 72.2246 46.4415 0.0000 -18.7172 -0.0001
# 3 42.1685 46.4415 97.6098 0.0001 -12.3997 -0.0001
# 4 0.0000 0.0000 0.0001 21.6392 0.0000 2.5569
# 5 -21.8854 -18.7172 -12.3997 0.0000 37.6524 0.0000
# 6 -0.0001 -0.0001 -0.0001 2.5569 0.0000 35.9530
#
#
#
# Elastic Compliance Matrix: (Units=1/GPa)
#
#
# Indices 1 2 3 4 5 6 
#
# 1 0.013353 -0.010918 -0.000290 0.000000 0.002239 0.000000
# 2 -0.010918 0.030869 -0.009213 0.000000 0.005965 0.000000
# 3 -0.000290 -0.009213 0.014768 0.000000 0.000115 0.000000
# 4 0.000000 0.000000 0.000000 0.046604 0.000000 -0.003314
# 5 0.002239 0.005965 0.000115 0.000000 0.030863 0.000000
# 6 0.000000 0.000000 0.000000 -0.003314 0.000000 0.028050
#
#
# Mechanical properties :
#
#
# Convention : Reuss Voigt Hill
#
# Bulk Modulus (GPa) = 55.09800 67.17804 61.13802
# Shear Modulus (GPa) = 23.65216 28.99386 26.32301
#
# Velocity S-wave (km/s) = 3.57850 3.96203 3.77514
# Velocity P-wave (km/s) = 6.84873 7.56977 7.21826
#
# Compressibility (1/GPa) = 0.01814948
#
# Stress axis : x y z
#
# Youngs Moduli (GPa) = 74.89053 32.39481 67.71437
#
# Poissons Ratio (x) = 0.35368 0.01961
# Poissons Ratio (y) = 0.81765 0.62383
# Poissons Ratio (z) = 0.02169 0.29844
#
# Static dielectric constant tensor:
#      x y z
#    x 3.552140 0.000000 0.142300 
#    y 0.000000 3.090350 0.000000 
#    z 0.142300 0.000000 3.476000 
# 
# 
# High freq. dielectric constant tensor:
#      x y z
#    x 1.725040 0.000000 -0.003300 
#    y 0.000000 1.691820 0.000000 
#    z -0.003300 0.000000 1.715610 
# 
# From -- ./inp_files/51998.got.cif
#   From: 2010.03.12/outbox.cif.g09.slc.cpg/sg5_26_cif.got.tgz:51998.got - 2010.03.31 09:47:26.
