data_PCOD8049526
_publ_section_title
;
Structure prediction by ZEFSAII (Michael W. Deem and Ramdas Pophale) SiO2 
 PCOD8049526
Probable space group: C 2
;
_chemical_formula_sum "Si O2"
_cell_formula_units_Z 32
_cell_length_a 23.862159
_cell_length_b 8.503115
_cell_length_c 18.351375
_cell_angle_alpha 90.000000
_cell_angle_beta 24.083830
_cell_angle_gamma 90.000000
_cell_volume 1519.476793
_symmetry_space_group_name_H-M "C 2"
_symmetry_group_IT_number 5
_symmetry_cell_setting 'monoclinic'
loop_
_space_group_symop_operation_xyz
x,y,z
-x,y,-z
1/2+x,1/2+y,z
1/2-x,1/2+y,-z
loop_
_atom_site_type_symbol
_atom_site_label
_atom_site_fract_x
_atom_site_fract_y
_atom_site_fract_z
Si Si1 0.558429 0.674280 0.353833
Si Si2 0.594819 0.526393 0.586545
Si Si3 0.632714 0.163781 0.524580
Si Si4 0.622867 0.000177 0.212698
Si Si5 0.377517 0.027202 0.309707
Si Si6 0.114289 0.142699 0.045865
Si Si7 0.423625 0.729490 0.160940
Si Si8 0.832100 0.508373 0.008243
O O1 0.500000 0.733566 0.500000
O O2 0.444558 0.564575 0.450004
O O3 0.588611 0.818720 0.264590
O O4 0.696458 0.576602 0.206055
O O5 0.597116 0.338629 0.595808
O O6 0.746415 0.603060 0.423554
O O7 0.478200 0.601628 0.774962
O O8 0.648530 0.040270 0.572787
O O9 0.777771 0.157074 0.309078
O O10 0.514282 0.103793 0.610256
O O11 0.673321 0.040500 0.071527
O O12 0.745772 0.043018 0.121603
O O13 0.386697 0.848699 0.270269
O O14 0.533538 0.094945 0.114034
O O15 0.026542 0.103327 0.076576
O O16 0.159941 0.323279 0.989102
O O17 0.500000 0.804723 0.000000
#
# Coordination Sequence:
#
# PCOD8049526 Si02
#       8
#     4   4   4   4   4   4   4   4
#     4  12  27  43  62  95 138 170 211 274 334 376
#     4  11  21  39  67  99 124 170 216 269 316 387
#     4  10  22  39  69  98 126 166 222 266 320 382
#     4  11  22  39  66  95 128 167 218 270 313 384
#     4   9  21  37  67  96 123 160 216 263 310 379
#     4  11  21  38  68  94 123 167 222 260 316 385
#     4  10  22  41  64  97 135 166 208 266 323 380
#     4  10  20  40  65  96 123 166 217 266 316 387
#
# _framework density 21.059882000000002
#
# number of rings (size 3 to 8) (size 9 to 14) (size 15 to 20)
#    0.000    1.500    3.750    0.750    3.500    5.000 
#    0.000    1.250    0.000    0.000    0.000    0.000 
#    0.000    0.000    0.000    0.000    0.000    0.000 
#
# Total GULP energy -198231.228642 kJ/mol
# GULP energy per Si atom -12389.451790 kJ/mol
# Density = 2.101195 g / cm^3
# Si number density = 21.059882 Si / 1000 Ang^3
#
#
#
# Elastic Constant Matrix: (Units=GPa)
#
#
# Indices 1 2 3 4 5 6 
#
# 1 81.7043 25.1766 61.0612 0.0007 -24.8916 -0.0001
# 2 25.1766 70.4700 43.5079 0.0002 -4.2182 -0.0013
# 3 61.0612 43.5079 146.9969 0.0000 -33.9489 -0.0007
# 4 0.0007 0.0002 0.0000 23.2659 -0.0007 -8.2955
# 5 -24.8916 -4.2182 -33.9489 -0.0007 48.7810 0.0002
# 6 -0.0001 -0.0013 -0.0007 -8.2955 0.0002 20.0766
#
#
#
# Elastic Compliance Matrix: (Units=1/GPa)
#
#
# Indices 1 2 3 4 5 6 
#
# 1 0.019164 -0.002917 -0.005835 -0.000001 0.005466 -0.000001
# 2 -0.002917 0.018061 -0.004906 0.000000 -0.003341 0.000001
# 3 -0.005835 -0.004906 0.011788 0.000000 0.004802 0.000000
# 4 -0.000001 0.000000 0.000000 0.050408 0.000001 0.020828
# 5 0.005466 -0.003341 0.004802 0.000001 0.026342 0.000000
# 6 -0.000001 0.000001 0.000000 0.020828 0.000000 0.058415
#
#
# Mechanical properties :
#
#
# Convention : Reuss Voigt Hill
#
# Bulk Modulus (GPa) = 46.08735 62.07360 54.08048
# Shear Modulus (GPa) = 22.85975 29.71975 26.28975
#
# Velocity S-wave (km/s) = 3.29821 3.76067 3.53701
# Velocity P-wave (km/s) = 6.03620 6.95670 6.51273
#
# Compressibility (1/GPa) = 0.02169793
#
# Stress axis : x y z
#
# Youngs Moduli (GPa) = 52.18132 55.36699 84.83552
#
# Poissons Ratio (x) = 0.16151 0.49500
# Poissons Ratio (y) = 0.15222 0.41616
# Poissons Ratio (z) = 0.30447 0.27161
#
# Static dielectric constant tensor:
#      x y z
#    x 3.962910 0.000000 -0.658180 
#    y 0.000000 3.527350 0.000000 
#    z -0.658180 0.000000 4.160330 
# 
# 
# High freq. dielectric constant tensor:
#      x y z
#    x 1.815570 0.000000 -0.039760 
#    y 0.000000 1.795560 0.000000 
#    z -0.039760 0.000000 1.836540 
# 
# From -- ./inp_files/67562.got.cif
#   From: 2010.03.12/outbox.cif.g09.slc.cpg/sg5_34_cif.got.tgz:67562.got - 2010.03.31 09:47:26.
