data_PCOD8049378
_publ_section_title
;
Structure prediction by ZEFSAII (Michael W. Deem and Ramdas Pophale) SiO2 
 PCOD8049378
Probable space group: C 2
;
_chemical_formula_sum "Si O2"
_cell_formula_units_Z 22
_cell_length_a 18.646804
_cell_length_b 8.680904
_cell_length_c 9.855901
_cell_angle_alpha 90.000000
_cell_angle_beta 36.597767
_cell_angle_gamma 90.000000
_cell_volume 951.158715
_symmetry_space_group_name_H-M "C 2"
_symmetry_group_IT_number 5
_symmetry_cell_setting 'monoclinic'
loop_
_space_group_symop_operation_xyz
x,y,z
-x,y,-z
1/2+x,1/2+y,z
1/2-x,1/2+y,-z
loop_
_atom_site_type_symbol
_atom_site_label
_atom_site_fract_x
_atom_site_fract_y
_atom_site_fract_z
Si Si1 0.500000 0.476130 0.500000
Si Si2 0.615086 0.999598 0.676854
Si Si3 0.253983 0.058193 0.039791
Si Si4 0.370928 0.860179 0.068031
Si Si5 0.191953 0.020095 0.832265
Si Si6 0.534829 0.280660 0.190914
O O1 0.614350 0.587098 0.294715
O O2 0.474088 0.364697 0.411271
O O3 0.659202 0.983410 0.765824
O O4 0.721247 0.953709 0.414833
O O5 0.565009 0.171558 0.724729
O O6 0.510018 0.875174 0.813484
O O7 0.290470 0.898482 0.059043
O O8 0.343438 0.192572 0.949214
O O9 0.264106 0.030186 0.864314
O O10 0.350416 0.688174 0.150203
O O11 0.076528 0.908682 0.018859
#
# Coordination Sequence:
#
# PCOD8049378 Si02
#       6
#     2   4   4   4   4   4
#     4  10  20  38  66  94 126 156 198 264 306 354
#     4  10  23  43  63  87 128 166 197 257 309 353
#     4  10  21  39  65  96 125 158 204 253 306 366
#     4  10  23  42  62  93 128 159 205 253 305 367
#     4  11  22  40  67  92 120 164 210 249 302 367
#     4  10  21  38  64  95 124 163 207 246 307 371
#
# _framework density 23.129684999999998
#
# number of rings (size 3 to 8) (size 9 to 14) (size 15 to 20)
#    0.000    1.818    0.000    4.364    0.000    9.455 
#    0.000   14.545    0.000    0.000    0.000    0.000 
#    0.000    0.000    0.000    0.000    0.000    0.000 
#
# Total GULP energy -136401.827401 kJ/mol
# GULP energy per Si atom -12400.166127 kJ/mol
# Density = 2.307704 g / cm^3
# Si number density = 23.129685 Si / 1000 Ang^3
#
#
#
# Elastic Constant Matrix: (Units=GPa)
#
#
# Indices 1 2 3 4 5 6 
#
# 1 60.2329 18.6138 11.7586 0.0000 15.8430 0.0000
# 2 18.6138 72.0250 34.2061 0.0000 13.9185 0.0000
# 3 11.7586 34.2061 155.3081 0.0000 12.2858 0.0000
# 4 0.0000 0.0000 0.0000 28.8286 0.0000 0.7735
# 5 15.8430 13.9185 12.2858 0.0000 23.5312 0.0000
# 6 0.0000 0.0000 0.0000 0.7735 0.0000 28.6581
#
#
#
# Elastic Compliance Matrix: (Units=1/GPa)
#
#
# Indices 1 2 3 4 5 6 
#
# 1 0.020736 -0.003031 0.000063 0.000000 -0.012201 0.000000
# 2 -0.003031 0.017416 -0.003080 0.000000 -0.006653 0.000000
# 3 0.000063 -0.003080 0.007272 0.000000 -0.002017 0.000000
# 4 0.000000 0.000000 0.000000 0.034713 0.000000 -0.000937
# 5 -0.012201 -0.006653 -0.002017 0.000000 0.055699 0.000000
# 6 0.000000 0.000000 0.000000 -0.000937 0.000000 0.034919
#
#
# Mechanical properties :
#
#
# Convention : Reuss Voigt Hill
#
# Bulk Modulus (GPa) = 30.00552 46.30256 38.15404
# Shear Modulus (GPa) = 25.77844 31.06942 28.42393
#
# Velocity S-wave (km/s) = 3.34206 3.66904 3.50936
# Velocity P-wave (km/s) = 5.28142 6.16533 5.74041
#
# Compressibility (1/GPa) = 0.03332721
#
# Stress axis : x y z
#
# Youngs Moduli (GPa) = 48.22577 57.41952 137.51373
#
# Poissons Ratio (x) = 0.17403 -0.00863
# Poissons Ratio (y) = 0.14617 0.42355
# Poissons Ratio (z) = -0.00303 0.17685
#
# Static dielectric constant tensor:
#      x y z
#    x 4.124960 0.000000 0.053420 
#    y 0.000000 4.094360 0.000000 
#    z 0.053420 0.000000 4.215370 
# 
# 
# High freq. dielectric constant tensor:
#      x y z
#    x 1.908870 0.000000 0.004610 
#    y 0.000000 1.905940 0.000000 
#    z 0.004610 0.000000 1.921050 
# 
# From -- ./inp_files/28854.got.cif
#   From: 2010.03.12/outbox.cif.g09.slc.cpg/sg5_15_cif.got.tgz:28854.got - 2010.03.31 09:47:26.
