data_PCOD8049784
_publ_section_title
;
Structure prediction by ZEFSAII (Michael W. Deem and Ramdas Pophale) SiO2 
 PCOD8049784
Probable space group: C 2
;
_chemical_formula_sum "Si O2"
_cell_formula_units_Z 32
_cell_length_a 27.319597
_cell_length_b 9.270963
_cell_length_c 8.830245
_cell_angle_alpha 90.000000
_cell_angle_beta 131.696087
_cell_angle_gamma 90.000000
_cell_volume 1669.969386
_symmetry_space_group_name_H-M "C 2"
_symmetry_group_IT_number 5
_symmetry_cell_setting 'monoclinic'
loop_
_space_group_symop_operation_xyz
x,y,z
-x,y,-z
1/2+x,1/2+y,z
1/2-x,1/2+y,-z
loop_
_atom_site_type_symbol
_atom_site_label
_atom_site_fract_x
_atom_site_fract_y
_atom_site_fract_z
Si Si1 0.125062 0.446740 0.385026
Si Si2 0.506788 0.445926 0.334760
Si Si3 0.367069 0.109693 0.901384
Si Si4 0.990288 0.652100 0.804453
Si Si5 0.753046 0.966087 0.835339
Si Si6 0.118794 0.113158 0.410247
Si Si7 0.249613 0.133683 0.865262
Si Si8 0.127360 0.942292 0.119423
O O1 0.144336 0.499583 0.258451
O O2 0.183172 0.488597 0.615830
O O3 0.109717 0.278277 0.344243
O O4 0.060996 0.524207 0.318506
O O5 0.500000 0.451264 0.500000
O O6 0.534550 0.290104 0.340584
O O7 0.558230 0.568485 0.392004
O O8 0.436530 0.471811 0.113336
O O9 0.314649 0.067964 0.921484
O O10 0.358589 0.273254 0.824108
O O11 0.440558 0.093814 0.119587
O O12 0.000000 0.698556 0.000000
O O13 0.760422 0.803269 0.907073
O O14 0.810054 0.010276 0.835738
O O15 0.759896 0.071539 0.989349
O O16 0.187191 0.091874 0.636519
O O17 0.118018 0.015020 0.261134
#
# Coordination Sequence:
#
# PCOD8049784 Si02
#       8
#     4   4   4   4   4   4   4   4
#     4  10  21  36  57  85 113 142 182 230 280 326
#     4  11  22  37  58  83 111 146 186 225 270 325
#     4   9  19  37  57  81 108 144 191 231 262 320
#     4   9  19  37  59  82 108 145 193 230 263 320
#     4  10  22  38  56  83 113 146 184 227 277 328
#     4  11  22  37  57  84 114 144 180 228 280 328
#     4  10  22  38  56  81 114 145 183 229 277 328
#     4  10  21  38  60  81 107 146 193 228 263 323
#
# _framework density 19.162027999999999
#
# number of rings (size 3 to 8) (size 9 to 14) (size 15 to 20)
#    0.000    2.000    0.000    4.125    0.000    9.000 
#    0.000    3.125    0.000    0.000    0.000    0.000 
#    0.000    0.000    0.000    0.000    0.000    0.000 
#
# Total GULP energy -198450.401839 kJ/mol
# GULP energy per Si atom -12403.150115 kJ/mol
# Density = 1.911841 g / cm^3
# Si number density = 19.162028 Si / 1000 Ang^3
#
#
#
# Elastic Constant Matrix: (Units=GPa)
#
#
# Indices 1 2 3 4 5 6 
#
# 1 135.3355 48.8021 42.4799 0.0000 2.2417 0.0000
# 2 48.8021 59.6306 25.1955 0.0000 2.5295 0.0000
# 3 42.4799 25.1955 51.6997 0.0000 1.0919 0.0000
# 4 0.0000 0.0000 0.0000 31.7843 0.0000 -0.7934
# 5 2.2417 2.5295 1.0919 0.0000 29.1786 0.0000
# 6 0.0000 0.0000 0.0000 -0.7934 0.0000 33.1385
#
#
#
# Elastic Compliance Matrix: (Units=1/GPa)
#
#
# Indices 1 2 3 4 5 6 
#
# 1 0.011940 -0.007083 -0.006357 0.000000 -0.000065 0.000000
# 2 -0.007083 0.025381 -0.006520 0.000000 -0.001412 0.000000
# 3 -0.006357 -0.006520 0.027743 0.000000 0.000015 0.000000
# 4 0.000000 0.000000 0.000000 0.031481 0.000000 0.000754
# 5 -0.000065 -0.001412 0.000015 0.000000 0.034399 0.000000
# 6 0.000000 0.000000 0.000000 0.000754 0.000000 0.030194
#
#
# Mechanical properties :
#
#
# Convention : Reuss Voigt Hill
#
# Bulk Modulus (GPa) = 39.77068 53.29119 46.53093
# Shear Modulus (GPa) = 23.87333 27.49950 25.68641
#
# Velocity S-wave (km/s) = 3.53351 3.79239 3.66524
# Velocity P-wave (km/s) = 6.11945 6.85912 6.49981
#
# Compressibility (1/GPa) = 0.02514415
#
# Stress axis : x y z
#
# Youngs Moduli (GPa) = 83.75512 39.39950 36.04486
#
# Poissons Ratio (x) = 0.27905 0.22915
# Poissons Ratio (y) = 0.59320 0.23501
# Poissons Ratio (z) = 0.53246 0.25688
#
# Static dielectric constant tensor:
#      x y z
#    x 3.759150 0.000000 0.246190 
#    y 0.000000 3.468230 0.000000 
#    z 0.246190 0.000000 3.517860 
# 
# 
# High freq. dielectric constant tensor:
#      x y z
#    x 1.761480 0.000000 0.011790 
#    y 0.000000 1.739250 0.000000 
#    z 0.011790 0.000000 1.745500 
# 
# From -- ./inp_files/31645.got.cif
#   From: 2010.03.12/outbox.cif.g09.slc.cpg/sg5_16_cif.got.tgz:31645.got - 2010.03.31 09:47:26.
