data_PCOD8049062
_publ_section_title
;
Structure prediction by ZEFSAII (Michael W. Deem and Ramdas Pophale) SiO2 
 PCOD8049062
Probable space group: C 2
;
_chemical_formula_sum "Si O2"
_cell_formula_units_Z 22
_cell_length_a 9.241489
_cell_length_b 26.507286
_cell_length_c 8.482935
_cell_angle_alpha 90.000000
_cell_angle_beta 146.988874
_cell_angle_gamma 90.000000
_cell_volume 1132.118673
_symmetry_space_group_name_H-M "C 2"
_symmetry_group_IT_number 5
_symmetry_cell_setting 'monoclinic'
loop_
_space_group_symop_operation_xyz
x,y,z
-x,y,-z
1/2+x,1/2+y,z
1/2-x,1/2+y,-z
loop_
_atom_site_type_symbol
_atom_site_label
_atom_site_fract_x
_atom_site_fract_y
_atom_site_fract_z
Si Si1 0.261266 0.868230 0.663467
Si Si2 0.950577 0.454603 0.636313
Si Si3 0.547944 0.515471 0.858776
Si Si4 0.000000 0.772628 0.500000
Si Si5 0.278963 0.176102 0.181651
Si Si6 0.774397 0.112695 0.167512
O O1 0.359024 0.898635 0.601152
O O2 0.186272 0.809198 0.561014
O O3 0.000000 0.895015 0.500000
O O4 0.500000 0.870699 0.000000
O O5 0.719845 0.494665 0.464848
O O6 0.000000 0.449719 0.500000
O O7 0.220022 0.474543 0.962792
O O8 0.618400 0.566979 0.838192
O O9 0.500000 0.525905 0.000000
O O10 0.175409 0.736962 0.775524
O O11 0.500000 0.150423 0.500000
O O12 0.292973 0.158395 0.013635
O O13 0.000000 0.160900 0.000000
O O14 0.000000 0.129039 0.500000
O O15 0.500000 0.097358 0.000000
#
# Coordination Sequence:
#
# PCOD8049062 Si02
#       6
#     4   4   4   2   4   4
#     4  10  20  35  61  88 116 151 201 250 297 355
#     4  10  21  37  59  87 123 159 199 245 297 357
#     4  10  22  39  58  85 122 169 206 230 291 383
#     4   8  22  38  68  86 114 152 230 232 304 364
#     4  10  21  41  68  84 118 165 209 245 300 378
#     4  12  25  39  61  95 130 154 202 264 313 347
#
# _framework density 19.432590000000001
#
# number of rings (size 3 to 8) (size 9 to 14) (size 15 to 20)
#    1.091    0.727    0.000    4.364    0.000    6.545 
#    0.000    0.000    8.000    0.000    0.000    0.000 
#    0.000    0.000    0.000    0.000    0.000    0.000 
#
# Total GULP energy -136294.510574 kJ/mol
# GULP energy per Si atom -12390.410052 kJ/mol
# Density = 1.938836 g / cm^3
# Si number density = 19.432590 Si / 1000 Ang^3
#
#
#
# Elastic Constant Matrix: (Units=GPa)
#
#
# Indices 1 2 3 4 5 6 
#
# 1 78.0782 58.6592 51.3725 0.0000 16.2773 0.0000
# 2 58.6592 118.8171 31.4828 0.0000 -0.5249 0.0000
# 3 51.3725 31.4828 137.9300 0.0000 13.7650 0.0000
# 4 0.0000 0.0000 0.0000 20.2530 0.0000 -2.0960
# 5 16.2773 -0.5249 13.7650 0.0000 33.6733 0.0000
# 6 0.0000 0.0000 0.0000 -2.0960 0.0000 26.0936
#
#
#
# Elastic Compliance Matrix: (Units=1/GPa)
#
#
# Indices 1 2 3 4 5 6 
#
# 1 0.029235 -0.012670 -0.006846 0.000000 -0.011531 0.000000
# 2 -0.012670 0.014483 0.000813 0.000000 0.006018 0.000000
# 3 -0.006846 0.000813 0.009678 0.000000 -0.000634 0.000000
# 4 0.000000 0.000000 0.000000 0.049789 0.000000 0.003999
# 5 -0.011531 0.006018 -0.000634 0.000000 0.035624 0.000000
# 6 0.000000 0.000000 0.000000 0.003999 0.000000 0.038645
#
#
# Mechanical properties :
#
#
# Convention : Reuss Voigt Hill
#
# Bulk Modulus (GPa) = 62.54448 68.65048 65.59748
# Shear Modulus (GPa) = 22.70776 28.89135 25.79956
#
# Velocity S-wave (km/s) = 3.42210 3.86002 3.64764
# Velocity P-wave (km/s) = 6.91878 7.43441 7.18123
#
# Compressibility (1/GPa) = 0.01598862
#
# Stress axis : x y z
#
# Youngs Moduli (GPa) = 34.20595 69.04825 103.33130
#
# Poissons Ratio (x) = 0.87484 0.70739
# Poissons Ratio (y) = 0.43339 -0.08398
# Poissons Ratio (z) = 0.23417 -0.05612
#
# Static dielectric constant tensor:
#      x y z
#    x 3.461170 0.000000 0.240840 
#    y 0.000000 3.525080 0.000000 
#    z 0.240840 0.000000 4.091290 
# 
# 
# High freq. dielectric constant tensor:
#      x y z
#    x 1.742600 0.000000 0.020170 
#    y 0.000000 1.745750 0.000000 
#    z 0.020170 0.000000 1.774100 
# 
# From -- ./inp_files/3508.got.cif
#   From: 2010.03.12/outbox.cif.g09.slc.cpg/sg5_2_cif.got.tgz:3508.got - 2010.03.31 09:47:26.
