data_PCOD8049059
_publ_section_title
;
Structure prediction by ZEFSAII (Michael W. Deem and Ramdas Pophale) SiO2 
 PCOD8049059
Probable space group: C 2
;
_chemical_formula_sum "Si O2"
_cell_formula_units_Z 32
_cell_length_a 4.997627
_cell_length_b 18.987843
_cell_length_c 15.341712
_cell_angle_alpha 90.000000
_cell_angle_beta 84.647658
_cell_angle_gamma 90.000000
_cell_volume 1449.491220
_symmetry_space_group_name_H-M "C 2"
_symmetry_group_IT_number 5
_symmetry_cell_setting 'monoclinic'
loop_
_space_group_symop_operation_xyz
x,y,z
-x,y,-z
1/2+x,1/2+y,z
1/2-x,1/2+y,-z
loop_
_atom_site_type_symbol
_atom_site_label
_atom_site_fract_x
_atom_site_fract_y
_atom_site_fract_z
Si Si1 0.766979 0.227320 0.946669
Si Si2 0.229182 0.060912 0.055322
Si Si3 0.892168 0.402530 0.320307
Si Si4 0.895200 0.085909 0.411408
Si Si5 0.147642 0.926191 0.579241
Si Si6 0.912293 0.673728 0.705395
Si Si7 0.610164 0.759221 0.245443
Si Si8 0.312934 0.046266 0.246255
O O1 0.791392 0.144235 0.936182
O O2 0.758078 0.262479 0.852624
O O3 0.500000 0.252791 0.000000
O O4 0.000000 0.258369 0.000000
O O5 0.190137 0.030260 0.154690
O O6 0.500000 0.036163 0.000000
O O7 0.000000 0.029692 0.000000
O O8 0.058043 0.395451 0.406879
O O9 0.992149 0.336280 0.264093
O O10 0.568129 0.407031 0.338199
O O11 0.973660 0.476435 0.272423
O O12 0.111588 0.076578 0.326755
O O13 0.000000 0.118757 0.500000
O O14 0.653111 0.137487 0.386815
O O15 0.789797 0.008313 0.437329
O O16 0.000000 0.892481 0.500000
O O17 0.642489 0.707838 0.749056
O O18 0.161123 0.730262 0.693164
O O19 0.975687 0.610527 0.771646
#
# Coordination Sequence:
#
# PCOD8049059 Si02
#       8
#     4   4   4   4   4   4   4   4
#     4  10  20  35  60  92 120 159 212 264 316 385
#     4  10  22  35  62  99 125 160 212 273 325 376
#     4  11  24  42  65  95 128 179 212 263 335 395
#     4  10  22  40  69 103 128 170 223 285 328 382
#     4  10  21  40  67  94 126 167 230 270 315 390
#     4  12  22  41  66  95 129 169 217 272 324 386
#     4  12  25  41  65  94 134 172 215 266 333 399
#     4  11  23  42  71  97 133 171 226 272 325 398
#
# _framework density 22.076712000000001
#
# number of rings (size 3 to 8) (size 9 to 14) (size 15 to 20)
#    0.000    1.250    3.750    1.875    5.250    0.500 
#    0.000    3.125    0.000    1.500    0.000    0.000 
#    0.000    0.000    0.000    0.000    0.000    0.000 
#
# Total GULP energy -198258.130815 kJ/mol
# GULP energy per Si atom -12391.133176 kJ/mol
# Density = 2.202646 g / cm^3
# Si number density = 22.076712 Si / 1000 Ang^3
#
#
#
# Elastic Constant Matrix: (Units=GPa)
#
#
# Indices 1 2 3 4 5 6 
#
# 1 113.3034 26.8318 34.2800 0.0000 20.6748 0.0000
# 2 26.8318 81.3322 17.8461 0.0000 0.3633 0.0000
# 3 34.2800 17.8461 124.1385 0.0000 22.1279 0.0000
# 4 0.0000 0.0000 0.0000 18.8741 0.0000 2.8534
# 5 20.6748 0.3633 22.1279 0.0000 37.2663 0.0000
# 6 0.0000 0.0000 0.0000 2.8534 0.0000 29.7838
#
#
#
# Elastic Compliance Matrix: (Units=1/GPa)
#
#
# Indices 1 2 3 4 5 6 
#
# 1 0.011031 -0.003250 -0.001670 0.000000 -0.005096 0.000000
# 2 -0.003250 0.013692 -0.001530 0.000000 0.002578 0.000000
# 3 -0.001670 -0.001530 0.009583 0.000000 -0.004749 0.000000
# 4 0.000000 0.000000 0.000000 0.053761 0.000000 -0.005151
# 5 -0.005096 0.002578 -0.004749 0.000000 0.032456 0.000000
# 6 0.000000 0.000000 0.000000 -0.005151 0.000000 0.034069
#
#
# Mechanical properties :
#
#
# Convention : Reuss Voigt Hill
#
# Bulk Modulus (GPa) = 46.71975 52.96555 49.84265
# Shear Modulus (GPa) = 28.63233 33.17258 30.90245
#
# Velocity S-wave (km/s) = 3.60522 3.88055 3.74542
# Velocity P-wave (km/s) = 6.20794 6.64243 6.42886
#
# Compressibility (1/GPa) = 0.02140422
#
# Stress axis : x y z
#
# Youngs Moduli (GPa) = 90.65548 73.03706 104.34835
#
# Poissons Ratio (x) = 0.23735 0.17431
# Poissons Ratio (y) = 0.29461 0.15970
# Poissons Ratio (z) = 0.15144 0.11178
#
# Static dielectric constant tensor:
#      x y z
#    x 4.212180 0.000000 0.272900 
#    y 0.000000 3.785950 0.000000 
#    z 0.272900 0.000000 4.029240 
# 
# 
# High freq. dielectric constant tensor:
#      x y z
#    x 1.882910 0.000000 0.014190 
#    y 0.000000 1.831870 0.000000 
#    z 0.014190 0.000000 1.862640 
# 
# From -- ./inp_files/49357.got.cif
#   From: 2010.03.12/outbox.cif.g09.slc.cpg/sg5_25_cif.got.tgz:49357.got - 2010.03.31 09:47:26.
