data_PCOD8049318
_publ_section_title
;
Structure prediction by ZEFSAII (Michael W. Deem and Ramdas Pophale) SiO2 
 PCOD8049318
Probable space group: C 2
;
_chemical_formula_sum "Si O2"
_cell_formula_units_Z 18
_cell_length_a 12.172508
_cell_length_b 7.515320
_cell_length_c 18.386055
_cell_angle_alpha 90.000000
_cell_angle_beta 35.167459
_cell_angle_gamma 90.000000
_cell_volume 968.756329
_symmetry_space_group_name_H-M "C 2"
_symmetry_group_IT_number 5
_symmetry_cell_setting 'monoclinic'
loop_
_space_group_symop_operation_xyz
x,y,z
-x,y,-z
1/2+x,1/2+y,z
1/2-x,1/2+y,-z
loop_
_atom_site_type_symbol
_atom_site_label
_atom_site_fract_x
_atom_site_fract_y
_atom_site_fract_z
Si Si1 0.414814 0.698350 0.787266
Si Si2 0.000000 0.588186 0.000000
Si Si3 0.670492 0.005538 0.624131
Si Si4 0.987849 0.859769 0.354799
Si Si5 0.388119 0.871765 0.195430
O O1 0.186663 0.712380 0.901636
O O2 0.488629 0.508346 0.720005
O O3 0.481059 0.720841 0.836244
O O4 0.508377 0.859114 0.689725
O O5 0.991984 0.464458 0.932980
O O6 0.627230 0.196979 0.615802
O O7 0.675885 0.018217 0.709242
O O8 0.873705 0.939294 0.484692
O O9 0.193979 0.788029 0.268609
#
# Coordination Sequence:
#
# PCOD8049318 Si02
#       5
#     4   2   4   4   4
#     4   9  22  40  59  87 119 152 197 238 289 349
#     4  10  20  42  60  80 124 158 196 244 278 338
#     4  10  20  38  61  92 113 154 194 234 302 350
#     4  11  19  40  63  86 126 146 186 252 296 344
#     4   9  22  39  58  86 118 155 195 241 282 344
#
# _framework density 18.580525000000002
#
# number of rings (size 3 to 8) (size 9 to 14) (size 15 to 20)
#    1.333    0.889    2.222    0.667    0.000    3.556 
#   12.000    1.111    0.000    0.000    0.000    0.000 
#    0.000    0.000    0.000    0.000    0.000    0.000 
#
# Total GULP energy -111525.433881 kJ/mol
# GULP energy per Si atom -12391.714876 kJ/mol
# Density = 1.853823 g / cm^3
# Si number density = 18.580525 Si / 1000 Ang^3
#
#
#
# Elastic Constant Matrix: (Units=GPa)
#
#
# Indices 1 2 3 4 5 6 
#
# 1 84.7865 28.5113 31.9158 0.0000 6.9146 0.0000
# 2 28.5113 76.0850 23.1977 0.0000 -3.1425 0.0000
# 3 31.9158 23.1977 95.3264 0.0000 -5.6351 0.0000
# 4 0.0000 0.0000 0.0000 26.3054 0.0000 5.6778
# 5 6.9146 -3.1425 -5.6351 0.0000 37.0258 0.0000
# 6 0.0000 0.0000 0.0000 5.6778 0.0000 28.2132
#
#
#
# Elastic Compliance Matrix: (Units=1/GPa)
#
#
# Indices 1 2 3 4 5 6 
#
# 1 0.015239 -0.004585 -0.004215 0.000000 -0.003877 0.000000
# 2 -0.004585 0.015594 -0.002150 0.000000 0.001853 0.000000
# 3 -0.004215 -0.002150 0.012574 0.000000 0.002518 0.000000
# 4 0.000000 0.000000 0.000000 0.039741 0.000000 -0.007998
# 5 -0.003877 0.001853 0.002518 0.000000 0.028273 0.000000
# 6 0.000000 0.000000 0.000000 -0.007998 0.000000 0.037054
#
#
# Mechanical properties :
#
#
# Convention : Reuss Voigt Hill
#
# Bulk Modulus (GPa) = 46.50139 47.04972 46.77556
# Shear Modulus (GPa) = 28.16197 29.81375 28.98786
#
# Velocity S-wave (km/s) = 3.89739 4.01005 3.95412
# Velocity P-wave (km/s) = 6.73306 6.84235 6.78793
#
# Compressibility (1/GPa) = 0.02150473
#
# Stress axis : x y z
#
# Youngs Moduli (GPa) = 65.62000 64.12924 79.53105
#
# Poissons Ratio (x) = 0.29406 0.33526
# Poissons Ratio (y) = 0.30090 0.17099
# Poissons Ratio (z) = 0.27662 0.13787
#
# Static dielectric constant tensor:
#      x y z
#    x 3.342470 0.000000 0.021670 
#    y 0.000000 3.096100 0.000000 
#    z 0.021670 0.000000 3.509120 
# 
# 
# High freq. dielectric constant tensor:
#      x y z
#    x 1.714900 0.000000 -0.002850 
#    y 0.000000 1.695410 0.000000 
#    z -0.002850 0.000000 1.735690 
# 
# From -- ./inp_files/18315.got.cif
#   From: 2010.03.12/outbox.cif.g09.slc.cpg/sg5_10_cif.got.tgz:18315.got - 2010.03.31 09:47:26.
