data_PCOD8049653
_publ_section_title
;
Structure prediction by ZEFSAII (Michael W. Deem and Ramdas Pophale) SiO2 
 PCOD8049653
Probable space group: C 2
;
_chemical_formula_sum "Si O2"
_cell_formula_units_Z 32
_cell_length_a 11.255075
_cell_length_b 8.955846
_cell_length_c 17.725172
_cell_angle_alpha 90.000000
_cell_angle_beta 124.524564
_cell_angle_gamma 90.000000
_cell_volume 1472.011350
_symmetry_space_group_name_H-M "C 2"
_symmetry_group_IT_number 5
_symmetry_cell_setting 'monoclinic'
loop_
_space_group_symop_operation_xyz
x,y,z
-x,y,-z
1/2+x,1/2+y,z
1/2-x,1/2+y,-z
loop_
_atom_site_type_symbol
_atom_site_label
_atom_site_fract_x
_atom_site_fract_y
_atom_site_fract_z
Si Si1 0.902974 0.508300 0.742540
Si Si2 0.433937 0.042307 0.052366
Si Si3 0.823136 0.656687 0.224332
Si Si4 0.357094 0.071905 0.405526
Si Si5 0.697612 0.765508 0.683970
Si Si6 0.201571 0.818901 0.927887
Si Si7 0.571438 0.481969 0.170549
Si Si8 0.072272 0.189743 0.309514
O O1 0.769945 0.618276 0.672095
O O2 0.867200 0.341967 0.705101
O O3 0.934060 0.512197 0.843380
O O4 0.049065 0.547699 0.752372
O O5 0.313768 0.154314 0.042367
O O6 0.500000 0.111028 0.000000
O O7 0.355816 0.885374 0.004871
O O8 0.840957 0.667259 0.321411
O O9 0.825524 0.806719 0.173705
O O10 0.665706 0.585192 0.148659
O O11 0.500000 0.122905 0.500000
O O12 0.214151 0.117943 0.402193
O O13 0.358522 0.892003 0.394525
O O14 0.560972 0.711989 0.682975
O O15 0.827523 0.837779 0.778092
O O16 0.076013 0.922539 0.918548
O O17 0.525563 0.572850 0.228676
#
# Coordination Sequence:
#
# PCOD8049653 Si02
#       8
#     4   4   4   4   4   4   4   4
#     4  11  21  42  65  91 127 174 218 262 327 377
#     4  11  28  39  61  93 131 169 227 280 307 383
#     4   9  20  41  68  86 130 171 207 267 322 394
#     4  10  23  46  67 100 132 165 214 270 329 398
#     4  10  20  42  66  92 125 171 216 261 325 391
#     4  11  25  43  59  96 127 181 219 273 328 372
#     4  10  21  37  67  89 123 174 217 256 332 386
#     4  10  22  38  69  96 121 174 205 267 325 393
#
# _framework density 21.738962999999998
#
# number of rings (size 3 to 8) (size 9 to 14) (size 15 to 20)
#    0.000    2.000    5.000    0.000    7.000    2.000 
#    2.250    0.625    0.000    0.000    0.000    0.000 
#    0.000    0.000    0.000    0.000    0.000    0.000 
#
# Total GULP energy -198209.308270 kJ/mol
# GULP energy per Si atom -12388.081767 kJ/mol
# Density = 2.168948 g / cm^3
# Si number density = 21.738963 Si / 1000 Ang^3
#
#
#
# Elastic Constant Matrix: (Units=GPa)
#
#
# Indices 1 2 3 4 5 6 
#
# 1 119.8824 48.6078 25.3658 0.0000 13.4393 0.0000
# 2 48.6078 99.5652 25.0765 0.0000 10.2930 0.0000
# 3 25.3658 25.0765 57.9015 0.0000 6.4806 0.0000
# 4 0.0000 0.0000 0.0000 22.5128 0.0000 9.0264
# 5 13.4393 10.2930 6.4806 0.0000 20.0579 0.0000
# 6 0.0000 0.0000 0.0000 9.0264 0.0000 38.2432
#
#
#
# Elastic Compliance Matrix: (Units=1/GPa)
#
#
# Indices 1 2 3 4 5 6 
#
# 1 0.011128 -0.004347 -0.002498 0.000000 -0.004418 0.000000
# 2 -0.004347 0.013352 -0.003566 0.000000 -0.002787 0.000000
# 3 -0.002498 -0.003566 0.020250 0.000000 -0.003039 0.000000
# 4 0.000000 0.000000 0.000000 0.049062 0.000000 -0.011580
# 5 -0.004418 -0.002787 -0.003039 0.000000 0.055228 0.000000
# 6 0.000000 0.000000 0.000000 -0.011580 0.000000 0.028882
#
#
# Mechanical properties :
#
#
# Convention : Reuss Voigt Hill
#
# Bulk Modulus (GPa) = 41.82799 52.82770 47.32785
# Shear Modulus (GPa) = 24.19051 28.04939 26.11995
#
# Velocity S-wave (km/s) = 3.33944 3.59595 3.47007
# Velocity P-wave (km/s) = 5.84397 6.44940 6.15414
#
# Compressibility (1/GPa) = 0.02390744
#
# Stress axis : x y z
#
# Youngs Moduli (GPa) = 89.86533 74.89451 49.38344
#
# Poissons Ratio (x) = 0.32554 0.12335
# Poissons Ratio (y) = 0.39062 0.17613
# Poissons Ratio (z) = 0.22447 0.26711
#
# Static dielectric constant tensor:
#      x y z
#    x 4.120820 0.000000 0.154150 
#    y 0.000000 3.978580 0.000000 
#    z 0.154150 0.000000 3.529440 
# 
# 
# High freq. dielectric constant tensor:
#      x y z
#    x 1.869120 0.000000 0.022030 
#    y 0.000000 1.858010 0.000000 
#    z 0.022030 0.000000 1.807930 
# 
# From -- ./inp_files/65138.got.cif
#   From: 2010.03.12/outbox.cif.g09.slc.cpg/sg5_33_cif.got.tgz:65138.got - 2010.03.31 09:47:26.
