data_PCOD8049896
_publ_section_title
;
Structure prediction by ZEFSAII (Michael W. Deem and Ramdas Pophale) SiO2 
 PCOD8049896
Probable space group: C 2
;
_chemical_formula_sum "Si O2"
_cell_formula_units_Z 28
_cell_length_a 30.405745
_cell_length_b 6.566269
_cell_length_c 8.699810
_cell_angle_alpha 90.000000
_cell_angle_beta 51.911771
_cell_angle_gamma 90.000000
_cell_volume 1367.076777
_symmetry_space_group_name_H-M "C 2"
_symmetry_group_IT_number 5
_symmetry_cell_setting 'monoclinic'
loop_
_space_group_symop_operation_xyz
x,y,z
-x,y,-z
1/2+x,1/2+y,z
1/2-x,1/2+y,-z
loop_
_atom_site_type_symbol
_atom_site_label
_atom_site_fract_x
_atom_site_fract_y
_atom_site_fract_z
Si Si1 0.190038 0.840540 0.759036
Si Si2 0.124757 0.453424 0.825039
Si Si3 0.501186 0.313182 0.671849
Si Si4 0.602436 0.611402 0.101047
Si Si5 0.966022 0.443642 0.211105
Si Si6 0.304844 0.652326 0.511506
Si Si7 0.595036 0.622026 0.470325
O O1 0.145946 0.658774 0.854063
O O2 0.247010 0.742576 0.704129
O O3 0.202156 0.937953 0.564380
O O4 0.161659 0.006679 0.931107
O O5 0.089012 0.525104 0.755472
O O6 0.175204 0.318165 0.653504
O O7 0.092186 0.316438 0.023201
O O8 0.500000 0.232404 0.500000
O O9 0.450732 0.467298 0.815996
O O10 0.562434 0.410995 0.563619
O O11 0.496565 0.126040 0.799977
O O12 0.608164 0.671492 0.265957
O O13 0.948805 0.292556 0.382357
O O14 0.000000 0.331944 0.000000
O O15 0.347770 0.617621 0.557995
#
# Coordination Sequence:
#
# PCOD8049896 Si02
#       7
#     4   4   4   4   4   4   4
#     4  11  20  39  62  87 121 162 210 253 315 356
#     4  10  21  38  62  89 119 159 206 255 300 365
#     4  10  22  40  61  86 125 162 198 255 310 369
#     4  10  23  40  61  91 127 166 203 252 315 373
#     4  11  22  35  61  93 117 157 204 246 305 363
#     4  10  21  38  62  88 121 161 209 260 303 361
#     4  10  23  42  59  90 125 160 204 252 307 372
#
# _framework density 20.481657999999999
#
# number of rings (size 3 to 8) (size 9 to 14) (size 15 to 20)
#    0.000    1.714    1.429    2.571    0.000    8.000 
#    2.571    0.000    0.000    0.000    0.000    0.000 
#    0.000    0.000    0.000    0.000    0.000    0.000 
#
# Total GULP energy -173547.535360 kJ/mol
# GULP energy per Si atom -12396.252526 kJ/mol
# Density = 2.043504 g / cm^3
# Si number density = 20.481658 Si / 1000 Ang^3
#
#
#
# Elastic Constant Matrix: (Units=GPa)
#
#
# Indices 1 2 3 4 5 6 
#
# 1 103.6233 46.8409 46.6276 0.0000 3.1645 0.0000
# 2 46.8409 88.0226 46.9939 0.0000 13.7937 0.0000
# 3 46.6276 46.9939 118.7714 0.0000 11.9240 0.0000
# 4 0.0000 0.0000 0.0000 36.2562 0.0000 -2.5361
# 5 3.1645 13.7937 11.9240 0.0000 30.7807 0.0000
# 6 0.0000 0.0000 0.0000 -2.5361 0.0000 34.3206
#
#
#
# Elastic Compliance Matrix: (Units=1/GPa)
#
#
# Indices 1 2 3 4 5 6 
#
# 1 0.013747 -0.005952 -0.003296 0.000000 0.002531 0.000000
# 2 -0.005952 0.017582 -0.004048 0.000000 -0.005699 0.000000
# 3 -0.003296 -0.004048 0.011548 0.000000 -0.002321 0.000000
# 4 0.000000 0.000000 0.000000 0.027725 0.000000 0.002049
# 5 0.002531 -0.005699 -0.002321 0.000000 0.035681 0.000000
# 6 0.000000 0.000000 0.000000 0.002049 0.000000 0.029288
#
#
# Mechanical properties :
#
#
# Convention : Reuss Voigt Hill
#
# Bulk Modulus (GPa) = 61.40480 65.70469 63.55474
# Shear Modulus (GPa) = 29.83455 31.60181 30.71818
#
# Velocity S-wave (km/s) = 3.82074 3.93228 3.87691
# Velocity P-wave (km/s) = 7.03631 7.26406 7.15109
#
# Compressibility (1/GPa) = 0.01628537
#
# Stress axis : x y z
#
# Youngs Moduli (GPa) = 72.74506 56.87500 86.59562
#
# Poissons Ratio (x) = 0.33854 0.28539
# Poissons Ratio (y) = 0.43300 0.35052
# Poissons Ratio (z) = 0.23974 0.23022
#
# Static dielectric constant tensor:
#      x y z
#    x 3.743900 0.000000 -0.082180 
#    y 0.000000 3.654040 0.000000 
#    z -0.082180 0.000000 3.681820 
# 
# 
# High freq. dielectric constant tensor:
#      x y z
#    x 1.802860 0.000000 -0.009970 
#    y 0.000000 1.798270 0.000000 
#    z -0.009970 0.000000 1.799630 
# 
# From -- ./inp_files/32104.got.cif
#   From: 2010.03.12/outbox.cif.g09.slc.cpg/sg5_17_cif.got.tgz:32104.got - 2010.03.31 09:47:26.
