data_PCOD8049114
_publ_section_title
;
Structure prediction by ZEFSAII (Michael W. Deem and Ramdas Pophale) SiO2 
 PCOD8049114
Probable space group: C 2
;
_chemical_formula_sum "Si O2"
_cell_formula_units_Z 32
_cell_length_a 8.555436
_cell_length_b 23.778895
_cell_length_c 15.205462
_cell_angle_alpha 90.000000
_cell_angle_beta 148.627357
_cell_angle_gamma 90.000000
_cell_volume 1610.420505
_symmetry_space_group_name_H-M "C 2"
_symmetry_group_IT_number 5
_symmetry_cell_setting 'monoclinic'
loop_
_space_group_symop_operation_xyz
x,y,z
-x,y,-z
1/2+x,1/2+y,z
1/2-x,1/2+y,-z
loop_
_atom_site_type_symbol
_atom_site_label
_atom_site_fract_x
_atom_site_fract_y
_atom_site_fract_z
Si Si1 0.096011 0.037690 0.188136
Si Si2 0.298770 0.649685 0.324754
Si Si3 0.783356 0.845136 0.978490
Si Si4 0.332371 0.649175 0.676544
Si Si5 0.776532 0.918450 0.313724
Si Si6 0.186936 0.717055 0.001053
Si Si7 0.147287 0.930604 0.838777
Si Si8 0.475327 0.036876 0.201583
O O1 0.193332 0.086017 0.301176
O O2 0.361248 0.027980 0.245881
O O3 0.051122 0.982226 0.223942
O O4 0.790603 0.054095 0.991863
O O5 0.500000 0.675992 0.500000
O O6 0.487464 0.649182 0.326941
O O7 0.217047 0.586387 0.313849
O O8 0.998008 0.686984 0.166484
O O9 0.910475 0.879531 0.122255
O O10 0.463056 0.868559 0.794630
O O11 0.750360 0.781215 0.994945
O O12 0.000000 0.851787 0.000000
O O13 0.494750 0.686575 0.829365
O O14 0.000000 0.673672 0.500000
O O15 0.961495 0.913328 0.311123
O O16 0.000000 0.909948 0.500000
O O17 0.617535 0.978874 0.238363
O O18 0.000000 0.713484 0.000000
O O19 0.500000 0.946121 0.000000
#
# Coordination Sequence:
#
# PCOD8049114 Si02
#       8
#     4   4   4   4   4   4   4   4
#     4  11  21  35  60  90 120 159 203 244 300 363
#     4  11  22  40  62  89 124 160 200 250 304 360
#     4  10  20  41  64  85 113 158 207 246 297 366
#     4  11  23  39  60  91 125 159 204 247 299 365
#     4  11  23  38  59  91 122 154 196 247 309 358
#     4   9  21  40  64  85 115 164 203 246 308 355
#     4  10  20  36  60  85 118 158 194 241 304 361
#     4  11  21  36  60  91 122 159 199 246 301 365
#
# _framework density 19.870588000000001
#
# number of rings (size 3 to 8) (size 9 to 14) (size 15 to 20)
#    0.000    1.500    3.750    2.625    0.000    1.500 
#    0.000   13.125    0.000    0.000    0.000    0.000 
#    0.000    0.000    0.000    0.000    0.000    0.000 
#
# Total GULP energy -198434.993705 kJ/mol
# GULP energy per Si atom -12402.187107 kJ/mol
# Density = 1.982536 g / cm^3
# Si number density = 19.870588 Si / 1000 Ang^3
#
#
#
# Elastic Constant Matrix: (Units=GPa)
#
#
# Indices 1 2 3 4 5 6 
#
# 1 115.2801 44.5744 44.6312 0.0005 -13.4402 0.0004
# 2 44.5744 124.4340 45.0548 -0.0003 5.0735 -0.0002
# 3 44.6312 45.0548 127.4609 0.0001 -10.3532 0.0000
# 4 0.0005 -0.0003 0.0001 15.9987 0.0004 -0.8488
# 5 -13.4402 5.0735 -10.3532 0.0004 32.3922 0.0003
# 6 0.0004 -0.0002 0.0000 -0.8488 0.0003 27.9829
#
#
#
# Elastic Compliance Matrix: (Units=1/GPa)
#
#
# Indices 1 2 3 4 5 6 
#
# 1 0.011463 -0.003405 -0.002444 -0.000001 0.004508 0.000000
# 2 -0.003405 0.010437 -0.002818 0.000000 -0.003948 0.000000
# 3 -0.002444 -0.002818 0.009908 0.000000 0.002594 0.000000
# 4 -0.000001 0.000000 0.000000 0.062606 -0.000001 0.001899
# 5 0.004508 -0.003948 0.002594 -0.000001 0.034190 -0.000001
# 6 0.000000 0.000000 0.000000 0.001899 -0.000001 0.035794
#
#
# Mechanical properties :
#
#
# Convention : Reuss Voigt Hill
#
# Bulk Modulus (GPa) = 69.08637 70.63286 69.85962
# Shear Modulus (GPa) = 26.80154 30.80240 28.80197
#
# Velocity S-wave (km/s) = 3.67659 3.94147 3.81133
# Velocity P-wave (km/s) = 7.27095 7.50581 7.38931
#
# Compressibility (1/GPa) = 0.01447463
#
# Stress axis : x y z
#
# Youngs Moduli (GPa) = 87.23735 95.80924 100.92806
#
# Poissons Ratio (x) = 0.32624 0.24667
# Poissons Ratio (y) = 0.29706 0.28439
# Poissons Ratio (z) = 0.21321 0.26997
#
# Static dielectric constant tensor:
#      x y z
#    x 3.715580 0.000000 -0.116040 
#    y 0.000000 3.580450 0.000000 
#    z -0.116040 0.000000 3.704900 
# 
# 
# High freq. dielectric constant tensor:
#      x y z
#    x 1.781100 0.000000 -0.009290 
#    y 0.000000 1.767350 0.000000 
#    z -0.009290 0.000000 1.772330 
# 
# From -- ./inp_files/25640.got.cif
#   From: 2010.03.12/outbox.cif.g09.slc.cpg/sg5_13_cif.got.tgz:25640.got - 2010.03.31 09:47:26.
