data_PCOD8049012
_publ_section_title
;
Structure prediction by ZEFSAII (Michael W. Deem and Ramdas Pophale) SiO2 
 PCOD8049012
Probable space group: C 2
;
_chemical_formula_sum "Si O2"
_cell_formula_units_Z 32
_cell_length_a 29.331601
_cell_length_b 8.198643
_cell_length_c 21.907041
_cell_angle_alpha 90.000000
_cell_angle_beta 17.302592
_cell_angle_gamma 90.000000
_cell_volume 1566.855012
_symmetry_space_group_name_H-M "C 2"
_symmetry_group_IT_number 5
_symmetry_cell_setting 'monoclinic'
loop_
_space_group_symop_operation_xyz
x,y,z
-x,y,-z
1/2+x,1/2+y,z
1/2-x,1/2+y,-z
loop_
_atom_site_type_symbol
_atom_site_label
_atom_site_fract_x
_atom_site_fract_y
_atom_site_fract_z
Si Si1 0.773332 0.164810 0.396438
Si Si2 0.994547 0.628733 0.578358
Si Si3 0.079005 0.444373 0.164594
Si Si4 0.893082 0.491368 0.292034
Si Si5 0.286511 0.939454 0.621840
Si Si6 0.217243 0.095533 0.004188
Si Si7 0.154298 0.601524 0.773307
Si Si8 0.555842 0.373636 0.604667
O O1 0.883790 0.310301 0.274960
O O2 0.605318 0.236069 0.590738
O O3 0.751467 0.039542 0.480552
O O4 0.831053 0.066548 0.262034
O O5 0.000000 0.672088 0.500000
O O6 0.139353 0.512944 0.410964
O O7 0.998553 0.793650 0.614532
O O8 0.831926 0.539178 0.802269
O O9 0.176218 0.280704 0.044551
O O10 0.048919 0.492596 0.132383
O O11 0.919884 0.405840 0.401946
O O12 0.177939 0.589251 0.068558
O O13 0.888658 0.623087 0.243366
O O14 0.196702 0.773503 0.750596
O O15 0.069671 0.982521 0.200416
O O16 0.294500 0.478801 0.603769
O O17 0.000000 0.529315 0.000000
#
# Coordination Sequence:
#
# PCOD8049012 Si02
#       8
#     4   4   4   4   4   4   4   4
#     4   9  19  34  61  86 113 157 200 264 301 359
#     4  10  22  41  63  95 129 165 209 259 313 383
#     4  10  20  34  60  89 115 155 204 253 297 365
#     4  10  20  35  57  89 119 146 212 252 302 363
#     4   9  19  40  59  84 123 161 203 251 322 364
#     4  11  20  37  63  91 122 165 204 251 313 368
#     4  11  23  41  60  86 124 167 204 259 321 370
#     4  10  21  40  65  86 126 171 205 253 317 374
#
# _framework density 20.423075999999998
#
# number of rings (size 3 to 8) (size 9 to 14) (size 15 to 20)
#    0.000    2.000    2.500    2.250    1.750    1.000 
#    2.250    6.250    0.000    0.000    0.000    0.000 
#    0.000    0.000    0.000    0.000    0.000    0.000 
#
# Total GULP energy -198236.206190 kJ/mol
# GULP energy per Si atom -12389.762887 kJ/mol
# Density = 2.037659 g / cm^3
# Si number density = 20.423076 Si / 1000 Ang^3
#
#
#
# Elastic Constant Matrix: (Units=GPa)
#
#
# Indices 1 2 3 4 5 6 
#
# 1 133.1705 33.4806 29.4306 0.0002 -2.1249 0.0003
# 2 33.4806 77.2859 21.6495 -0.0007 -1.3435 -0.0001
# 3 29.4306 21.6495 85.8148 0.0019 0.8686 0.0000
# 4 0.0002 -0.0007 0.0019 24.5245 -0.0004 -7.2875
# 5 -2.1249 -1.3435 0.8686 -0.0004 21.5847 -0.0002
# 6 0.0003 -0.0001 0.0000 -7.2875 -0.0002 27.6307
#
#
#
# Elastic Compliance Matrix: (Units=1/GPa)
#
#
# Indices 1 2 3 4 5 6 
#
# 1 0.008813 -0.003181 -0.002228 0.000000 0.000759 0.000000
# 2 -0.003181 0.015093 -0.002724 0.000001 0.000736 0.000000
# 3 -0.002228 -0.002724 0.013114 -0.000001 -0.000917 0.000000
# 4 0.000000 0.000001 -0.000001 0.044243 0.000001 0.011669
# 5 0.000759 0.000736 -0.000917 0.000001 0.046487 0.000001
# 6 0.000000 0.000000 0.000000 0.011669 0.000001 0.039269
#
#
# Mechanical properties :
#
#
# Convention : Reuss Voigt Hill
#
# Bulk Modulus (GPa) = 48.18314 51.71029 49.94672
# Shear Modulus (GPa) = 26.28784 28.86202 27.57493
#
# Velocity S-wave (km/s) = 3.59160 3.76334 3.67847
# Velocity P-wave (km/s) = 6.39086 6.65268 6.52309
#
# Compressibility (1/GPa) = 0.02075415
#
# Stress axis : x y z
#
# Youngs Moduli (GPa) = 113.46488 66.25681 76.25671
#
# Poissons Ratio (x) = 0.21074 0.16989
# Poissons Ratio (y) = 0.36090 0.20774
# Poissons Ratio (z) = 0.25278 0.18050
#
# Static dielectric constant tensor:
#      x y z
#    x 3.784860 0.000000 -0.283230 
#    y 0.000000 3.857830 0.000000 
#    z -0.283230 0.000000 3.545710 
# 
# 
# High freq. dielectric constant tensor:
#      x y z
#    x 1.792310 0.000000 -0.022710 
#    y 0.000000 1.802110 0.000000 
#    z -0.022710 0.000000 1.772970 
# 
# From -- ./inp_files/67572.got.cif
#   From: 2010.03.12/outbox.cif.g09.slc.cpg/sg5_34_cif.got.tgz:67572.got - 2010.03.31 09:47:26.
