data_PCOD8049275
_publ_section_title
;
Structure prediction by ZEFSAII (Michael W. Deem and Ramdas Pophale) SiO2 
 PCOD8049275
Probable space group: C 2
;
_chemical_formula_sum "Si O2"
_cell_formula_units_Z 24
_cell_length_a 13.583269
_cell_length_b 16.254438
_cell_length_c 8.622778
_cell_angle_alpha 90.000000
_cell_angle_beta 40.498400
_cell_angle_gamma 90.000000
_cell_volume 1236.384866
_symmetry_space_group_name_H-M "C 2"
_symmetry_group_IT_number 5
_symmetry_cell_setting 'monoclinic'
loop_
_space_group_symop_operation_xyz
x,y,z
-x,y,-z
1/2+x,1/2+y,z
1/2-x,1/2+y,-z
loop_
_atom_site_type_symbol
_atom_site_label
_atom_site_fract_x
_atom_site_fract_y
_atom_site_fract_z
Si Si1 0.451741 0.554690 0.887963
Si Si2 0.390648 0.715421 0.767364
Si Si3 0.365321 0.119477 0.053069
Si Si4 0.129797 0.359926 0.970520
Si Si5 0.645972 0.477213 0.428442
Si Si6 0.384183 0.004154 0.774473
O O1 0.456666 0.632179 0.764913
O O2 0.581901 0.488806 0.679568
O O3 0.500000 0.584906 0.000000
O O4 0.288488 0.510080 0.080392
O O5 0.500000 0.750166 0.500000
O O6 0.236288 0.698616 0.858965
O O7 0.351611 0.776863 0.953964
O O8 0.274192 0.044805 0.241426
O O9 0.500000 0.150020 0.000000
O O10 0.429001 0.087311 0.811790
O O11 0.088945 0.429004 0.142750
O O12 0.282911 0.386980 0.692926
O O13 0.000000 0.347330 0.000000
O O14 0.500000 0.494853 0.500000
O O15 0.500000 0.990535 0.500000
#
# Coordination Sequence:
#
# PCOD8049275 Si02
#       6
#     4   4   4   4   4   4
#     4  11  22  36  67  92 119 168 214 252 311 370
#     4  11  21  43  62  90 129 169 205 260 317 378
#     4  10  20  37  66  90 121 163 211 257 317 360
#     4  11  24  39  62  90 125 167 210 253 320 366
#     4  11  18  42  64  88 124 168 206 265 302 373
#     4  10  21  36  58  93 124 156 209 263 301 368
#
# _framework density 19.411431
#
# number of rings (size 3 to 8) (size 9 to 14) (size 15 to 20)
#    0.000    1.333    6.667    3.000    4.667    0.000 
#    0.000    5.833    0.000    0.000    0.000    0.000 
#    0.000    0.000    0.000    0.000    0.000    0.000 
#
# Total GULP energy -148717.948070 kJ/mol
# GULP energy per Si atom -12393.162339 kJ/mol
# Density = 1.936725 g / cm^3
# Si number density = 19.411431 Si / 1000 Ang^3
#
#
#
# Elastic Constant Matrix: (Units=GPa)
#
#
# Indices 1 2 3 4 5 6 
#
# 1 148.8057 40.1028 45.0237 0.0003 -2.6483 -0.0007
# 2 40.1028 78.3282 43.3098 0.0001 -7.2823 -0.0003
# 3 45.0237 43.3098 125.3008 0.0002 -1.3102 -0.0006
# 4 0.0003 0.0001 0.0002 29.8209 -0.0003 9.0995
# 5 -2.6483 -7.2823 -1.3102 -0.0003 21.5614 0.0007
# 6 -0.0007 -0.0003 -0.0006 9.0995 0.0007 5.3423
#
#
#
# Elastic Compliance Matrix: (Units=1/GPa)
#
#
# Indices 1 2 3 4 5 6 
#
# 1 0.008123 -0.003166 -0.001826 -0.000001 -0.000183 0.000002
# 2 -0.003166 0.017575 -0.004882 0.000000 0.005251 -0.000001
# 3 -0.001826 -0.004882 0.010312 -0.000001 -0.001247 0.000002
# 4 -0.000001 0.000000 -0.000001 0.069824 0.000005 -0.118932
# 5 -0.000183 0.005251 -0.001247 0.000005 0.048054 -0.000013
# 6 0.000002 -0.000001 0.000002 -0.118932 -0.000013 0.389762
#
#
# Mechanical properties :
#
#
# Convention : Reuss Voigt Hill
#
# Bulk Modulus (GPa) = 61.49857 67.70080 64.59969
# Shear Modulus (GPa) = 8.79013 26.27816 17.53415
#
# Velocity S-wave (km/s) = 2.13030 3.68332 3.00874
# Velocity P-wave (km/s) = 6.14827 7.28297 6.73954
#
# Compressibility (1/GPa) = 0.01626054
#
# Stress axis : x y z
#
# Youngs Moduli (GPa) = 123.11183 56.89764 96.97813
#
# Poissons Ratio (x) = 0.18013 0.17712
# Poissons Ratio (y) = 0.38975 0.47349
# Poissons Ratio (z) = 0.22484 0.27780
#
# Static dielectric constant tensor:
#      x y z
#    x 3.590650 0.000000 0.091920 
#    y 0.000000 3.397070 0.000000 
#    z 0.091920 0.000000 4.039960 
# 
# 
# High freq. dielectric constant tensor:
#      x y z
#    x 1.762200 0.000000 0.004570 
#    y 0.000000 1.725940 0.000000 
#    z 0.004570 0.000000 1.761750 
# 
# From -- ./inp_files/21168.got.cif
#   From: 2010.03.12/outbox.cif.g09.slc.cpg/sg5_11_cif.got.tgz:21168.got - 2010.03.31 09:47:26.
