data_PCOD8049434
_publ_section_title
;
Structure prediction by ZEFSAII (Michael W. Deem and Ramdas Pophale) SiO2 
 PCOD8049434
Probable space group: C 2
;
_chemical_formula_sum "Si O2"
_cell_formula_units_Z 32
_cell_length_a 19.288334
_cell_length_b 14.148434
_cell_length_c 13.167067
_cell_angle_alpha 90.000000
_cell_angle_beta 26.452999
_cell_angle_gamma 90.000000
_cell_volume 1600.679155
_symmetry_space_group_name_H-M "C 2"
_symmetry_group_IT_number 5
_symmetry_cell_setting 'monoclinic'
loop_
_space_group_symop_operation_xyz
x,y,z
-x,y,-z
1/2+x,1/2+y,z
1/2-x,1/2+y,-z
loop_
_atom_site_type_symbol
_atom_site_label
_atom_site_fract_x
_atom_site_fract_y
_atom_site_fract_z
Si Si1 0.072464 0.509800 0.671859
Si Si2 0.672190 0.503587 0.501321
Si Si3 0.650695 0.593268 0.048742
Si Si4 0.628115 0.136138 0.409197
Si Si5 0.123088 0.627782 0.915835
Si Si6 0.998627 0.842928 0.389611
Si Si7 0.853007 0.219714 0.749163
Si Si8 0.819551 0.403577 0.891395
O O1 0.217873 0.474936 0.548528
O O2 0.143704 0.566512 0.483485
O O3 0.963273 0.422947 0.779408
O O4 0.963426 0.574669 0.881503
O O5 0.531914 0.570749 0.723176
O O6 0.766019 0.555244 0.289127
O O7 0.604377 0.405949 0.549347
O O8 0.680644 0.662975 0.103361
O O9 0.708992 0.641167 0.867036
O O10 0.753336 0.499623 0.931647
O O11 0.500000 0.094246 0.500000
O O12 0.574364 0.238765 0.517969
O O13 0.212597 0.712329 0.853066
O O14 0.000000 0.674415 0.000000
O O15 0.000000 0.887255 0.500000
O O16 0.179852 0.842124 0.122993
O O17 0.886041 0.330916 0.721031
O O18 0.000000 0.172650 0.500000
#
# Coordination Sequence:
#
# PCOD8049434 Si02
#       8
#     4   4   4   4   4   4   4   4
#     4  11  22  40  66  90 135 167 213 267 332 378
#     4  10  23  40  63  98 126 173 216 268 325 379
#     4  11  23  42  66  93 131 173 216 263 321 389
#     4  11  21  40  69  92 126 174 217 262 323 387
#     4  10  20  39  65  93 129 169 210 269 327 375
#     4  10  21  38  67  94 124 163 225 264 313 383
#     4  12  23  39  64 100 126 161 222 267 314 383
#     4  11  23  38  65  93 125 167 212 267 320 380
#
# _framework density 19.991515
#
# number of rings (size 3 to 8) (size 9 to 14) (size 15 to 20)
#    0.000    1.250    3.750    3.000    3.500    0.500 
#    2.250    2.500    5.500    0.000    0.000    0.000 
#    0.000    0.000    0.000    0.000    0.000    0.000 
#
# Total GULP energy -198351.154770 kJ/mol
# GULP energy per Si atom -12396.947173 kJ/mol
# Density = 1.994601 g / cm^3
# Si number density = 19.991515 Si / 1000 Ang^3
#
#
#
# Elastic Constant Matrix: (Units=GPa)
#
#
# Indices 1 2 3 4 5 6 
#
# 1 155.2216 53.8201 47.1710 -0.0001 -12.3180 0.0003
# 2 53.8201 84.0096 15.3824 0.0002 5.5862 0.0004
# 3 47.1710 15.3824 96.7580 0.0004 16.2164 0.0006
# 4 -0.0001 0.0002 0.0004 10.4938 -0.0002 -12.3338
# 5 -12.3180 5.5862 16.2164 -0.0002 37.1435 -0.0003
# 6 0.0003 0.0004 0.0006 -12.3338 -0.0003 8.5588
#
#
#
# Elastic Compliance Matrix: (Units=1/GPa)
#
#
# Indices 1 2 3 4 5 6 
#
# 1 0.010881 -0.006436 -0.005447 -0.000002 0.006955 -0.000002
# 2 -0.006436 0.016107 0.001447 0.000002 -0.005188 0.000002
# 3 -0.005447 0.001447 0.014134 0.000003 -0.008195 0.000003
# 4 -0.000002 0.000002 0.000003 -0.137366 -0.000004 -0.197952
# 5 0.006955 -0.005188 -0.008195 -0.000004 0.033587 -0.000005
# 6 -0.000002 0.000002 0.000003 -0.197952 -0.000005 -0.168422
#
#
# Mechanical properties :
#
#
# Convention : Reuss Voigt Hill
#
# Bulk Modulus (GPa) = 49.38552 63.19291 56.28922
# Shear Modulus (GPa) = -24.57534 25.88028 0.65247
#
# Velocity S-wave (km/s) = -3.50992 3.60191 0.57191
# Velocity P-wave (km/s) = 2.88631 6.99834 5.35292
#
# Compressibility (1/GPa) = 0.02024885
#
# Stress axis : x y z
#
# Youngs Moduli (GPa) = 91.90120 62.08582 70.75088
#
# Poissons Ratio (x) = 0.39959 0.38539
# Poissons Ratio (y) = 0.59148 -0.10235
# Poissons Ratio (z) = 0.50060 -0.08981
#
# Static dielectric constant tensor:
#      x y z
#    x 3.879840 0.000000 -0.077040 
#    y 0.000000 3.381440 0.000000 
#    z -0.077040 0.000000 4.049650 
# 
# 
# High freq. dielectric constant tensor:
#      x y z
#    x 1.774410 0.000000 0.004500 
#    y 0.000000 1.765830 0.000000 
#    z 0.004500 0.000000 1.801810 
# 
# From -- ./inp_files/31072.got.cif
#   From: 2010.03.12/outbox.cif.g09.slc.cpg/sg5_16_cif.got.tgz:31072.got - 2010.03.31 09:47:26.
