data_PCOD8049053
_publ_section_title
;
Structure prediction by ZEFSAII (Michael W. Deem and Ramdas Pophale) SiO2 
 PCOD8049053
Probable space group: C 2
;
_chemical_formula_sum "Si O2"
_cell_formula_units_Z 20
_cell_length_a 5.293455
_cell_length_b 16.980808
_cell_length_c 10.014645
_cell_angle_alpha 90.000000
_cell_angle_beta 99.308007
_cell_angle_gamma 90.000000
_cell_volume 888.335165
_symmetry_space_group_name_H-M "C 2"
_symmetry_group_IT_number 5
_symmetry_cell_setting 'monoclinic'
loop_
_space_group_symop_operation_xyz
x,y,z
-x,y,-z
1/2+x,1/2+y,z
1/2-x,1/2+y,-z
loop_
_atom_site_type_symbol
_atom_site_label
_atom_site_fract_x
_atom_site_fract_y
_atom_site_fract_z
Si Si1 0.000000 0.715860 0.000000
Si Si2 0.500000 0.838967 0.500000
Si Si3 0.000000 0.665332 0.500000
Si Si4 0.227767 0.565822 0.931507
Si Si5 0.500000 0.441808 0.500000
Si Si6 0.237860 0.227886 0.719465
Si Si7 0.082392 0.076682 0.326665
O O1 0.213491 0.660416 0.948914
O O2 0.861101 0.764484 0.867242
O O3 0.750254 0.890392 0.501878
O O4 0.525775 0.785244 0.636267
O O5 0.961987 0.719304 0.627577
O O6 0.745080 0.612563 0.463812
O O7 0.213907 0.551929 0.771293
O O8 0.500000 0.531184 0.000000
O O9 0.000000 0.524560 0.000000
O O10 0.448410 0.496982 0.366302
O O11 0.123943 0.140752 0.745086
#
# Coordination Sequence:
#
# PCOD8049053 Si02
#       7
#     2   2   2   4   2   4   4
#     4  10  22  36  66 108 140 172 224 306 354 404
#     4  12  28  46  65 105 148 198 238 282 358 426
#     4  12  18  36  68 108 136 170 236 300 354 406
#     4  10  20  35  59 105 137 164 214 295 354 407
#     4  12  28  44  69 105 148 188 236 300 350 426
#     4  12  23  41  72 106 142 184 241 301 350 428
#     4  12  22  39  71 105 137 181 243 300 356 410
#
# _framework density 22.514023999999999
#
# number of rings (size 3 to 8) (size 9 to 14) (size 15 to 20)
#    0.600    0.000    8.000    1.200    0.000    0.000 
#    0.000    0.000    2.200    0.000    5.200    0.000 
#    0.000    0.000    0.000    0.000    0.000    0.000 
#
# Total GULP energy -123914.880456 kJ/mol
# GULP energy per Si atom -12391.488046 kJ/mol
# Density = 2.246278 g / cm^3
# Si number density = 22.514024 Si / 1000 Ang^3
#
#
#
# Elastic Constant Matrix: (Units=GPa)
#
#
# Indices 1 2 3 4 5 6 
#
# 1 127.8449 41.0052 36.1840 0.0000 -7.1134 0.0000
# 2 41.0052 84.2365 37.0083 0.0000 -1.9459 0.0000
# 3 36.1840 37.0083 172.7378 0.0000 2.3227 0.0000
# 4 0.0000 0.0000 0.0000 11.5244 0.0000 0.0729
# 5 -7.1134 -1.9459 2.3227 0.0000 49.7335 0.0000
# 6 0.0000 0.0000 0.0000 0.0729 0.0000 39.4009
#
#
#
# Elastic Compliance Matrix: (Units=1/GPa)
#
#
# Indices 1 2 3 4 5 6 
#
# 1 0.009532 -0.004113 -0.001132 0.000000 0.001255 0.000000
# 2 -0.004113 0.014901 -0.002332 0.000000 0.000104 0.000000
# 3 -0.001132 -0.002332 0.006533 0.000000 -0.000558 0.000000
# 4 0.000000 0.000000 0.000000 0.086773 0.000000 -0.000160
# 5 0.001255 0.000104 -0.000558 0.000000 0.020317 0.000000
# 6 0.000000 0.000000 0.000000 -0.000160 0.000000 0.025380
#
#
# Mechanical properties :
#
#
# Convention : Reuss Voigt Hill
#
# Bulk Modulus (GPa) = 63.25042 68.13491 65.69266
# Shear Modulus (GPa) = 27.19432 38.17323 32.68378
#
# Velocity S-wave (km/s) = 3.47923 4.12215 3.81426
# Velocity P-wave (km/s) = 6.65544 7.27909 6.97424
#
# Compressibility (1/GPa) = 0.01581017
#
# Stress axis : x y z
#
# Youngs Moduli (GPa) = 104.91394 67.11092 153.05858
#
# Poissons Ratio (x) = 0.27606 0.17330
# Poissons Ratio (y) = 0.43156 0.35695
# Poissons Ratio (z) = 0.11879 0.15651
#
# Static dielectric constant tensor:
#      x y z
#    x 3.468180 0.000000 -0.339220 
#    y 0.000000 3.655050 0.000000 
#    z -0.339220 0.000000 4.128150 
# 
# 
# High freq. dielectric constant tensor:
#      x y z
#    x 1.899880 0.000000 -0.010670 
#    y 0.000000 1.817250 0.000000 
#    z -0.010670 0.000000 1.900010 
# 
# From -- ./inp_files/33174.got.cif
#   From: 2010.03.12/outbox.cif.g09.slc.cpg/sg5_17_cif.got.tgz:33174.got - 2010.03.31 09:47:26.
