data_PCOD8049342
_publ_section_title
;
Structure prediction by ZEFSAII (Michael W. Deem and Ramdas Pophale) SiO2 
 PCOD8049342
Probable space group: C 2
;
_chemical_formula_sum "Si O2"
_cell_formula_units_Z 32
_cell_length_a 20.715756
_cell_length_b 14.657417
_cell_length_c 9.320806
_cell_angle_alpha 90.000000
_cell_angle_beta 35.732168
_cell_angle_gamma 90.000000
_cell_volume 1652.807806
_symmetry_space_group_name_H-M "C 2"
_symmetry_group_IT_number 5
_symmetry_cell_setting 'monoclinic'
loop_
_space_group_symop_operation_xyz
x,y,z
-x,y,-z
1/2+x,1/2+y,z
1/2-x,1/2+y,-z
loop_
_atom_site_type_symbol
_atom_site_label
_atom_site_fract_x
_atom_site_fract_y
_atom_site_fract_z
Si Si1 0.527704 0.287190 0.109376
Si Si2 0.399123 0.778735 0.843469
Si Si3 0.174373 0.951544 0.868027
Si Si4 0.533482 0.572063 0.284179
Si Si5 0.132881 0.327001 0.418075
Si Si6 0.229658 0.691079 0.664786
Si Si7 0.210983 0.803362 0.411480
Si Si8 0.838746 0.006063 0.428480
O O1 0.414029 0.268587 0.401685
O O2 0.500000 0.323739 0.000000
O O3 0.597255 0.367321 0.057424
O O4 0.605374 0.197919 0.954742
O O5 0.452205 0.679506 0.729540
O O6 0.505644 0.838916 0.700833
O O7 0.356046 0.820965 0.773420
O O8 0.298769 0.774686 0.134638
O O9 0.300605 0.915569 0.643915
O O10 0.137394 0.990971 0.781557
O O11 0.152830 0.030140 0.024416
O O12 0.500000 0.533153 0.500000
O O13 0.447221 0.538781 0.317962
O O14 0.180970 0.230480 0.386300
O O15 0.245017 0.755304 0.497798
O O16 0.246947 0.584977 0.604856
O O17 0.211367 0.912898 0.418314
#
# Coordination Sequence:
#
# PCOD8049342 Si02
#       8
#     4   4   4   4   4   4   4   4
#     4   9  16  36  56  83 124 155 188 253 322 365
#     4  11  23  42  60  89 129 168 207 260 317 389
#     4  11  21  36  64  92 122 162 208 271 317 365
#     4  12  23  38  64  98 122 159 219 269 320 378
#     4  10  21  43  58  81 131 170 194 252 333 368
#     4  10  20  38  63  89 125 161 202 267 328 370
#     4  11  22  37  62  93 121 166 215 257 319 386
#     4  12  21  39  63  98 124 160 218 271 314 377
#
# _framework density 19.360992
#
# number of rings (size 3 to 8) (size 9 to 14) (size 15 to 20)
#    0.000    1.250    7.500    1.125    1.750    0.500 
#    0.000    6.875    0.000    0.000    0.000    0.000 
#    0.000    0.000    0.000    0.000    0.000    0.000 
#
# Total GULP energy -198285.619656 kJ/mol
# GULP energy per Si atom -12392.851228 kJ/mol
# Density = 1.931693 g / cm^3
# Si number density = 19.360992 Si / 1000 Ang^3
#
#
#
# Elastic Constant Matrix: (Units=GPa)
#
#
# Indices 1 2 3 4 5 6 
#
# 1 90.1833 27.8354 52.3807 0.0000 -6.7010 0.0000
# 2 27.8354 92.7717 30.0199 0.0000 -6.0855 0.0000
# 3 52.3807 30.0199 154.8221 0.0000 -13.6384 0.0000
# 4 0.0000 0.0000 0.0000 32.8702 0.0000 -6.7914
# 5 -6.7010 -6.0855 -13.6384 0.0000 25.9609 0.0000
# 6 0.0000 0.0000 0.0000 -6.7914 0.0000 23.8169
#
#
#
# Elastic Compliance Matrix: (Units=1/GPa)
#
#
# Indices 1 2 3 4 5 6 
#
# 1 0.014537 -0.002923 -0.004279 0.000000 0.000819 0.000000
# 2 -0.002923 0.012152 -0.001240 0.000000 0.001443 0.000000
# 3 -0.004279 -0.001240 0.008414 0.000000 0.003025 0.000000
# 4 0.000000 0.000000 0.000000 0.032327 0.000000 0.009218
# 5 0.000819 0.001443 0.003025 0.000000 0.040658 0.000000
# 6 0.000000 0.000000 0.000000 0.009218 0.000000 0.044616
#
#
# Mechanical properties :
#
#
# Convention : Reuss Voigt Hill
#
# Bulk Modulus (GPa) = 54.89238 62.02766 58.46002
# Shear Modulus (GPa) = 28.46368 31.69901 30.08134
#
# Velocity S-wave (km/s) = 3.83842 4.05070 3.94599
# Velocity P-wave (km/s) = 6.93240 7.34742 7.14293
#
# Compressibility (1/GPa) = 0.01821747
#
# Stress axis : x y z
#
# Youngs Moduli (GPa) = 68.78885 82.28967 118.85236
#
# Poissons Ratio (x) = 0.24056 0.50862
# Poissons Ratio (y) = 0.20109 0.14740
# Poissons Ratio (z) = 0.29437 0.10205
#
# Static dielectric constant tensor:
#      x y z
#    x 3.583740 0.000000 -0.180280 
#    y 0.000000 3.528240 0.000000 
#    z -0.180280 0.000000 3.600230 
# 
# 
# High freq. dielectric constant tensor:
#      x y z
#    x 1.750490 0.000000 -0.010290 
#    y 0.000000 1.741670 0.000000 
#    z -0.010290 0.000000 1.749120 
# 
# From -- ./inp_files/29820.got.cif
#   From: 2010.03.12/outbox.cif.g09.slc.cpg/sg5_15_cif.got.tgz:29820.got - 2010.03.31 09:47:26.
