data_PCOD8049205
_publ_section_title
;
Structure prediction by ZEFSAII (Michael W. Deem and Ramdas Pophale) SiO2 
 PCOD8049205
Probable space group: C 2
;
_chemical_formula_sum "Si O2"
_cell_formula_units_Z 32
_cell_length_a 24.047750
_cell_length_b 5.116136
_cell_length_c 12.503169
_cell_angle_alpha 90.000000
_cell_angle_beta 114.845804
_cell_angle_gamma 90.000000
_cell_volume 1395.903648
_symmetry_space_group_name_H-M "C 2"
_symmetry_group_IT_number 5
_symmetry_cell_setting 'monoclinic'
loop_
_space_group_symop_operation_xyz
x,y,z
-x,y,-z
1/2+x,1/2+y,z
1/2-x,1/2+y,-z
loop_
_atom_site_type_symbol
_atom_site_label
_atom_site_fract_x
_atom_site_fract_y
_atom_site_fract_z
Si Si1 0.039794 0.916140 0.928764
Si Si2 0.809023 0.540108 0.138461
Si Si3 0.110953 0.722657 0.369401
Si Si4 0.738083 0.256124 0.426593
Si Si5 0.672682 0.535500 0.984131
Si Si6 0.961666 0.115585 0.564202
Si Si7 0.995923 0.423622 0.776888
Si Si8 0.848139 0.420594 0.397412
O O1 0.036779 0.675393 0.841726
O O2 0.112152 0.977816 0.007803
O O3 0.009232 0.182204 0.863929
O O4 0.000000 0.829563 0.000000
O O5 0.832991 0.320007 0.075348
O O6 0.848237 0.528050 0.278059
O O7 0.823892 0.825131 0.107036
O O8 0.735724 0.514516 0.102758
O O9 0.166966 0.830867 0.342014
O O10 0.141754 0.648106 0.507821
O O11 0.077079 0.494594 0.275058
O O12 0.057266 0.927855 0.353266
O O13 0.761832 0.453815 0.537261
O O14 0.781901 0.282194 0.359900
O O15 0.901399 0.213491 0.456231
O O16 0.000000 0.978046 0.500000
O O17 0.003116 0.341370 0.656196
#
# Coordination Sequence:
#
# PCOD8049205 Si02
#       8
#     4   4   4   4   4   4   4   4
#     4  12  26  46  73  99 130 180 231 278 340 395
#     4  10  23  43  68  96 128 171 218 278 339 388
#     4  10  22  42  64  97 141 178 214 272 330 399
#     4  10  20  37  60  86 129 171 210 261 315 373
#     4  10  24  45  67  94 132 166 219 287 337 386
#     4  11  24  41  66 104 143 180 223 263 336 416
#     4  11  25  45  66 100 138 179 219 281 333 390
#     4  10  23  37  64  99 129 174 224 261 330 410
#
# _framework density 22.924216000000001
#
# number of rings (size 3 to 8) (size 9 to 14) (size 15 to 20)
#    0.000    1.500    2.500    1.125    5.250    3.000 
#    0.000    2.500    0.000    0.000    0.000    0.000 
#    0.000    0.000    0.000    0.000    0.000    0.000 
#
# Total GULP energy -198241.458068 kJ/mol
# GULP energy per Si atom -12390.091129 kJ/mol
# Density = 2.287204 g / cm^3
# Si number density = 22.924216 Si / 1000 Ang^3
#
#
#
# Elastic Constant Matrix: (Units=GPa)
#
#
# Indices 1 2 3 4 5 6 
#
# 1 133.6936 14.3010 11.6907 0.0000 3.2354 0.0000
# 2 14.3010 93.5662 15.6463 0.0000 9.2427 0.0000
# 3 11.6907 15.6463 60.2782 0.0000 14.0751 0.0000
# 4 0.0000 0.0000 0.0000 31.0091 0.0000 8.8587
# 5 3.2354 9.2427 14.0751 0.0000 16.0833 0.0000
# 6 0.0000 0.0000 0.0000 8.8587 0.0000 30.5494
#
#
#
# Elastic Compliance Matrix: (Units=1/GPa)
#
#
# Indices 1 2 3 4 5 6 
#
# 1 0.007692 -0.000976 -0.001267 0.000000 0.000122 0.000000
# 2 -0.000976 0.011610 -0.001649 0.000000 -0.005032 0.000000
# 3 -0.001267 -0.001649 0.021344 0.000000 -0.017476 0.000000
# 4 0.000000 0.000000 0.000000 0.035161 0.000000 -0.010196
# 5 0.000122 -0.005032 -0.017476 0.000000 0.080338 0.000000
# 6 0.000000 0.000000 0.000000 -0.010196 0.000000 0.035691
#
#
# Mechanical properties :
#
#
# Convention : Reuss Voigt Hill
#
# Bulk Modulus (GPa) = 30.43058 41.20159 35.81608
# Shear Modulus (GPa) = 23.74464 31.92171 27.83317
#
# Velocity S-wave (km/s) = 3.22186 3.73565 3.48823
# Velocity P-wave (km/s) = 5.20997 6.05135 5.64635
#
# Compressibility (1/GPa) = 0.03286168
#
# Stress axis : x y z
#
# Youngs Moduli (GPa) = 130.00493 86.13521 46.85080
#
# Poissons Ratio (x) = 0.08406 0.05936
# Poissons Ratio (y) = 0.12687 0.07727
# Poissons Ratio (z) = 0.16473 0.14205
#
# Static dielectric constant tensor:
#      x y z
#    x 4.474080 0.000000 0.311290 
#    y 0.000000 4.172560 0.000000 
#    z 0.311290 0.000000 3.795970 
# 
# 
# High freq. dielectric constant tensor:
#      x y z
#    x 1.913330 0.000000 0.024370 
#    y 0.000000 1.909520 0.000000 
#    z 0.024370 0.000000 1.874300 
# 
# From -- ./inp_files/47053.got.cif
#   From: 2010.03.12/outbox.cif.g09.slc.cpg/sg5_24_cif.got.tgz:47053.got - 2010.03.31 09:47:26.
