data_PCOD8049037
_publ_section_title
;
Structure prediction by ZEFSAII (Michael W. Deem and Ramdas Pophale) SiO2 
 PCOD8049037
Probable space group: C 2
;
_chemical_formula_sum "Si O2"
_cell_formula_units_Z 28
_cell_length_a 19.724430
_cell_length_b 15.053386
_cell_length_c 7.935497
_cell_angle_alpha 90.000000
_cell_angle_beta 147.941014
_cell_angle_gamma 90.000000
_cell_volume 1250.654068
_symmetry_space_group_name_H-M "C 2"
_symmetry_group_IT_number 5
_symmetry_cell_setting 'monoclinic'
loop_
_space_group_symop_operation_xyz
x,y,z
-x,y,-z
1/2+x,1/2+y,z
1/2-x,1/2+y,-z
loop_
_atom_site_type_symbol
_atom_site_label
_atom_site_fract_x
_atom_site_fract_y
_atom_site_fract_z
Si Si1 0.710322 0.030180 0.432890
Si Si2 0.365684 0.838661 0.649376
Si Si3 0.135341 0.720052 0.228839
Si Si4 0.210337 0.009736 0.772006
Si Si5 0.048018 0.957243 0.922141
Si Si6 0.220715 0.850141 0.034744
Si Si7 0.637704 0.170249 0.845385
O O1 0.650683 0.125182 0.358687
O O2 0.712128 0.014153 0.236841
O O3 0.632162 0.945787 0.334392
O O4 0.850082 0.032543 0.812853
O O5 0.250425 0.790104 0.511187
O O6 0.346268 0.821379 0.407667
O O7 0.500000 0.800069 0.000000
O O8 0.138251 0.696730 0.040466
O O9 0.000000 0.761716 0.000000
O O10 0.059443 0.004872 0.417713
O O11 0.252660 0.097494 0.965454
O O12 0.254717 0.925350 0.973079
O O13 0.000000 0.916047 0.000000
O O14 0.113522 0.880275 0.948171
O O15 0.170463 0.764411 0.822944
O O16 0.500000 0.133089 0.500000
#
# Coordination Sequence:
#
# PCOD8049037 Si02
#       7
#     4   4   4   4   4   4   4
#     4   9  20  36  58  84 115 154 193 241 291 346
#     4  10  22  39  60  87 118 153 196 245 295 347
#     4  10  22  39  61  88 117 154 197 240 291 353
#     4  10  20  35  56  84 118 154 196 243 291 345
#     4   9  18  34  59  88 116 151 197 241 291 347
#     4  10  21  37  59  83 115 156 192 241 295 350
#     4  10  22  36  55  82 114 152 195 243 290 346
#
# _framework density 22.388283999999999
#
# number of rings (size 3 to 8) (size 9 to 14) (size 15 to 20)
#    0.000    2.286    0.000    1.714    0.000   18.286 
#    0.000    0.000    0.000    6.857    0.000    0.000 
#    0.000    0.000    0.000    0.000    0.000    0.000 
#
# Total GULP energy -173458.918140 kJ/mol
# GULP energy per Si atom -12389.922724 kJ/mol
# Density = 2.233733 g / cm^3
# Si number density = 22.388284 Si / 1000 Ang^3
#
#
#
# Elastic Constant Matrix: (Units=GPa)
#
#
# Indices 1 2 3 4 5 6 
#
# 1 25.9227 12.3390 26.4311 0.0000 4.6866 0.0000
# 2 12.3390 151.8399 60.9368 0.0000 6.2052 0.0000
# 3 26.4311 60.9368 173.7971 0.0000 14.5573 0.0000
# 4 0.0000 0.0000 0.0000 29.3767 0.0000 2.6827
# 5 4.6866 6.2052 14.5573 0.0000 24.4174 0.0000
# 6 0.0000 0.0000 0.0000 2.6827 0.0000 18.6168
#
#
#
# Elastic Compliance Matrix: (Units=1/GPa)
#
#
# Indices 1 2 3 4 5 6 
#
# 1 0.046355 -0.001050 -0.006272 0.000000 -0.004891 0.000000
# 2 -0.001050 0.007691 -0.002516 0.000000 -0.000253 0.000000
# 3 -0.006272 -0.002516 0.007826 0.000000 -0.002823 0.000000
# 4 0.000000 0.000000 0.000000 0.034495 0.000000 -0.004971
# 5 -0.004891 -0.000253 -0.002823 0.000000 0.043640 0.000000
# 6 0.000000 0.000000 0.000000 -0.004971 0.000000 0.054431
#
#
# Mechanical properties :
#
#
# Convention : Reuss Voigt Hill
#
# Bulk Modulus (GPa) = 23.69825 61.21924 42.45874
# Shear Modulus (GPa) = 21.91253 31.27236 26.59244
#
# Velocity S-wave (km/s) = 3.13189 3.74146 3.45016
# Velocity P-wave (km/s) = 4.86687 6.78737 5.90571
#
# Compressibility (1/GPa) = 0.04219722
#
# Stress axis : x y z
#
# Youngs Moduli (GPa) = 21.57255 130.01858 127.77625
#
# Poissons Ratio (x) = 0.13653 0.80139
# Poissons Ratio (y) = 0.02265 0.32146
# Poissons Ratio (z) = 0.13530 0.32710
#
# Static dielectric constant tensor:
#      x y z
#    x 3.702240 0.000000 -0.071400 
#    y 0.000000 4.572110 0.000000 
#    z -0.071400 0.000000 4.397590 
# 
# 
# High freq. dielectric constant tensor:
#      x y z
#    x 1.842490 0.000000 -0.011800 
#    y 0.000000 1.891520 0.000000 
#    z -0.011800 0.000000 1.887360 
# 
# From -- ./inp_files/29924.got.cif
#   From: 2010.03.12/outbox.cif.g09.slc.cpg/sg5_15_cif.got.tgz:29924.got - 2010.03.31 09:47:26.
