data_PCOD8049759
_publ_section_title
;
Structure prediction by ZEFSAII (Michael W. Deem and Ramdas Pophale) SiO2 
 PCOD8049759
Probable space group: C 2
;
_chemical_formula_sum "Si O2"
_cell_formula_units_Z 28
_cell_length_a 12.212573
_cell_length_b 8.161079
_cell_length_c 20.381029
_cell_angle_alpha 90.000000
_cell_angle_beta 140.640312
_cell_angle_gamma 90.000000
_cell_volume 1288.243550
_symmetry_space_group_name_H-M "C 2"
_symmetry_group_IT_number 5
_symmetry_cell_setting 'monoclinic'
loop_
_space_group_symop_operation_xyz
x,y,z
-x,y,-z
1/2+x,1/2+y,z
1/2-x,1/2+y,-z
loop_
_atom_site_type_symbol
_atom_site_label
_atom_site_fract_x
_atom_site_fract_y
_atom_site_fract_z
Si Si1 0.327367 0.445710 0.589639
Si Si2 0.780152 0.553969 0.737120
Si Si3 0.586479 0.276460 0.607903
Si Si4 0.769380 0.529244 0.231312
Si Si5 0.812757 0.350300 0.883219
Si Si6 0.472474 0.779623 0.622778
Si Si7 0.474029 0.344959 0.794361
O O1 0.465516 0.366479 0.604657
O O2 0.346201 0.645574 0.598779
O O3 0.137457 0.392202 0.478198
O O4 0.360759 0.383135 0.677776
O O5 0.746683 0.403518 0.671252
O O6 0.790190 0.482249 0.815431
O O7 0.623673 0.683308 0.654768
O O8 0.955285 0.649335 0.799616
O O9 0.500000 0.234056 0.500000
O O10 0.656184 0.107686 0.667759
O O11 0.725008 0.664094 0.156671
O O12 0.592590 0.439623 0.171621
O O13 0.919992 0.401026 0.277618
O O14 0.673622 0.391205 0.875367
O O15 0.000000 0.365819 0.000000
#
# Coordination Sequence:
#
# PCOD8049759 Si02
#       7
#     4   4   4   4   4   4   4
#     4  11  22  36  62  92 135 191 210 257 337 385
#     4   9  22  41  62  97 131 170 221 269 325 400
#     4  10  21  35  55  91 134 172 221 264 311 394
#     4  10  23  41  61  95 132 167 228 270 323 399
#     4  11  24  49  70  93 130 168 225 289 337 387
#     4  10  21  37  57  92 138 167 229 250 315 399
#     4  11  23  42  66  92 137 171 213 276 333 391
#
# _framework density 21.735019999999999
#
# number of rings (size 3 to 8) (size 9 to 14) (size 15 to 20)
#    0.000    1.714    4.286    0.857    8.000    2.286 
#    2.571    2.857    0.000    0.000    0.000    0.000 
#    0.000    0.000    0.000    0.000    0.000    0.000 
#
# Total GULP energy -173491.149730 kJ/mol
# GULP energy per Si atom -12392.224981 kJ/mol
# Density = 2.168555 g / cm^3
# Si number density = 21.735020 Si / 1000 Ang^3
#
#
#
# Elastic Constant Matrix: (Units=GPa)
#
#
# Indices 1 2 3 4 5 6 
#
# 1 56.6608 30.2045 28.3507 0.0000 15.8656 0.0000
# 2 30.2045 105.4516 30.9726 0.0000 15.0084 0.0000
# 3 28.3507 30.9726 102.5536 0.0000 29.6446 0.0000
# 4 0.0000 0.0000 0.0000 24.5980 0.0000 6.7734
# 5 15.8656 15.0084 29.6446 0.0000 25.5098 0.0000
# 6 0.0000 0.0000 0.0000 6.7734 0.0000 27.5809
#
#
#
# Elastic Compliance Matrix: (Units=1/GPa)
#
#
# Indices 1 2 3 4 5 6 
#
# 1 0.024069 -0.004843 -0.002541 0.000000 -0.009167 0.000000
# 2 -0.004843 0.011620 -0.001604 0.000000 -0.001961 0.000000
# 3 -0.002541 -0.001604 0.015372 0.000000 -0.015339 0.000000
# 4 0.000000 0.000000 0.000000 0.043602 0.000000 -0.010708
# 5 -0.009167 -0.001961 -0.015339 0.000000 0.063881 0.000000
# 6 0.000000 0.000000 0.000000 -0.010708 0.000000 0.038887
#
#
# Mechanical properties :
#
#
# Convention : Reuss Voigt Hill
#
# Bulk Modulus (GPa) = 30.22522 49.30241 39.76382
# Shear Modulus (GPa) = 22.08126 27.21361 24.64744
#
# Velocity S-wave (km/s) = 3.19082 3.54229 3.37114
# Velocity P-wave (km/s) = 5.24515 6.28196 5.78682
#
# Compressibility (1/GPa) = 0.03308495
#
# Stress axis : x y z
#
# Youngs Moduli (GPa) = 41.54726 86.05594 65.05328
#
# Poissons Ratio (x) = 0.41677 0.16532
# Poissons Ratio (y) = 0.20121 0.10434
# Poissons Ratio (z) = 0.10559 0.13802
#
# Static dielectric constant tensor:
#      x y z
#    x 3.871530 0.000000 0.194330 
#    y 0.000000 4.376600 0.000000 
#    z 0.194330 0.000000 3.759160 
# 
# 
# High freq. dielectric constant tensor:
#      x y z
#    x 1.839570 0.000000 0.021170 
#    y 0.000000 1.877610 0.000000 
#    z 0.021170 0.000000 1.820750 
# 
# From -- ./inp_files/65149.got.cif
#   From: 2010.03.12/outbox.cif.g09.slc.cpg/sg5_33_cif.got.tgz:65149.got - 2010.03.31 09:47:26.
