data_PCOD8049262
_publ_section_title
;
Structure prediction by ZEFSAII (Michael W. Deem and Ramdas Pophale) SiO2 
 PCOD8049262
Probable space group: C 2
;
_chemical_formula_sum "Si O2"
_cell_formula_units_Z 28
_cell_length_a 14.343918
_cell_length_b 9.051989
_cell_length_c 21.723199
_cell_angle_alpha 90.000000
_cell_angle_beta 27.568056
_cell_angle_gamma 90.000000
_cell_volume 1305.361220
_symmetry_space_group_name_H-M "C 2"
_symmetry_group_IT_number 5
_symmetry_cell_setting 'monoclinic'
loop_
_space_group_symop_operation_xyz
x,y,z
-x,y,-z
1/2+x,1/2+y,z
1/2-x,1/2+y,-z
loop_
_atom_site_type_symbol
_atom_site_label
_atom_site_fract_x
_atom_site_fract_y
_atom_site_fract_z
Si Si1 0.500000 0.860260 0.500000
Si Si2 0.105257 0.101847 0.363953
Si Si3 0.534482 0.063340 0.168012
Si Si4 0.000000 0.851085 0.500000
Si Si5 0.844022 0.238511 0.918207
Si Si6 0.759544 0.106765 0.294427
Si Si7 0.717639 0.208208 0.859169
Si Si8 0.777950 0.044819 0.149391
O O1 0.478322 0.750818 0.453800
O O2 0.692729 0.963192 0.372658
O O3 0.295693 0.087298 0.300175
O O4 0.171522 0.103189 0.254680
O O5 0.967962 0.957587 0.458756
O O6 0.612735 0.071841 0.192809
O O7 0.600037 0.907504 0.099066
O O8 0.630217 0.198537 0.073194
O O9 0.191819 0.748756 0.374026
O O10 0.851549 0.213720 0.841076
O O11 0.000564 0.117759 0.852693
O O12 0.684534 0.113779 0.267146
O O13 0.688460 0.374013 0.851314
O O14 0.500000 0.136399 0.000000
O O15 0.000000 0.108706 0.000000
#
# Coordination Sequence:
#
# PCOD8049262 Si02
#       8
#     2   4   4   2   4   4   4   4
#     4  10  24  38  70  82 124 180 212 236 310 382
#     4  11  21  44  61  92 124 168 208 256 307 373
#     4  11  23  39  64  96 128 160 204 263 319 369
#     4  10  24  42  62  82 132 172 200 260 306 354
#     4  11  23  39  64  96 128 160 204 263 319 369
#     4  11  21  44  61  92 124 168 208 256 307 373
#     4  10  20  37  64  95 125 159 204 258 317 375
#     4  10  20  37  64  95 125 159 204 258 317 375
#
# _framework density 21.450001
#
# number of rings (size 3 to 8) (size 9 to 14) (size 15 to 20)
#    0.000    1.429    5.714    0.000    2.000    0.000 
#    2.571   10.714    0.000    0.000    0.000    0.000 
#    0.000    0.000    0.000    0.000    0.000    0.000 
#
# Total GULP energy -173477.318360 kJ/mol
# GULP energy per Si atom -12391.237026 kJ/mol
# Density = 2.140118 g / cm^3
# Si number density = 21.450001 Si / 1000 Ang^3
#
#
#
# Elastic Constant Matrix: (Units=GPa)
#
#
# Indices 1 2 3 4 5 6 
#
# 1 82.4623 16.2787 21.9999 -0.0040 14.0176 0.0004
# 2 16.2787 104.8440 35.1102 -0.0045 16.9994 -0.0004
# 3 21.9999 35.1102 90.1673 -0.0080 32.0316 0.0022
# 4 -0.0040 -0.0045 -0.0080 39.3861 0.0011 4.5062
# 5 14.0176 16.9994 32.0316 0.0011 32.8693 -0.0008
# 6 0.0004 -0.0004 0.0022 4.5062 -0.0008 20.0659
#
#
#
# Elastic Compliance Matrix: (Units=1/GPa)
#
#
# Indices 1 2 3 4 5 6 
#
# 1 0.013360 -0.000949 -0.001592 0.000001 -0.003656 -0.000001
# 2 -0.000949 0.011151 -0.003374 0.000001 -0.002075 0.000000
# 3 -0.001592 -0.003374 0.018249 0.000004 -0.015361 -0.000003
# 4 0.000001 0.000001 0.000004 0.026059 -0.000006 -0.005852
# 5 -0.003656 -0.002075 -0.015361 -0.000006 0.048025 0.000005
# 6 -0.000001 0.000000 -0.000003 -0.005852 0.000005 0.051150
#
#
# Mechanical properties :
#
#
# Convention : Reuss Voigt Hill
#
# Bulk Modulus (GPa) = 32.32764 47.13904 39.73334
# Shear Modulus (GPa) = 26.29725 32.06992 29.18359
#
# Velocity S-wave (km/s) = 3.50520 3.87085 3.69255
# Velocity P-wave (km/s) = 5.61122 6.48089 6.06167
#
# Compressibility (1/GPa) = 0.03093328
#
# Stress axis : x y z
#
# Youngs Moduli (GPa) = 74.84969 89.67412 54.79661
#
# Poissons Ratio (x) = 0.08507 0.08721
# Poissons Ratio (y) = 0.07100 0.18486
# Poissons Ratio (z) = 0.11913 0.30253
#
# Static dielectric constant tensor:
#      x y z
#    x 3.522000 0.000000 0.133540 
#    y 0.000000 3.940720 0.000000 
#    z 0.133540 0.000000 3.973780 
# 
# 
# High freq. dielectric constant tensor:
#      x y z
#    x 1.806570 0.000000 0.015650 
#    y 0.000000 1.839550 0.000000 
#    z 0.015650 0.000000 1.855030 
# 
# From -- ./inp_files/41669.got.cif
#   From: 2010.03.12/outbox.cif.g09.slc.cpg/sg5_21_cif.got.tgz:41669.got - 2010.03.31 09:47:26.
