data_PCOD8049445
_publ_section_title
;
Structure prediction by ZEFSAII (Michael W. Deem and Ramdas Pophale) SiO2 
 PCOD8049445
Probable space group: C 2
;
_chemical_formula_sum "Si O2"
_cell_formula_units_Z 24
_cell_length_a 14.227123
_cell_length_b 9.451500
_cell_length_c 9.167528
_cell_angle_alpha 90.000000
_cell_angle_beta 73.972124
_cell_angle_gamma 90.000000
_cell_volume 1184.816417
_symmetry_space_group_name_H-M "C 2"
_symmetry_group_IT_number 5
_symmetry_cell_setting 'monoclinic'
loop_
_space_group_symop_operation_xyz
x,y,z
-x,y,-z
1/2+x,1/2+y,z
1/2-x,1/2+y,-z
loop_
_atom_site_type_symbol
_atom_site_label
_atom_site_fract_x
_atom_site_fract_y
_atom_site_fract_z
Si Si1 0.714733 0.967100 0.713426
Si Si2 0.611212 0.766100 0.966090
Si Si3 0.730306 0.768238 0.197451
Si Si4 0.403475 0.453599 0.126193
Si Si5 0.105148 0.328780 0.513677
Si Si6 0.097135 0.998106 0.545388
O O1 0.692380 0.868227 0.861489
O O2 0.628244 0.937407 0.634473
O O3 0.816310 0.930720 0.588949
O O4 0.717148 0.125691 0.771618
O O5 0.615099 0.618754 0.881674
O O6 0.500000 0.827267 0.000000
O O7 0.642819 0.739758 0.120247
O O8 0.814062 0.867214 0.093593
O O9 0.683744 0.851735 0.352652
O O10 0.410281 0.420248 0.295710
O O11 0.500000 0.404101 0.000000
O O12 0.000000 0.371764 0.500000
O O13 0.109755 0.166131 0.564593
O O14 0.000000 0.963537 0.500000
#
# Coordination Sequence:
#
# PCOD8049445 Si02
#       6
#     4   4   4   4   4   4
#     4  11  22  40  68  93 123 161 209 262 306 360
#     4  11  24  41  67  92 121 167 215 248 304 375
#     4  11  24  40  61  95 129 160 200 263 316 357
#     4  11  24  41  63  91 127 165 206 254 308 377
#     4  10  20  39  66  91 122 161 211 253 298 371
#     4  10  22  39  66  93 119 165 212 251 303 371
#
# _framework density 20.256302999999999
#
# number of rings (size 3 to 8) (size 9 to 14) (size 15 to 20)
#    0.000    1.333    3.333    2.000   14.000    0.667 
#    0.000    2.500    0.000    0.000    0.000    0.000 
#    0.000    0.000    0.000    0.000    0.000    0.000 
#
# Total GULP energy -148806.450892 kJ/mol
# GULP energy per Si atom -12400.537574 kJ/mol
# Density = 2.021020 g / cm^3
# Si number density = 20.256303 Si / 1000 Ang^3
#
#
#
# Elastic Constant Matrix: (Units=GPa)
#
#
# Indices 1 2 3 4 5 6 
#
# 1 131.9031 44.1530 44.8211 0.0000 -1.1677 0.0000
# 2 44.1530 43.9314 28.5091 0.0000 -9.7275 0.0000
# 3 44.8211 28.5091 104.3561 0.0000 -2.3483 0.0000
# 4 0.0000 0.0000 0.0000 30.0660 0.0000 -3.4075
# 5 -1.1677 -9.7275 -2.3483 0.0000 45.8135 0.0000
# 6 0.0000 0.0000 0.0000 -3.4075 0.0000 27.2365
#
#
#
# Elastic Compliance Matrix: (Units=1/GPa)
#
#
# Indices 1 2 3 4 5 6 
#
# 1 0.012039 -0.011176 -0.002167 0.000000 -0.002177 0.000000
# 2 -0.011176 0.039496 -0.005814 0.000000 0.007803 0.000000
# 3 -0.002167 -0.005814 0.012086 0.000000 -0.000670 0.000000
# 4 0.000000 0.000000 0.000000 0.033738 0.000000 0.004221
# 5 -0.002177 0.007803 -0.000670 0.000000 0.023395 0.000000
# 6 0.000000 0.000000 0.000000 0.004221 0.000000 0.037243
#
#
# Mechanical properties :
#
#
# Convention : Reuss Voigt Hill
#
# Bulk Modulus (GPa) = 39.51330 57.23965 48.37647
# Shear Modulus (GPa) = 24.42019 31.47038 27.94529
#
# Velocity S-wave (km/s) = 3.47588 3.94586 3.71831
# Velocity P-wave (km/s) = 5.97144 7.00563 6.50910
#
# Compressibility (1/GPa) = 0.02530794
#
# Stress axis : x y z
#
# Youngs Moduli (GPa) = 83.06089 25.31895 82.73704
#
# Poissons Ratio (x) = 0.28297 0.17927
# Poissons Ratio (y) = 0.92829 0.48105
# Poissons Ratio (z) = 0.17997 0.14721
#
# Static dielectric constant tensor:
#      x y z
#    x 3.783570 0.000000 -0.049160 
#    y 0.000000 3.361200 0.000000 
#    z -0.049160 0.000000 3.801170 
# 
# 
# High freq. dielectric constant tensor:
#      x y z
#    x 1.800660 0.000000 -0.000100 
#    y 0.000000 1.760590 0.000000 
#    z -0.000100 0.000000 1.809320 
# 
# From -- ./inp_files/22795.got.cif
#   From: 2010.03.12/outbox.cif.g09.slc.cpg/sg5_12_cif.got.tgz:22795.got - 2010.03.31 09:47:26.
