data_PCOD8049382
_publ_section_title
;
Structure prediction by ZEFSAII (Michael W. Deem and Ramdas Pophale) SiO2 
 PCOD8049382
Probable space group: C 2
;
_chemical_formula_sum "Si O2"
_cell_formula_units_Z 26
_cell_length_a 7.670891
_cell_length_b 21.782383
_cell_length_c 10.764035
_cell_angle_alpha 90.000000
_cell_angle_beta 134.562024
_cell_angle_gamma 90.000000
_cell_volume 1281.462368
_symmetry_space_group_name_H-M "C 2"
_symmetry_group_IT_number 5
_symmetry_cell_setting 'monoclinic'
loop_
_space_group_symop_operation_xyz
x,y,z
-x,y,-z
1/2+x,1/2+y,z
1/2-x,1/2+y,-z
loop_
_atom_site_type_symbol
_atom_site_label
_atom_site_fract_x
_atom_site_fract_y
_atom_site_fract_z
Si Si1 0.600168 0.463970 0.787518
Si Si2 0.995137 0.828597 0.696840
Si Si3 0.187246 0.741801 0.997811
Si Si4 0.707458 0.052663 0.693864
Si Si5 0.599177 0.825728 0.302419
Si Si6 0.000000 0.148289 0.000000
Si Si7 0.488696 0.961146 0.199351
O O1 0.456428 0.399827 0.709561
O O2 0.399138 0.516121 0.704587
O O3 0.751580 0.476667 0.736382
O O4 0.776048 0.462043 0.992761
O O5 0.243492 0.821911 0.743795
O O6 0.758458 0.806194 0.501735
O O7 0.027846 0.788625 0.835716
O O8 0.382129 0.778012 0.178535
O O9 0.306803 0.689287 0.976103
O O10 0.000000 0.709811 0.000000
O O11 0.500000 0.080311 0.500000
O O12 0.847545 0.108310 0.827470
O O13 0.573809 0.010582 0.728169
O O14 0.497537 0.894549 0.268066
#
# Coordination Sequence:
#
# PCOD8049382 Si02
#       7
#     4   4   4   4   4   2   4
#     4  10  20  38  67 101 135 167 205 260 331 392
#     4  10  20  38  66  99 137 169 202 263 329 388
#     4  12  26  43  67  91 125 174 224 267 320 378
#     4  12  26  44  70  96 128 174 219 270 322 385
#     4  10  20  38  66  99 137 169 202 263 329 388
#     4  12  28  50  62  90 130 176 234 268 312 378
#     4  10  20  38  67 101 135 167 205 260 331 392
#
# _framework density 20.289318000000002
#
# number of rings (size 3 to 8) (size 9 to 14) (size 15 to 20)
#    0.000    1.231    4.615    0.923    2.154    4.923 
#    0.000    0.000    0.000    0.000    0.000    0.000 
#    0.000    0.000    0.000    0.000    0.000    0.000 
#
# Total GULP energy -161241.044223 kJ/mol
# GULP energy per Si atom -12403.157248 kJ/mol
# Density = 2.024314 g / cm^3
# Si number density = 20.289318 Si / 1000 Ang^3
#
#
#
# Elastic Constant Matrix: (Units=GPa)
#
#
# Indices 1 2 3 4 5 6 
#
# 1 90.8063 34.4899 1.7800 0.0000 11.0976 0.0000
# 2 34.4899 81.8918 20.0872 0.0000 13.0483 0.0000
# 3 1.7800 20.0872 99.0443 0.0000 15.4778 0.0000
# 4 0.0000 0.0000 0.0000 2.1344 0.0000 4.8723
# 5 11.0976 13.0483 15.4778 0.0000 14.0197 0.0000
# 6 0.0000 0.0000 0.0000 4.8723 0.0000 36.0902
#
#
#
# Elastic Compliance Matrix: (Units=1/GPa)
#
#
# Indices 1 2 3 4 5 6 
#
# 1 0.013937 -0.005001 0.002127 0.000000 -0.008726 0.000000
# 2 -0.005001 0.016213 -0.001763 0.000000 -0.009185 0.000000
# 3 0.002127 -0.001763 0.012596 0.000000 -0.013949 0.000000
# 4 0.000000 0.000000 0.000000 0.677196 0.000000 -0.091423
# 5 -0.008726 -0.009185 -0.013949 0.000000 0.102183 0.000000
# 6 0.000000 0.000000 0.000000 -0.091423 0.000000 0.040051
#
#
# Mechanical properties :
#
#
# Convention : Reuss Voigt Hill
#
# Bulk Modulus (GPa) = 29.87543 42.71740 36.29642
# Shear Modulus (GPa) = 5.66504 24.80789 15.23646
#
# Velocity S-wave (km/s) = 1.67278 3.50052 2.74334
# Velocity P-wave (km/s) = 4.29972 6.11866 5.28799
#
# Compressibility (1/GPa) = 0.03347232
#
# Stress axis : x y z
#
# Youngs Moduli (GPa) = 71.75310 61.67716 79.39265
#
# Poissons Ratio (x) = 0.30845 -0.16890
# Poissons Ratio (y) = 0.35885 0.13997
# Poissons Ratio (z) = -0.15265 0.10874
#
# Static dielectric constant tensor:
#      x y z
#    x 3.985450 0.000000 -0.011660 
#    y 0.000000 3.508160 0.000000 
#    z -0.011660 0.000000 3.862610 
# 
# 
# High freq. dielectric constant tensor:
#      x y z
#    x 1.800450 0.000000 0.002010 
#    y 0.000000 1.768510 0.000000 
#    z 0.002010 0.000000 1.810300 
# 
# From -- ./inp_files/37405.got.cif
#   From: 2010.03.12/outbox.cif.g09.slc.cpg/sg5_19_cif.got.tgz:37405.got - 2010.03.31 09:47:26.
