data_PCOD8049571
_publ_section_title
;
Structure prediction by ZEFSAII (Michael W. Deem and Ramdas Pophale) SiO2 
 PCOD8049571
Probable space group: C 2
;
_chemical_formula_sum "Si O2"
_cell_formula_units_Z 22
_cell_length_a 16.392951
_cell_length_b 8.447945
_cell_length_c 15.042214
_cell_angle_alpha 90.000000
_cell_angle_beta 152.229544
_cell_angle_gamma 90.000000
_cell_volume 970.601768
_symmetry_space_group_name_H-M "C 2"
_symmetry_group_IT_number 5
_symmetry_cell_setting 'monoclinic'
loop_
_space_group_symop_operation_xyz
x,y,z
-x,y,-z
1/2+x,1/2+y,z
1/2-x,1/2+y,-z
loop_
_atom_site_type_symbol
_atom_site_label
_atom_site_fract_x
_atom_site_fract_y
_atom_site_fract_z
Si Si1 0.000000 0.846141 0.000000
Si Si2 0.723563 0.647042 0.793116
Si Si3 0.135310 0.711762 0.882837
Si Si4 0.157257 0.626628 0.527367
Si Si5 0.000000 0.880882 0.500000
Si Si6 0.000000 0.384749 0.500000
Si Si7 0.459355 0.538232 0.135334
O O1 0.840619 0.723506 0.826118
O O2 0.057497 0.959591 0.976364
O O3 0.646436 0.477459 0.695060
O O4 0.566187 0.775156 0.645857
O O5 0.839325 0.642378 0.993724
O O6 0.983086 0.610853 0.687778
O O7 0.083118 0.898881 0.833495
O O8 0.317785 0.679726 0.006728
O O9 0.146511 0.491315 0.592693
O O10 0.349352 0.617422 0.668125
O O11 0.114191 0.787240 0.538106
#
# Coordination Sequence:
#
# PCOD8049571 Si02
#       7
#     2   4   4   4   2   2   4
#     4  10  20  44  74  96 128 190 234 258 346 414
#     4  10  21  44  67  98 135 179 226 281 327 409
#     4  11  25  44  70 101 143 171 232 281 344 397
#     4  11  23  44  69 102 139 179 223 283 349 397
#     4  10  24  42  66 108 134 170 230 294 330 396
#     4  10  20  40  74  96 138 180 232 274 328 426
#     4  11  25  46  70 102 136 187 225 282 339 411
#
# _framework density 22.666350999999999
#
# number of rings (size 3 to 8) (size 9 to 14) (size 15 to 20)
#    0.000    1.455    1.818    3.273    2.545    2.909 
#   19.636    0.000    0.000    0.000    0.000    0.000 
#    0.000    0.000    0.000    0.000    0.000    0.000 
#
# Total GULP energy -136286.975601 kJ/mol
# GULP energy per Si atom -12389.725055 kJ/mol
# Density = 2.261476 g / cm^3
# Si number density = 22.666351 Si / 1000 Ang^3
#
#
#
# Elastic Constant Matrix: (Units=GPa)
#
#
# Indices 1 2 3 4 5 6 
#
# 1 127.0343 62.8056 59.7105 0.0001 23.3182 0.0000
# 2 62.8056 127.4757 59.4298 0.0001 10.1103 0.0001
# 3 59.7105 59.4298 152.9425 0.0001 9.4524 0.0001
# 4 0.0001 0.0001 0.0001 26.5796 0.0001 15.3086
# 5 23.3182 10.1103 9.4524 0.0001 50.4374 0.0001
# 6 0.0000 0.0001 0.0001 15.3086 0.0001 34.6296
#
#
#
# Elastic Compliance Matrix: (Units=1/GPa)
#
#
# Indices 1 2 3 4 5 6 
#
# 1 0.012088 -0.004327 -0.002778 0.000000 -0.004201 0.000000
# 2 -0.004327 0.011206 -0.002681 0.000000 0.000257 0.000000
# 3 -0.002778 -0.002681 0.008652 0.000000 0.000200 0.000000
# 4 0.000000 0.000000 0.000000 0.050474 0.000000 -0.022313
# 5 -0.004201 0.000257 0.000200 0.000000 0.021680 0.000000
# 6 0.000000 0.000000 0.000000 -0.022313 0.000000 0.038741
#
#
# Mechanical properties :
#
#
# Convention : Reuss Voigt Hill
#
# Bulk Modulus (GPa) = 80.81562 85.70492 83.26027
# Shear Modulus (GPa) = 30.02309 37.36309 33.69309
#
# Velocity S-wave (km/s) = 3.64341 4.06445 3.85967
# Velocity P-wave (km/s) = 7.30966 7.74080 7.52831
#
# Compressibility (1/GPa) = 0.01237385
#
# Stress axis : x y z
#
# Youngs Moduli (GPa) = 82.72502 89.23695 115.57461
#
# Poissons Ratio (x) = 0.38616 0.32110
# Poissons Ratio (y) = 0.35798 0.30984
# Poissons Ratio (z) = 0.22983 0.23923
#
# Static dielectric constant tensor:
#      x y z
#    x 4.205850 0.000000 0.165830 
#    y 0.000000 4.140760 0.000000 
#    z 0.165830 0.000000 4.200900 
# 
# 
# High freq. dielectric constant tensor:
#      x y z
#    x 1.885550 0.000000 0.006460 
#    y 0.000000 1.892280 0.000000 
#    z 0.006460 0.000000 1.901660 
# 
# From -- ./inp_files/22811.got.cif
#   From: 2010.03.12/outbox.cif.g09.slc.cpg/sg5_12_cif.got.tgz:22811.got - 2010.03.31 09:47:26.
