data_PCOD8049617
_publ_section_title
;
Structure prediction by ZEFSAII (Michael W. Deem and Ramdas Pophale) SiO2 
 PCOD8049617
Probable space group: C 2
;
_chemical_formula_sum "Si O2"
_cell_formula_units_Z 28
_cell_length_a 11.915889
_cell_length_b 14.698424
_cell_length_c 8.311187
_cell_angle_alpha 90.000000
_cell_angle_beta 50.923208
_cell_angle_gamma 90.000000
_cell_volume 1130.032330
_symmetry_space_group_name_H-M "C 2"
_symmetry_group_IT_number 5
_symmetry_cell_setting 'monoclinic'
loop_
_space_group_symop_operation_xyz
x,y,z
-x,y,-z
1/2+x,1/2+y,z
1/2-x,1/2+y,-z
loop_
_atom_site_type_symbol
_atom_site_label
_atom_site_fract_x
_atom_site_fract_y
_atom_site_fract_z
Si Si1 0.847637 0.381090 0.584442
Si Si2 0.131382 0.422662 0.776362
Si Si3 0.374921 0.446653 0.983972
Si Si4 0.346220 0.554380 0.712223
Si Si5 0.698633 0.197255 0.640133
Si Si6 0.345774 0.711305 0.189505
Si Si7 0.924996 0.763942 0.738549
O O1 0.877435 0.447343 0.404837
O O2 0.736186 0.300744 0.648868
O O3 0.000000 0.338011 0.500000
O O4 0.779276 0.441446 0.787574
O O5 0.284340 0.459023 0.701319
O O6 0.126790 0.314990 0.787945
O O7 0.000000 0.465041 0.000000
O O8 0.364980 0.539075 0.886425
O O9 0.399903 0.358038 0.853250
O O10 0.500000 0.459992 0.000000
O O11 0.500000 0.579473 0.500000
O O12 0.232919 0.633402 0.762574
O O13 0.787644 0.161425 0.403105
O O14 0.527673 0.198239 0.753174
O O15 0.226948 0.710586 0.153031
O O16 0.500000 0.667056 0.000000
O O17 0.000000 0.786033 0.500000
#
# Coordination Sequence:
#
# PCOD8049617 Si02
#       7
#     4   4   4   4   4   4   4
#     4  11  23  40  68 100 142 181 252 300 349 441
#     4  10  21  42  69 101 139 187 236 295 365 435
#     4  12  23  40  73 108 136 193 259 297 355 440
#     4  12  25  44  70  98 148 191 245 307 374 421
#     4  10  23  42  64 104 146 187 242 301 374 425
#     4   9  19  38  74 108 138 181 248 294 361 444
#     4  10  20  41  71 105 138 189 243 297 352 446
#
# _framework density 24.778054000000001
#
# number of rings (size 3 to 8) (size 9 to 14) (size 15 to 20)
#    0.000    1.429    2.857    2.571    6.000    0.000 
#    2.571    4.286    6.286    0.857    0.000    0.000 
#    0.000    0.000    0.000    0.000    0.000    0.000 
#
# Total GULP energy -173567.310460 kJ/mol
# GULP energy per Si atom -12397.665033 kJ/mol
# Density = 2.472166 g / cm^3
# Si number density = 24.778054 Si / 1000 Ang^3
#
#
#
# Elastic Constant Matrix: (Units=GPa)
#
#
# Indices 1 2 3 4 5 6 
#
# 1 200.5616 36.1975 72.5534 0.0000 -1.7161 0.0000
# 2 36.1975 49.9689 43.5040 0.0000 10.5095 0.0000
# 3 72.5534 43.5040 129.2337 0.0000 1.5146 0.0000
# 4 0.0000 0.0000 0.0000 17.1186 0.0000 11.8985
# 5 -1.7161 10.5095 1.5146 0.0000 46.2000 0.0000
# 6 0.0000 0.0000 0.0000 11.8985 0.0000 31.2319
#
#
#
# Elastic Compliance Matrix: (Units=1/GPa)
#
#
# Indices 1 2 3 4 5 6 
#
# 1 0.006447 -0.002397 -0.002823 0.000000 0.000877 0.000000
# 2 -0.002397 0.031049 -0.009026 0.000000 -0.006856 0.000000
# 3 -0.002823 -0.009026 0.012343 0.000000 0.001544 0.000000
# 4 0.000000 0.000000 0.000000 0.079456 0.000000 -0.030270
# 5 0.000877 -0.006856 0.001544 0.000000 0.023187 0.000000
# 6 0.000000 0.000000 0.000000 -0.030270 0.000000 0.043551
#
#
# Mechanical properties :
#
#
# Convention : Reuss Voigt Hill
#
# Bulk Modulus (GPa) = 46.84411 76.03044 61.43727
# Shear Modulus (GPa) = 21.58515 34.07739 27.83127
#
# Velocity S-wave (km/s) = 2.95471 3.71253 3.35509
# Velocity P-wave (km/s) = 5.53055 7.00917 6.31329
#
# Compressibility (1/GPa) = 0.02134740
#
# Stress axis : x y z
#
# Youngs Moduli (GPa) = 155.10211 32.20696 81.01744
#
# Poissons Ratio (x) = 0.07721 0.22870
# Poissons Ratio (y) = 0.37183 0.73125
# Poissons Ratio (z) = 0.43784 0.29070
#
# Static dielectric constant tensor:
#      x y z
#    x 4.748810 0.000000 0.079710 
#    y 0.000000 3.866700 0.000000 
#    z 0.079710 0.000000 5.026860 
# 
# 
# High freq. dielectric constant tensor:
#      x y z
#    x 2.006060 0.000000 0.003500 
#    y 0.000000 1.946350 0.000000 
#    z 0.003500 0.000000 1.992490 
# 
# From -- ./inp_files/20554.got.cif
#   From: 2010.03.12/outbox.cif.g09.slc.cpg/sg5_11_cif.got.tgz:20554.got - 2010.03.31 09:47:26.
