data_PCOD8049229
_publ_section_title
;
Structure prediction by ZEFSAII (Michael W. Deem and Ramdas Pophale) SiO2 
 PCOD8049229
Probable space group: C 2
;
_chemical_formula_sum "Si O2"
_cell_formula_units_Z 28
_cell_length_a 8.523659
_cell_length_b 16.217212
_cell_length_c 11.385631
_cell_angle_alpha 90.000000
_cell_angle_beta 62.446982
_cell_angle_gamma 90.000000
_cell_volume 1395.336173
_symmetry_space_group_name_H-M "C 2"
_symmetry_group_IT_number 5
_symmetry_cell_setting 'monoclinic'
loop_
_space_group_symop_operation_xyz
x,y,z
-x,y,-z
1/2+x,1/2+y,z
1/2-x,1/2+y,-z
loop_
_atom_site_type_symbol
_atom_site_label
_atom_site_fract_x
_atom_site_fract_y
_atom_site_fract_z
Si Si1 0.745524 0.127210 0.577334
Si Si2 0.000000 0.668484 0.000000
Si Si3 0.000000 0.823145 0.500000
Si Si4 0.870361 0.595748 0.809771
Si Si5 0.677435 0.748261 0.241165
Si Si6 0.368248 0.932279 0.702093
Si Si7 0.705721 0.707690 0.689323
Si Si8 0.748256 0.454033 0.494870
O O1 0.538070 0.118416 0.671344
O O2 0.837444 0.188230 0.639510
O O3 0.775713 0.158756 0.437201
O O4 0.824312 0.033957 0.552006
O O5 0.157594 0.723338 0.895437
O O6 0.909380 0.612352 0.932206
O O7 0.865593 0.773865 0.631051
O O8 0.893521 0.881304 0.447995
O O9 0.820926 0.498281 0.820738
O O10 0.718303 0.652378 0.803495
O O11 0.721606 0.842914 0.256946
O O12 0.491890 0.745612 0.235750
O O13 0.298654 0.978494 0.609783
O O14 0.578483 0.917117 0.628424
#
# Coordination Sequence:
#
# PCOD8049229 Si02
#       8
#     4   2   2   4   4   4   4   4
#     4  10  20  37  61  96 131 161 191 244 319 384
#     4  10  26  48  62  82 114 180 218 262 304 348
#     4  12  22  32  54 102 134 154 190 236 314 384
#     4  10  21  41  66  85 127 161 212 254 310 369
#     4  11  24  40  65  90 124 166 213 256 303 365
#     4  10  20  39  62  93 122 164 201 256 306 368
#     4  12  21  37  61  96 124 162 197 256 318 372
#     4  10  21  33  56  98 137 156 187 239 322 383
#
# _framework density 20.066848
#
# number of rings (size 3 to 8) (size 9 to 14) (size 15 to 20)
#    0.000    1.429    4.286    1.286    6.000    0.571 
#    0.000    2.857    0.000    0.000    0.000    0.000 
#    0.000    0.000    0.000    0.000    0.000    0.000 
#
# Total GULP energy -173499.577569 kJ/mol
# GULP energy per Si atom -12392.826969 kJ/mol
# Density = 2.002117 g / cm^3
# Si number density = 20.066848 Si / 1000 Ang^3
#
#
#
# Elastic Constant Matrix: (Units=GPa)
#
#
# Indices 1 2 3 4 5 6 
#
# 1 100.7801 59.9599 35.8831 0.0000 6.2305 0.0000
# 2 59.9599 161.7845 48.6409 0.0000 8.5614 0.0000
# 3 35.8831 48.6409 84.6990 0.0000 13.7136 0.0000
# 4 0.0000 0.0000 0.0000 12.4109 0.0000 8.5176
# 5 6.2305 8.5614 13.7136 0.0000 26.1777 0.0000
# 6 0.0000 0.0000 0.0000 8.5176 0.0000 33.8471
#
#
#
# Elastic Compliance Matrix: (Units=1/GPa)
#
#
# Indices 1 2 3 4 5 6 
#
# 1 0.013512 -0.003972 -0.003423 0.000000 -0.000124 0.000000
# 2 -0.003972 0.008640 -0.003250 0.000000 -0.000178 0.000000
# 3 -0.003423 -0.003250 0.016193 0.000000 -0.006605 0.000000
# 4 0.000000 0.000000 0.000000 0.097395 0.000000 -0.024509
# 5 -0.000124 -0.000178 -0.006605 0.000000 0.041748 0.000000
# 6 0.000000 0.000000 0.000000 -0.024509 0.000000 0.035712
#
#
# Mechanical properties :
#
#
# Convention : Reuss Voigt Hill
#
# Bulk Modulus (GPa) = 58.63867 70.69236 64.66551
# Shear Modulus (GPa) = 20.81805 28.00579 24.41192
#
# Velocity S-wave (km/s) = 3.22442 3.73986 3.49166
# Velocity P-wave (km/s) = 6.56868 7.34531 6.96783
#
# Compressibility (1/GPa) = 0.01705359
#
# Stress axis : x y z
#
# Youngs Moduli (GPa) = 74.00608 115.74451 61.75601
#
# Poissons Ratio (x) = 0.45975 0.21142
# Poissons Ratio (y) = 0.29396 0.20071
# Poissons Ratio (z) = 0.25336 0.37618
#
# Static dielectric constant tensor:
#      x y z
#    x 3.858660 0.000000 -0.038510 
#    y 0.000000 3.789520 0.000000 
#    z -0.038510 0.000000 3.270840 
# 
# 
# High freq. dielectric constant tensor:
#      x y z
#    x 1.795120 0.000000 -0.001080 
#    y 0.000000 1.795280 0.000000 
#    z -0.001080 0.000000 1.738600 
# 
# From -- ./inp_files/35879.got.cif
#   From: 2010.03.12/outbox.cif.g09.slc.cpg/sg5_18_cif.got.tgz:35879.got - 2010.03.31 09:47:26.
