data_PCOD8049633
_publ_section_title
;
Structure prediction by ZEFSAII (Michael W. Deem and Ramdas Pophale) SiO2 
 PCOD8049633
Probable space group: C 2
;
_chemical_formula_sum "Si O2"
_cell_formula_units_Z 32
_cell_length_a 11.365261
_cell_length_b 7.384629
_cell_length_c 18.635847
_cell_angle_alpha 90.000000
_cell_angle_beta 98.263968
_cell_angle_gamma 90.000000
_cell_volume 1547.833010
_symmetry_space_group_name_H-M "C 2"
_symmetry_group_IT_number 5
_symmetry_cell_setting 'monoclinic'
loop_
_space_group_symop_operation_xyz
x,y,z
-x,y,-z
1/2+x,1/2+y,z
1/2-x,1/2+y,-z
loop_
_atom_site_type_symbol
_atom_site_label
_atom_site_fract_x
_atom_site_fract_y
_atom_site_fract_z
Si Si1 0.078475 0.125000 0.280506
Si Si2 0.157613 0.046312 0.660584
Si Si3 0.868467 0.329937 0.464412
Si Si4 0.725712 0.201478 0.586877
Si Si5 0.867524 0.718339 0.973614
Si Si6 0.206701 0.917457 0.895311
Si Si7 0.556031 0.362918 0.159421
Si Si8 0.634837 0.980222 0.216801
O O1 0.172505 0.124037 0.352733
O O2 0.054883 0.328494 0.248631
O O3 0.955568 0.051593 0.298920
O O4 0.126321 0.987063 0.222780
O O5 0.165470 0.210078 0.606278
O O6 0.274434 0.065727 0.718765
O O7 0.149213 0.853670 0.620026
O O8 0.778706 0.292230 0.520760
O O9 0.862374 0.539946 0.442028
O O10 0.000000 0.279251 0.500000
O O11 0.765512 0.595322 0.932539
O O12 0.888596 0.878913 0.916352
O O13 0.806629 0.773924 0.042479
O O14 0.000000 0.631445 0.000000
O O15 0.075959 0.948276 0.851550
O O16 0.294931 0.864485 0.838228
O O17 0.556370 0.147406 0.179768
#
# Coordination Sequence:
#
# PCOD8049633 Si02
#       8
#     4   4   4   4   4   4   4   4
#     4  11  23  42  67  94 127 170 208 258 324 372
#     4  11  23  44  65  94 129 164 214 260 316 380
#     4  12  24  41  65  93 126 169 215 257 319 376
#     4  11  25  42  65  94 128 167 210 264 312 375
#     4   9  21  39  61  91 129 166 212 266 307 372
#     4  10  20  42  63  92 127 169 211 257 318 369
#     4  10  21  43  63  92 132 163 213 265 309 374
#     4  10  23  42  64  95 128 162 214 265 309 376
#
# _framework density 20.674064000000001
#
# number of rings (size 3 to 8) (size 9 to 14) (size 15 to 20)
#    0.000    1.500    3.750    0.750    1.750    2.500 
#    9.000    0.000    0.000    0.000    0.000    0.000 
#    0.000    0.000    0.000    0.000    0.000    0.000 
#
# Total GULP energy -198326.890879 kJ/mol
# GULP energy per Si atom -12395.430680 kJ/mol
# Density = 2.062701 g / cm^3
# Si number density = 20.674064 Si / 1000 Ang^3
#
#
#
# Elastic Constant Matrix: (Units=GPa)
#
#
# Indices 1 2 3 4 5 6 
#
# 1 88.6738 47.5833 38.1291 0.0000 -7.5317 0.0000
# 2 47.5833 96.1631 43.0305 0.0000 -0.5461 0.0000
# 3 38.1291 43.0305 121.1166 0.0000 -2.3639 0.0000
# 4 0.0000 0.0000 0.0000 -14.3467 0.0000 5.5088
# 5 -7.5317 -0.5461 -2.3639 0.0000 14.3029 0.0000
# 6 0.0000 0.0000 0.0000 5.5088 0.0000 32.2144
#
#
#
# Elastic Compliance Matrix: (Units=1/GPa)
#
#
# Indices 1 2 3 4 5 6 
#
# 1 0.016951 -0.007164 -0.002631 0.000000 0.008218 0.000000
# 2 -0.007164 0.015393 -0.003286 0.000000 -0.003728 0.000000
# 3 -0.002631 -0.003286 0.010256 0.000000 0.000184 0.000000
# 4 0.000000 0.000000 0.000000 -0.065408 0.000000 0.011185
# 5 0.008218 -0.003728 0.000184 0.000000 0.074131 0.000000
# 6 0.000000 0.000000 0.000000 0.011185 0.000000 0.029129
#
#
# Mechanical properties :
#
#
# Convention : Reuss Voigt Hill
#
# Bulk Modulus (GPa) = 60.83486 62.60437 61.71962
# Shear Modulus (GPa) = 44.60569 18.24816 31.42692
#
# Velocity S-wave (km/s) = 4.65000 2.97418 3.90309
# Velocity P-wave (km/s) = 7.63673 6.49166 7.08736
#
# Compressibility (1/GPa) = 0.01643794
#
# Stress axis : x y z
#
# Youngs Moduli (GPa) = 58.99525 64.96418 97.50466
#
# Poissons Ratio (x) = 0.46538 0.25651
# Poissons Ratio (y) = 0.42262 0.32044
# Poissons Ratio (z) = 0.15520 0.21350
#
# Static dielectric constant tensor:
#      x y z
#    x 4.076580 0.000000 0.029790 
#    y 0.000000 3.562240 0.000000 
#    z 0.029790 0.000000 4.422950 
# 
# 
# High freq. dielectric constant tensor:
#      x y z
#    x 1.795300 0.000000 -0.000020 
#    y 0.000000 1.794970 0.000000 
#    z -0.000020 0.000000 1.844120 
# 
# From -- ./inp_files/64982.got.cif
#   From: 2010.03.12/outbox.cif.g09.slc.cpg/sg5_33_cif.got.tgz:64982.got - 2010.03.31 09:47:26.
