data_PCOD8049088
_publ_section_title
;
Structure prediction by ZEFSAII (Michael W. Deem and Ramdas Pophale) SiO2 
 PCOD8049088
Probable space group: C 2
;
_chemical_formula_sum "Si O2"
_cell_formula_units_Z 32
_cell_length_a 11.494046
_cell_length_b 8.838326
_cell_length_c 27.785631
_cell_angle_alpha 90.000000
_cell_angle_beta 149.280496
_cell_angle_gamma 90.000000
_cell_volume 1441.930599
_symmetry_space_group_name_H-M "C 2"
_symmetry_group_IT_number 5
_symmetry_cell_setting 'monoclinic'
loop_
_space_group_symop_operation_xyz
x,y,z
-x,y,-z
1/2+x,1/2+y,z
1/2-x,1/2+y,-z
loop_
_atom_site_type_symbol
_atom_site_label
_atom_site_fract_x
_atom_site_fract_y
_atom_site_fract_z
Si Si1 0.730126 0.239100 0.111096
Si Si2 0.706667 0.737765 0.234048
Si Si3 0.310980 0.240399 0.711626
Si Si4 0.425447 0.178834 0.565654
Si Si5 0.415589 0.991796 0.238705
Si Si6 0.091062 0.985260 0.762730
Si Si7 0.906733 0.239143 0.638603
Si Si8 0.928035 0.371108 0.522939
O O1 0.735491 0.389351 0.145851
O O2 0.937827 0.236635 0.146916
O O3 0.732814 0.094672 0.147457
O O4 0.500000 0.236975 0.000000
O O5 0.783038 0.593225 0.230146
O O6 0.775664 0.888228 0.229771
O O7 0.817185 0.725073 0.327856
O O8 0.476011 0.385466 0.764124
O O9 0.164804 0.238757 0.708557
O O10 0.126373 0.251236 0.603652
O O11 0.452583 0.087419 0.755139
O O12 0.306745 0.242877 0.474437
O O13 0.292582 0.264177 0.561775
O O14 0.400429 0.996493 0.555565
O O15 0.605711 0.887893 0.332839
O O16 0.893435 0.084321 0.665275
O O17 0.000000 0.457534 0.500000
#
# Coordination Sequence:
#
# PCOD8049088 Si02
#       8
#     4   4   4   4   4   4   4   4
#     4  11  25  44  65  89 114 148 199 254 310 365
#     4  11  22  40  60  86 124 156 194 246 294 352
#     4  10  20  37  59  85 120 160 197 239 291 348
#     4  11  22  36  58  89 124 166 206 237 281 344
#     4  10  22  40  63  89 118 158 199 243 300 351
#     4  10  21  39  62  88 120 158 195 240 301 354
#     4  10  20  36  57  88 127 161 200 241 278 339
#     4  11  22  36  54  82 123 165 205 244 278 331
#
# _framework density 22.192468999999999
#
# number of rings (size 3 to 8) (size 9 to 14) (size 15 to 20)
#    0.000    1.500    0.000    6.750    0.000    3.000 
#    0.000    5.625    0.000    0.000    0.000    0.000 
#    0.000    0.000    0.000    0.000    0.000    0.000 
#
# Total GULP energy -198239.332292 kJ/mol
# GULP energy per Si atom -12389.958268 kJ/mol
# Density = 2.214196 g / cm^3
# Si number density = 22.192469 Si / 1000 Ang^3
#
#
#
# Elastic Constant Matrix: (Units=GPa)
#
#
# Indices 1 2 3 4 5 6 
#
# 1 76.5742 41.9040 20.9960 0.0000 -0.1168 0.0000
# 2 41.9040 133.4519 38.4913 0.0000 -2.2937 0.0000
# 3 20.9960 38.4913 134.7730 0.0001 -1.7810 0.0000
# 4 0.0000 0.0000 0.0001 19.1117 0.0000 1.4989
# 5 -0.1168 -2.2937 -1.7810 0.0000 25.7649 0.0000
# 6 0.0000 0.0000 0.0000 1.4989 0.0000 11.8085
#
#
#
# Elastic Compliance Matrix: (Units=1/GPa)
#
#
# Indices 1 2 3 4 5 6 
#
# 1 0.015935 -0.004679 -0.001152 0.000000 -0.000424 0.000000
# 2 -0.004679 0.009548 -0.001989 0.000000 0.000691 0.000000
# 3 -0.001152 -0.001989 0.008172 0.000000 0.000383 0.000000
# 4 0.000000 0.000000 0.000000 0.052850 0.000000 -0.006709
# 5 -0.000424 0.000691 0.000383 0.000000 0.038899 0.000000
# 6 0.000000 0.000000 0.000000 -0.006709 0.000000 0.085537
#
#
# Mechanical properties :
#
#
# Convention : Reuss Voigt Hill
#
# Bulk Modulus (GPa) = 55.50485 60.84240 58.17363
# Shear Modulus (GPa) = 21.49758 27.56420 24.53089
#
# Velocity S-wave (km/s) = 3.11575 3.52810 3.32832
# Velocity P-wave (km/s) = 6.16513 6.63867 6.40628
#
# Compressibility (1/GPa) = 0.01801644
#
# Stress axis : x y z
#
# Youngs Moduli (GPa) = 62.75624 104.73454 122.36286
#
# Poissons Ratio (x) = 0.49001 0.14094
# Poissons Ratio (y) = 0.29361 0.24337
# Poissons Ratio (z) = 0.07228 0.20831
#
# Static dielectric constant tensor:
#      x y z
#    x 4.288200 0.000000 -0.018570 
#    y 0.000000 4.230080 0.000000 
#    z -0.018570 0.000000 3.553600 
# 
# 
# High freq. dielectric constant tensor:
#      x y z
#    x 1.882370 0.000000 0.001460 
#    y 0.000000 1.895230 0.000000 
#    z 0.001460 0.000000 1.828850 
# 
# From -- ./inp_files/71772.got.cif
#   From: 2010.03.12/outbox.cif.g09.slc.cpg/sg5_36_cif.got.tgz:71772.got - 2010.03.31 09:47:26.
