data_PCOD8049274
_publ_section_title
;
Structure prediction by ZEFSAII (Michael W. Deem and Ramdas Pophale) SiO2 
 PCOD8049274
Probable space group: C 2
;
_chemical_formula_sum "Si O2"
_cell_formula_units_Z 28
_cell_length_a 6.401364
_cell_length_b 15.976703
_cell_length_c 16.290657
_cell_angle_alpha 90.000000
_cell_angle_beta 125.968228
_cell_angle_gamma 90.000000
_cell_volume 1348.437429
_symmetry_space_group_name_H-M "C 2"
_symmetry_group_IT_number 5
_symmetry_cell_setting 'monoclinic'
loop_
_space_group_symop_operation_xyz
x,y,z
-x,y,-z
1/2+x,1/2+y,z
1/2-x,1/2+y,-z
loop_
_atom_site_type_symbol
_atom_site_label
_atom_site_fract_x
_atom_site_fract_y
_atom_site_fract_z
Si Si1 0.500000 0.309070 0.500000
Si Si2 0.955097 0.271160 0.328696
Si Si3 0.656989 0.482928 0.796645
Si Si4 0.445684 0.145085 0.822359
Si Si5 0.641717 0.529941 0.118002
Si Si6 0.233249 0.902967 0.403430
Si Si7 0.000000 0.750702 0.000000
Si Si8 0.064024 0.363877 0.843200
O O1 0.243869 0.251389 0.429395
O O2 0.548197 0.368385 0.432494
O O3 0.771033 0.190098 0.282453
O O4 0.804124 0.331832 0.354524
O O5 0.005297 0.307352 0.250418
O O6 0.859879 0.550714 0.815678
O O7 0.576705 0.518609 0.865212
O O8 0.416300 0.476663 0.678579
O O9 0.804789 0.392237 0.833087
O O10 0.505235 0.194838 0.919557
O O11 0.710649 0.120443 0.834921
O O12 0.809124 0.446469 0.164532
O O13 0.500000 0.534800 0.000000
O O14 0.500000 0.941226 0.500000
O O15 0.749857 0.810977 0.945922
#
# Coordination Sequence:
#
# PCOD8049274 Si02
#       8
#     2   4   4   4   4   4   2   4
#     4  10  20  38  70  92 124 156 220 266 320 376
#     4  10  20  40  61  95 121 162 207 265 317 379
#     4  11  22  41  64  92 123 174 208 263 324 378
#     4  10  24  39  61  89 136 162 206 262 325 377
#     4  11  22  40  59  92 129 169 208 261 310 383
#     4  10  21  37  67  93 120 162 216 264 316 381
#     4  10  20  44  58  96 130 172 218 264 308 384
#     4  10  20  37  66  87 123 160 219 259 306 376
#
# _framework density 20.764776999999999
#
# number of rings (size 3 to 8) (size 9 to 14) (size 15 to 20)
#    0.000    1.714    3.571    0.857    0.000    2.857 
#    3.857    1.429    4.714    0.000    0.000    0.000 
#    0.000    0.000    0.000    0.000    0.000    0.000 
#
# Total GULP energy -173475.501054 kJ/mol
# GULP energy per Si atom -12391.107218 kJ/mol
# Density = 2.071751 g / cm^3
# Si number density = 20.764777 Si / 1000 Ang^3
#
#
#
# Elastic Constant Matrix: (Units=GPa)
#
#
# Indices 1 2 3 4 5 6 
#
# 1 106.9415 28.0415 36.6516 0.0000 -5.4506 0.0000
# 2 28.0415 79.0057 35.5385 0.0000 6.1528 0.0000
# 3 36.6516 35.5385 111.6595 0.0000 6.9571 0.0000
# 4 0.0000 0.0000 0.0000 40.0853 0.0000 22.7020
# 5 -5.4506 6.1528 6.9571 0.0000 28.9329 0.0000
# 6 0.0000 0.0000 0.0000 22.7020 0.0000 36.7120
#
#
#
# Elastic Compliance Matrix: (Units=1/GPa)
#
#
# Indices 1 2 3 4 5 6 
#
# 1 0.011328 -0.002943 -0.002998 0.000000 0.003481 0.000000
# 2 -0.002943 0.015656 -0.003833 0.000000 -0.002962 0.000000
# 3 -0.002998 -0.003833 0.011314 0.000000 -0.002470 0.000000
# 4 0.000000 0.000000 0.000000 0.038392 0.000000 -0.023741
# 5 0.003481 -0.002962 -0.002470 0.000000 0.036442 0.000000
# 6 0.000000 0.000000 0.000000 -0.023741 0.000000 0.041920
#
#
# Mechanical properties :
#
#
# Convention : Reuss Voigt Hill
#
# Bulk Modulus (GPa) = 53.33283 55.34111 54.33697
# Shear Modulus (GPa) = 27.64716 34.30439 30.97577
#
# Velocity S-wave (km/s) = 3.65286 4.06895 3.86650
# Velocity P-wave (km/s) = 6.59782 6.98458 6.79395
#
# Compressibility (1/GPa) = 0.01875018
#
# Stress axis : x y z
#
# Youngs Moduli (GPa) = 88.27987 63.87140 88.38800
#
# Poissons Ratio (x) = 0.18796 0.26503
# Poissons Ratio (y) = 0.25979 0.33875
# Poissons Ratio (z) = 0.26471 0.24479
#
# Static dielectric constant tensor:
#      x y z
#    x 4.011860 0.000000 0.295020 
#    y 0.000000 3.689420 0.000000 
#    z 0.295020 0.000000 3.981470 
# 
# 
# High freq. dielectric constant tensor:
#      x y z
#    x 1.823980 0.000000 0.015620 
#    y 0.000000 1.791100 0.000000 
#    z 0.015620 0.000000 1.819700 
# 
# From -- ./inp_files/49098.got.cif
#   From: 2010.03.12/outbox.cif.g09.slc.cpg/sg5_25_cif.got.tgz:49098.got - 2010.03.31 09:47:26.
