data_PCOD8049123
_publ_section_title
;
Structure prediction by ZEFSAII (Michael W. Deem and Ramdas Pophale) SiO2 
 PCOD8049123
Probable space group: C 2
;
_chemical_formula_sum "Si O2"
_cell_formula_units_Z 30
_cell_length_a 16.735294
_cell_length_b 16.113698
_cell_length_c 11.283059
_cell_angle_alpha 90.000000
_cell_angle_beta 151.330824
_cell_angle_gamma 90.000000
_cell_volume 1459.727546
_symmetry_space_group_name_H-M "C 2"
_symmetry_group_IT_number 5
_symmetry_cell_setting 'monoclinic'
loop_
_space_group_symop_operation_xyz
x,y,z
-x,y,-z
1/2+x,1/2+y,z
1/2-x,1/2+y,-z
loop_
_atom_site_type_symbol
_atom_site_label
_atom_site_fract_x
_atom_site_fract_y
_atom_site_fract_z
Si Si1 0.669577 0.326910 0.653313
Si Si2 0.824102 0.348244 0.234800
Si Si3 0.222810 0.898381 0.349816
Si Si4 0.923005 0.428769 0.122397
Si Si5 0.523322 0.276552 0.227510
Si Si6 0.032018 0.606538 0.740320
Si Si7 0.759581 0.638442 0.203168
Si Si8 0.000000 0.040758 0.000000
O O1 0.500000 0.346758 0.500000
O O2 0.621801 0.330956 0.453580
O O3 0.740372 0.236843 0.777278
O O4 0.810658 0.394856 0.868403
O O5 0.771681 0.406893 0.275245
O O6 0.841319 0.403827 0.140885
O O7 0.000000 0.303809 0.500000
O O8 0.676507 0.283454 0.022861
O O9 0.389704 0.892880 0.646315
O O10 0.108472 0.815270 0.220487
O O11 0.119447 0.982689 0.236789
O O12 0.933216 0.528319 0.130652
O O13 0.543310 0.178363 0.272050
O O14 0.199575 0.627558 0.883626
O O15 0.891957 0.590553 0.458708
O O16 0.582808 0.599930 0.008582
#
# Coordination Sequence:
#
# PCOD8049123 Si02
#       8
#     4   4   4   4   4   4   4   2
#     4  11  21  40  63  91 125 173 214 251 319 394
#     4  10  20  36  65  92 116 158 214 268 308 373
#     4  11  23  36  61  96 124 157 208 270 327 368
#     4  11  22  38  63  95 124 160 216 264 316 379
#     4  11  21  40  62  86 131 173 207 256 325 388
#     4  10  20  36  61  86 123 171 211 265 309 376
#     4  10  20  36  61  93 123 160 219 272 318 357
#     4  12  20  34  62  98 122 150 210 286 322 350
#
# _framework density 20.551780000000001
#
# number of rings (size 3 to 8) (size 9 to 14) (size 15 to 20)
#    0.000    1.333    6.667    0.800    3.733    2.667 
#    0.000    0.667    5.867    0.000    0.000    0.000 
#    0.000    0.000    0.000    0.000    0.000    0.000 
#
# Total GULP energy -185882.485978 kJ/mol
# GULP energy per Si atom -12392.165732 kJ/mol
# Density = 2.050500 g / cm^3
# Si number density = 20.551780 Si / 1000 Ang^3
#
#
#
# Elastic Constant Matrix: (Units=GPa)
#
#
# Indices 1 2 3 4 5 6 
#
# 1 63.2904 16.7933 21.4245 0.0000 22.4227 0.0000
# 2 16.7933 86.4010 44.5881 0.0000 10.4331 0.0000
# 3 21.4245 44.5881 124.3712 0.0000 11.2740 0.0000
# 4 0.0000 0.0000 0.0000 34.9176 0.0000 1.3077
# 5 22.4227 10.4331 11.2740 0.0000 31.5508 0.0000
# 6 0.0000 0.0000 0.0000 1.3077 0.0000 24.6785
#
#
#
# Elastic Compliance Matrix: (Units=1/GPa)
#
#
# Indices 1 2 3 4 5 6 
#
# 1 0.021967 -0.001534 -0.001927 0.000000 -0.014415 0.000000
# 2 -0.001534 0.014584 -0.004781 0.000000 -0.002024 0.000000
# 3 -0.001927 -0.004781 0.010148 0.000000 -0.000675 0.000000
# 4 0.000000 0.000000 0.000000 0.028696 0.000000 -0.001521
# 5 -0.014415 -0.002024 -0.000675 0.000000 0.042850 0.000000
# 6 0.000000 0.000000 0.000000 -0.001521 0.000000 0.040602
#
#
# Mechanical properties :
#
#
# Convention : Reuss Voigt Hill
#
# Bulk Modulus (GPa) = 33.09754 48.85270 40.97512
# Shear Modulus (GPa) = 26.96851 30.97983 28.97417
#
# Velocity S-wave (km/s) = 3.62639 3.88674 3.75882
# Velocity P-wave (km/s) = 5.80291 6.63057 6.23050
#
# Compressibility (1/GPa) = 0.03021372
#
# Stress axis : x y z
#
# Youngs Moduli (GPa) = 45.52318 68.57013 98.54592
#
# Poissons Ratio (x) = 0.10521 0.18992
# Poissons Ratio (y) = 0.06985 0.47111
# Poissons Ratio (z) = 0.08774 0.32781
#
# Static dielectric constant tensor:
#      x y z
#    x 3.785210 0.000000 0.199190 
#    y 0.000000 3.465300 0.000000 
#    z 0.199190 0.000000 3.933330 
# 
# 
# High freq. dielectric constant tensor:
#      x y z
#    x 1.798790 0.000000 0.018160 
#    y 0.000000 1.783570 0.000000 
#    z 0.018160 0.000000 1.797710 
# 
# From -- ./inp_files/20607.got.cif
#   From: 2010.03.12/outbox.cif.g09.slc.cpg/sg5_11_cif.got.tgz:20607.got - 2010.03.31 09:47:26.
