data_PCOD8049061
_publ_section_title
;
Structure prediction by ZEFSAII (Michael W. Deem and Ramdas Pophale) SiO2 
 PCOD8049061
Probable space group: C 2
;
_chemical_formula_sum "Si O2"
_cell_formula_units_Z 30
_cell_length_a 5.133938
_cell_length_b 19.346479
_cell_length_c 14.481422
_cell_angle_alpha 90.000000
_cell_angle_beta 98.040488
_cell_angle_gamma 90.000000
_cell_volume 1424.207600
_symmetry_space_group_name_H-M "C 2"
_symmetry_group_IT_number 5
_symmetry_cell_setting 'monoclinic'
loop_
_space_group_symop_operation_xyz
x,y,z
-x,y,-z
1/2+x,1/2+y,z
1/2-x,1/2+y,-z
loop_
_atom_site_type_symbol
_atom_site_label
_atom_site_fract_x
_atom_site_fract_y
_atom_site_fract_z
Si Si1 0.275895 0.665740 0.769710
Si Si2 0.765156 0.595913 0.557922
Si Si3 0.626362 0.343229 0.246636
Si Si4 0.411473 0.922894 0.807923
Si Si5 0.955546 0.739232 0.603289
Si Si6 0.285454 0.074107 0.757750
Si Si7 0.100127 0.755750 0.913781
Si Si8 0.500000 0.862978 0.000000
O O1 0.213835 0.707582 0.670765
O O2 0.512985 0.612337 0.769237
O O3 0.315800 0.716823 0.859375
O O4 0.019005 0.625690 0.793061
O O5 0.500000 0.569936 0.500000
O O6 0.801451 0.551333 0.651497
O O7 0.000000 0.581530 0.500000
O O8 0.746786 0.676463 0.586978
O O9 0.341488 0.378019 0.230261
O O10 0.664346 0.303055 0.345760
O O11 0.634381 0.285358 0.164748
O O12 0.858164 0.400235 0.252414
O O13 0.542387 0.910450 0.913277
O O14 0.325750 0.002305 0.810897
O O15 0.000000 0.764323 0.500000
O O16 0.239747 0.819073 0.971420
O O17 0.000000 0.712151 0.000000
#
# Coordination Sequence:
#
# PCOD8049061 Si02
#       8
#     4   4   4   4   4   4   4   2
#     4  10  23  37  62  91 122 159 196 251 319 354
#     4  10  20  35  61  87 114 158 199 242 305 362
#     4  10  22  37  60  90 116 158 202 244 304 353
#     4  11  23  41  61  82 120 167 203 245 287 363
#     4   9  19  36  61  92 124 152 196 255 308 364
#     4  11  22  41  58  86 125 159 204 249 290 360
#     4  10  20  37  63  89 123 149 202 259 311 372
#     4  10  22  38  64  86 114 162 212 236 308 372
#
# _framework density 21.064343999999998
#
# number of rings (size 3 to 8) (size 9 to 14) (size 15 to 20)
#    0.000    1.867    1.333    3.200    1.867    8.533 
#    1.200    2.000    0.000    0.000    0.000    0.000 
#    0.000    0.000    0.000    0.000    0.000    0.000 
#
# Total GULP energy -185858.939128 kJ/mol
# GULP energy per Si atom -12390.595942 kJ/mol
# Density = 2.101640 g / cm^3
# Si number density = 21.064344 Si / 1000 Ang^3
#
#
#
# Elastic Constant Matrix: (Units=GPa)
#
#
# Indices 1 2 3 4 5 6 
#
# 1 118.6076 33.5304 38.4917 0.0000 -2.1760 0.0000
# 2 33.5304 80.1928 46.8489 0.0000 -8.1969 0.0000
# 3 38.4917 46.8489 141.0624 0.0000 -21.6302 0.0000
# 4 0.0000 0.0000 0.0000 30.7659 0.0000 0.9384
# 5 -2.1760 -8.1969 -21.6302 0.0000 24.9727 0.0000
# 6 0.0000 0.0000 0.0000 0.9384 0.0000 34.9542
#
#
#
# Elastic Compliance Matrix: (Units=1/GPa)
#
#
# Indices 1 2 3 4 5 6 
#
# 1 0.009932 -0.003217 -0.001927 0.000000 -0.001859 0.000000
# 2 -0.003217 0.016525 -0.004407 0.000000 0.001327 0.000000
# 3 -0.001927 -0.004407 0.010183 0.000000 0.007206 0.000000
# 4 0.000000 0.000000 0.000000 0.032530 0.000000 -0.000873
# 5 -0.001859 0.001327 0.007206 0.000000 0.046559 0.000000
# 6 0.000000 0.000000 0.000000 -0.000873 0.000000 0.028632
#
#
# Mechanical properties :
#
#
# Convention : Reuss Voigt Hill
#
# Bulk Modulus (GPa) = 57.01679 64.17833 60.59756
# Shear Modulus (GPa) = 29.53167 32.87135 31.20151
#
# Velocity S-wave (km/s) = 3.74836 3.95463 3.85287
# Velocity P-wave (km/s) = 6.77202 7.16840 6.97303
#
# Compressibility (1/GPa) = 0.01753869
#
# Stress axis : x y z
#
# Youngs Moduli (GPa) = 100.68639 60.51324 98.19905
#
# Poissons Ratio (x) = 0.19468 0.18921
# Poissons Ratio (y) = 0.32393 0.43276
# Poissons Ratio (z) = 0.19400 0.26668
#
# Static dielectric constant tensor:
#      x y z
#    x 3.646060 0.000000 -0.131350 
#    y 0.000000 3.605880 0.000000 
#    z -0.131350 0.000000 4.249300 
# 
# 
# High freq. dielectric constant tensor:
#      x y z
#    x 1.824020 0.000000 -0.004280 
#    y 0.000000 1.794680 0.000000 
#    z -0.004280 0.000000 1.835980 
# 
# From -- ./inp_files/49360.got.cif
#   From: 2010.03.12/outbox.cif.g09.slc.cpg/sg5_25_cif.got.tgz:49360.got - 2010.03.31 09:47:26.
