data_PCOD8049647
_publ_section_title
;
Structure prediction by ZEFSAII (Michael W. Deem and Ramdas Pophale) SiO2 
 PCOD8049647
Probable space group: C 2
;
_chemical_formula_sum "Si O2"
_cell_formula_units_Z 26
_cell_length_a 9.645488
_cell_length_b 18.734225
_cell_length_c 9.051097
_cell_angle_alpha 90.000000
_cell_angle_beta 45.113467
_cell_angle_gamma 90.000000
_cell_volume 1158.789422
_symmetry_space_group_name_H-M "C 2"
_symmetry_group_IT_number 5
_symmetry_cell_setting 'monoclinic'
loop_
_space_group_symop_operation_xyz
x,y,z
-x,y,-z
1/2+x,1/2+y,z
1/2-x,1/2+y,-z
loop_
_atom_site_type_symbol
_atom_site_label
_atom_site_fract_x
_atom_site_fract_y
_atom_site_fract_z
Si Si1 0.730364 0.458250 0.128083
Si Si2 0.189238 0.836002 0.944538
Si Si3 0.329771 0.641545 0.507570
Si Si4 0.586159 0.588357 0.088482
Si Si5 0.000000 0.402843 0.500000
Si Si6 0.561918 0.181344 0.111038
Si Si7 0.370485 0.989012 0.325016
O O1 0.570904 0.519789 0.211020
O O2 0.748986 0.445873 0.290140
O O3 0.688129 0.380382 0.096532
O O4 0.911062 0.492051 0.902148
O O5 0.373212 0.851529 0.700306
O O6 0.183865 0.753497 0.993887
O O7 0.000000 0.860777 0.000000
O O8 0.500000 0.654078 0.500000
O O9 0.437541 0.646914 0.269016
O O10 0.214385 0.567588 0.609562
O O11 0.147894 0.697871 0.650231
O O12 0.500000 0.561470 0.000000
O O13 0.799206 0.624952 0.908850
O O14 0.867379 0.452174 0.489960
O O15 0.500000 0.147220 0.000000
#
# Coordination Sequence:
#
# PCOD8049647 Si02
#       7
#     4   4   4   4   2   4   4
#     4  10  20  42  65  99 139 182 216 293 350 413
#     4  10  24  42  69  93 141 181 232 284 348 415
#     4  12  23  39  73 100 130 187 232 285 350 412
#     4  12  26  41  70 101 142 180 238 290 354 409
#     4  10  24  42  66 108 134 182 230 288 352 422
#     4  11  23  46  67  97 140 185 238 287 341 421
#     4  10  21  37  67 104 136 168 229 288 347 410
#
# _framework density 22.437207999999998
#
# number of rings (size 3 to 8) (size 9 to 14) (size 15 to 20)
#    0.000    1.231    4.615    0.462    6.462    3.077 
#    5.538    0.000    6.769    0.000    0.000    0.000 
#    0.000    0.000    0.000    0.000    0.000    0.000 
#
# Total GULP energy -161083.552968 kJ/mol
# GULP energy per Si atom -12391.042536 kJ/mol
# Density = 2.238614 g / cm^3
# Si number density = 22.437208 Si / 1000 Ang^3
#
#
#
# Elastic Constant Matrix: (Units=GPa)
#
#
# Indices 1 2 3 4 5 6 
#
# 1 133.4983 46.4289 20.2408 0.0000 23.7848 0.0000
# 2 46.4289 85.5071 9.0952 0.0000 6.6805 0.0000
# 3 20.2408 9.0952 60.7585 0.0000 2.9684 0.0000
# 4 0.0000 0.0000 0.0000 27.6366 0.0000 -10.3294
# 5 23.7848 6.6805 2.9684 0.0000 43.3834 0.0000
# 6 0.0000 0.0000 0.0000 -10.3294 0.0000 20.5861
#
#
#
# Elastic Compliance Matrix: (Units=1/GPa)
#
#
# Indices 1 2 3 4 5 6 
#
# 1 0.010481 -0.005050 -0.002501 0.000000 -0.004797 0.000000
# 2 -0.005050 0.014446 -0.000508 0.000000 0.000579 0.000000
# 3 -0.002501 -0.000508 0.017355 0.000000 0.000262 0.000000
# 4 0.000000 0.000000 0.000000 0.044536 0.000000 0.022347
# 5 -0.004797 0.000579 0.000262 0.000000 0.025573 0.000000
# 6 0.000000 0.000000 0.000000 0.022347 0.000000 0.059789
#
#
# Mechanical properties :
#
#
# Convention : Reuss Voigt Hill
#
# Bulk Modulus (GPa) = 38.22258 47.92152 43.07205
# Shear Modulus (GPa) = 25.37797 31.92116 28.64957
#
# Velocity S-wave (km/s) = 3.36678 3.77595 3.57722
# Velocity P-wave (km/s) = 5.67327 6.35726 6.02498
#
# Compressibility (1/GPa) = 0.02616255
#
# Stress axis : x y z
#
# Youngs Moduli (GPa) = 95.41002 69.22369 57.61982
#
# Poissons Ratio (x) = 0.34959 0.14412
# Poissons Ratio (y) = 0.48184 0.02929
# Poissons Ratio (z) = 0.23864 0.03519
#
# Static dielectric constant tensor:
#      x y z
#    x 4.273120 0.000000 -0.238530 
#    y 0.000000 3.745860 0.000000 
#    z -0.238530 0.000000 4.338720 
# 
# 
# High freq. dielectric constant tensor:
#      x y z
#    x 1.885950 0.000000 -0.015660 
#    y 0.000000 1.860160 0.000000 
#    z -0.015660 0.000000 1.888780 
# 
# From -- ./inp_files/17015.got.cif
#   From: 2010.03.12/outbox.cif.g09.slc.cpg/sg5_9_cif.got.tgz:17015.got - 2010.03.31 09:47:26.
