data_PCOD8049657
_publ_section_title
;
Structure prediction by ZEFSAII (Michael W. Deem and Ramdas Pophale) SiO2 
 PCOD8049657
Probable space group: C 2
;
_chemical_formula_sum "Si O2"
_cell_formula_units_Z 28
_cell_length_a 17.770373
_cell_length_b 8.837532
_cell_length_c 14.499078
_cell_angle_alpha 90.000000
_cell_angle_beta 37.291460
_cell_angle_gamma 90.000000
_cell_volume 1379.581158
_symmetry_space_group_name_H-M "C 2"
_symmetry_group_IT_number 5
_symmetry_cell_setting 'monoclinic'
loop_
_space_group_symop_operation_xyz
x,y,z
-x,y,-z
1/2+x,1/2+y,z
1/2-x,1/2+y,-z
loop_
_atom_site_type_symbol
_atom_site_label
_atom_site_fract_x
_atom_site_fract_y
_atom_site_fract_z
Si Si1 0.807598 0.300720 0.008140
Si Si2 0.968312 0.476330 0.129172
Si Si3 0.268994 0.740194 0.253886
Si Si4 0.580527 0.468165 0.504250
Si Si5 0.338785 0.497726 0.312448
Si Si6 0.587247 0.492916 0.155773
Si Si7 0.231373 0.663606 0.588939
O O1 0.861222 0.163486 0.895221
O O2 0.912319 0.423551 0.929547
O O3 0.754001 0.242226 0.158109
O O4 0.701881 0.376302 0.046510
O O5 0.885725 0.332166 0.180656
O O6 0.905138 0.594448 0.261014
O O7 0.000000 0.557858 0.000000
O O8 0.142239 0.805359 0.421736
O O9 0.293170 0.565331 0.259220
O O10 0.500000 0.529746 0.500000
O O11 0.496532 0.453707 0.675104
O O12 0.685891 0.595105 0.409966
O O13 0.489389 0.474800 0.166223
O O14 0.292664 0.621329 0.431979
O O15 0.268719 0.343334 0.403653
#
# Coordination Sequence:
#
# PCOD8049657 Si02
#       7
#     4   4   4   4   4   4   4
#     4  11  23  41  62  93 132 174 203 267 332 386
#     4   9  19  38  62  87 122 170 211 252 319 390
#     4  10  20  43  68  87 120 173 220 260 320 387
#     4  10  20  42  67  88 124 171 217 262 327 383
#     4  11  22  41  65  95 122 167 221 268 314 382
#     4  11  24  39  64  91 131 167 211 270 323 385
#     4  10  22  37  65  92 123 161 216 272 315 375
#
# _framework density 20.296015000000001
#
# number of rings (size 3 to 8) (size 9 to 14) (size 15 to 20)
#    0.000    1.714    2.857    2.571    4.000    0.000 
#    5.143    0.714    0.000    0.000    0.000    0.000 
#    0.000    0.000    0.000    0.000    0.000    0.000 
#
# Total GULP energy -173548.140794 kJ/mol
# GULP energy per Si atom -12396.295771 kJ/mol
# Density = 2.024982 g / cm^3
# Si number density = 20.296015 Si / 1000 Ang^3
#
#
#
# Elastic Constant Matrix: (Units=GPa)
#
#
# Indices 1 2 3 4 5 6 
#
# 1 88.6373 34.1367 22.3575 0.0000 -15.7714 0.0000
# 2 34.1367 91.8507 18.8411 0.0000 -10.3804 0.0000
# 3 22.3575 18.8411 84.1407 0.0000 -13.3206 0.0000
# 4 0.0000 0.0000 0.0000 67.1836 0.0000 -6.5113
# 5 -15.7714 -10.3804 -13.3206 0.0000 25.8593 0.0000
# 6 0.0000 0.0000 0.0000 -6.5113 0.0000 25.9950
#
#
#
# Elastic Compliance Matrix: (Units=1/GPa)
#
#
# Indices 1 2 3 4 5 6 
#
# 1 0.014517 -0.004308 -0.001922 0.000000 0.006135 0.000000
# 2 -0.004308 0.012998 -0.001476 0.000000 0.001830 0.000000
# 3 -0.001922 -0.001476 0.013552 0.000000 0.005216 0.000000
# 4 0.000000 0.000000 0.000000 0.015255 0.000000 0.003821
# 5 0.006135 0.001830 0.005216 0.000000 0.045834 0.000000
# 6 0.000000 0.000000 0.000000 0.003821 0.000000 0.039426
#
#
# Mechanical properties :
#
#
# Convention : Reuss Voigt Hill
#
# Bulk Modulus (GPa) = 38.97775 46.14436 42.56105
# Shear Modulus (GPa) = 30.20323 36.42714 33.31518
#
# Velocity S-wave (km/s) = 3.86182 4.24110 4.05589
# Velocity P-wave (km/s) = 6.25549 6.83868 6.55358
#
# Compressibility (1/GPa) = 0.02565567
#
# Stress axis : x y z
#
# Youngs Moduli (GPa) = 68.88321 76.93558 73.79084
#
# Poissons Ratio (x) = 0.33143 0.14180
# Poissons Ratio (y) = 0.29674 0.10893
# Poissons Ratio (z) = 0.13237 0.11357
#
# Static dielectric constant tensor:
#      x y z
#    x 2.175270 0.000000 -0.045970 
#    y 0.000000 3.463780 0.000000 
#    z -0.045970 0.000000 3.842910 
# 
# 
# High freq. dielectric constant tensor:
#      x y z
#    x 1.787550 0.000000 -0.011520 
#    y 0.000000 1.774240 0.000000 
#    z -0.011520 0.000000 1.799550 
# 
# From -- ./inp_files/45992.got.cif
#   From: 2010.03.12/outbox.cif.g09.slc.cpg/sg5_23_cif.got.tgz:45992.got - 2010.03.31 09:47:26.
