data_PCOD8049590
_publ_section_title
;
Structure prediction by ZEFSAII (Michael W. Deem and Ramdas Pophale) SiO2 
 PCOD8049590
Probable space group: C 2
;
_chemical_formula_sum "Si O2"
_cell_formula_units_Z 26
_cell_length_a 20.674132
_cell_length_b 10.612161
_cell_length_c 4.977293
_cell_angle_alpha 90.000000
_cell_angle_beta 63.915405
_cell_angle_gamma 90.000000
_cell_volume 980.779048
_symmetry_space_group_name_H-M "C 2"
_symmetry_group_IT_number 5
_symmetry_cell_setting 'monoclinic'
loop_
_space_group_symop_operation_xyz
x,y,z
-x,y,-z
1/2+x,1/2+y,z
1/2-x,1/2+y,-z
loop_
_atom_site_type_symbol
_atom_site_label
_atom_site_fract_x
_atom_site_fract_y
_atom_site_fract_z
Si Si1 0.500000 0.133721 0.500000
Si Si2 0.069344 0.870673 0.516267
Si Si3 0.567595 0.921553 0.045235
Si Si4 0.144488 0.053175 0.735875
Si Si5 0.193982 0.562215 0.612898
Si Si6 0.197291 0.737141 0.105374
Si Si7 0.641761 0.720694 0.238117
O O1 0.547448 0.224341 0.609899
O O2 0.550041 0.053074 0.217082
O O3 0.142640 0.858479 0.195980
O O4 0.000000 0.938585 0.500000
O O5 0.088567 0.942426 0.757873
O O6 0.500000 0.869672 0.000000
O O7 0.583709 0.823656 0.254962
O O8 0.635683 0.947196 0.719832
O O9 0.225899 0.001856 0.548244
O O10 0.131905 0.098001 0.063366
O O11 0.129867 0.173300 0.564069
O O12 0.182287 0.662490 0.404226
O O13 0.182222 0.637671 0.904934
O O14 0.279742 0.785197 0.941273
#
# Coordination Sequence:
#
# PCOD8049590 Si02
#       7
#     2   4   4   4   4   4   4
#     4  10  24  44  62 102 124 180 220 268 340 384
#     4  10  21  41  68  93 138 166 219 270 328 392
#     4  12  25  41  67  96 138 175 220 277 329 400
#     4  10  23  45  65 100 125 178 220 271 329 396
#     4  10  21  39  68  92 134 164 223 269 328 387
#     4  10  20  41  64 100 125 171 217 271 325 395
#     4  10  25  42  69  93 133 172 224 268 332 387
#
# _framework density 26.509536000000001
#
# number of rings (size 3 to 8) (size 9 to 14) (size 15 to 20)
#    0.462    1.231    1.538    1.846    2.154    2.462 
#    2.769   10.769    0.000    0.000    0.000    0.000 
#    0.000    0.000    0.000    0.000    0.000    0.000 
#
# Total GULP energy -161163.249199 kJ/mol
# GULP energy per Si atom -12397.173015 kJ/mol
# Density = 2.644920 g / cm^3
# Si number density = 26.509536 Si / 1000 Ang^3
#
#
#
# Elastic Constant Matrix: (Units=GPa)
#
#
# Indices 1 2 3 4 5 6 
#
# 1 169.1604 27.0404 -8.2771 0.0000 -9.3562 0.0000
# 2 27.0404 59.1970 -25.7225 0.0000 -9.5346 0.0000
# 3 -8.2771 -25.7225 53.4579 0.0000 22.6430 0.0000
# 4 0.0000 0.0000 0.0000 -3.9334 0.0000 -9.2781
# 5 -9.3562 -9.5346 22.6430 0.0000 35.7378 0.0000
# 6 0.0000 0.0000 0.0000 -9.2781 0.0000 48.3171
#
#
#
# Elastic Compliance Matrix: (Units=1/GPa)
#
#
# Indices 1 2 3 4 5 6 
#
# 1 0.006456 -0.003226 -0.001236 0.000000 0.001612 0.000000
# 2 -0.003226 0.023003 0.011382 0.000000 -0.001919 0.000000
# 3 -0.001236 0.011382 0.031221 0.000000 -0.017068 0.000000
# 4 0.000000 0.000000 0.000000 -0.174977 0.000000 -0.033600
# 5 0.001612 -0.001919 -0.017068 0.000000 0.038706 0.000000
# 6 0.000000 0.000000 0.000000 -0.033600 0.000000 0.014245
#
#
# Mechanical properties :
#
#
# Convention : Reuss Voigt Hill
#
# Bulk Modulus (GPa) = 13.41932 29.76630 21.59281
# Shear Modulus (GPa) = -99.31311 35.27593 -32.01859
#
# Velocity S-wave (km/s) = -6.12736 3.65182 -3.47913
# Velocity P-wave (km/s) = 6.70718 5.38831 2.82421
#
# Compressibility (1/GPa) = 0.07451942
#
# Stress axis : x y z
#
# Youngs Moduli (GPa) = 154.89503 43.47262 32.02964
#
# Poissons Ratio (x) = 0.14025 0.03958
# Poissons Ratio (y) = 0.49973 -0.36455
# Poissons Ratio (z) = 0.19141 -0.49479
#
# Static dielectric constant tensor:
#      x y z
#    x 5.258260 0.000000 -0.113510 
#    y 0.000000 4.307830 0.000000 
#    z -0.113510 0.000000 4.472790 
# 
# 
# High freq. dielectric constant tensor:
#      x y z
#    x 2.088400 0.000000 -0.002610 
#    y 0.000000 2.045450 0.000000 
#    z -0.002610 0.000000 2.049280 
# 
# From -- ./inp_files/9426.got.cif
#   From: 2010.03.12/outbox.cif.g09.slc.cpg/sg5_5_cif.got.tgz:9426.got - 2010.03.31 09:47:26.
