data_PCOD8049399
_publ_section_title
;
Structure prediction by ZEFSAII (Michael W. Deem and Ramdas Pophale) SiO2 
 PCOD8049399
Probable space group: C 2
;
_chemical_formula_sum "Si O2"
_cell_formula_units_Z 28
_cell_length_a 15.504488
_cell_length_b 5.078920
_cell_length_c 18.266755
_cell_angle_alpha 90.000000
_cell_angle_beta 121.042514
_cell_angle_gamma 90.000000
_cell_volume 1232.429287
_symmetry_space_group_name_H-M "C 2"
_symmetry_group_IT_number 5
_symmetry_cell_setting 'monoclinic'
loop_
_space_group_symop_operation_xyz
x,y,z
-x,y,-z
1/2+x,1/2+y,z
1/2-x,1/2+y,-z
loop_
_atom_site_type_symbol
_atom_site_label
_atom_site_fract_x
_atom_site_fract_y
_atom_site_fract_z
Si Si1 0.449024 0.126980 0.735128
Si Si2 0.735703 0.051204 0.446581
Si Si3 0.311182 0.394953 0.834503
Si Si4 0.515675 0.626075 0.164712
Si Si5 0.371786 0.176448 0.285901
Si Si6 0.779487 0.212307 0.055502
Si Si7 0.672789 0.686310 0.660253
O O1 0.373133 0.061570 0.637030
O O2 0.441755 0.432193 0.754066
O O3 0.559042 0.088009 0.750030
O O4 0.444428 0.919724 0.800681
O O5 0.744443 0.258679 0.515874
O O6 0.817679 0.113533 0.420152
O O7 0.426893 0.505371 0.882922
O O8 0.240627 0.654298 0.797148
O O9 0.280350 0.235623 0.893887
O O10 0.282933 0.212430 0.749785
O O11 0.395055 0.611648 0.109218
O O12 0.392756 0.464262 0.326970
O O13 0.385744 0.962374 0.357733
O O14 0.781104 0.492795 0.016033
#
# Coordination Sequence:
#
# PCOD8049399 Si02
#       7
#     4   4   4   4   4   4   4
#     4  12  22  43  70 107 129 188 246 283 343 443
#     4  12  25  42  63 101 146 177 223 307 364 403
#     4  10  24  43  76  98 133 188 236 290 338 435
#     4  12  24  44  77 101 133 195 248 274 354 442
#     4  10  20  38  70  96 127 170 244 288 323 402
#     4  12  28  47  70 108 154 181 229 317 376 412
#     4  10  21  41  65  97 128 181 234 271 344 421
#
# _framework density 22.719355
#
# number of rings (size 3 to 8) (size 9 to 14) (size 15 to 20)
#    0.857    0.000    2.857    5.143    2.000    0.571 
#    0.000    5.714    0.000    0.000    0.000    0.000 
#    0.000    0.000    0.000    0.000    0.000    0.000 
#
# Total GULP energy -173460.480010 kJ/mol
# GULP energy per Si atom -12390.034286 kJ/mol
# Density = 2.266764 g / cm^3
# Si number density = 22.719355 Si / 1000 Ang^3
#
#
#
# Elastic Constant Matrix: (Units=GPa)
#
#
# Indices 1 2 3 4 5 6 
#
# 1 122.1583 10.9331 22.9541 0.0000 -3.4440 -0.0001
# 2 10.9331 101.5070 14.8334 0.0001 4.1823 0.0000
# 3 22.9541 14.8334 73.7943 0.0000 -7.2026 0.0000
# 4 0.0000 0.0001 0.0000 42.8413 0.0000 -5.3159
# 5 -3.4440 4.1823 -7.2026 0.0000 34.7488 0.0001
# 6 -0.0001 0.0000 0.0000 -5.3159 0.0001 34.4434
#
#
#
# Elastic Compliance Matrix: (Units=1/GPa)
#
#
# Indices 1 2 3 4 5 6 
#
# 1 0.008731 -0.000583 -0.002559 0.000000 0.000405 0.000000
# 2 -0.000583 0.010285 -0.002054 0.000000 -0.001722 0.000000
# 3 -0.002559 -0.002054 0.015064 0.000000 0.003116 0.000000
# 4 0.000000 0.000000 0.000000 0.023798 0.000000 0.003673
# 5 0.000405 -0.001722 0.003116 0.000000 0.029671 0.000000
# 6 0.000000 0.000000 0.000000 0.003673 0.000000 0.029600
#
#
# Mechanical properties :
#
#
# Convention : Reuss Voigt Hill
#
# Bulk Modulus (GPa) = 42.21571 43.87785 43.04678
# Shear Modulus (GPa) = 36.91744 38.98930 37.95337
#
# Velocity S-wave (km/s) = 4.03542 4.14711 4.09165
# Velocity P-wave (km/s) = 6.35095 6.50279 6.42732
#
# Compressibility (1/GPa) = 0.02368787
#
# Stress axis : x y z
#
# Youngs Moduli (GPa) = 114.54044 97.22477 66.38263
#
# Poissons Ratio (x) = 0.05669 0.16987
# Poissons Ratio (y) = 0.06679 0.13636
# Poissons Ratio (z) = 0.29310 0.19971
#
# Static dielectric constant tensor:
#      x y z
#    x 4.205820 0.000000 -0.115190 
#    y 0.000000 4.064110 0.000000 
#    z -0.115190 0.000000 3.709200 
# 
# 
# High freq. dielectric constant tensor:
#      x y z
#    x 1.909130 0.000000 -0.011920 
#    y 0.000000 1.911260 0.000000 
#    z -0.011920 0.000000 1.857550 
# 
# From -- ./inp_files/61146.got.cif
#   From: 2010.03.12/outbox.cif.g09.slc.cpg/sg5_31_cif.got.tgz:61146.got - 2010.03.31 09:47:26.
