data_PCOD8049206
_publ_section_title
;
Structure prediction by ZEFSAII (Michael W. Deem and Ramdas Pophale) SiO2 
 PCOD8049206
Probable space group: C 2
;
_chemical_formula_sum "Si O2"
_cell_formula_units_Z 32
_cell_length_a 22.558983
_cell_length_b 8.858770
_cell_length_c 14.129498
_cell_angle_alpha 90.000000
_cell_angle_beta 145.230840
_cell_angle_gamma 90.000000
_cell_volume 1610.279776
_symmetry_space_group_name_H-M "C 2"
_symmetry_group_IT_number 5
_symmetry_cell_setting 'monoclinic'
loop_
_space_group_symop_operation_xyz
x,y,z
-x,y,-z
1/2+x,1/2+y,z
1/2-x,1/2+y,-z
loop_
_atom_site_type_symbol
_atom_site_label
_atom_site_fract_x
_atom_site_fract_y
_atom_site_fract_z
Si Si1 0.033239 0.231820 0.913663
Si Si2 0.615883 0.251225 0.375324
Si Si3 0.955559 0.495103 0.198790
Si Si4 0.119541 0.832645 0.168300
Si Si5 0.190055 0.735700 0.056348
Si Si6 0.831639 0.157335 0.737197
Si Si7 0.073886 0.241063 0.682975
Si Si8 0.050995 0.986819 0.794450
O O1 0.018162 0.401261 0.859878
O O2 0.917835 0.160968 0.768706
O O3 0.088110 0.118782 0.913389
O O4 0.109980 0.245375 0.102670
O O5 0.629618 0.236239 0.278833
O O6 0.727957 0.245226 0.571785
O O7 0.561057 0.409838 0.330638
O O8 0.547991 0.116196 0.330556
O O9 0.946292 0.381186 0.273802
O O10 0.846122 0.577806 0.036635
O O11 0.153186 0.742423 0.118208
O O12 0.191559 0.982108 0.268903
O O13 0.000000 0.886413 0.000000
O O14 0.311936 0.747265 0.209898
O O15 0.140370 0.862920 0.923552
O O16 0.000000 0.272519 0.500000
O O17 0.049468 0.072992 0.691736
#
# Coordination Sequence:
#
# PCOD8049206 Si02
#       8
#     4   4   4   4   4   4   4   4
#     4  10  20  37  60  87 128 169 204 256 310 386
#     4  11  24  38  65  98 127 168 205 269 312 380
#     4  10  24  41  62  95 123 162 216 261 314 370
#     4  12  20  42  67  94 131 173 206 250 324 388
#     4  11  22  43  69  90 122 174 214 255 310 384
#     4  11  21  35  59  95 129 167 209 250 321 375
#     4  11  26  42  65  93 127 165 211 272 316 366
#     4  10  20  43  65  83 123 170 213 250 318 380
#
# _framework density 19.872323000000002
#
# number of rings (size 3 to 8) (size 9 to 14) (size 15 to 20)
#    0.000    1.250    6.250    0.750    3.500    4.000 
#    0.000    2.500    0.000    0.000    0.000    0.000 
#    0.000    0.000    0.000    0.000    0.000    0.000 
#
# Total GULP energy -198294.640793 kJ/mol
# GULP energy per Si atom -12393.415050 kJ/mol
# Density = 1.982709 g / cm^3
# Si number density = 19.872323 Si / 1000 Ang^3
#
#
#
# Elastic Constant Matrix: (Units=GPa)
#
#
# Indices 1 2 3 4 5 6 
#
# 1 101.7449 45.1925 54.8784 0.0000 -6.2043 0.0000
# 2 45.1925 100.1353 46.7121 0.0000 -5.6026 0.0000
# 3 54.8784 46.7121 151.9497 0.0000 12.6639 0.0000
# 4 0.0000 0.0000 0.0000 23.0083 0.0000 -3.8637
# 5 -6.2043 -5.6026 12.6639 0.0000 16.3471 0.0000
# 6 0.0000 0.0000 0.0000 -3.8637 0.0000 27.1574
#
#
#
# Elastic Compliance Matrix: (Units=1/GPa)
#
#
# Indices 1 2 3 4 5 6 
#
# 1 0.014605 -0.003955 -0.004712 0.000000 0.007838 0.000000
# 2 -0.003955 0.013590 -0.003221 0.000000 0.005652 0.000000
# 3 -0.004712 -0.003221 0.010171 0.000000 -0.010771 0.000000
# 4 0.000000 0.000000 0.000000 0.044526 0.000000 0.006335
# 5 0.007838 0.005652 -0.010771 0.000000 0.074429 0.000000
# 6 0.000000 0.000000 0.000000 0.006335 0.000000 0.037724
#
#
# Mechanical properties :
#
#
# Convention : Reuss Voigt Hill
#
# Bulk Modulus (GPa) = 68.53716 71.93288 70.23502
# Shear Modulus (GPa) = 22.35310 27.10567 24.72939
#
# Velocity S-wave (km/s) = 3.35750 3.69723 3.53145
# Velocity P-wave (km/s) = 7.04230 7.38256 7.21443
#
# Compressibility (1/GPa) = 0.01459062
#
# Stress axis : x y z
#
# Youngs Moduli (GPa) = 68.47168 73.58458 98.32109
#
# Poissons Ratio (x) = 0.29099 0.46331
# Poissons Ratio (y) = 0.27077 0.31665
# Poissons Ratio (z) = 0.32265 0.23698
#
# Static dielectric constant tensor:
#      x y z
#    x 3.686110 0.000000 -0.048270 
#    y 0.000000 3.687100 0.000000 
#    z -0.048270 0.000000 3.500340 
# 
# 
# High freq. dielectric constant tensor:
#      x y z
#    x 1.767470 0.000000 -0.002150 
#    y 0.000000 1.781770 0.000000 
#    z -0.002150 0.000000 1.769950 
# 
# From -- ./inp_files/57676.got.cif
#   From: 2010.03.12/outbox.cif.g09.slc.cpg/sg5_29_cif.got.tgz:57676.got - 2010.03.31 09:47:26.
