data_PCOD8049704
_publ_section_title
;
Structure prediction by ZEFSAII (Michael W. Deem and Ramdas Pophale) SiO2 
 PCOD8049704
Probable space group: C 2
;
_chemical_formula_sum "Si O2"
_cell_formula_units_Z 20
_cell_length_a 11.923665
_cell_length_b 5.284707
_cell_length_c 20.580086
_cell_angle_alpha 90.000000
_cell_angle_beta 146.059107
_cell_angle_gamma 90.000000
_cell_volume 724.059998
_symmetry_space_group_name_H-M "C 2"
_symmetry_group_IT_number 5
_symmetry_cell_setting 'monoclinic'
loop_
_space_group_symop_operation_xyz
x,y,z
-x,y,-z
1/2+x,1/2+y,z
1/2-x,1/2+y,-z
loop_
_atom_site_type_symbol
_atom_site_label
_atom_site_fract_x
_atom_site_fract_y
_atom_site_fract_z
Si Si1 0.700386 0.469700 0.764042
Si Si2 0.413208 0.185794 0.721579
Si Si3 0.753935 0.289455 0.100750
Si Si4 0.005886 0.016285 0.125128
Si Si5 0.845105 0.128285 0.516358
O O1 0.532841 0.389448 0.736030
O O2 0.825508 0.678531 0.867206
O O3 0.838671 0.244481 0.806069
O O4 0.580953 0.574622 0.643582
O O5 0.384978 0.283247 0.783189
O O6 0.199601 0.141702 0.582909
O O7 0.539129 0.930083 0.783995
O O8 0.807334 0.079694 0.072199
O O9 0.577912 0.464379 0.987262
O O10 0.791190 0.397872 0.522476
#
# Coordination Sequence:
#
# PCOD8049704 Si02
#       5
#     4   4   4   4   4
#     4  10  24  44  76 110 147 212 264 312 404 481
#     4  10  22  44  74 107 152 200 256 330 396 454
#     4  11  22  46  70 108 153 200 252 334 391 460
#     4  11  24  45  73 112 155 198 262 328 392 478
#     4  10  20  43  80 109 150 204 265 325 394 476
#
# _framework density 27.622019000000002
#
# number of rings (size 3 to 8) (size 9 to 14) (size 15 to 20)
#    0.000    1.600    4.000    0.000    0.000    2.400 
#    3.600    1.000    8.800    2.400    0.000    0.000 
#    0.000    0.000    0.000    0.000    0.000    0.000 
#
# Total GULP energy -124000.834548 kJ/mol
# GULP energy per Si atom -12400.083455 kJ/mol
# Density = 2.755915 g / cm^3
# Si number density = 27.622019 Si / 1000 Ang^3
#
#
#
# Elastic Constant Matrix: (Units=GPa)
#
#
# Indices 1 2 3 4 5 6 
#
# 1 115.8157 21.5821 72.2176 -0.0001 -43.0190 0.0000
# 2 21.5821 87.9513 30.1200 -0.0005 -10.5009 0.0006
# 3 72.2176 30.1200 174.9217 -0.0001 -33.9951 0.0001
# 4 -0.0001 -0.0005 -0.0001 54.8172 0.0000 2.1226
# 5 -43.0190 -10.5009 -33.9951 0.0000 59.0554 0.0000
# 6 0.0000 0.0006 0.0001 2.1226 0.0000 55.6503
#
#
#
# Elastic Compliance Matrix: (Units=1/GPa)
#
#
# Indices 1 2 3 4 5 6 
#
# 1 0.014397 -0.001150 -0.004220 0.000000 0.007854 0.000000
# 2 -0.001150 0.012235 -0.001545 0.000000 0.000448 0.000000
# 3 -0.004220 -0.001545 0.007965 0.000000 0.001237 0.000000
# 4 0.000000 0.000000 0.000000 0.018269 0.000000 -0.000697
# 5 0.007854 0.000448 0.001237 0.000000 0.023446 0.000000
# 6 0.000000 0.000000 0.000000 -0.000697 0.000000 0.017996
#
#
# Mechanical properties :
#
#
# Convention : Reuss Voigt Hill
#
# Bulk Modulus (GPa) = 48.14991 69.61425 58.88208
# Shear Modulus (GPa) = 43.45538 50.88916 47.17227
#
# Velocity S-wave (km/s) = 3.97068 4.29691 4.13701
# Velocity P-wave (km/s) = 6.20414 7.06223 6.64704
#
# Compressibility (1/GPa) = 0.02076847
#
# Stress axis : x y z
#
# Youngs Moduli (GPa) = 69.45768 81.73472 125.54529
#
# Poissons Ratio (x) = 0.09400 0.52974
# Poissons Ratio (y) = 0.07988 0.19393
# Poissons Ratio (z) = 0.29308 0.12626
#
# Static dielectric constant tensor:
#      x y z
#    x 5.215860 0.000000 -0.479750 
#    y 0.000000 5.112160 0.000000 
#    z -0.479750 0.000000 5.529810 
# 
# 
# High freq. dielectric constant tensor:
#      x y z
#    x 2.140780 0.000000 -0.013870 
#    y 0.000000 2.116650 0.000000 
#    z -0.013870 0.000000 2.141300 
# 
# From -- ./inp_files/68518.got.cif
#   From: 2010.03.12/outbox.cif.g09.slc.cpg/sg5_35_cif.got.tgz:68518.got - 2010.03.31 09:47:26.
