data_PCOD8049741
_publ_section_title
;
Structure prediction by ZEFSAII (Michael W. Deem and Ramdas Pophale) SiO2 
 PCOD8049741
Probable space group: C 2
;
_chemical_formula_sum "Si O2"
_cell_formula_units_Z 22
_cell_length_a 15.035582
_cell_length_b 8.852800
_cell_length_c 17.816335
_cell_angle_alpha 90.000000
_cell_angle_beta 24.350911
_cell_angle_gamma 90.000000
_cell_volume 977.817757
_symmetry_space_group_name_H-M "C 2"
_symmetry_group_IT_number 5
_symmetry_cell_setting 'monoclinic'
loop_
_space_group_symop_operation_xyz
x,y,z
-x,y,-z
1/2+x,1/2+y,z
1/2-x,1/2+y,-z
loop_
_atom_site_type_symbol
_atom_site_label
_atom_site_fract_x
_atom_site_fract_y
_atom_site_fract_z
Si Si1 0.380167 0.338720 0.882108
Si Si2 0.133033 0.709517 0.824444
Si Si3 0.428518 0.252191 0.418908
Si Si4 0.500000 0.478409 0.500000
Si Si5 0.226986 0.037807 0.785230
Si Si6 0.528634 0.660925 0.797289
O O1 0.463032 0.244567 0.889494
O O2 0.530295 0.314964 0.695113
O O3 0.380042 0.515439 0.900231
O O4 0.131588 0.296420 0.057233
O O5 0.289892 0.579021 0.676181
O O6 0.271957 0.860683 0.736088
O O7 0.000000 0.655409 0.000000
O O8 0.466210 0.380422 0.451695
O O9 0.580210 0.105648 0.314099
O O10 0.176235 0.203295 0.612282
O O11 0.210397 0.133020 0.721263
O O12 0.000000 0.057956 0.000000
#
# Coordination Sequence:
#
# PCOD8049741 Si02
#       6
#     4   4   4   2   4   4
#     4  11  28  44  70 102 140 182 234 290 343 419
#     4  10  27  47  70 100 137 184 233 290 348 411
#     4  12  26  44  72 104 138 186 234 287 343 416
#     4  12  28  42  72 104 140 184 230 292 346 414
#     4  10  20  47  73  96 133 185 232 280 343 413
#     4  11  25  44  68 100 138 181 229 288 348 400
#
# _framework density 22.499082000000001
#
# number of rings (size 3 to 8) (size 9 to 14) (size 15 to 20)
#    0.000    1.091    3.636    0.000   12.727    0.727 
#    0.000    0.000    0.000    0.000    0.000    0.000 
#    0.000    0.000    0.000    0.000    0.000    0.000 
#
# Total GULP energy -136443.238988 kJ/mol
# GULP energy per Si atom -12403.930817 kJ/mol
# Density = 2.244787 g / cm^3
# Si number density = 22.499082 Si / 1000 Ang^3
#
#
#
# Elastic Constant Matrix: (Units=GPa)
#
#
# Indices 1 2 3 4 5 6 
#
# 1 67.4937 21.9036 19.6737 0.0020 25.4824 -0.0003
# 2 21.9036 77.7013 36.6280 -0.0065 -12.2124 0.0003
# 3 19.6737 36.6280 134.2433 -0.0004 13.6432 0.0019
# 4 0.0020 -0.0065 -0.0004 40.5900 0.0026 4.8193
# 5 25.4824 -12.2124 13.6432 0.0026 37.4096 -0.0024
# 6 -0.0003 0.0003 0.0019 4.8193 -0.0024 11.1479
#
#
#
# Elastic Compliance Matrix: (Units=1/GPa)
#
#
# Indices 1 2 3 4 5 6 
#
# 1 0.026772 -0.011883 0.001627 -0.000001 -0.022709 -0.000004
# 2 -0.011883 0.021760 -0.005961 0.000003 0.017372 0.000003
# 3 0.001627 -0.005961 0.009500 0.000000 -0.006519 -0.000003
# 4 -0.000001 0.000003 0.000000 0.025970 -0.000001 -0.011227
# 5 -0.022709 0.017372 -0.006519 -0.000001 0.050248 0.000011
# 6 -0.000004 0.000003 -0.000003 -0.011227 0.000011 0.094557
#
#
# Mechanical properties :
#
#
# Convention : Reuss Voigt Hill
#
# Bulk Modulus (GPa) = 39.06723 48.42766 43.74744
# Shear Modulus (GPa) = 18.53409 31.24504 24.88956
#
# Velocity S-wave (km/s) = 2.87326 3.73060 3.32964
# Velocity P-wave (km/s) = 5.33002 6.33463 5.85391
#
# Compressibility (1/GPa) = 0.02559690
#
# Stress axis : x y z
#
# Youngs Moduli (GPa) = 37.35234 45.95609 105.26582
#
# Poissons Ratio (x) = 0.54609 -0.17122
# Poissons Ratio (y) = 0.44385 0.62751
# Poissons Ratio (z) = -0.06076 0.27395
#
# Static dielectric constant tensor:
#      x y z
#    x 4.019010 -0.000010 0.215890 
#    y -0.000010 4.169030 0.000020 
#    z 0.215890 0.000020 4.120580 
# 
# 
# High freq. dielectric constant tensor:
#      x y z
#    x 1.878030 0.000000 0.011540 
#    y 0.000000 1.893650 0.000000 
#    z 0.011540 0.000000 1.902720 
# 
# From -- ./inp_files/61410.got.cif
#   From: 2010.03.12/outbox.cif.g09.slc.cpg/sg5_31_cif.got.tgz:61410.got - 2010.03.31 09:47:26.
