data_PCOD8049841
_publ_section_title
;
Structure prediction by ZEFSAII (Michael W. Deem and Ramdas Pophale) SiO2 
 PCOD8049841
Probable space group: C 2
;
_chemical_formula_sum "Si O2"
_cell_formula_units_Z 30
_cell_length_a 14.665419
_cell_length_b 10.922569
_cell_length_c 24.738434
_cell_angle_alpha 90.000000
_cell_angle_beta 156.744970
_cell_angle_gamma 90.000000
_cell_volume 1564.572123
_symmetry_space_group_name_H-M "C 2"
_symmetry_group_IT_number 5
_symmetry_cell_setting 'monoclinic'
loop_
_space_group_symop_operation_xyz
x,y,z
-x,y,-z
1/2+x,1/2+y,z
1/2-x,1/2+y,-z
loop_
_atom_site_type_symbol
_atom_site_label
_atom_site_fract_x
_atom_site_fract_y
_atom_site_fract_z
Si Si1 0.930655 0.443260 0.020001
Si Si2 0.597125 0.816703 0.214342
Si Si3 0.500000 0.936045 0.500000
Si Si4 0.248046 0.485772 0.383178
Si Si5 0.131538 0.080302 0.729969
Si Si6 0.028767 0.081660 0.242551
Si Si7 0.927995 0.845112 0.573141
Si Si8 0.360223 0.721399 0.499544
O O1 0.963864 0.346666 0.086463
O O2 0.090938 0.565568 0.113938
O O3 0.663129 0.480160 0.874929
O O4 0.000000 0.381707 0.000000
O O5 0.489648 0.695728 0.181614
O O6 0.866661 0.787078 0.350505
O O7 0.571451 0.934068 0.241647
O O8 0.446695 0.848717 0.521989
O O9 0.720337 0.022008 0.630090
O O10 0.500000 0.454466 0.500000
O O11 0.225907 0.408349 0.426841
O O12 0.235232 0.632690 0.387191
O O13 0.009756 0.134091 0.717489
O O14 0.080309 0.155216 0.647192
O O15 0.035459 0.943345 0.672390
O O16 0.821190 0.738848 0.551235
#
# Coordination Sequence:
#
# PCOD8049841 Si02
#       8
#     4   4   2   4   4   4   4   4
#     4   9  21  42  59  79 111 160 207 226 288 358
#     4  10  21  37  60  84 111 155 201 239 284 352
#     4  12  26  34  54  96 122 148 184 252 314 326
#     4   9  18  32  54  83 111 152 192 228 282 344
#     4   9  19  37  60  80 115 162 196 222 288 358
#     4  11  23  39  59  88 120 148 193 254 294 342
#     4   9  18  32  53  84 120 153 187 228 288 349
#     4  11  20  34  55  89 125 149 186 245 290 348
#
# _framework density 19.174571
#
# number of rings (size 3 to 8) (size 9 to 14) (size 15 to 20)
#    0.000    2.133    2.000    1.600    4.667    1.067 
#    0.000    0.000    0.000    0.000    0.000    0.000 
#    0.000    0.000    0.000    0.000    0.000    0.000 
#
# Total GULP energy -185898.601447 kJ/mol
# GULP energy per Si atom -12393.240096 kJ/mol
# Density = 1.913093 g / cm^3
# Si number density = 19.174571 Si / 1000 Ang^3
#
#
#
# Elastic Constant Matrix: (Units=GPa)
#
#
# Indices 1 2 3 4 5 6 
#
# 1 105.6717 44.5970 32.0440 0.0018 -12.0615 0.0000
# 2 44.5970 77.6636 27.2114 0.0109 -6.5259 -0.0029
# 3 32.0440 27.2114 78.4623 0.0372 -4.3252 -0.0044
# 4 0.0018 0.0109 0.0372 15.8641 -0.0064 -5.6152
# 5 -12.0615 -6.5259 -4.3252 -0.0064 32.8722 0.0002
# 6 0.0000 -0.0029 -0.0044 -5.6152 0.0002 44.1585
#
#
#
# Elastic Compliance Matrix: (Units=1/GPa)
#
#
# Indices 1 2 3 4 5 6 
#
# 1 0.013468 -0.006369 -0.003111 0.000012 0.003268 0.000001
# 2 -0.006369 0.017837 -0.003544 -0.000003 0.000738 0.000000
# 3 -0.003111 -0.003544 0.015254 -0.000034 0.000162 -0.000003
# 4 0.000012 -0.000003 -0.000034 0.066007 0.000012 0.008393
# 5 0.003268 0.000738 0.000162 0.000012 0.031788 0.000001
# 6 0.000001 0.000000 -0.000003 0.008393 0.000001 0.023713
#
#
# Mechanical properties :
#
#
# Convention : Reuss Voigt Hill
#
# Bulk Modulus (GPa) = 48.75779 52.16693 50.46236
# Shear Modulus (GPa) = 24.88170 29.10865 26.99517
#
# Velocity S-wave (km/s) = 3.60619 3.90049 3.75622
# Velocity P-wave (km/s) = 6.54393 6.89568 6.72211
#
# Compressibility (1/GPa) = 0.02050955
#
# Stress axis : x y z
#
# Youngs Moduli (GPa) = 74.25242 56.06297 65.55760
#
# Poissons Ratio (x) = 0.35706 0.20397
# Poissons Ratio (y) = 0.47290 0.23236
# Poissons Ratio (z) = 0.23102 0.19871
#
# Static dielectric constant tensor:
#      x y z
#    x 3.863640 0.000010 -0.184200 
#    y 0.000010 3.266280 -0.000020 
#    z -0.184200 -0.000020 3.388660 
# 
# 
# High freq. dielectric constant tensor:
#      x y z
#    x 1.764060 0.000000 -0.013080 
#    y 0.000000 1.725450 0.000000 
#    z -0.013080 0.000000 1.717300 
# 
# From -- ./inp_files/70700.got.cif
#   From: 2010.03.12/outbox.cif.g09.slc.cpg/sg5_36_cif.got.tgz:70700.got - 2010.03.31 09:47:26.
