data_PCOD8049689
_publ_section_title
;
Structure prediction by ZEFSAII (Michael W. Deem and Ramdas Pophale) SiO2 
 PCOD8049689
Probable space group: C 2
;
_chemical_formula_sum "Si O2"
_cell_formula_units_Z 26
_cell_length_a 13.874206
_cell_length_b 5.039397
_cell_length_c 19.845677
_cell_angle_alpha 90.000000
_cell_angle_beta 122.382700
_cell_angle_gamma 90.000000
_cell_volume 1171.782411
_symmetry_space_group_name_H-M "C 2"
_symmetry_group_IT_number 5
_symmetry_cell_setting 'monoclinic'
loop_
_space_group_symop_operation_xyz
x,y,z
-x,y,-z
1/2+x,1/2+y,z
1/2-x,1/2+y,-z
loop_
_atom_site_type_symbol
_atom_site_label
_atom_site_fract_x
_atom_site_fract_y
_atom_site_fract_z
Si Si1 0.433692 0.472110 0.354611
Si Si2 0.833732 0.941168 0.180246
Si Si3 0.000000 0.838735 0.000000
Si Si4 0.803864 0.989133 0.551321
Si Si5 0.695802 0.435662 0.161869
Si Si6 0.677300 0.253825 0.965150
Si Si7 0.789400 0.458068 0.336401
O O1 0.427894 0.519900 0.271021
O O2 0.565828 0.426843 0.420667
O O3 0.386090 0.731393 0.374326
O O4 0.356382 0.232171 0.351779
O O5 0.784686 0.665536 0.185986
O O6 0.881080 0.886634 0.122859
O O7 0.736435 0.165509 0.140272
O O8 0.080594 0.661932 0.981831
O O9 0.924677 0.012968 0.918752
O O10 0.724359 0.788876 0.480207
O O11 0.783437 0.957717 0.622959
O O12 0.694706 0.395368 0.242577
O O13 0.751285 0.491592 0.027419
#
# Coordination Sequence:
#
# PCOD8049689 Si02
#       7
#     4   4   2   4   4   4   4
#     4  10  23  42  68  89 127 168 201 253 320 358
#     4  10  20  43  59  87 125 165 208 258 300 374
#     4  12  24  38  66  92 124 174 204 260 322 346
#     4  12  26  42  67 100 127 158 211 251 310 386
#     4  10  22  39  64  90 125 162 216 251 309 366
#     4  12  24  40  59  90 128 162 211 261 308 364
#     4  10  23  44  64  94 128 166 206 258 302 374
#
# _framework density 22.188417999999999
#
# number of rings (size 3 to 8) (size 9 to 14) (size 15 to 20)
#    0.000    1.231    3.077    1.846    2.154    6.154 
#    0.000    0.000    0.000    0.000    0.000    0.000 
#    0.000    0.000    0.000    0.000    0.000    0.000 
#
# Total GULP energy -161126.026416 kJ/mol
# GULP energy per Si atom -12394.309724 kJ/mol
# Density = 2.213792 g / cm^3
# Si number density = 22.188418 Si / 1000 Ang^3
#
#
#
# Elastic Constant Matrix: (Units=GPa)
#
#
# Indices 1 2 3 4 5 6 
#
# 1 106.3139 27.2306 36.4244 0.0000 -12.2185 0.0000
# 2 27.2306 130.6498 1.8523 -0.0001 10.3316 0.0002
# 3 36.4244 1.8523 99.0724 0.0000 -6.0906 0.0000
# 4 0.0000 -0.0001 0.0000 29.8729 0.0000 -5.2098
# 5 -12.2185 10.3316 -6.0906 0.0000 51.9202 0.0000
# 6 0.0000 0.0002 0.0000 -5.2098 0.0000 20.9870
#
#
#
# Elastic Compliance Matrix: (Units=1/GPa)
#
#
# Indices 1 2 3 4 5 6 
#
# 1 0.011815 -0.002627 -0.004121 0.000000 0.002820 0.000000
# 2 -0.002627 0.008366 0.000674 0.000000 -0.002204 0.000000
# 3 -0.004121 0.000674 0.011612 0.000000 0.000258 0.000000
# 4 0.000000 0.000000 0.000000 0.034990 0.000000 0.008686
# 5 0.002820 -0.002204 0.000258 0.000000 0.020393 0.000000
# 6 0.000000 0.000000 0.000000 0.008686 0.000000 0.049805
#
#
# Mechanical properties :
#
#
# Convention : Reuss Voigt Hill
#
# Bulk Modulus (GPa) = 50.90491 51.89453 51.39972
# Shear Modulus (GPa) = 32.11755 38.59130 35.35443
#
# Velocity S-wave (km/s) = 3.80872 4.17496 3.99604
# Velocity P-wave (km/s) = 6.50644 6.83222 6.67132
#
# Compressibility (1/GPa) = 0.01964447
#
# Stress axis : x y z
#
# Youngs Moduli (GPa) = 84.63739 119.52667 86.11666
#
# Poissons Ratio (x) = 0.31401 0.35492
# Poissons Ratio (y) = 0.22235 -0.05804
# Poissons Ratio (z) = 0.34883 -0.08056
#
# Static dielectric constant tensor:
#      x y z
#    x 3.727810 0.000000 -0.230970 
#    y 0.000000 3.910110 0.000000 
#    z -0.230970 0.000000 4.357060 
# 
# 
# High freq. dielectric constant tensor:
#      x y z
#    x 1.854380 0.000000 -0.020700 
#    y 0.000000 1.871850 0.000000 
#    z -0.020700 0.000000 1.891120 
# 
# From -- ./inp_files/64998.got.cif
#   From: 2010.03.12/outbox.cif.g09.slc.cpg/sg5_33_cif.got.tgz:64998.got - 2010.03.31 09:47:26.
