data_PCOD8049408
_publ_section_title
;
Structure prediction by ZEFSAII (Michael W. Deem and Ramdas Pophale) SiO2 
 PCOD8049408
Probable space group: C 2
;
_chemical_formula_sum "Si O2"
_cell_formula_units_Z 20
_cell_length_a 7.697049
_cell_length_b 10.454028
_cell_length_c 12.831134
_cell_angle_alpha 90.000000
_cell_angle_beta 76.799790
_cell_angle_gamma 90.000000
_cell_volume 1005.179752
_symmetry_space_group_name_H-M "C 2"
_symmetry_group_IT_number 5
_symmetry_cell_setting 'monoclinic'
loop_
_space_group_symop_operation_xyz
x,y,z
-x,y,-z
1/2+x,1/2+y,z
1/2-x,1/2+y,-z
loop_
_atom_site_type_symbol
_atom_site_label
_atom_site_fract_x
_atom_site_fract_y
_atom_site_fract_z
Si Si1 0.018503 0.862400 0.312001
Si Si2 0.905450 0.592601 0.748401
Si Si3 0.544861 0.502541 0.877198
Si Si4 0.632487 0.852469 0.388459
Si Si5 0.299511 0.607835 0.752541
O O1 0.835922 0.862553 0.404995
O O2 0.122589 0.728120 0.308252
O O3 0.952472 0.878549 0.198898
O O4 0.141874 0.983076 0.325049
O O5 0.738824 0.569938 0.847766
O O6 0.924296 0.483386 0.659431
O O7 0.086047 0.603430 0.791385
O O8 0.391522 0.599286 0.854336
O O9 0.500000 0.460322 0.000000
O O10 0.500000 0.824130 0.500000
O O11 0.622401 0.733678 0.311178
#
# Coordination Sequence:
#
# PCOD8049408 Si02
#       5
#     4   4   4   4   4
#     4   8  20  39  54  86 117 146 197 236 274 348
#     4  10  20  39  60  82 120 150 193 241 284 338
#     4   9  20  40  59  86 120 153 188 240 286 341
#     4  10  21  38  61  86 119 154 189 242 290 336
#     4   9  21  38  59  84 120 151 191 237 282 345
#
# _framework density 19.896939
#
# number of rings (size 3 to 8) (size 9 to 14) (size 15 to 20)
#    1.200    1.600    0.000    0.000    2.800    4.000 
#   10.800    1.000    0.000    0.000    0.000    0.000 
#    0.000    0.000    0.000    0.000    0.000    0.000 
#
# Total GULP energy -123889.791959 kJ/mol
# GULP energy per Si atom -12388.979196 kJ/mol
# Density = 1.985165 g / cm^3
# Si number density = 19.896939 Si / 1000 Ang^3
#
#
#
# Elastic Constant Matrix: (Units=GPa)
#
#
# Indices 1 2 3 4 5 6 
#
# 1 82.2977 21.3867 16.3372 0.0000 -19.5976 0.0000
# 2 21.3867 141.8496 8.9877 0.0000 -4.7188 0.0000
# 3 16.3372 8.9877 54.4156 0.0000 -16.6921 0.0000
# 4 0.0000 0.0000 0.0000 19.0352 0.0000 -2.6079
# 5 -19.5976 -4.7188 -16.6921 0.0000 25.2039 0.0000
# 6 0.0000 0.0000 0.0000 -2.6079 0.0000 25.2191
#
#
#
# Elastic Compliance Matrix: (Units=1/GPa)
#
#
# Indices 1 2 3 4 5 6 
#
# 1 0.015462 -0.001904 -0.000940 0.000000 0.011044 0.000000
# 2 -0.001904 0.007369 -0.000849 0.000000 -0.000663 0.000000
# 3 -0.000940 -0.000849 0.023250 0.000000 0.014508 0.000000
# 4 0.000000 0.000000 0.000000 0.053289 0.000000 0.005511
# 5 0.011044 -0.000663 0.014508 0.000000 0.057748 0.000000
# 6 0.000000 0.000000 0.000000 0.005511 0.000000 0.040222
#
#
# Mechanical properties :
#
#
# Convention : Reuss Voigt Hill
#
# Bulk Modulus (GPa) = 25.84340 41.33178 33.58759
# Shear Modulus (GPa) = 22.97531 29.34837 26.16184
#
# Velocity S-wave (km/s) = 3.40180 3.84476 3.63004
# Velocity P-wave (km/s) = 5.33352 6.36613 5.87257
#
# Compressibility (1/GPa) = 0.03869459
#
# Stress axis : x y z
#
# Youngs Moduli (GPa) = 64.67313 135.71189 43.01098
#
# Poissons Ratio (x) = 0.25844 0.04043
# Poissons Ratio (y) = 0.12316 0.03651
# Poissons Ratio (z) = 0.06079 0.11519
#
# Static dielectric constant tensor:
#      x y z
#    x 3.636480 0.000000 -0.258480 
#    y 0.000000 3.681830 0.000000 
#    z -0.258480 0.000000 3.120820 
# 
# 
# High freq. dielectric constant tensor:
#      x y z
#    x 1.778480 0.000000 -0.026830 
#    y 0.000000 1.787480 0.000000 
#    z -0.026830 0.000000 1.734680 
# 
# From -- ./inp_files/34747.got.cif
#   From: 2010.03.12/outbox.cif.g09.slc.cpg/sg5_18_cif.got.tgz:34747.got - 2010.03.31 09:47:26.
