data_PCOD8049280
_publ_section_title
;
Structure prediction by ZEFSAII (Michael W. Deem and Ramdas Pophale) SiO2 
 PCOD8049280
Probable space group: C 2
;
_chemical_formula_sum "Si O2"
_cell_formula_units_Z 32
_cell_length_a 8.852682
_cell_length_b 21.328061
_cell_length_c 15.120814
_cell_angle_alpha 90.000000
_cell_angle_beta 32.113476
_cell_angle_gamma 90.000000
_cell_volume 1517.695307
_symmetry_space_group_name_H-M "C 2"
_symmetry_group_IT_number 5
_symmetry_cell_setting 'monoclinic'
loop_
_space_group_symop_operation_xyz
x,y,z
-x,y,-z
1/2+x,1/2+y,z
1/2-x,1/2+y,-z
loop_
_atom_site_type_symbol
_atom_site_label
_atom_site_fract_x
_atom_site_fract_y
_atom_site_fract_z
Si Si1 0.175865 0.106300 0.829001
Si Si2 0.480903 0.906854 0.906150
Si Si3 0.466677 0.474897 0.364229
Si Si4 0.835627 0.107765 0.494048
Si Si5 0.962185 0.369771 0.420771
Si Si6 0.172033 0.305132 0.153805
Si Si7 0.416702 0.475309 0.187473
Si Si8 0.168119 0.159437 0.161724
O O1 0.504487 0.129848 0.663133
O O2 0.000521 0.124216 0.830111
O O3 0.173871 0.031046 0.832270
O O4 0.000000 0.133140 0.000000
O O5 0.487104 0.843262 0.845363
O O6 0.713308 0.959354 0.767223
O O7 0.500000 0.887203 0.000000
O O8 0.207319 0.944992 0.013317
O O9 0.345014 0.531872 0.482300
O O10 0.431041 0.498693 0.281617
O O11 0.333308 0.405846 0.443643
O O12 0.000000 0.129032 0.500000
O O13 0.006197 0.143038 0.332314
O O14 0.001080 0.315189 0.330181
O O15 0.187312 0.422606 0.289444
O O16 0.000000 0.340291 0.500000
O O17 0.151226 0.232087 0.144201
O O18 0.500000 0.326176 0.000000
O O19 0.500000 0.137632 0.000000
#
# Coordination Sequence:
#
# PCOD8049280 Si02
#       8
#     4   4   4   4   4   4   4   4
#     4  12  26  43  70 102 134 184 228 285 344 408
#     4  10  23  39  63 102 136 176 212 277 340 400
#     4  10  22  37  62 101 142 167 213 280 341 404
#     4  12  26  44  68 101 140 179 229 287 341 403
#     4  10  21  39  63 100 134 174 209 271 338 404
#     4  11  24  45  71  95 132 180 228 269 325 412
#     4  10  20  37  67  96 137 172 216 267 350 408
#     4  11  27  49  70  97 135 188 238 281 336 402
#
# _framework density 21.084602
#
# number of rings (size 3 to 8) (size 9 to 14) (size 15 to 20)
#    0.000    1.250    3.750    1.125    7.000    1.000 
#    4.500    0.000    0.000    0.000    0.000    0.000 
#    0.000    0.000    0.000    0.000    0.000    0.000 
#
# Total GULP energy -198347.266428 kJ/mol
# GULP energy per Si atom -12396.704152 kJ/mol
# Density = 2.103661 g / cm^3
# Si number density = 21.084602 Si / 1000 Ang^3
#
#
#
# Elastic Constant Matrix: (Units=GPa)
#
#
# Indices 1 2 3 4 5 6 
#
# 1 96.3965 21.8085 39.1330 -0.2592 6.4669 0.0946
# 2 21.8085 53.2340 12.1647 0.0862 8.5065 -0.0270
# 3 39.1330 12.1647 142.4672 1.2970 -11.7725 -0.4398
# 4 -0.2592 0.0862 1.2970 99.8436 0.3082 -25.0927
# 5 6.4669 8.5065 -11.7725 0.3082 51.4597 -0.1088
# 6 0.0946 -0.0270 -0.4398 -25.0927 -0.1088 31.5065
#
#
#
# Elastic Compliance Matrix: (Units=1/GPa)
#
#
# Indices 1 2 3 4 5 6 
#
# 1 0.012774 -0.004217 -0.003287 0.000076 -0.001661 -0.000033
# 2 -0.004217 0.021232 -0.000918 -0.000007 -0.003190 0.000001
# 3 -0.003287 -0.000918 0.008203 -0.000111 0.002442 0.000044
# 4 0.000076 -0.000007 -0.000111 0.012524 -0.000088 0.009972
# 5 -0.001661 -0.003190 0.002442 -0.000088 0.020728 0.000038
# 6 -0.000033 0.000001 0.000044 0.009972 0.000038 0.039683
#
#
# Mechanical properties :
#
#
# Convention : Reuss Voigt Hill
#
# Bulk Modulus (GPa) = 39.42312 48.70113 44.06213
# Shear Modulus (GPa) = 35.60193 51.16139 43.38166
#
# Velocity S-wave (km/s) = 4.11363 4.93128 4.54089
# Velocity P-wave (km/s) = 6.42657 7.45462 6.95960
#
# Compressibility (1/GPa) = 0.02536582
#
# Stress axis : x y z
#
# Youngs Moduli (GPa) = 78.28589 47.09869 121.90231
#
# Poissons Ratio (x) = 0.19860 0.40065
# Poissons Ratio (y) = 0.33011 0.11193
# Poissons Ratio (z) = 0.25730 0.04324
#
# Static dielectric constant tensor:
#      x y z
#    x 2.573530 0.000400 0.859330 
#    y 0.000400 3.523400 -0.000110 
#    z 0.859330 -0.000110 3.399280 
# 
# 
# High freq. dielectric constant tensor:
#      x y z
#    x 1.832700 0.000000 -0.003630 
#    y 0.000000 1.805120 0.000010 
#    z -0.003630 0.000010 1.839810 
# 
# From -- ./inp_files/25637.got.cif
#   From: 2010.03.12/outbox.cif.g09.slc.cpg/sg5_13_cif.got.tgz:25637.got - 2010.03.31 09:47:26.
