data_PCOD8049781
_publ_section_title
;
Structure prediction by ZEFSAII (Michael W. Deem and Ramdas Pophale) SiO2 
 PCOD8049781
Probable space group: C 2
;
_chemical_formula_sum "Si O2"
_cell_formula_units_Z 28
_cell_length_a 12.758743
_cell_length_b 5.111573
_cell_length_c 21.350658
_cell_angle_alpha 90.000000
_cell_angle_beta 81.965952
_cell_angle_gamma 90.000000
_cell_volume 1378.764674
_symmetry_space_group_name_H-M "C 2"
_symmetry_group_IT_number 5
_symmetry_cell_setting 'monoclinic'
loop_
_space_group_symop_operation_xyz
x,y,z
-x,y,-z
1/2+x,1/2+y,z
1/2-x,1/2+y,-z
loop_
_atom_site_type_symbol
_atom_site_label
_atom_site_fract_x
_atom_site_fract_y
_atom_site_fract_z
Si Si1 0.497327 0.083190 0.233592
Si Si2 0.346419 0.074461 0.129863
Si Si3 0.442707 0.002135 0.377863
Si Si4 0.158407 0.018444 0.553798
Si Si5 0.049516 0.072727 0.927945
Si Si6 0.397121 0.891768 0.542479
Si Si7 0.898716 0.081253 0.824039
O O1 0.402896 0.083688 0.191969
O O2 0.567792 0.341481 0.222516
O O3 0.443176 0.076048 0.305588
O O4 0.574410 0.840481 0.216510
O O5 0.377599 0.318820 0.084414
O O6 0.223801 0.073391 0.152859
O O7 0.375440 0.819783 0.088033
O O8 0.371670 0.746143 0.394603
O O9 0.563544 0.916508 0.388710
O O10 0.388840 0.242258 0.420492
O O11 0.286310 0.036412 0.541300
O O12 0.115489 0.100045 0.487626
O O13 0.955251 0.069590 0.886107
O O14 0.000000 0.083253 0.000000
O O15 0.500000 0.025994 0.500000
#
# Coordination Sequence:
#
# PCOD8049781 Si02
#       7
#     4   4   4   4   4   4   4
#     4  10  22  40  59  86 115 147 195 237 280 342
#     4  10  21  37  59  84 118 156 190 239 289 332
#     4  11  25  41  62  87 114 149 190 235 283 342
#     4  11  24  40  60  87 114 147 187 230 286 345
#     4  10  21  36  56  87 120 153 198 239 279 340
#     4  10  23  40  60  83 114 146 181 229 283 338
#     4  10  21  38  60  84 117 156 190 237 291 331
#
# _framework density 20.308036000000001
#
# number of rings (size 3 to 8) (size 9 to 14) (size 15 to 20)
#    0.000    1.714    0.000    3.857    0.000   14.286 
#    0.000    0.000    0.000    0.000    0.000    0.000 
#    0.000    0.000    0.000    0.000    0.000    0.000 
#
# Total GULP energy -173511.818500 kJ/mol
# GULP energy per Si atom -12393.701321 kJ/mol
# Density = 2.026181 g / cm^3
# Si number density = 20.308036 Si / 1000 Ang^3
#
#
#
# Elastic Constant Matrix: (Units=GPa)
#
#
# Indices 1 2 3 4 5 6 
#
# 1 88.9331 -405.3750 -159.2917 0.0000 90.9636 0.0000
# 2 -405.3750-4146.6148-1789.3017 0.0001 1129.5990 0.0003
# 3 -159.2917-1789.3017 -682.7690 0.0000 483.5273 0.0001
# 4 0.0000 0.0001 0.0000 12.7450 0.0000 -30.6233
# 5 90.9636 1129.5990 483.5273 0.0000 -283.5799 -0.0001
# 6 0.0000 0.0003 0.0001 -30.6233 -0.0001 -16.0239
#
#
#
# Elastic Compliance Matrix: (Units=1/GPa)
#
#
# Indices 1 2 3 4 5 6 
#
# 1 0.009000 0.001588 -0.001267 0.000000 0.007053 0.000000
# 2 0.001588 0.004806 -0.004592 0.000000 0.011823 0.000000
# 3 -0.001267 -0.004592 0.011452 0.000000 0.000831 0.000000
# 4 0.000000 0.000000 0.000000 0.014031 0.000000 -0.026815
# 5 0.007053 0.011823 0.000831 0.000000 0.047248 0.000000
# 6 0.000000 0.000000 0.000000 -0.026815 0.000000 -0.011160
#
#
# Mechanical properties :
#
#
# Convention : Reuss Voigt Hill
#
# Bulk Modulus (GPa) = 59.81565 -1049.82085 -495.00260
# Shear Modulus (GPa) = 55.87200 -216.47059 -80.29929
#
# Velocity S-wave (km/s) = 5.25090 -10.33562 -6.29496
# Velocity P-wave (km/s) = 8.14130 25.70027 17.23693
#
# Compressibility (1/GPa) = 0.01671803
#
# Stress axis : x y z
#
# Youngs Moduli (GPa) = 111.10789 208.08970 87.31866
#
# Poissons Ratio (x) = -0.33045 0.11060
# Poissons Ratio (y) = -0.17644 0.40093
# Poissons Ratio (z) = 0.14073 0.95545
#
# Static dielectric constant tensor:
#      x y z
#    x 3.904980 0.000000 0.123800 
#    y 0.000000 4.297110 0.000000 
#    z 0.123800 0.000000 3.654540 
# 
# 
# High freq. dielectric constant tensor:
#      x y z
#    x 1.799940 0.000000 -0.006720 
#    y 0.000000 1.810800 0.000000 
#    z -0.006720 0.000000 1.785980 
# 
# From -- ./inp_files/64863.got.cif
#   From: 2010.03.12/outbox.cif.g09.slc.cpg/sg5_33_cif.got.tgz:64863.got - 2010.03.31 09:47:26.
