data_PCOD8049224
_publ_section_title
;
Structure prediction by ZEFSAII (Michael W. Deem and Ramdas Pophale) SiO2 
 PCOD8049224
Probable space group: C 2
;
_chemical_formula_sum "Si O2"
_cell_formula_units_Z 20
_cell_length_a 7.242573
_cell_length_b 23.619474
_cell_length_c 8.608720
_cell_angle_alpha 90.000000
_cell_angle_beta 36.154467
_cell_angle_gamma 90.000000
_cell_volume 868.815052
_symmetry_space_group_name_H-M "C 2"
_symmetry_group_IT_number 5
_symmetry_cell_setting 'monoclinic'
loop_
_space_group_symop_operation_xyz
x,y,z
-x,y,-z
1/2+x,1/2+y,z
1/2-x,1/2+y,-z
loop_
_atom_site_type_symbol
_atom_site_label
_atom_site_fract_x
_atom_site_fract_y
_atom_site_fract_z
Si Si1 0.137305 0.588770 0.074007
Si Si2 0.642099 0.645236 0.572655
Si Si3 0.861625 0.261231 0.257990
Si Si4 0.629212 0.967309 0.748304
Si Si5 0.633300 0.864095 0.245469
O O1 0.006377 0.628369 0.302941
O O2 0.064560 0.523689 0.162281
O O3 0.000000 0.606981 0.000000
O O4 0.503728 0.603138 0.800607
O O5 0.500000 0.633053 0.500000
O O6 0.601534 0.710244 0.645757
O O7 0.500000 0.280219 0.500000
O O8 0.071801 0.314109 0.166092
O O9 0.000000 0.241241 0.000000
O O10 0.557552 0.920473 0.668671
O O11 0.000000 0.980578 0.500000
O O12 0.500000 0.944011 0.000000
O O13 0.500000 0.843416 0.500000
O O14 0.000000 0.877578 0.000000
#
# Coordination Sequence:
#
# PCOD8049224 Si02
#       5
#     4   4   4   4   4
#     4   9  18  34  61  91 121 159 201 239 292 362
#     4  10  20  37  61  90 122 160 202 245 293 358
#     4  12  25  43  64  91 123 162 206 256 310 365
#     4  11  21  40  66  93 123 162 206 251 298 362
#     4  12  26  44  64  91 122 161 206 257 312 365
#
# _framework density 23.019860000000001
#
# number of rings (size 3 to 8) (size 9 to 14) (size 15 to 20)
#    0.000    1.200    0.000    8.400    0.000    2.400 
#    0.000    6.000    0.000    0.000    0.000    0.000 
#    0.000    0.000    0.000    0.000    0.000    0.000 
#
# Total GULP energy -123991.680022 kJ/mol
# GULP energy per Si atom -12399.168002 kJ/mol
# Density = 2.296747 g / cm^3
# Si number density = 23.019860 Si / 1000 Ang^3
#
#
#
# Elastic Constant Matrix: (Units=GPa)
#
#
# Indices 1 2 3 4 5 6 
#
# 1 41.5378 30.6367 33.0060 0.0000 -15.8459 0.0000
# 2 30.6367 151.7746 48.8348 0.0000 -3.4520 0.0000
# 3 33.0060 48.8348 161.7059 0.0000 2.1666 0.0000
# 4 0.0000 0.0000 0.0000 40.6031 0.0000 1.7649
# 5 -15.8459 -3.4520 2.1666 0.0000 28.4433 0.0000
# 6 0.0000 0.0000 0.0000 1.7649 0.0000 21.5890
#
#
#
# Elastic Compliance Matrix: (Units=1/GPa)
#
#
# Indices 1 2 3 4 5 6 
#
# 1 0.043468 -0.005835 -0.007433 0.000000 0.024075 0.000000
# 2 -0.005835 0.008113 -0.001230 0.000000 -0.002173 0.000000
# 3 -0.007433 -0.001230 0.008138 0.000000 -0.004910 0.000000
# 4 0.000000 0.000000 0.000000 0.024716 0.000000 -0.002021
# 5 0.024075 -0.002173 -0.004910 0.000000 0.048680 0.000000
# 6 0.000000 0.000000 0.000000 -0.002021 0.000000 0.046485
#
#
# Mechanical properties :
#
#
# Convention : Reuss Voigt Hill
#
# Bulk Modulus (GPa) = 32.54798 64.44146 48.49472
# Shear Modulus (GPa) = 22.84790 34.29647 28.57219
#
# Velocity S-wave (km/s) = 3.15386 3.86406 3.52688
# Velocity P-wave (km/s) = 5.23758 6.92550 6.13982
#
# Compressibility (1/GPa) = 0.03072387
#
# Stress axis : x y z
#
# Youngs Moduli (GPa) = 23.00522 123.25990 122.87453
#
# Poissons Ratio (x) = 0.71926 0.91329
# Poissons Ratio (y) = 0.13424 0.15113
# Poissons Ratio (z) = 0.17099 0.15160
#
# Static dielectric constant tensor:
#      x y z
#    x 3.888570 0.000000 -0.102910 
#    y 0.000000 3.851120 0.000000 
#    z -0.102910 0.000000 4.759740 
# 
# 
# High freq. dielectric constant tensor:
#      x y z
#    x 1.886840 0.000000 0.001320 
#    y 0.000000 1.909250 0.000000 
#    z 0.001320 0.000000 1.941850 
# 
# From -- ./inp_files/17268.got.cif
#   From: 2010.03.12/outbox.cif.g09.slc.cpg/sg5_9_cif.got.tgz:17268.got - 2010.03.31 09:47:26.
