data_PCOD8049985
_publ_section_title
;
Structure prediction by ZEFSAII (Michael W. Deem and Ramdas Pophale) SiO2 
 PCOD8049985
Probable space group: C 2
;
_chemical_formula_sum "Si O2"
_cell_formula_units_Z 24
_cell_length_a 14.883670
_cell_length_b 7.627480
_cell_length_c 9.788596
_cell_angle_alpha 90.000000
_cell_angle_beta 79.586011
_cell_angle_gamma 90.000000
_cell_volume 1092.944133
_symmetry_space_group_name_H-M "C 2"
_symmetry_group_IT_number 5
_symmetry_cell_setting 'monoclinic'
loop_
_space_group_symop_operation_xyz
x,y,z
-x,y,-z
1/2+x,1/2+y,z
1/2-x,1/2+y,-z
loop_
_atom_site_type_symbol
_atom_site_label
_atom_site_fract_x
_atom_site_fract_y
_atom_site_fract_z
Si Si1 0.435544 0.283850 0.753794
Si Si2 0.335321 0.955179 0.815933
Si Si3 0.241366 0.396359 0.690464
Si Si4 0.000000 0.992837 0.500000
Si Si5 0.666776 0.701378 0.939334
Si Si6 0.500000 0.475268 0.000000
Si Si7 0.181716 0.224537 0.432296
O O1 0.340745 0.344432 0.715299
O O2 0.511032 0.360313 0.627371
O O3 0.428240 0.072754 0.778400
O O4 0.453206 0.359309 0.897748
O O5 0.318077 0.893096 0.665860
O O6 0.254416 0.073938 0.901735
O O7 0.346835 0.780053 0.904680
O O8 0.172600 0.366097 0.835051
O O9 0.210305 0.274818 0.575362
O O10 0.238837 0.598266 0.647938
O O11 0.913638 0.120629 0.536470
O O12 0.578786 0.595058 0.915250
#
# Coordination Sequence:
#
# PCOD8049985 Si02
#       7
#     4   4   4   2   4   2   4
#     4  10  23  41  62  91 127 167 211 259 314 372
#     4  11  23  43  66  93 127 171 213 255 317 393
#     4  10  21  39  63  92 126 169 210 252 312 385
#     4  10  22  44  66  98 134 162 206 272 316 366
#     4  11  22  40  64  93 129 168 210 263 316 377
#     4  12  24  42  64  94 128 166 214 274 322 364
#     4  11  22  41  68  97 128 168 212 260 318 381
#
# _framework density 21.959036999999999
#
# number of rings (size 3 to 8) (size 9 to 14) (size 15 to 20)
#    0.000    1.333    0.000    8.000    0.000    2.667 
#    0.000    6.667    0.000    0.000    0.000    0.000 
#    0.000    0.000    0.000    0.000    0.000    0.000 
#
# Total GULP energy -148733.031199 kJ/mol
# GULP energy per Si atom -12394.419267 kJ/mol
# Density = 2.190906 g / cm^3
# Si number density = 21.959037 Si / 1000 Ang^3
#
#
#
# Elastic Constant Matrix: (Units=GPa)
#
#
# Indices 1 2 3 4 5 6 
#
# 1 63.3160 40.0776 34.5453 0.0000 10.6456 0.0000
# 2 40.0776 103.1998 32.8923 0.0000 -5.5712 0.0000
# 3 34.5453 32.8923 118.6614 0.0000 9.7943 0.0000
# 4 0.0000 0.0000 0.0000 30.0982 0.0000 -34.3341
# 5 10.6456 -5.5712 9.7943 0.0000 27.7095 0.0000
# 6 0.0000 0.0000 0.0000 -34.3341 0.0000 -5.4358
#
#
#
# Elastic Compliance Matrix: (Units=1/GPa)
#
#
# Indices 1 2 3 4 5 6 
#
# 1 0.025528 -0.009177 -0.004044 0.000000 -0.010223 0.000000
# 2 -0.009177 0.014224 -0.001852 0.000000 0.007040 0.000000
# 3 -0.004044 -0.001852 0.010322 0.000000 -0.002467 0.000000
# 4 0.000000 0.000000 0.000000 0.004049 0.000000 -0.025576
# 5 -0.010223 0.007040 -0.002467 0.000000 0.042304 0.000000
# 6 0.000000 0.000000 0.000000 -0.025576 0.000000 -0.022421
#
#
# Mechanical properties :
#
#
# Convention : Reuss Voigt Hill
#
# Bulk Modulus (GPa) = 50.18264 55.57860 52.88062
# Shear Modulus (GPa) = 45.12852 22.31854 33.72353
#
# Velocity S-wave (km/s) = 4.53826 3.19152 3.92311
# Velocity P-wave (km/s) = 7.09673 6.24068 6.68243
#
# Compressibility (1/GPa) = 0.01992721
#
# Stress axis : x y z
#
# Youngs Moduli (GPa) = 39.17316 70.30317 96.88193
#
# Poissons Ratio (x) = 0.64514 0.39182
# Poissons Ratio (y) = 0.35947 0.17947
# Poissons Ratio (z) = 0.15843 0.13023
#
# Static dielectric constant tensor:
#      x y z
#    x 3.892410 0.000000 -0.211530 
#    y 0.000000 4.377070 0.000000 
#    z -0.211530 0.000000 4.349430 
# 
# 
# High freq. dielectric constant tensor:
#      x y z
#    x 1.842190 0.000000 0.003370 
#    y 0.000000 1.875290 0.000000 
#    z 0.003370 0.000000 1.881520 
# 
# From -- ./inp_files/22830.got.cif
#   From: 2010.03.12/outbox.cif.g09.slc.cpg/sg5_12_cif.got.tgz:22830.got - 2010.03.31 09:47:26.
