data_PCOD8049578
_publ_section_title
;
Structure prediction by ZEFSAII (Michael W. Deem and Ramdas Pophale) SiO2 
 PCOD8049578
Probable space group: C 2
;
_chemical_formula_sum "Si O2"
_cell_formula_units_Z 28
_cell_length_a 9.201563
_cell_length_b 13.370465
_cell_length_c 12.116129
_cell_angle_alpha 90.000000
_cell_angle_beta 64.536910
_cell_angle_gamma 90.000000
_cell_volume 1345.840480
_symmetry_space_group_name_H-M "C 2"
_symmetry_group_IT_number 5
_symmetry_cell_setting 'monoclinic'
loop_
_space_group_symop_operation_xyz
x,y,z
-x,y,-z
1/2+x,1/2+y,z
1/2-x,1/2+y,-z
loop_
_atom_site_type_symbol
_atom_site_label
_atom_site_fract_x
_atom_site_fract_y
_atom_site_fract_z
Si Si1 0.437346 0.589270 0.755302
Si Si2 0.382816 0.441235 0.434805
Si Si3 0.829604 0.045243 0.026853
Si Si4 0.013442 0.433504 0.115726
Si Si5 0.996524 0.734115 0.376918
Si Si6 0.811103 0.558991 0.341495
Si Si7 0.151118 0.228396 0.810849
O O1 0.545132 0.490954 0.698427
O O2 0.337038 0.610977 0.675999
O O3 0.564837 0.677868 0.733695
O O4 0.323474 0.573006 0.898929
O O5 0.500000 0.444740 0.500000
O O6 0.364539 0.324025 0.410313
O O7 0.228494 0.503537 0.529043
O O8 0.822025 0.148323 0.099424
O O9 0.691142 0.964449 0.102543
O O10 0.000000 0.992406 0.000000
O O11 0.879292 0.474223 0.240473
O O12 0.973154 0.316120 0.114688
O O13 0.000000 0.484207 0.000000
O O14 0.943139 0.643723 0.316933
O O15 0.000000 0.693675 0.500000
O O16 0.174211 0.770990 0.281263
#
# Coordination Sequence:
#
# PCOD8049578 Si02
#       7
#     4   4   4   4   4   4   4
#     4  10  20  41  61  88 131 167 212 274 321 383
#     4   9  20  38  63  86 123 170 211 263 334 389
#     4  10  22  41  63  92 135 169 216 269 325 387
#     4  12  22  40  68  94 129 178 219 264 336 397
#     4  11  22  40  63  96 125 170 224 268 332 405
#     4  11  22  40  65  94 124 169 221 273 329 395
#     4  11  23  41  65  95 132 174 216 268 336 389
#
# _framework density 20.804845
#
# number of rings (size 3 to 8) (size 9 to 14) (size 15 to 20)
#    0.000    1.429    2.857    4.714    0.000    0.000 
#    5.143    0.000    0.000    0.000    0.000    0.000 
#    0.000    0.000    0.000    0.000    0.000    0.000 
#
# Total GULP energy -173467.520828 kJ/mol
# GULP energy per Si atom -12390.537202 kJ/mol
# Density = 2.075749 g / cm^3
# Si number density = 20.804845 Si / 1000 Ang^3
#
#
#
# Elastic Constant Matrix: (Units=GPa)
#
#
# Indices 1 2 3 4 5 6 
#
# 1 86.0025 54.0277 30.0621 0.0000 -12.2717 0.0000
# 2 54.0277 120.2610 45.3017 0.0000 -6.4548 0.0000
# 3 30.0621 45.3017 99.7944 0.0000 -5.0740 0.0000
# 4 0.0000 0.0000 0.0000 33.2075 0.0000 -7.0024
# 5 -12.2717 -6.4548 -5.0740 0.0000 28.6146 0.0000
# 6 0.0000 0.0000 0.0000 -7.0024 0.0000 38.4130
#
#
#
# Elastic Compliance Matrix: (Units=1/GPa)
#
#
# Indices 1 2 3 4 5 6 
#
# 1 0.017338 -0.006790 -0.001857 0.000000 0.005575 0.000000
# 2 -0.006790 0.012751 -0.003779 0.000000 -0.000706 0.000000
# 3 -0.001857 -0.003779 0.012323 0.000000 0.000536 0.000000
# 4 0.000000 0.000000 0.000000 0.031318 0.000000 0.005709
# 5 0.005575 -0.000706 0.000536 0.000000 0.037274 0.000000
# 6 0.000000 0.000000 0.000000 0.005709 0.000000 0.027074
#
#
# Mechanical properties :
#
#
# Convention : Reuss Voigt Hill
#
# Bulk Modulus (GPa) = 56.94891 62.76011 59.85451
# Shear Modulus (GPa) = 29.62392 31.82478 30.72435
#
# Velocity S-wave (km/s) = 3.77755 3.91536 3.84707
# Velocity P-wave (km/s) = 6.81607 7.11840 6.96888
#
# Compressibility (1/GPa) = 0.01755960
#
# Stress axis : x y z
#
# Youngs Moduli (GPa) = 57.67710 78.42237 81.15127
#
# Poissons Ratio (x) = 0.53252 0.15069
# Poissons Ratio (y) = 0.39165 0.30666
# Poissons Ratio (z) = 0.10710 0.29635
#
# Static dielectric constant tensor:
#      x y z
#    x 3.745850 0.000000 -0.100150 
#    y 0.000000 3.738390 0.000000 
#    z -0.100150 0.000000 4.038640 
# 
# 
# High freq. dielectric constant tensor:
#      x y z
#    x 1.794610 0.000000 -0.006880 
#    y 0.000000 1.802530 0.000000 
#    z -0.006880 0.000000 1.831410 
# 
# From -- ./inp_files/36201.got.cif
#   From: 2010.03.12/outbox.cif.g09.slc.cpg/sg5_19_cif.got.tgz:36201.got - 2010.03.31 09:47:26.
