data_PCOD8049196
_publ_section_title
;
Structure prediction by ZEFSAII (Michael W. Deem and Ramdas Pophale) SiO2 
 PCOD8049196
Probable space group: C 2
;
_chemical_formula_sum "Si O2"
_cell_formula_units_Z 30
_cell_length_a 21.750292
_cell_length_b 8.158125
_cell_length_c 8.924364
_cell_angle_alpha 90.000000
_cell_angle_beta 119.513786
_cell_angle_gamma 90.000000
_cell_volume 1378.067089
_symmetry_space_group_name_H-M "C 2"
_symmetry_group_IT_number 5
_symmetry_cell_setting 'monoclinic'
loop_
_space_group_symop_operation_xyz
x,y,z
-x,y,-z
1/2+x,1/2+y,z
1/2-x,1/2+y,-z
loop_
_atom_site_type_symbol
_atom_site_label
_atom_site_fract_x
_atom_site_fract_y
_atom_site_fract_z
Si Si1 0.134271 0.155920 0.982092
Si Si2 0.122326 0.509108 0.059069
Si Si3 0.779770 0.729302 0.000608
Si Si4 0.500000 0.248346 0.000000
Si Si5 0.595918 0.412733 0.706244
Si Si6 0.787539 0.931297 0.723200
Si Si7 0.170128 0.628582 0.417911
Si Si8 0.045456 0.812397 0.357378
O O1 0.085407 0.077930 0.792177
O O2 0.098235 0.324739 0.990863
O O3 0.212938 0.178347 0.014689
O O4 0.143239 0.030375 0.133089
O O5 0.160381 0.505976 0.266688
O O6 0.056523 0.632740 0.984024
O O7 0.177219 0.567480 0.997757
O O8 0.827502 0.840294 0.167327
O O9 0.756195 0.826099 0.823122
O O10 0.536831 0.362846 0.170615
O O11 0.585525 0.445519 0.514171
O O12 0.533938 0.283158 0.675688
O O13 0.809528 0.811534 0.614710
O O14 0.728630 0.059337 0.599154
O O15 0.095267 0.649014 0.417319
#
# Coordination Sequence:
#
# PCOD8049196 Si02
#       8
#     4   4   4   2   4   4   4   4
#     4  11  22  36  59  92 127 158 205 261 317 360
#     4  10  20  37  59  89 123 166 204 257 308 373
#     4  10  20  38  63  88 122 164 207 254 311 368
#     4  10  20  40  64  90 116 168 214 246 316 374
#     4  10  21  39  61  92 117 163 216 249 306 375
#     4  10  21  36  57  93 120 161 204 248 305 371
#     4  10  21  37  62  90 125 161 206 253 309 369
#     4  10  21  38  66  84 118 162 213 252 297 379
#
# _framework density 21.769621000000001
#
# number of rings (size 3 to 8) (size 9 to 14) (size 15 to 20)
#    0.000    1.867    1.333    3.200    1.867    2.133 
#    2.400    0.000   14.667    0.000    0.000    0.000 
#    0.000    0.000    0.000    0.000    0.000    0.000 
#
# Total GULP energy -185843.943521 kJ/mol
# GULP energy per Si atom -12389.596235 kJ/mol
# Density = 2.172007 g / cm^3
# Si number density = 21.769621 Si / 1000 Ang^3
#
#
#
# Elastic Constant Matrix: (Units=GPa)
#
#
# Indices 1 2 3 4 5 6 
#
# 1 81.2323 13.6898 17.9126 0.0000 0.6209 0.0000
# 2 13.6898 99.7844 60.8872 0.0000 -11.2837 0.0000
# 3 17.9126 60.8872 182.4949 0.0000 2.0203 0.0000
# 4 0.0000 0.0000 0.0000 34.0621 0.0000 -4.3528
# 5 0.6209 -11.2837 2.0203 0.0000 20.1543 0.0000
# 6 0.0000 0.0000 0.0000 -4.3528 0.0000 11.9939
#
#
#
# Elastic Compliance Matrix: (Units=1/GPa)
#
#
# Indices 1 2 3 4 5 6 
#
# 1 0.012724 -0.001400 -0.000770 0.000000 -0.001099 0.000000
# 2 -0.001400 0.013972 -0.004616 0.000000 0.008329 0.000000
# 3 -0.000770 -0.004616 0.007132 0.000000 -0.003276 0.000000
# 4 0.000000 0.000000 0.000000 0.030786 0.000000 0.011173
# 5 -0.001099 0.008329 -0.003276 0.000000 0.054642 0.000000
# 6 0.000000 0.000000 0.000000 0.011173 0.000000 0.087430
#
#
# Mechanical properties :
#
#
# Convention : Reuss Voigt Hill
#
# Bulk Modulus (GPa) = 49.36891 60.94342 55.15616
# Shear Modulus (GPa) = 22.02526 31.31020 26.66773
#
# Velocity S-wave (km/s) = 3.18424 3.79654 3.50379
# Velocity P-wave (km/s) = 6.02049 6.87559 6.46220
#
# Compressibility (1/GPa) = 0.02025566
#
# Stress axis : x y z
#
# Youngs Moduli (GPa) = 78.58874 71.56928 140.22014
#
# Poissons Ratio (x) = 0.10023 0.10791
# Poissons Ratio (y) = 0.11006 0.64733
# Poissons Ratio (z) = 0.06048 0.33040
#
# Static dielectric constant tensor:
#      x y z
#    x 3.903520 0.000000 -0.089420 
#    y 0.000000 3.783070 0.000000 
#    z -0.089420 0.000000 4.304130 
# 
# 
# High freq. dielectric constant tensor:
#      x y z
#    x 1.850120 0.000000 -0.004020 
#    y 0.000000 1.817230 0.000000 
#    z -0.004020 0.000000 1.874790 
# 
# From -- ./inp_files/30688.got.cif
#   From: 2010.03.12/outbox.cif.g09.slc.cpg/sg5_16_cif.got.tgz:30688.got - 2010.03.31 09:47:26.
