data_PCOD8049509
_publ_section_title
;
Structure prediction by ZEFSAII (Michael W. Deem and Ramdas Pophale) SiO2 
 PCOD8049509
Probable space group: C 2
;
_chemical_formula_sum "Si O2"
_cell_formula_units_Z 24
_cell_length_a 16.873154
_cell_length_b 7.886000
_cell_length_c 13.813135
_cell_angle_alpha 90.000000
_cell_angle_beta 35.681503
_cell_angle_gamma 90.000000
_cell_volume 1072.066313
_symmetry_space_group_name_H-M "C 2"
_symmetry_group_IT_number 5
_symmetry_cell_setting 'monoclinic'
loop_
_space_group_symop_operation_xyz
x,y,z
-x,y,-z
1/2+x,1/2+y,z
1/2-x,1/2+y,-z
loop_
_atom_site_type_symbol
_atom_site_label
_atom_site_fract_x
_atom_site_fract_y
_atom_site_fract_z
Si Si1 0.070262 0.626640 0.728878
Si Si2 0.500000 0.469947 0.500000
Si Si3 0.818396 0.551784 0.863135
Si Si4 0.331096 0.745580 0.379478
Si Si5 0.000000 0.524934 0.000000
Si Si6 0.091695 0.165640 0.226226
Si Si7 0.739455 0.767740 0.756333
O O1 0.194135 0.748358 0.578878
O O2 0.123109 0.437066 0.671182
O O3 0.024766 0.652133 0.885422
O O4 0.946772 0.657933 0.776644
O O5 0.571702 0.587345 0.350462
O O6 0.378768 0.353200 0.580930
O O7 0.860177 0.357957 0.806080
O O8 0.766590 0.634587 0.814964
O O9 0.700918 0.555538 0.059625
O O10 0.449951 0.639938 0.311418
O O11 0.312112 0.671287 0.289422
O O12 0.128489 0.406150 0.900711
#
# Coordination Sequence:
#
# PCOD8049509 Si02
#       7
#     4   2   4   4   2   4   4
#     4  10  21  38  61  88 118 155 200 246 299 358
#     4  12  24  40  64  94 122 160 206 252 302 362
#     4  11  23  40  63  93 125 160 202 253 305 360
#     4  10  22  39  62  88 119 157 200 248 301 357
#     4  10  20  40  64  86 116 160 202 244 300 362
#     4  11  24  41  63  92 125 160 204 252 302 361
#     4  11  22  41  65  88 120 163 202 246 306 363
#
# _framework density 22.386676999999999
#
# number of rings (size 3 to 8) (size 9 to 14) (size 15 to 20)
#    0.000    1.333    0.000    8.000    0.000    4.667 
#    0.000    0.000    0.000   10.000    0.000    0.000 
#    0.000    0.000    0.000    0.000    0.000    0.000 
#
# Total GULP energy -148814.299217 kJ/mol
# GULP energy per Si atom -12401.191601 kJ/mol
# Density = 2.233572 g / cm^3
# Si number density = 22.386677 Si / 1000 Ang^3
#
#
#
# Elastic Constant Matrix: (Units=GPa)
#
#
# Indices 1 2 3 4 5 6 
#
# 1 137.3186 24.8777 36.5924 0.0000 10.5529 0.0000
# 2 24.8777 27.5383 17.1336 -0.0002 8.0952 0.0001
# 3 36.5924 17.1336 136.9356 -0.0001 8.4171 0.0000
# 4 0.0000 -0.0002 -0.0001 32.3998 0.0000 -0.4460
# 5 10.5529 8.0952 8.4171 0.0000 49.0965 0.0000
# 6 0.0000 0.0001 0.0000 -0.4460 0.0000 21.7548
#
#
#
# Elastic Compliance Matrix: (Units=1/GPa)
#
#
# Indices 1 2 3 4 5 6 
#
# 1 0.008996 -0.007048 -0.001490 0.000000 -0.000516 0.000000
# 2 -0.007048 0.046550 -0.003600 0.000000 -0.005543 0.000000
# 3 -0.001490 -0.003600 0.008181 0.000000 -0.000489 0.000000
# 4 0.000000 0.000000 0.000000 0.030873 0.000000 0.000633
# 5 -0.000516 -0.005543 -0.000489 0.000000 0.021477 0.000000
# 6 0.000000 0.000000 0.000000 0.000633 0.000000 0.045980
#
#
# Mechanical properties :
#
#
# Convention : Reuss Voigt Hill
#
# Bulk Modulus (GPa) = 25.34859 50.99999 38.17429
# Shear Modulus (GPa) = 25.06471 35.52949 30.29710
#
# Velocity S-wave (km/s) = 3.34971 3.98814 3.68279
# Velocity P-wave (km/s) = 5.12917 6.63610 5.93070
#
# Compressibility (1/GPa) = 0.03944993
#
# Stress axis : x y z
#
# Youngs Moduli (GPa) = 111.16063 21.48250 122.22737
#
# Poissons Ratio (x) = 0.15141 0.18217
# Poissons Ratio (y) = 0.78345 0.44005
# Poissons Ratio (z) = 0.16567 0.07734
#
# Static dielectric constant tensor:
#      x y z
#    x 4.453400 0.000000 -0.113570 
#    y 0.000000 3.639970 0.000000 
#    z -0.113570 0.000000 5.139410 
# 
# 
# High freq. dielectric constant tensor:
#      x y z
#    x 1.900140 0.000000 -0.007780 
#    y 0.000000 1.852700 0.000000 
#    z -0.007780 0.000000 1.905440 
# 
# From -- ./inp_files/55707.got.cif
#   From: 2010.03.12/outbox.cif.g09.slc.cpg/sg5_28_cif.got.tgz:55707.got - 2010.03.31 09:47:26.
