data_PCOD8049914
_publ_section_title
;
Structure prediction by ZEFSAII (Michael W. Deem and Ramdas Pophale) SiO2 
 PCOD8049914
Probable space group: C 2
;
_chemical_formula_sum "Si O2"
_cell_formula_units_Z 28
_cell_length_a 7.994816
_cell_length_b 17.092254
_cell_length_c 11.153631
_cell_angle_alpha 90.000000
_cell_angle_beta 63.896885
_cell_angle_gamma 90.000000
_cell_volume 1368.680842
_symmetry_space_group_name_H-M "C 2"
_symmetry_group_IT_number 5
_symmetry_cell_setting 'monoclinic'
loop_
_space_group_symop_operation_xyz
x,y,z
-x,y,-z
1/2+x,1/2+y,z
1/2-x,1/2+y,-z
loop_
_atom_site_type_symbol
_atom_site_label
_atom_site_fract_x
_atom_site_fract_y
_atom_site_fract_z
Si Si1 0.500000 0.047470 0.500000
Si Si2 0.181738 0.942682 0.000727
Si Si3 0.386302 0.634113 0.411776
Si Si4 0.487105 0.953097 0.275094
Si Si5 0.710717 0.537922 0.215024
Si Si6 0.230175 0.771887 0.045287
Si Si7 0.922254 0.277737 0.226409
Si Si8 0.000000 0.649950 0.000000
O O1 0.674639 0.101286 0.488301
O O2 0.563919 0.987500 0.375353
O O3 0.364127 0.973344 0.875008
O O4 0.157025 0.850076 0.005419
O O5 0.000000 0.982624 0.000000
O O6 0.196455 0.964099 0.133713
O O7 0.500000 0.648994 0.500000
O O8 0.505837 0.570908 0.301534
O O9 0.373632 0.715361 0.343892
O O10 0.452622 0.859821 0.286748
O O11 0.299729 0.002571 0.307728
O O12 0.837422 0.602408 0.112967
O O13 0.259896 0.785540 0.178017
O O14 0.079579 0.703442 0.082072
O O15 0.407003 0.747905 0.908585
#
# Coordination Sequence:
#
# PCOD8049914 Si02
#       8
#     2   4   4   4   4   4   4   2
#     4  12  28  48  68  94 132 182 230 272 324 394
#     4  11  21  38  66  99 133 169 217 273 332 394
#     4  12  27  47  67  96 135 177 225 277 326 391
#     4  11  23  44  66  96 131 176 221 270 330 395
#     4  12  23  42  67  98 133 172 217 276 331 388
#     4  10  21  38  63  99 135 167 210 271 337 396
#     4  10  23  42  67  93 131 174 220 270 331 395
#     4  12  22  36  66 104 136 170 208 270 344 394
#
# _framework density 20.457654000000002
#
# number of rings (size 3 to 8) (size 9 to 14) (size 15 to 20)
#    0.000    0.857    6.429    0.857    3.000    1.143 
#    0.000    1.429    0.000    0.000    0.000    0.000 
#    0.000    0.000    0.000    0.000    0.000    0.000 
#
# Total GULP energy -173533.512933 kJ/mol
# GULP energy per Si atom -12395.250924 kJ/mol
# Density = 2.041109 g / cm^3
# Si number density = 20.457654 Si / 1000 Ang^3
#
#
#
# Elastic Constant Matrix: (Units=GPa)
#
#
# Indices 1 2 3 4 5 6 
#
# 1 111.5839 33.1291 28.9025 0.0000 3.5850 0.0000
# 2 33.1291 87.1616 35.5998 0.0000 0.9762 0.0000
# 3 28.9025 35.5998 84.1034 0.0000 11.1022 0.0000
# 4 0.0000 0.0000 0.0000 28.4852 0.0000 13.2253
# 5 3.5850 0.9762 11.1022 0.0000 38.8123 0.0000
# 6 0.0000 0.0000 0.0000 13.2253 0.0000 24.0657
#
#
#
# Elastic Compliance Matrix: (Units=1/GPa)
#
#
# Indices 1 2 3 4 5 6 
#
# 1 0.010463 -0.003045 -0.002275 0.000000 -0.000239 0.000000
# 2 -0.003045 0.014829 -0.005423 0.000000 0.001460 0.000000
# 3 -0.002275 -0.005423 0.015507 0.000000 -0.004089 0.000000
# 4 0.000000 0.000000 0.000000 0.047132 0.000000 -0.025901
# 5 -0.000239 0.001460 -0.004089 0.000000 0.026920 0.000000
# 6 0.000000 0.000000 0.000000 -0.025901 0.000000 0.055787
#
#
# Mechanical properties :
#
#
# Convention : Reuss Voigt Hill
#
# Bulk Modulus (GPa) = 51.77941 53.12351 52.45146
# Shear Modulus (GPa) = 25.18107 30.62047 27.90077
#
# Velocity S-wave (km/s) = 3.51221 3.87301 3.69701
# Velocity P-wave (km/s) = 6.46629 6.78412 6.62711
#
# Compressibility (1/GPa) = 0.01931270
#
# Stress axis : x y z
#
# Youngs Moduli (GPa) = 95.57595 67.43579 64.48546
#
# Poissons Ratio (x) = 0.20533 0.14672
# Poissons Ratio (y) = 0.29102 0.34972
# Poissons Ratio (z) = 0.21746 0.36572
#
# Static dielectric constant tensor:
#      x y z
#    x 3.857880 0.000000 0.122730 
#    y 0.000000 3.617760 0.000000 
#    z 0.122730 0.000000 3.642130 
# 
# 
# High freq. dielectric constant tensor:
#      x y z
#    x 1.811070 0.000000 0.010020 
#    y 0.000000 1.806130 0.000000 
#    z 0.010020 0.000000 1.782540 
# 
# From -- ./inp_files/36327.got.cif
#   From: 2010.03.12/outbox.cif.g09.slc.cpg/sg5_19_cif.got.tgz:36327.got - 2010.03.31 09:47:26.
