data_PCOD8049921
_publ_section_title
;
Structure prediction by ZEFSAII (Michael W. Deem and Ramdas Pophale) SiO2 
 PCOD8049921
Probable space group: C 2
;
_chemical_formula_sum "Si O2"
_cell_formula_units_Z 20
_cell_length_a 24.244385
_cell_length_b 5.126881
_cell_length_c 8.800484
_cell_angle_alpha 90.000000
_cell_angle_beta 132.880523
_cell_angle_gamma 90.000000
_cell_volume 801.569478
_symmetry_space_group_name_H-M "C 2"
_symmetry_group_IT_number 5
_symmetry_cell_setting 'monoclinic'
loop_
_space_group_symop_operation_xyz
x,y,z
-x,y,-z
1/2+x,1/2+y,z
1/2-x,1/2+y,-z
loop_
_atom_site_type_symbol
_atom_site_label
_atom_site_fract_x
_atom_site_fract_y
_atom_site_fract_z
Si Si1 0.547971 0.582580 0.739370
Si Si2 0.279681 0.722239 0.989426
Si Si3 0.957017 0.554133 0.077153
Si Si4 0.194787 0.878662 0.540828
Si Si5 0.660528 0.882571 0.358698
O O1 0.500000 0.512351 0.500000
O O2 0.552892 0.326226 0.854432
O O3 0.507627 0.827533 0.749425
O O4 0.631633 0.671140 0.849453
O O5 0.243912 0.885969 0.783404
O O6 0.237162 0.441333 0.913102
O O7 0.877817 0.421003 0.877639
O O8 0.000000 0.596130 0.000000
O O9 0.249160 0.865632 0.494731
O O10 0.140238 0.626649 0.430195
O O11 0.138259 0.123303 0.411799
#
# Coordination Sequence:
#
# PCOD8049921 Si02
#       5
#     4   4   4   4   4
#     4  12  28  51  75 106 155 203 245 304 375 446
#     4  12  26  44  73 106 146 196 246 300 364 450
#     4  12  26  47  77 106 145 195 252 305 364 446
#     4  10  21  38  65 100 133 175 224 291 362 418
#     4  10  21  38  68  98 132 175 224 294 363 416
#
# _framework density 24.951049000000001
#
# number of rings (size 3 to 8) (size 9 to 14) (size 15 to 20)
#    0.000    0.800    2.000    4.800    5.600    4.800 
#    0.000    0.000    0.000    0.000    0.000    0.000 
#    0.000    0.000    0.000    0.000    0.000    0.000 
#
# Total GULP energy -123888.356830 kJ/mol
# GULP energy per Si atom -12388.835683 kJ/mol
# Density = 2.489426 g / cm^3
# Si number density = 24.951049 Si / 1000 Ang^3
#
#
#
# Elastic Constant Matrix: (Units=GPa)
#
#
# Indices 1 2 3 4 5 6 
#
# 1 83.4429 48.6965 33.1636 0.0000 -0.8141 0.0000
# 2 48.6965 237.0850 65.7189 0.0000 -8.1058 0.0000
# 3 33.1636 65.7189 139.5280 0.0000 -15.4110 0.0000
# 4 0.0000 0.0000 0.0000 52.1921 0.0000 -15.1597
# 5 -0.8141 -8.1058 -15.4110 0.0000 19.1095 0.0000
# 6 0.0000 0.0000 0.0000 -15.1597 0.0000 35.2731
#
#
#
# Elastic Compliance Matrix: (Units=1/GPa)
#
#
# Indices 1 2 3 4 5 6 
#
# 1 0.014339 -0.002311 -0.002591 0.000000 -0.002459 0.000000
# 2 -0.002311 0.005225 -0.001842 0.000000 0.000632 0.000000
# 3 -0.002591 -0.001842 0.009388 0.000000 0.006680 0.000000
# 4 0.000000 0.000000 0.000000 0.021893 0.000000 0.009409
# 5 -0.002459 0.000632 0.006680 0.000000 0.057880 0.000000
# 6 0.000000 0.000000 0.000000 0.009409 0.000000 0.032394
#
#
# Mechanical properties :
#
#
# Convention : Reuss Voigt Hill
#
# Bulk Modulus (GPa) = 64.66727 83.91265 74.28996
# Shear Modulus (GPa) = 31.29667 42.14673 36.72170
#
# Velocity S-wave (km/s) = 3.54548 4.11442 3.84050
# Velocity P-wave (km/s) = 6.53717 7.50168 7.03597
#
# Compressibility (1/GPa) = 0.01546377
#
# Stress axis : x y z
#
# Youngs Moduli (GPa) = 69.74108 191.39841 106.51708
#
# Poissons Ratio (x) = 0.44231 0.27601
# Poissons Ratio (y) = 0.16117 0.19618
# Poissons Ratio (z) = 0.18072 0.35251
#
# Static dielectric constant tensor:
#      x y z
#    x 4.278850 0.000000 0.011370 
#    y 0.000000 5.301180 0.000000 
#    z 0.011370 0.000000 4.589980 
# 
# 
# High freq. dielectric constant tensor:
#      x y z
#    x 1.970160 0.000000 -0.002830 
#    y 0.000000 2.026840 0.000000 
#    z -0.002830 0.000000 1.996030 
# 
# From -- ./inp_files/30358.got.cif
#   From: 2010.03.12/outbox.cif.g09.slc.cpg/sg5_16_cif.got.tgz:30358.got - 2010.03.31 09:47:26.
