data_PCOD8049555
_publ_section_title
;
Structure prediction by ZEFSAII (Michael W. Deem and Ramdas Pophale) SiO2 
 PCOD8049555
Probable space group: C 2
;
_chemical_formula_sum "Si O2"
_cell_formula_units_Z 26
_cell_length_a 12.572053
_cell_length_b 12.563331
_cell_length_c 9.432975
_cell_angle_alpha 90.000000
_cell_angle_beta 127.967091
_cell_angle_gamma 90.000000
_cell_volume 1174.590830
_symmetry_space_group_name_H-M "C 2"
_symmetry_group_IT_number 5
_symmetry_cell_setting 'monoclinic'
loop_
_space_group_symop_operation_xyz
x,y,z
-x,y,-z
1/2+x,1/2+y,z
1/2-x,1/2+y,-z
loop_
_atom_site_type_symbol
_atom_site_label
_atom_site_fract_x
_atom_site_fract_y
_atom_site_fract_z
Si Si1 0.900915 0.913720 0.540232
Si Si2 0.245776 0.233027 0.287410
Si Si3 0.500000 0.615038 0.000000
Si Si4 0.462003 0.028940 0.123856
Si Si5 0.275813 0.453890 0.894739
Si Si6 0.311297 0.026259 0.471311
Si Si7 0.400364 0.262139 0.133536
O O1 0.773104 0.850440 0.368349
O O2 0.000000 0.959510 0.500000
O O3 0.980983 0.833372 0.705091
O O4 0.835332 0.010136 0.574022
O O5 0.090030 0.194586 0.171196
O O6 0.333996 0.150103 0.453271
O O7 0.293706 0.224689 0.164411
O O8 0.600968 0.538355 0.995761
O O9 0.318045 0.980356 0.047662
O O10 0.568843 0.988707 0.328972
O O11 0.459963 0.156864 0.110923
O O12 0.500000 0.983536 0.000000
O O13 0.192680 0.460461 0.679380
O O14 0.327952 0.333202 0.953592
#
# Coordination Sequence:
#
# PCOD8049555 Si02
#       7
#     4   4   2   4   4   4   4
#     4  10  23  39  70  98 140 187 237 282 349 424
#     4  10  21  39  69  98 136 188 229 289 353 411
#     4  10  20  40  68  96 140 174 238 288 346 404
#     4  12  27  43  70 103 146 180 236 296 349 416
#     4  11  25  43  72 102 133 189 237 286 351 422
#     4  11  23  46  68 101 140 188 230 292 352 418
#     4  11  22  43  70 102 137 183 243 280 349 423
#
# _framework density 22.135368
#
# number of rings (size 3 to 8) (size 9 to 14) (size 15 to 20)
#    0.000    1.231    4.615    2.308    7.538    1.231 
#    0.000    0.000    0.000    0.000    0.000    0.000 
#    0.000    0.000    0.000    0.000    0.000    0.000 
#
# Total GULP energy -161166.593581 kJ/mol
# GULP energy per Si atom -12397.430275 kJ/mol
# Density = 2.208499 g / cm^3
# Si number density = 22.135368 Si / 1000 Ang^3
#
#
#
# Elastic Constant Matrix: (Units=GPa)
#
#
# Indices 1 2 3 4 5 6 
#
# 1 127.6949 31.0706 44.7499 0.0000 -5.0369 0.0000
# 2 31.0706 61.1745 18.0581 0.0000 -4.0193 0.0000
# 3 44.7499 18.0581 107.4939 0.0000 -2.5604 0.0000
# 4 0.0000 0.0000 0.0000 33.1368 0.0000 -1.9881
# 5 -5.0369 -4.0193 -2.5604 0.0000 37.1501 0.0000
# 6 0.0000 0.0000 0.0000 -1.9881 0.0000 36.2585
#
#
#
# Elastic Compliance Matrix: (Units=1/GPa)
#
#
# Indices 1 2 3 4 5 6 
#
# 1 0.010065 -0.004035 -0.003496 0.000000 0.000687 0.000000
# 2 -0.004035 0.018921 -0.001465 0.000000 0.001399 0.000000
# 3 -0.003496 -0.001465 0.011007 0.000000 0.000126 0.000000
# 4 0.000000 0.000000 0.000000 0.030278 0.000000 0.001660
# 5 0.000687 0.001399 0.000126 0.000000 0.027171 0.000000
# 6 0.000000 0.000000 0.000000 0.001660 0.000000 0.027671
#
#
# Mechanical properties :
#
#
# Convention : Reuss Voigt Hill
#
# Bulk Modulus (GPa) = 45.45363 53.79118 49.62241
# Shear Modulus (GPa) = 33.23613 34.80805 34.02209
#
# Velocity S-wave (km/s) = 3.87912 3.96979 3.92471
# Velocity P-wave (km/s) = 6.37514 6.73543 6.55776
#
# Compressibility (1/GPa) = 0.02200044
#
# Stress axis : x y z
#
# Youngs Moduli (GPa) = 99.35227 52.85262 90.84800
#
# Poissons Ratio (x) = 0.21326 0.31760
# Poissons Ratio (y) = 0.40089 0.13313
# Poissons Ratio (z) = 0.34733 0.07745
#
# Static dielectric constant tensor:
#      x y z
#    x 3.988460 0.000000 0.024190 
#    y 0.000000 3.912930 0.000000 
#    z 0.024190 0.000000 3.966390 
# 
# 
# High freq. dielectric constant tensor:
#      x y z
#    x 1.870240 0.000000 0.006060 
#    y 0.000000 1.857010 0.000000 
#    z 0.006060 0.000000 1.870630 
# 
# From -- ./inp_files/20480.got.cif
#   From: 2010.03.12/outbox.cif.g09.slc.cpg/sg5_11_cif.got.tgz:20480.got - 2010.03.31 09:47:26.
