data_PCOD8049882
_publ_section_title
;
Structure prediction by ZEFSAII (Michael W. Deem and Ramdas Pophale) SiO2 
 PCOD8049882
Probable space group: C 2
;
_chemical_formula_sum "Si O2"
_cell_formula_units_Z 32
_cell_length_a 10.074380
_cell_length_b 9.851137
_cell_length_c 22.589930
_cell_angle_alpha 90.000000
_cell_angle_beta 49.163263
_cell_angle_gamma 90.000000
_cell_volume 1696.180623
_symmetry_space_group_name_H-M "C 2"
_symmetry_group_IT_number 5
_symmetry_cell_setting 'monoclinic'
loop_
_space_group_symop_operation_xyz
x,y,z
-x,y,-z
1/2+x,1/2+y,z
1/2-x,1/2+y,-z
loop_
_atom_site_type_symbol
_atom_site_label
_atom_site_fract_x
_atom_site_fract_y
_atom_site_fract_z
Si Si1 0.699045 0.222330 0.957069
Si Si2 0.422885 0.240444 0.458914
Si Si3 0.180689 0.027805 0.474147
Si Si4 0.809380 0.472945 0.207717
Si Si5 0.040480 0.473737 0.708174
Si Si6 0.064645 0.188814 0.223397
Si Si7 0.298111 0.186633 0.723483
Si Si8 0.897681 0.438010 0.972895
O O1 0.814209 0.240942 0.865133
O O2 0.767676 0.323143 0.987531
O O3 0.500000 0.260754 0.000000
O O4 0.716949 0.068319 0.974725
O O5 0.500000 0.201713 0.500000
O O6 0.354739 0.394347 0.476468
O O7 0.574153 0.225677 0.366874
O O8 0.260883 0.141464 0.493164
O O9 0.000000 0.085495 0.500000
O O10 0.308270 0.989701 0.383712
O O11 0.652164 0.574060 0.237793
O O12 0.737680 0.319671 0.226619
O O13 0.881759 0.511849 0.250847
O O14 0.964201 0.489941 0.115668
O O15 0.973743 0.319313 0.724620
O O16 0.878272 0.572695 0.742423
O O17 0.883321 0.129362 0.250225
O O18 0.000000 0.378813 0.000000
#
# Coordination Sequence:
#
# PCOD8049882 Si02
#       8
#     4   4   4   4   4   4   4   4
#     4  11  23  42  60  88 117 151 200 249 301 358
#     4  10  21  38  60  90 124 160 200 244 294 350
#     4  10  21  38  60  90 124 160 200 244 294 350
#     4  11  21  41  61  81 121 154 195 253 296 351
#     4  10  23  39  61  91 120 159 205 240 297 359
#     4  11  21  41  61  81 121 154 195 253 296 351
#     4  10  23  39  61  91 120 159 205 240 297 359
#     4  11  23  42  60  88 117 151 200 249 301 358
#
# _framework density 18.865915000000001
#
# number of rings (size 3 to 8) (size 9 to 14) (size 15 to 20)
#    0.000    1.500    5.000    3.000    0.000    8.000 
#    0.000    5.000    0.000    0.000    0.000    0.000 
#    0.000    0.000    0.000    0.000    0.000    0.000 
#
# Total GULP energy -198459.569067 kJ/mol
# GULP energy per Si atom -12403.723067 kJ/mol
# Density = 1.882298 g / cm^3
# Si number density = 18.865915 Si / 1000 Ang^3
#
#
#
# Elastic Constant Matrix: (Units=GPa)
#
#
# Indices 1 2 3 4 5 6 
#
# 1 135.5485 74.5855 14.4714 0.0000 -13.2409 0.0000
# 2 74.5855 80.8984 -3.9121 0.0000 -7.0610 0.0000
# 3 14.4714 -3.9121 49.1747 0.0000 -11.5537 0.0000
# 4 0.0000 0.0000 0.0000 13.4169 0.0000 -8.0786
# 5 -13.2409 -7.0610 -11.5537 0.0000 28.6308 0.0000
# 6 0.0000 0.0000 0.0000 -8.0786 0.0000 23.9235
#
#
#
# Elastic Compliance Matrix: (Units=1/GPa)
#
#
# Indices 1 2 3 4 5 6 
#
# 1 0.016696 -0.015537 -0.005784 0.000000 0.001556 0.000000
# 2 -0.015537 0.027258 0.007327 0.000000 0.002494 0.000000
# 3 -0.005784 0.007327 0.024765 0.000000 0.009126 0.000000
# 4 0.000000 0.000000 0.000000 0.093555 0.000000 0.031592
# 5 0.001556 0.002494 0.009126 0.000000 0.039944 0.000000
# 6 0.000000 0.000000 0.000000 0.031592 0.000000 0.052468
#
#
# Mechanical properties :
#
#
# Convention : Reuss Voigt Hill
#
# Bulk Modulus (GPa) = 24.55202 48.43457 36.49329
# Shear Modulus (GPa) = 16.87753 25.22604 21.05178
#
# Velocity S-wave (km/s) = 2.99424 3.66064 3.34408
# Velocity P-wave (km/s) = 4.99962 6.60271 5.85628
#
# Compressibility (1/GPa) = 0.04072985
#
# Stress axis : x y z
#
# Youngs Moduli (GPa) = 59.89340 36.68643 40.37996
#
# Poissons Ratio (x) = 0.57001 0.23356
# Poissons Ratio (y) = 0.93059 -0.29586
# Poissons Ratio (z) = 0.34643 -0.26879
#
# Static dielectric constant tensor:
#      x y z
#    x 3.695960 0.000000 -0.089660 
#    y 0.000000 3.521730 0.000000 
#    z -0.089660 0.000000 3.633600 
# 
# 
# High freq. dielectric constant tensor:
#      x y z
#    x 1.739880 0.000000 -0.004830 
#    y 0.000000 1.731300 0.000000 
#    z -0.004830 0.000000 1.747640 
# 
# From -- ./inp_files/64550.got.cif
#   From: 2010.03.12/outbox.cif.g09.slc.cpg/sg5_33_cif.got.tgz:64550.got - 2010.03.31 09:47:26.
