data_PCOD8049907
_publ_section_title
;
Structure prediction by ZEFSAII (Michael W. Deem and Ramdas Pophale) SiO2 
 PCOD8049907
Probable space group: C 2
;
_chemical_formula_sum "Si O2"
_cell_formula_units_Z 32
_cell_length_a 19.875852
_cell_length_b 16.533211
_cell_length_c 8.147148
_cell_angle_alpha 90.000000
_cell_angle_beta 144.703228
_cell_angle_gamma 90.000000
_cell_volume 1546.944942
_symmetry_space_group_name_H-M "C 2"
_symmetry_group_IT_number 5
_symmetry_cell_setting 'monoclinic'
loop_
_space_group_symop_operation_xyz
x,y,z
-x,y,-z
1/2+x,1/2+y,z
1/2-x,1/2+y,-z
loop_
_atom_site_type_symbol
_atom_site_label
_atom_site_fract_x
_atom_site_fract_y
_atom_site_fract_z
Si Si1 0.236671 0.871370 0.795792
Si Si2 0.857280 0.757540 0.885632
Si Si3 0.762340 0.590300 0.726139
Si Si4 0.167808 0.927111 0.014253
Si Si5 0.653768 0.044944 0.466392
Si Si6 0.560100 0.975365 0.794442
Si Si7 0.384245 0.225263 0.558570
Si Si8 0.939581 0.980426 0.704118
O O1 0.201655 0.914270 0.894954
O O2 0.206124 0.776147 0.734960
O O3 0.160227 0.911612 0.497506
O O4 0.373722 0.889712 0.035779
O O5 0.770503 0.686221 0.772533
O O6 0.864577 0.750692 0.706041
O O7 0.807611 0.844264 0.837685
O O8 0.982464 0.745347 0.222140
O O9 0.821347 0.560615 0.673949
O O10 0.625459 0.565971 0.460672
O O11 0.838764 0.543815 0.015055
O O12 0.034580 0.957540 0.756396
O O13 0.241199 0.998289 0.241322
O O14 0.639643 0.131754 0.526337
O O15 0.534588 0.994193 0.253254
O O16 0.500000 0.969938 0.500000
O O17 0.000000 0.980559 0.000000
#
# Coordination Sequence:
#
# PCOD8049907 Si02
#       8
#     4   4   4   4   4   4   4   4
#     4  11  24  39  62  93 129 164 206 257 316 363
#     4  10  21  38  63  91 124 154 213 259 302 364
#     4  10  22  40  65  95 124 162 205 262 316 361
#     4  12  23  39  64  96 125 165 206 255 309 373
#     4  11  22  41  67  93 122 164 209 256 309 372
#     4  11  22  39  62  92 128 161 208 255 312 368
#     4  10  21  40  62  93 122 160 208 261 304 360
#     4  11  21  38  65  93 125 162 207 255 312 365
#
# _framework density 20.685934
#
# number of rings (size 3 to 8) (size 9 to 14) (size 15 to 20)
#    0.000    1.250    5.000    1.500    1.750    1.000 
#    0.000    1.250    0.000    0.000    0.000    0.000 
#    0.000    0.000    0.000    0.000    0.000    0.000 
#
# Total GULP energy -198357.018061 kJ/mol
# GULP energy per Si atom -12397.313629 kJ/mol
# Density = 2.063885 g / cm^3
# Si number density = 20.685934 Si / 1000 Ang^3
#
#
#
# Elastic Constant Matrix: (Units=GPa)
#
#
# Indices 1 2 3 4 5 6 
#
# 1 55.0355 40.0827 21.3878 0.0000 23.5367 0.0000
# 2 40.0827 125.0058 55.2452 0.0000 11.2333 0.0000
# 3 21.3878 55.2452 117.1400 0.0000 11.4289 0.0000
# 4 0.0000 0.0000 0.0000 35.9783 0.0000 10.2101
# 5 23.5367 11.2333 11.4289 0.0000 22.1938 0.0000
# 6 0.0000 0.0000 0.0000 10.2101 0.0000 26.4701
#
#
#
# Elastic Compliance Matrix: (Units=1/GPa)
#
#
# Indices 1 2 3 4 5 6 
#
# 1 0.042808 -0.010577 0.001137 0.000000 -0.040630 0.000000
# 2 -0.010577 0.012888 -0.004848 0.000000 0.007191 0.000000
# 3 0.001137 -0.004848 0.011049 0.000000 -0.004441 0.000000
# 4 0.000000 0.000000 0.000000 0.031211 0.000000 -0.012039
# 5 -0.040630 0.007191 -0.004441 0.000000 0.086793 0.000000
# 6 0.000000 0.000000 0.000000 -0.012039 0.000000 0.042422
#
#
# Mechanical properties :
#
#
# Convention : Reuss Voigt Hill
#
# Bulk Modulus (GPa) = 26.20112 58.95696 42.57904
# Shear Modulus (GPa) = 18.62393 28.95948 23.79170
#
# Velocity S-wave (km/s) = 3.00379 3.74566 3.39505
# Velocity P-wave (km/s) = 4.97232 6.87528 5.99973
#
# Compressibility (1/GPa) = 0.03816631
#
# Stress axis : x y z
#
# Youngs Moduli (GPa) = 23.36014 77.59297 90.50435
#
# Poissons Ratio (x) = 0.82074 -0.10287
# Poissons Ratio (y) = 0.24709 0.43880
# Poissons Ratio (z) = -0.02655 0.37620
#
# Static dielectric constant tensor:
#      x y z
#    x 3.753700 0.000000 0.178190 
#    y 0.000000 3.921780 0.000000 
#    z 0.178190 0.000000 3.865990 
# 
# 
# High freq. dielectric constant tensor:
#      x y z
#    x 1.795760 0.000000 -0.001980 
#    y 0.000000 1.803300 0.000000 
#    z -0.001980 0.000000 1.810820 
# 
# From -- ./inp_files/31095.got.cif
#   From: 2010.03.12/outbox.cif.g09.slc.cpg/sg5_16_cif.got.tgz:31095.got - 2010.03.31 09:47:26.
