data_PCOD8049336
_publ_section_title
;
Structure prediction by ZEFSAII (Michael W. Deem and Ramdas Pophale) SiO2 
 PCOD8049336
Probable space group: C 2
;
_chemical_formula_sum "Si O2"
_cell_formula_units_Z 26
_cell_length_a 8.876109
_cell_length_b 20.325251
_cell_length_c 11.793217
_cell_angle_alpha 90.000000
_cell_angle_beta 37.909134
_cell_angle_gamma 90.000000
_cell_volume 1307.223381
_symmetry_space_group_name_H-M "C 2"
_symmetry_group_IT_number 5
_symmetry_cell_setting 'monoclinic'
loop_
_space_group_symop_operation_xyz
x,y,z
-x,y,-z
1/2+x,1/2+y,z
1/2-x,1/2+y,-z
loop_
_atom_site_type_symbol
_atom_site_label
_atom_site_fract_x
_atom_site_fract_y
_atom_site_fract_z
Si Si1 0.398306 0.292660 0.676525
Si Si2 0.226487 0.065029 0.287164
Si Si3 0.876792 0.419740 0.245839
Si Si4 0.726346 0.880353 0.442406
Si Si5 0.774571 0.091689 0.972740
Si Si6 0.500000 0.694832 0.000000
Si Si7 0.415690 0.448959 0.929849
O O1 0.500000 0.261222 0.500000
O O2 0.255081 0.359471 0.734561
O O3 0.622211 0.313190 0.625587
O O4 0.232656 0.239297 0.834791
O O5 0.174857 0.089887 0.191231
O O6 0.000000 0.088524 0.500000
O O7 0.249920 0.985891 0.274755
O O8 0.484088 0.096877 0.175133
O O9 0.858622 0.416048 0.392366
O O10 0.160566 0.416292 0.041464
O O11 0.500000 0.858097 0.500000
O O12 0.882943 0.934961 0.284080
O O13 0.923528 0.152357 0.936551
O O14 0.881558 0.026499 0.966245
O O15 0.500000 0.418652 0.000000
#
# Coordination Sequence:
#
# PCOD8049336 Si02
#       7
#     4   4   4   4   4   2   4
#     4  10  23  41  62  86 117 162 205 249 297 363
#     4  10  20  40  65  93 120 155 190 252 318 362
#     4  10  20  38  62  93 124 152 198 242 311 374
#     4  11  21  36  60  95 125 151 194 252 308 368
#     4  10  23  38  59  88 123 158 208 243 286 367
#     4  12  24  44  60  84 118 168 214 252 286 344
#     4  11  19  33  57  91 125 153 180 246 310 356
#
# _framework density 19.889485000000001
#
# number of rings (size 3 to 8) (size 9 to 14) (size 15 to 20)
#    0.000    1.538    2.308    4.154    0.000    3.692 
#    0.000    7.692    0.000    0.000    0.000    0.000 
#    0.000    0.000    0.000    0.000    0.000    0.000 
#
# Total GULP energy -161233.134759 kJ/mol
# GULP energy per Si atom -12402.548828 kJ/mol
# Density = 1.984422 g / cm^3
# Si number density = 19.889485 Si / 1000 Ang^3
#
#
#
# Elastic Constant Matrix: (Units=GPa)
#
#
# Indices 1 2 3 4 5 6 
#
# 1 131.3521 50.8234 54.5923 0.0001 -3.5861 0.0000
# 2 50.8234 69.7513 43.5992 0.0000 1.9741 0.0000
# 3 54.5923 43.5992 134.5890 0.0001 -7.7857 0.0000
# 4 0.0001 0.0000 0.0001 -0.2265 -0.0001 -0.7070
# 5 -3.5861 1.9741 -7.7857 -0.0001 31.4757 0.0000
# 6 0.0000 0.0000 0.0000 -0.7070 0.0000 16.4433
#
#
#
# Elastic Compliance Matrix: (Units=1/GPa)
#
#
# Indices 1 2 3 4 5 6 
#
# 1 0.011217 -0.006774 -0.002290 0.000001 0.001136 0.000000
# 2 -0.006774 0.022281 -0.004662 0.000000 -0.003322 0.000000
# 3 -0.002290 -0.004662 0.010014 0.000001 0.002509 0.000000
# 4 0.000001 0.000000 0.000001 -3.892959 -0.000009 -0.167393
# 5 0.001136 -0.003322 0.002509 -0.000009 0.032729 0.000000
# 6 0.000000 0.000000 0.000000 -0.167393 0.000000 0.053617
#
#
# Mechanical properties :
#
#
# Convention : Reuss Voigt Hill
#
# Bulk Modulus (GPa) = 62.26656 70.41355 66.34005
# Shear Modulus (GPa) = -1.34038 21.98367 10.32165
#
# Velocity S-wave (km/s) = -0.82181 3.32820 2.28052
# Velocity P-wave (km/s) = 5.52030 7.08861 6.35304
#
# Compressibility (1/GPa) = 0.01605999
#
# Stress axis : x y z
#
# Youngs Moduli (GPa) = 89.15219 44.88211 99.85854
#
# Poissons Ratio (x) = 0.30403 0.22864
# Poissons Ratio (y) = 0.60391 0.46556
# Poissons Ratio (z) = 0.20413 0.20925
#
# Static dielectric constant tensor:
#      x y z
#    x 3.766180 0.000000 -0.094910 
#    y 0.000000 3.261370 0.000000 
#    z -0.094910 0.000000 3.902300 
# 
# 
# High freq. dielectric constant tensor:
#      x y z
#    x 1.791200 0.000000 -0.002380 
#    y 0.000000 1.740090 0.000000 
#    z -0.002380 0.000000 1.791280 
# 
# From -- ./inp_files/37264.got.cif
#   From: 2010.03.12/outbox.cif.g09.slc.cpg/sg5_19_cif.got.tgz:37264.got - 2010.03.31 09:47:26.
