data_PCOD8049662
_publ_section_title
;
Structure prediction by ZEFSAII (Michael W. Deem and Ramdas Pophale) SiO2 
 PCOD8049662
Probable space group: C 2
;
_chemical_formula_sum "Si O2"
_cell_formula_units_Z 30
_cell_length_a 17.374440
_cell_length_b 13.876995
_cell_length_c 5.896335
_cell_angle_alpha 90.000000
_cell_angle_beta 106.714630
_cell_angle_gamma 90.000000
_cell_volume 1361.570536
_symmetry_space_group_name_H-M "C 2"
_symmetry_group_IT_number 5
_symmetry_cell_setting 'monoclinic'
loop_
_space_group_symop_operation_xyz
x,y,z
-x,y,-z
1/2+x,1/2+y,z
1/2-x,1/2+y,-z
loop_
_atom_site_type_symbol
_atom_site_label
_atom_site_fract_x
_atom_site_fract_y
_atom_site_fract_z
Si Si1 0.644660 0.375000 0.247440
Si Si2 0.363560 0.019822 0.532866
Si Si3 0.910716 0.341003 0.854561
Si Si4 0.541371 0.203554 0.289533
Si Si5 0.702500 0.529053 0.632646
Si Si6 0.211637 0.423836 0.916383
Si Si7 0.936629 0.152217 0.616958
Si Si8 0.000000 0.995149 0.000000
O O1 0.617724 0.272537 0.324414
O O2 0.657265 0.442193 0.472724
O O3 0.730502 0.360862 0.196421
O O4 0.576730 0.424406 0.027046
O O5 0.434479 0.093493 0.643698
O O6 0.282346 0.062311 0.570052
O O7 0.384495 0.913686 0.638090
O O8 0.347772 0.000827 0.254569
O O9 0.908445 0.230233 0.775970
O O10 0.844280 0.349773 0.995540
O O11 0.000000 0.370816 0.000000
O O12 0.500000 0.235071 0.500000
O O13 0.500000 0.207906 0.000000
O O14 0.641585 0.618801 0.589797
O O15 0.727253 0.492756 0.899155
O O16 0.000000 0.202218 0.500000
O O17 0.983868 0.062548 0.769681
#
# Coordination Sequence:
#
# PCOD8049662 Si02
#       8
#     4   4   4   4   4   4   4   2
#     4  10  22  44  70 103 136 183 236 293 364 426
#     4  10  25  45  69  97 136 187 238 293 356 423
#     4  11  25  43  67 102 135 180 238 289 356 423
#     4  12  29  47  74 111 144 191 242 299 364 431
#     4   9  22  43  67 101 136 182 234 292 360 425
#     4  10  23  45  73  94 140 189 230 298 356 423
#     4  11  23  39  67 103 137 180 229 291 359 426
#     4  10  20  42  68 100 140 174 228 288 362 428
#
# _framework density 22.033380000000001
#
# number of rings (size 3 to 8) (size 9 to 14) (size 15 to 20)
#    0.000    1.600    1.333    1.200    9.333    5.333 
#    0.000    2.667    0.000    0.000    0.000    0.000 
#    0.000    0.000    0.000    0.000    0.000    0.000 
#
# Total GULP energy -185852.309241 kJ/mol
# GULP energy per Si atom -12390.153949 kJ/mol
# Density = 2.198323 g / cm^3
# Si number density = 22.033380 Si / 1000 Ang^3
#
#
#
# Elastic Constant Matrix: (Units=GPa)
#
#
# Indices 1 2 3 4 5 6 
#
# 1 112.9765 52.7346 54.4971 0.0000 0.7895 0.0000
# 2 52.7346 91.0739 31.8678 0.0000 -5.5075 0.0000
# 3 54.4971 31.8678 120.3527 0.0000 0.3904 0.0000
# 4 0.0000 0.0000 0.0000 4.5297 0.0000 7.0683
# 5 0.7895 -5.5075 0.3904 0.0000 36.4441 0.0000
# 6 0.0000 0.0000 0.0000 7.0683 0.0000 30.8215
#
#
#
# Elastic Compliance Matrix: (Units=1/GPa)
#
#
# Indices 1 2 3 4 5 6 
#
# 1 0.014233 -0.006684 -0.004671 0.000000 -0.001268 0.000000
# 2 -0.006684 0.015368 -0.001051 0.000000 0.002478 0.000000
# 3 -0.004671 -0.001051 0.010703 0.000000 -0.000172 0.000000
# 4 0.000000 0.000000 0.000000 0.343786 0.000000 -0.078840
# 5 -0.001268 0.002478 -0.000172 0.000000 0.027843 0.000000
# 6 0.000000 0.000000 0.000000 -0.078840 0.000000 0.050525
#
#
# Mechanical properties :
#
#
# Convention : Reuss Voigt Hill
#
# Bulk Modulus (GPa) = 64.54669 66.95578 65.75124
# Shear Modulus (GPa) = 10.15366 26.71264 18.43315
#
# Velocity S-wave (km/s) = 2.14903 3.48569 2.89554
# Velocity P-wave (km/s) = 5.95956 6.83040 6.40978
#
# Compressibility (1/GPa) = 0.01549266
#
# Stress axis : x y z
#
# Youngs Moduli (GPa) = 70.25774 65.07145 93.43322
#
# Poissons Ratio (x) = 0.43492 0.43644
# Poissons Ratio (y) = 0.46958 0.09817
# Poissons Ratio (z) = 0.32818 0.06837
#
# Static dielectric constant tensor:
#      x y z
#    x 4.269330 0.000000 0.204780 
#    y 0.000000 3.699900 0.000000 
#    z 0.204780 0.000000 4.212490 
# 
# 
# High freq. dielectric constant tensor:
#      x y z
#    x 1.875630 0.000000 0.011190 
#    y 0.000000 1.854110 0.000000 
#    z 0.011190 0.000000 1.874180 
# 
# From -- ./inp_files/8678.got.cif
#   From: 2010.03.12/outbox.cif.g09.slc.cpg/sg5_5_cif.got.tgz:8678.got - 2010.03.31 09:47:26.
