data_PCOD8049458
_publ_section_title
;
Structure prediction by ZEFSAII (Michael W. Deem and Ramdas Pophale) SiO2 
 PCOD8049458
Probable space group: C 2
;
_chemical_formula_sum "Si O2"
_cell_formula_units_Z 32
_cell_length_a 16.133911
_cell_length_b 9.998646
_cell_length_c 19.552430
_cell_angle_alpha 90.000000
_cell_angle_beta 26.875668
_cell_angle_gamma 90.000000
_cell_volume 1425.849786
_symmetry_space_group_name_H-M "C 2"
_symmetry_group_IT_number 5
_symmetry_cell_setting 'monoclinic'
loop_
_space_group_symop_operation_xyz
x,y,z
-x,y,-z
1/2+x,1/2+y,z
1/2-x,1/2+y,-z
loop_
_atom_site_type_symbol
_atom_site_label
_atom_site_fract_x
_atom_site_fract_y
_atom_site_fract_z
Si Si1 0.259668 0.982610 0.573609
Si Si2 0.188639 0.707860 0.826763
Si Si3 0.807537 0.562302 0.916902
Si Si4 0.961289 0.286228 0.834550
Si Si5 0.040183 0.151675 0.640915
Si Si6 0.300124 0.207208 0.653749
Si Si7 0.169172 0.711384 0.685726
Si Si8 0.175934 0.495738 0.246602
O O1 0.151839 0.872165 0.697538
O O2 0.465130 0.945184 0.398275
O O3 0.129495 0.016333 0.604933
O O4 0.284143 0.110697 0.601533
O O5 0.336165 0.626927 0.763163
O O6 0.195698 0.658567 0.743112
O O7 0.211512 0.867878 0.810761
O O8 0.000000 0.665847 0.000000
O O9 0.833348 0.417510 0.934394
O O10 0.748478 0.539501 0.882507
O O11 0.997099 0.642310 0.777399
O O12 0.651498 0.649327 0.068555
O O13 0.036907 0.269444 0.701221
O O14 0.126894 0.306313 0.768575
O O15 0.153877 0.191244 0.490866
O O16 0.500000 0.280197 0.500000
O O17 0.287062 0.123754 0.732995
#
# Coordination Sequence:
#
# PCOD8049458 Si02
#       8
#     4   4   4   4   4   4   4   4
#     4  10  20  39  68 105 132 180 240 300 339 402
#     4  12  25  40  67 103 144 184 235 290 352 420
#     4  12  27  45  71 105 145 187 236 293 365 427
#     4  11  26  46  71 105 146 186 234 293 359 428
#     4  11  23  42  69  98 139 180 236 292 343 412
#     4   9  21  39  71  99 137 180 237 297 337 405
#     4  12  24  43  71 104 137 186 240 297 349 414
#     4  11  21  41  68 106 133 185 246 285 343 424
#
# _framework density 22.442757
#
# number of rings (size 3 to 8) (size 9 to 14) (size 15 to 20)
#    0.000    1.000    5.000    1.125    5.250    0.000 
#    0.000    2.500    2.750    0.000    0.000    0.000 
#    0.000    0.000    0.000    0.000    0.000    0.000 
#
# Total GULP energy -198337.736668 kJ/mol
# GULP energy per Si atom -12396.108542 kJ/mol
# Density = 2.239168 g / cm^3
# Si number density = 22.442757 Si / 1000 Ang^3
#
#
#
# Elastic Constant Matrix: (Units=GPa)
#
#
# Indices 1 2 3 4 5 6 
#
# 1 132.4763 32.6931 57.8700 -0.0016 -0.8049 0.0010
# 2 32.6931 49.6643 34.6325 0.0258 -2.5319 -0.0059
# 3 57.8700 34.6325 111.8378 0.0283 -4.8898 -0.0065
# 4 -0.0016 0.0258 0.0283 30.3343 0.0004 -5.0784
# 5 -0.8049 -2.5319 -4.8898 0.0004 40.3205 -0.0024
# 6 0.0010 -0.0059 -0.0065 -5.0784 -0.0024 34.4107
#
#
#
# Elastic Compliance Matrix: (Units=1/GPa)
#
#
# Indices 1 2 3 4 5 6 
#
# 1 0.010329 -0.003933 -0.004151 0.000008 -0.000544 -0.000001
# 2 -0.003933 0.027195 -0.006349 -0.000017 0.000859 0.000001
# 3 -0.004151 -0.006349 0.013104 -0.000007 0.001108 0.000001
# 4 0.000008 -0.000017 -0.000007 0.033801 -0.000002 0.004988
# 5 -0.000544 0.000859 0.001108 -0.000002 0.024979 0.000002
# 6 -0.000001 0.000001 0.000001 0.004988 0.000002 0.029797
#
#
# Mechanical properties :
#
#
# Convention : Reuss Voigt Hill
#
# Bulk Modulus (GPa) = 45.94892 60.48551 53.21722
# Shear Modulus (GPa) = 28.51872 32.26525 30.39199
#
# Velocity S-wave (km/s) = 3.56860 3.79577 3.68394
# Velocity P-wave (km/s) = 6.12357 6.79853 6.46986
#
# Compressibility (1/GPa) = 0.02176330
#
# Stress axis : x y z
#
# Youngs Moduli (GPa) = 96.81608 36.77125 76.31424
#
# Poissons Ratio (x) = 0.14461 0.31675
# Poissons Ratio (y) = 0.38075 0.48451
# Poissons Ratio (z) = 0.40184 0.23346
#
# Static dielectric constant tensor:
#      x y z
#    x 4.392090 0.000010 -0.285100 
#    y 0.000010 3.950770 0.000000 
#    z -0.285100 0.000000 4.249400 
# 
# 
# High freq. dielectric constant tensor:
#      x y z
#    x 1.896880 0.000000 -0.003830 
#    y 0.000000 1.857260 0.000000 
#    z -0.003830 0.000000 1.888290 
# 
# From -- ./inp_files/61685.got.cif
#   From: 2010.03.12/outbox.cif.g09.slc.cpg/sg5_31_cif.got.tgz:61685.got - 2010.03.31 09:47:26.
