data_PCOD8049002
_publ_section_title
;
Structure prediction by ZEFSAII (Michael W. Deem and Ramdas Pophale) SiO2 
 PCOD8049002
Probable space group: C 2
;
_chemical_formula_sum "Si O2"
_cell_formula_units_Z 22
_cell_length_a 17.217985
_cell_length_b 12.477845
_cell_length_c 13.805102
_cell_angle_alpha 90.000000
_cell_angle_beta 21.648178
_cell_angle_gamma 90.000000
_cell_volume 1094.151679
_symmetry_space_group_name_H-M "C 2"
_symmetry_group_IT_number 5
_symmetry_cell_setting 'monoclinic'
loop_
_space_group_symop_operation_xyz
x,y,z
-x,y,-z
1/2+x,1/2+y,z
1/2-x,1/2+y,-z
loop_
_atom_site_type_symbol
_atom_site_label
_atom_site_fract_x
_atom_site_fract_y
_atom_site_fract_z
Si Si1 0.250917 0.500000 0.515421
Si Si2 0.000000 0.512424 0.500000
Si Si3 0.718319 0.360143 0.705920
Si Si4 0.967271 0.648630 0.722541
Si Si5 0.008697 0.196835 0.271073
Si Si6 0.143604 0.300019 0.742793
O O1 0.332768 0.423497 0.334133
O O2 0.434355 0.574465 0.345343
O O3 0.177253 0.427000 0.690720
O O4 0.058580 0.571351 0.699472
O O5 0.810982 0.440691 0.678227
O O6 0.908853 0.584903 0.692394
O O7 0.875917 0.260422 0.506441
O O8 0.500000 0.313348 0.000000
O O9 0.132192 0.741793 0.506192
O O10 0.754874 0.698707 0.013723
O O11 0.987633 0.257578 0.194989
O O12 0.000000 0.274144 0.000000
#
# Coordination Sequence:
#
# PCOD8049002 Si02
#       6
#     4   2   4   4   4   4
#     4   9  21  37  56  80 113 147 181 223 274 325
#     4  10  20  34  58  84 106 142 188 226 270 320
#     4  10  21  36  57  83 111 144 184 228 270 321
#     4  10  20  36  58  82 110 143 184 229 270 323
#     4  10  21  37  57  82 112 146 182 225 274 322
#     4  10  21  37  58  83 110 144 184 227 272 322
#
# _framework density 20.106901000000001
#
# number of rings (size 3 to 8) (size 9 to 14) (size 15 to 20)
#    0.000    2.182    0.000    2.182    0.000   14.545 
#    0.000    0.000    0.000    0.000    0.000    0.000 
#    0.000    0.000    0.000    0.000    0.000    0.000 
#
# Total GULP energy -136420.260264 kJ/mol
# GULP energy per Si atom -12401.841842 kJ/mol
# Density = 2.006114 g / cm^3
# Si number density = 20.106901 Si / 1000 Ang^3
#
#
#
# Elastic Constant Matrix: (Units=GPa)
#
#
# Indices 1 2 3 4 5 6 
#
# 1 54.1218 26.1820 36.9542 0.0051 -2.5526 0.0016
# 2 26.1820 119.1107 69.0564 0.0021 1.2125 0.0032
# 3 36.9542 69.0564 183.8932 0.0057 -4.7678 -0.0030
# 4 0.0051 0.0021 0.0057 27.7705 -0.0093 2.6375
# 5 -2.5526 1.2125 -4.7678 -0.0093 21.0899 0.0022
# 6 0.0016 0.0032 -0.0030 2.6375 0.0022 18.6739
#
#
#
# Elastic Compliance Matrix: (Units=1/GPa)
#
#
# Indices 1 2 3 4 5 6 
#
# 1 0.022281 -0.003011 -0.003292 -0.000002 0.002126 -0.000002
# 2 -0.003011 0.011189 -0.003644 0.000000 -0.001832 -0.000002
# 3 -0.003292 -0.003644 0.007507 0.000000 0.001508 0.000002
# 4 -0.000002 0.000000 0.000000 0.036499 0.000016 -0.005155
# 5 0.002126 -0.001832 0.001508 0.000016 0.048120 -0.000008
# 6 -0.000002 -0.000002 0.000002 -0.005155 -0.000008 0.054279
#
#
# Mechanical properties :
#
#
# Convention : Reuss Voigt Hill
#
# Bulk Modulus (GPa) = 47.43036 69.05676 58.24356
# Shear Modulus (GPa) = 24.17846 28.50240 26.34043
#
# Velocity S-wave (km/s) = 3.47146 3.76911 3.62335
# Velocity P-wave (km/s) = 6.30146 7.30486 6.82163
#
# Compressibility (1/GPa) = 0.02108354
#
# Stress axis : x y z
#
# Youngs Moduli (GPa) = 44.88082 89.37552 133.20947
#
# Poissons Ratio (x) = 0.26910 0.43849
# Poissons Ratio (y) = 0.13513 0.48543
# Poissons Ratio (z) = 0.14774 0.32569
#
# Static dielectric constant tensor:
#      x y z
#    x 3.564360 -0.000010 -0.000290 
#    y -0.000010 3.852680 0.000000 
#    z -0.000290 0.000000 3.479440 
# 
# 
# High freq. dielectric constant tensor:
#      x y z
#    x 1.773300 0.000000 -0.005410 
#    y 0.000000 1.789590 0.000000 
#    z -0.005410 0.000000 1.780490 
# 
# From -- ./inp_files/4810.got.cif
#   From: 2010.03.12/outbox.cif.g09.slc.cpg/sg5_3_cif.got.tgz:4810.got - 2010.03.31 09:47:26.
