data_PCOD8049778
_publ_section_title
;
Structure prediction by ZEFSAII (Michael W. Deem and Ramdas Pophale) SiO2 
 PCOD8049778
Probable space group: C 2
;
_chemical_formula_sum "Si O2"
_cell_formula_units_Z 32
_cell_length_a 9.790564
_cell_length_b 13.950071
_cell_length_c 15.223579
_cell_angle_alpha 90.000000
_cell_angle_beta 119.467168
_cell_angle_gamma 90.000000
_cell_volume 1810.249246
_symmetry_space_group_name_H-M "C 2"
_symmetry_group_IT_number 5
_symmetry_cell_setting 'monoclinic'
loop_
_space_group_symop_operation_xyz
x,y,z
-x,y,-z
1/2+x,1/2+y,z
1/2-x,1/2+y,-z
loop_
_atom_site_type_symbol
_atom_site_label
_atom_site_fract_x
_atom_site_fract_y
_atom_site_fract_z
Si Si1 0.943106 0.216460 0.077606
Si Si2 0.082606 0.736963 0.936628
Si Si3 0.458152 0.580746 0.234354
Si Si4 0.134326 0.585340 0.218564
Si Si5 0.637706 0.865802 0.240152
Si Si6 0.252950 0.739473 0.382075
Si Si7 0.567494 0.743440 0.385370
Si Si8 0.536361 0.363211 0.755381
O O1 0.001180 0.129024 0.155761
O O2 0.015486 0.315811 0.135573
O O3 0.758452 0.221055 0.020545
O O4 0.000000 0.191819 0.000000
O O5 0.012231 0.639734 0.872124
O O6 0.070949 0.822228 0.862730
O O7 0.000000 0.769392 0.000000
O O8 0.271490 0.585639 0.189885
O O9 0.550471 0.637944 0.338921
O O10 0.516064 0.472588 0.251230
O O11 0.088452 0.477112 0.229191
O O12 0.191512 0.637757 0.325614
O O13 0.625755 0.821676 0.333692
O O14 0.813741 0.851019 0.260294
O O15 0.398697 0.777485 0.369552
O O16 0.303944 0.729494 0.498703
O O17 0.111710 0.813888 0.336090
#
# Coordination Sequence:
#
# PCOD8049778 Si02
#       8
#     4   4   4   4   4   4   4   4
#     4  11  21  36  53  80 113 142 175 222 272 311
#     4  11  21  36  57  78 107 146 183 216 263 319
#     4   9  19  36  56  78 108 140 179 220 262 313
#     4   9  19  36  57  79 103 142 185 216 254 324
#     4  10  21  36  56  81 110 139 178 224 270 312
#     4   9  19  37  58  80 107 139 181 218 265 324
#     4   9  19  37  58  79 108 143 172 221 274 317
#     4  10  21  36  55  83 108 138 183 224 260 319
#
# _framework density 17.677125
#
# number of rings (size 3 to 8) (size 9 to 14) (size 15 to 20)
#    0.000    2.250    2.500    0.000    1.750    3.500 
#    2.250    2.500    0.000    0.000    0.000    0.000 
#    0.000    0.000    0.000    0.000    0.000    0.000 
#
# Total GULP energy -198404.508680 kJ/mol
# GULP energy per Si atom -12400.281792 kJ/mol
# Density = 1.763689 g / cm^3
# Si number density = 17.677125 Si / 1000 Ang^3
#
#
#
# Elastic Constant Matrix: (Units=GPa)
#
#
# Indices 1 2 3 4 5 6 
#
# 1 93.1601 53.1285 54.7471 0.0000 -6.0600 0.0000
# 2 53.1285 149.3604 58.7352 0.0000 -3.6211 0.0000
# 3 54.7471 58.7352 125.1455 0.0000 -4.9930 0.0000
# 4 0.0000 0.0000 0.0000 13.5069 0.0000 1.1870
# 5 -6.0600 -3.6211 -4.9930 0.0000 34.9516 0.0000
# 6 0.0000 0.0000 0.0000 1.1870 0.0000 27.2727
#
#
#
# Elastic Compliance Matrix: (Units=1/GPa)
#
#
# Indices 1 2 3 4 5 6 
#
# 1 0.015959 -0.003577 -0.005237 0.000000 0.001648 0.000000
# 2 -0.003577 0.009016 -0.002669 0.000000 -0.000067 0.000000
# 3 -0.005237 -0.002669 0.011553 0.000000 0.000466 0.000000
# 4 0.000000 0.000000 0.000000 0.074320 0.000000 -0.003235
# 5 0.001648 -0.000067 0.000466 0.000000 0.028956 0.000000
# 6 0.000000 0.000000 0.000000 -0.003235 0.000000 0.036808
#
#
# Mechanical properties :
#
#
# Convention : Reuss Voigt Hill
#
# Bulk Modulus (GPa) = 73.74046 77.87640 75.80843
# Shear Modulus (GPa) = 24.49792 28.54990 26.52391
#
# Velocity S-wave (km/s) = 3.72675 4.02316 3.87779
# Velocity P-wave (km/s) = 7.76685 8.10751 7.93900
#
# Compressibility (1/GPa) = 0.01356108
#
# Stress axis : x y z
#
# Youngs Moduli (GPa) = 62.66000 110.91758 86.55833
#
# Poissons Ratio (x) = 0.39680 0.45329
# Poissons Ratio (y) = 0.22416 0.23103
# Poissons Ratio (z) = 0.32814 0.29604
#
# Static dielectric constant tensor:
#      x y z
#    x 3.285990 0.000000 -0.045780 
#    y 0.000000 3.291450 0.000000 
#    z -0.045780 0.000000 3.358780 
# 
# 
# High freq. dielectric constant tensor:
#      x y z
#    x 1.684970 0.000000 -0.001640 
#    y 0.000000 1.679120 0.000000 
#    z -0.001640 0.000000 1.692100 
# 
# From -- ./inp_files/50735.got.cif
#   From: 2010.03.12/outbox.cif.g09.slc.cpg/sg5_26_cif.got.tgz:50735.got - 2010.03.31 09:47:26.
