data_PCOD8049621
_publ_section_title
;
Structure prediction by ZEFSAII (Michael W. Deem and Ramdas Pophale) SiO2 
 PCOD8049621
Probable space group: C 2
;
_chemical_formula_sum "Si O2"
_cell_formula_units_Z 24
_cell_length_a 8.341296
_cell_length_b 17.683157
_cell_length_c 7.822858
_cell_angle_alpha 90.000000
_cell_angle_beta 62.475164
_cell_angle_gamma 90.000000
_cell_volume 1023.268620
_symmetry_space_group_name_H-M "C 2"
_symmetry_group_IT_number 5
_symmetry_cell_setting 'monoclinic'
loop_
_space_group_symop_operation_xyz
x,y,z
-x,y,-z
1/2+x,1/2+y,z
1/2-x,1/2+y,-z
loop_
_atom_site_type_symbol
_atom_site_label
_atom_site_fract_x
_atom_site_fract_y
_atom_site_fract_z
Si Si1 0.287165 0.255700 0.091915
Si Si2 0.813300 0.000485 0.048446
Si Si3 0.217274 0.655096 0.216682
Si Si4 0.198686 0.642344 0.607715
Si Si5 0.695109 0.478566 0.344136
Si Si6 0.531766 0.890386 0.296101
O O1 0.235217 0.197158 0.270855
O O2 0.154458 0.327122 0.146892
O O3 0.500000 0.278356 0.000000
O O4 0.238017 0.223635 0.930319
O O5 0.648677 0.966698 0.237710
O O6 0.841041 0.085258 0.102057
O O7 0.777184 0.996592 0.866722
O O8 0.000000 0.956853 0.000000
O O9 0.252227 0.679014 0.397225
O O10 0.013508 0.630129 0.277788
O O11 0.282433 0.558464 0.570406
O O12 0.500000 0.446560 0.500000
O O13 0.837679 0.411370 0.311305
O O14 0.500000 0.860382 0.500000
#
# Coordination Sequence:
#
# PCOD8049621 Si02
#       6
#     4   4   4   4   4   4
#     4  10  23  45  74 108 156 204 245 306 386 449
#     4  12  24  44  73 110 148 192 256 313 374 447
#     4  10  20  41  74 110 149 191 250 309 368 447
#     4  10  20  41  75 111 147 189 251 319 371 441
#     4  12  25  44  75 111 145 199 259 315 374 444
#     4  12  26  47  71 107 157 200 246 314 381 451
#
# _framework density 23.454250999999999
#
# number of rings (size 3 to 8) (size 9 to 14) (size 15 to 20)
#    0.000    1.000    3.333    4.000    0.000    0.667 
#    9.000    0.000    3.667    0.000    0.000    0.000 
#    0.000    0.000    0.000    0.000    0.000    0.000 
#
# Total GULP energy -148755.850378 kJ/mol
# GULP energy per Si atom -12396.320865 kJ/mol
# Density = 2.340087 g / cm^3
# Si number density = 23.454251 Si / 1000 Ang^3
#
#
#
# Elastic Constant Matrix: (Units=GPa)
#
#
# Indices 1 2 3 4 5 6 
#
# 1 105.4424 50.4272 49.9841 0.0000 -9.4939 0.0000
# 2 50.4272 113.6878 51.5208 0.0000 -7.8789 0.0000
# 3 49.9841 51.5208 141.3868 0.0000 8.9332 0.0000
# 4 0.0000 0.0000 0.0000 12.9786 0.0000 6.4587
# 5 -9.4939 -7.8789 8.9332 0.0000 49.5988 0.0000
# 6 0.0000 0.0000 0.0000 6.4587 0.0000 19.0836
#
#
#
# Elastic Compliance Matrix: (Units=1/GPa)
#
#
# Indices 1 2 3 4 5 6 
#
# 1 0.013300 -0.004224 -0.003319 0.000000 0.002473 0.000000
# 2 -0.004224 0.012166 -0.003046 0.000000 0.001673 0.000000
# 3 -0.003319 -0.003046 0.009535 0.000000 -0.002836 0.000000
# 4 0.000000 0.000000 0.000000 0.092655 0.000000 -0.031358
# 5 0.002473 0.001673 -0.002836 0.000000 0.021412 0.000000
# 6 0.000000 0.000000 0.000000 -0.031358 0.000000 0.063014
#
#
# Mechanical properties :
#
#
# Convention : Reuss Voigt Hill
#
# Bulk Modulus (GPa) = 72.33811 73.82011 73.07911
# Shear Modulus (GPa) = 21.02024 30.23785 25.62904
#
# Velocity S-wave (km/s) = 2.99695 3.59448 3.30923
# Velocity P-wave (km/s) = 6.54865 6.98351 6.76957
#
# Compressibility (1/GPa) = 0.01382397
#
# Stress axis : x y z
#
# Youngs Moduli (GPa) = 75.18907 82.19889 104.87540
#
# Poissons Ratio (x) = 0.34719 0.34807
# Poissons Ratio (y) = 0.31759 0.31940
# Poissons Ratio (z) = 0.24955 0.25034
#
# Static dielectric constant tensor:
#      x y z
#    x 4.311570 0.000000 -0.086030 
#    y 0.000000 3.972690 0.000000 
#    z -0.086030 0.000000 4.466090 
# 
# 
# High freq. dielectric constant tensor:
#      x y z
#    x 1.933370 0.000000 -0.006230 
#    y 0.000000 1.909340 0.000000 
#    z -0.006230 0.000000 1.947570 
# 
# From -- ./inp_files/16437.got.cif
#   From: 2010.03.12/outbox.cif.g09.slc.cpg/sg5_9_cif.got.tgz:16437.got - 2010.03.31 09:47:26.
