data_PCOD8049637
_publ_section_title
;
Structure prediction by ZEFSAII (Michael W. Deem and Ramdas Pophale) SiO2 
 PCOD8049637
Probable space group: C 2
;
_chemical_formula_sum "Si O2"
_cell_formula_units_Z 22
_cell_length_a 10.393188
_cell_length_b 14.369883
_cell_length_c 12.003148
_cell_angle_alpha 90.000000
_cell_angle_beta 146.226618
_cell_angle_gamma 90.000000
_cell_volume 996.555006
_symmetry_space_group_name_H-M "C 2"
_symmetry_group_IT_number 5
_symmetry_cell_setting 'monoclinic'
loop_
_space_group_symop_operation_xyz
x,y,z
-x,y,-z
1/2+x,1/2+y,z
1/2-x,1/2+y,-z
loop_
_atom_site_type_symbol
_atom_site_label
_atom_site_fract_x
_atom_site_fract_y
_atom_site_fract_z
Si Si1 0.573228 0.581800 0.318527
Si Si2 0.877263 0.271960 0.177181
Si Si3 0.000000 0.672118 0.500000
Si Si4 0.000000 0.001932 0.500000
Si Si5 0.982073 0.912339 0.859996
Si Si6 0.000000 0.335958 0.500000
Si Si7 0.198590 0.333825 0.230705
O O1 0.388011 0.663024 0.157349
O O2 0.603010 0.564979 0.473424
O O3 0.441000 0.495850 0.164523
O O4 0.825253 0.607360 0.446384
O O5 0.908947 0.274920 0.332374
O O6 0.095495 0.324475 0.280666
O O7 0.640244 0.319649 0.962456
O O8 0.136515 0.745217 0.678646
O O9 0.814926 0.934415 0.307896
O O10 0.721429 0.897636 0.628025
O O11 0.000000 0.947607 0.000000
O O12 0.000000 0.328737 0.000000
#
# Coordination Sequence:
#
# PCOD8049637 Si02
#       7
#     4   4   2   2   4   2   4
#     4  11  22  41  66  97 128 169 216 264 321 379
#     4  10  22  39  62  91 127 168 211 260 318 379
#     4   9  23  42  65  91 126 174 221 261 309 379
#     4  11  23  40  65  97 134 166 207 267 327 381
#     4  10  22  41  65  92 126 169 216 265 316 380
#     4  10  20  42  64  88 128 168 208 260 322 384
#     4  10  21  41  64  91 128 170 210 260 320 380
#
# _framework density 22.076053000000002
#
# number of rings (size 3 to 8) (size 9 to 14) (size 15 to 20)
#    0.000    1.818    0.000    3.273    0.000    7.273 
#    0.000   20.909    0.000    0.000    0.000    0.000 
#    0.000    0.000    0.000    0.000    0.000    0.000 
#
# Total GULP energy -136297.929217 kJ/mol
# GULP energy per Si atom -12390.720838 kJ/mol
# Density = 2.202581 g / cm^3
# Si number density = 22.076053 Si / 1000 Ang^3
#
#
#
# Elastic Constant Matrix: (Units=GPa)
#
#
# Indices 1 2 3 4 5 6 
#
# 1 114.6078 66.5534 33.7530 0.0018 -2.9258 0.0020
# 2 66.5534 141.1596 65.6789 0.0006 9.9260 -0.0001
# 3 33.7530 65.6789 133.9424 0.0031 18.7713 0.0019
# 4 0.0018 0.0006 0.0031 18.9312 0.0019 10.8963
# 5 -2.9258 9.9260 18.7713 0.0019 27.2717 0.0017
# 6 0.0020 -0.0001 0.0019 10.8963 0.0017 33.4142
#
#
#
# Elastic Compliance Matrix: (Units=1/GPa)
#
#
# Indices 1 2 3 4 5 6 
#
# 1 0.012412 -0.005723 -0.000886 -0.000001 0.004024 -0.000001
# 2 -0.005723 0.011819 -0.004055 0.000001 -0.002124 0.000000
# 3 -0.000886 -0.004055 0.010497 -0.000001 -0.005844 0.000000
# 4 -0.000001 0.000001 -0.000001 0.065028 -0.000003 -0.021205
# 5 0.004024 -0.002124 -0.005844 -0.000003 0.041895 -0.000001
# 6 -0.000001 0.000000 0.000000 -0.021205 -0.000001 0.036842
#
#
# Mechanical properties :
#
#
# Convention : Reuss Voigt Hill
#
# Bulk Modulus (GPa) = 74.62879 80.18671 77.40775
# Shear Modulus (GPa) = 24.47522 30.83839 27.65681
#
# Velocity S-wave (km/s) = 3.33329 3.74159 3.54333
# Velocity P-wave (km/s) = 6.97805 7.42077 7.20281
#
# Compressibility (1/GPa) = 0.01339965
#
# Stress axis : x y z
#
# Youngs Moduli (GPa) = 80.56480 84.61106 95.26866
#
# Poissons Ratio (x) = 0.48424 0.08436
# Poissons Ratio (y) = 0.46108 0.38636
# Poissons Ratio (z) = 0.07134 0.34314
#
# Static dielectric constant tensor:
#      x y z
#    x 5.175610 0.000000 0.345350 
#    y 0.000000 4.023140 0.000000 
#    z 0.345350 0.000000 3.860960 
# 
# 
# High freq. dielectric constant tensor:
#      x y z
#    x 1.877750 0.000000 -0.002700 
#    y 0.000000 1.869400 0.000000 
#    z -0.002700 0.000000 1.856540 
# 
# From -- ./inp_files/4775.got.cif
#   From: 2010.03.12/outbox.cif.g09.slc.cpg/sg5_3_cif.got.tgz:4775.got - 2010.03.31 09:47:26.
