data_PCOD8049490
_publ_section_title
;
Structure prediction by ZEFSAII (Michael W. Deem and Ramdas Pophale) SiO2 
 PCOD8049490
Probable space group: C 2
;
_chemical_formula_sum "Si O2"
_cell_formula_units_Z 20
_cell_length_a 20.292526
_cell_length_b 4.784532
_cell_length_c 9.590340
_cell_angle_alpha 90.000000
_cell_angle_beta 135.743350
_cell_angle_gamma 90.000000
_cell_volume 649.809930
_symmetry_space_group_name_H-M "C 2"
_symmetry_group_IT_number 5
_symmetry_cell_setting 'monoclinic'
loop_
_space_group_symop_operation_xyz
x,y,z
-x,y,-z
1/2+x,1/2+y,z
1/2-x,1/2+y,-z
loop_
_atom_site_type_symbol
_atom_site_label
_atom_site_fract_x
_atom_site_fract_y
_atom_site_fract_z
Si Si1 0.918968 0.375000 0.467720
Si Si2 0.159991 0.016106 0.226936
Si Si3 0.960549 0.462960 0.087062
Si Si4 0.219223 0.013241 0.612702
Si Si5 0.316613 0.187326 0.093119
O O1 0.835292 0.145896 0.340214
O O2 0.886274 0.647379 0.330936
O O3 0.000000 0.224279 0.500000
O O4 0.953141 0.460283 0.673992
O O5 0.151240 0.078140 0.378196
O O6 0.255515 0.188234 0.323551
O O7 0.180278 0.683412 0.247907
O O8 0.072184 0.144602 0.006591
O O9 0.873203 0.624035 0.033327
O O10 0.000000 0.610248 0.000000
O O11 0.222311 0.999537 0.971137
#
# Coordination Sequence:
#
# PCOD8049490 Si02
#       5
#     4   4   4   4   4
#     4  10  22  41  68  98 137 173 222 279 342 400
#     4  10  21  38  65  87 127 166 215 263 320 390
#     4  11  22  43  70 104 142 177 227 289 347 398
#     4  10  20  40  61  92 120 172 216 258 317 394
#     4  11  25  49  73  98 136 187 232 277 342 419
#
# _framework density 30.778231999999999
#
# number of rings (size 3 to 8) (size 9 to 14) (size 15 to 20)
#    0.000    1.600    2.000    2.400    0.000    0.000 
#    0.000   26.000    0.000    0.000    0.000    0.000 
#    0.000    0.000    0.000    0.000    0.000    0.000 
#
# Total GULP energy -123886.264633 kJ/mol
# GULP energy per Si atom -12388.626463 kJ/mol
# Density = 3.070818 g / cm^3
# Si number density = 30.778232 Si / 1000 Ang^3
#
#
#
# Elastic Constant Matrix: (Units=GPa)
#
#
# Indices 1 2 3 4 5 6 
#
# 1 181.0920 -0.3164 24.3514 0.0000 -9.7850 0.0000
# 2 -0.3164 76.0699 1.0472 0.0001 -14.1690 0.0000
# 3 24.3514 1.0472 198.2547 0.0000 -62.7508 0.0000
# 4 0.0000 0.0001 0.0000 25.3358 0.0000 -18.5575
# 5 -9.7850 -14.1690 -62.7508 0.0000 61.5960 0.0000
# 6 0.0000 0.0000 0.0000 -18.5575 0.0000 15.2287
#
#
#
# Elastic Compliance Matrix: (Units=1/GPa)
#
#
# Indices 1 2 3 4 5 6 
#
# 1 0.005619 0.000089 -0.000593 0.000000 0.000309 0.000000
# 2 0.000089 0.013992 0.001385 -0.000001 0.004644 -0.000001
# 3 -0.000593 0.001385 0.007646 0.000000 0.008014 0.000000
# 4 0.000000 -0.000001 0.000000 0.367414 0.000000 0.447728
# 5 0.000309 0.004644 0.008014 0.000000 0.025516 0.000000
# 6 0.000000 -0.000001 0.000000 0.447728 0.000000 0.611264
#
#
# Mechanical properties :
#
#
# Convention : Reuss Voigt Hill
#
# Bulk Modulus (GPa) = 34.45978 56.17568 45.31773
# Shear Modulus (GPa) = 4.81064 49.12105 26.96585
#
# Velocity S-wave (km/s) = 1.25156 3.99929 2.96317
# Velocity P-wave (km/s) = 3.64815 6.29421 5.14423
#
# Compressibility (1/GPa) = 0.02901934
#
# Stress axis : x y z
#
# Youngs Moduli (GPa) = 177.97956 71.46918 130.78751
#
# Poissons Ratio (x) = -0.00637 0.07752
# Poissons Ratio (y) = -0.01586 -0.18113
# Poissons Ratio (z) = 0.10549 -0.09898
#
# Static dielectric constant tensor:
#      x y z
#    x 6.247190 0.000000 -0.214780 
#    y 0.000000 5.080210 0.000000 
#    z -0.214780 0.000000 6.007520 
# 
# 
# High freq. dielectric constant tensor:
#      x y z
#    x 2.282680 0.000000 -0.019900 
#    y 0.000000 2.234020 0.000000 
#    z -0.019900 0.000000 2.299130 
# 
# From -- ./inp_files/46997.got.cif
#   From: 2010.03.12/outbox.cif.g09.slc.cpg/sg5_24_cif.got.tgz:46997.got - 2010.03.31 09:47:26.
