data_PCOD8049541
_publ_section_title
;
Structure prediction by ZEFSAII (Michael W. Deem and Ramdas Pophale) SiO2 
 PCOD8049541
Probable space group: C 2
;
_chemical_formula_sum "Si O2"
_cell_formula_units_Z 24
_cell_length_a 8.227681
_cell_length_b 18.437517
_cell_length_c 14.315535
_cell_angle_alpha 90.000000
_cell_angle_beta 150.172754
_cell_angle_gamma 90.000000
_cell_volume 1080.143618
_symmetry_space_group_name_H-M "C 2"
_symmetry_group_IT_number 5
_symmetry_cell_setting 'monoclinic'
loop_
_space_group_symop_operation_xyz
x,y,z
-x,y,-z
1/2+x,1/2+y,z
1/2-x,1/2+y,-z
loop_
_atom_site_type_symbol
_atom_site_label
_atom_site_fract_x
_atom_site_fract_y
_atom_site_fract_z
Si Si1 0.969487 0.265870 0.708209
Si Si2 0.616643 0.602319 0.809782
Si Si3 0.678546 0.343009 0.274628
Si Si4 0.882551 0.827077 0.307614
Si Si5 0.627980 0.488409 0.663596
Si Si6 0.101922 0.988222 0.946267
O O1 0.645068 0.275612 0.486640
O O2 0.952508 0.310557 0.799971
O O3 0.968344 0.181364 0.728963
O O4 0.274173 0.293268 0.795331
O O5 0.495692 0.550487 0.665816
O O6 0.500939 0.563687 0.847131
O O7 0.000000 0.611480 0.000000
O O8 0.382254 0.312436 0.194645
O O9 0.588931 0.423403 0.198438
O O10 0.000000 0.343957 0.500000
O O11 0.018031 0.909262 0.387113
O O12 0.500000 0.514429 0.500000
O O13 0.012625 0.476465 0.867963
O O14 0.000000 0.996222 0.000000
#
# Coordination Sequence:
#
# PCOD8049541 Si02
#       6
#     4   4   4   4   4   4
#     4  10  21  41  62  99 136 169 219 275 336 403
#     4  10  24  45  63  93 139 175 215 282 346 391
#     4  10  22  41  71 101 132 173 230 281 335 401
#     4  10  20  40  67  95 128 175 221 268 336 400
#     4  11  22  43  69  94 135 175 226 281 338 397
#     4  11  24  41  68 103 129 179 234 275 332 404
#
# _framework density 22.219270000000002
#
# number of rings (size 3 to 8) (size 9 to 14) (size 15 to 20)
#    0.000    1.667    3.333    1.000    2.333    4.000 
#   15.000    0.000    0.000    0.000    0.000    0.000 
#    0.000    0.000    0.000    0.000    0.000    0.000 
#
# Total GULP energy -148705.392395 kJ/mol
# GULP energy per Si atom -12392.116033 kJ/mol
# Density = 2.216870 g / cm^3
# Si number density = 22.219270 Si / 1000 Ang^3
#
#
#
# Elastic Constant Matrix: (Units=GPa)
#
#
# Indices 1 2 3 4 5 6 
#
# 1 214.0414 68.5210 22.0201 -0.0386 -34.0774 0.0058
# 2 68.5210 172.0421 32.8622 -0.0863 -22.3936 0.0119
# 3 22.0201 32.8622 38.3421 -0.2313 -17.5172 0.0491
# 4 -0.0386 -0.0863 -0.2313 32.7979 -0.0605 0.4448
# 5 -34.0774 -22.3936 -17.5172 -0.0605 30.7279 0.0047
# 6 0.0058 0.0119 0.0491 0.4448 0.0047 31.4863
#
#
#
# Elastic Compliance Matrix: (Units=1/GPa)
#
#
# Indices 1 2 3 4 5 6 
#
# 1 0.006111 -0.001808 0.000722 0.000018 0.005872 -0.000003
# 2 -0.001808 0.007603 -0.005223 -0.000018 0.000558 0.000006
# 3 0.000722 -0.005223 0.038904 0.000298 0.019174 -0.000066
# 4 0.000018 -0.000018 0.000298 0.030498 0.000237 -0.000431
# 5 0.005872 0.000558 0.019174 0.000237 0.050393 -0.000042
# 6 -0.000003 0.000006 -0.000066 -0.000431 -0.000042 0.031766
#
#
# Mechanical properties :
#
#
# Convention : Reuss Voigt Hill
#
# Bulk Modulus (GPa) = 24.99898 74.58137 49.79017
# Shear Modulus (GPa) = 26.14698 39.07056 32.60877
#
# Velocity S-wave (km/s) = 3.43413 4.19789 3.83507
# Velocity P-wave (km/s) = 5.19613 7.55879 6.48595
#
# Compressibility (1/GPa) = 0.04000164
#
# Stress axis : x y z
#
# Youngs Moduli (GPa) = 163.63356 131.52989 25.70406
#
# Poissons Ratio (x) = 0.23776 -0.01857
# Poissons Ratio (y) = 0.29579 0.13425
# Poissons Ratio (z) = -0.11820 0.68699
#
# Static dielectric constant tensor:
#      x y z
#    x 4.950980 -0.000090 -0.100780 
#    y -0.000090 3.972190 -0.000050 
#    z -0.100780 -0.000050 3.850610 
# 
# 
# High freq. dielectric constant tensor:
#      x y z
#    x 1.898160 0.000000 -0.011010 
#    y 0.000000 1.863480 -0.000010 
#    z -0.011010 -0.000010 1.863140 
# 
# From -- ./inp_files/51437.got.cif
#   From: 2010.03.12/outbox.cif.g09.slc.cpg/sg5_26_cif.got.tgz:51437.got - 2010.03.31 09:47:26.
