data_PCOD8049272
_publ_section_title
;
Structure prediction by ZEFSAII (Michael W. Deem and Ramdas Pophale) SiO2 
 PCOD8049272
Probable space group: C 2
;
_chemical_formula_sum "Si O2"
_cell_formula_units_Z 28
_cell_length_a 5.256068
_cell_length_b 17.199040
_cell_length_c 15.384677
_cell_angle_alpha 90.000000
_cell_angle_beta 114.514427
_cell_angle_gamma 90.000000
_cell_volume 1265.396476
_symmetry_space_group_name_H-M "C 2"
_symmetry_group_IT_number 5
_symmetry_cell_setting 'monoclinic'
loop_
_space_group_symop_operation_xyz
x,y,z
-x,y,-z
1/2+x,1/2+y,z
1/2-x,1/2+y,-z
loop_
_atom_site_type_symbol
_atom_site_label
_atom_site_fract_x
_atom_site_fract_y
_atom_site_fract_z
Si Si1 0.323422 0.405020 0.057374
Si Si2 0.549640 0.597868 0.740851
Si Si3 0.516685 0.071974 0.402534
Si Si4 0.289769 0.962270 0.693742
Si Si5 0.348812 0.371093 0.729865
Si Si6 0.174621 0.214976 0.611266
Si Si7 0.679912 0.588801 0.944189
O O1 0.436082 0.362122 0.159572
O O2 0.362848 0.497005 0.074255
O O3 0.500000 0.374889 0.000000
O O4 0.000000 0.382191 0.000000
O O5 0.265509 0.548079 0.688859
O O6 0.806258 0.535149 0.765762
O O7 0.517347 0.664054 0.662422
O O8 0.570891 0.631990 0.841193
O O9 0.500000 0.057027 0.500000
O O10 0.575421 0.161965 0.389252
O O11 0.749784 0.010048 0.402234
O O12 0.567255 0.909663 0.728995
O O13 0.010920 0.913904 0.674236
O O14 0.280028 0.289349 0.677004
O O15 0.000000 0.237827 0.500000
O O16 0.500000 0.620038 0.000000
O O17 0.000000 0.612707 0.000000
#
# Coordination Sequence:
#
# PCOD8049272 Si02
#       7
#     4   4   4   4   4   4   4
#     4  10  20  37  66 100 136 178 225 279 349 409
#     4  11  23  46  72 101 141 183 233 288 347 417
#     4  11  23  45  74  99 136 185 238 283 354 422
#     4  11  24  42  71 103 139 175 233 294 347 396
#     4  12  25  45  69 105 145 181 232 291 348 409
#     4  11  27  46  70 100 142 197 231 280 357 429
#     4  10  22  36  67 104 134 170 227 287 343 402
#
# _framework density 22.127455000000001
#
# number of rings (size 3 to 8) (size 9 to 14) (size 15 to 20)
#    0.000    1.143    4.286    0.857   10.000    0.571 
#    2.571    0.714    0.000    0.000    0.000    0.000 
#    0.000    0.000    0.000    0.000    0.000    0.000 
#
# Total GULP energy -173445.115132 kJ/mol
# GULP energy per Si atom -12388.936795 kJ/mol
# Density = 2.207709 g / cm^3
# Si number density = 22.127455 Si / 1000 Ang^3
#
#
#
# Elastic Constant Matrix: (Units=GPa)
#
#
# Indices 1 2 3 4 5 6 
#
# 1 145.6707 27.8413 43.7714 0.0000 -13.0159 0.0000
# 2 27.8413 75.2622 19.1949 0.0000 -2.3523 0.0000
# 3 43.7714 19.1949 126.8525 0.0000 -14.6651 0.0000
# 4 0.0000 0.0000 0.0000 27.6557 0.0000 3.1867
# 5 -13.0159 -2.3523 -14.6651 0.0000 42.6439 0.0000
# 6 0.0000 0.0000 0.0000 3.1867 0.0000 30.2713
#
#
#
# Elastic Compliance Matrix: (Units=1/GPa)
#
#
# Indices 1 2 3 4 5 6 
#
# 1 0.008142 -0.002385 -0.002267 0.000000 0.001574 0.000000
# 2 -0.002385 0.014519 -0.001422 0.000000 -0.000416 0.000000
# 3 -0.002267 -0.001422 0.009155 0.000000 0.002378 0.000000
# 4 0.000000 0.000000 0.000000 0.036603 0.000000 -0.003853
# 5 0.001574 -0.000416 0.002378 0.000000 0.024725 0.000000
# 6 0.000000 0.000000 0.000000 -0.003853 0.000000 0.033440
#
#
# Mechanical properties :
#
#
# Convention : Reuss Voigt Hill
#
# Bulk Modulus (GPa) = 50.84071 58.82230 54.83151
# Shear Modulus (GPa) = 34.41420 37.24603 35.83011
#
# Velocity S-wave (km/s) = 3.94797 4.10719 4.02837
# Velocity P-wave (km/s) = 6.61877 7.00951 6.81694
#
# Compressibility (1/GPa) = 0.01966928
#
# Stress axis : x y z
#
# Youngs Moduli (GPa) = 122.81467 68.87641 109.22442
#
# Poissons Ratio (x) = 0.16425 0.24758
# Poissons Ratio (y) = 0.29288 0.15534
# Poissons Ratio (z) = 0.27839 0.09795
#
# Static dielectric constant tensor:
#      x y z
#    x 4.339290 0.000000 -0.230860 
#    y 0.000000 3.669220 0.000000 
#    z -0.230860 0.000000 3.922310 
# 
# 
# High freq. dielectric constant tensor:
#      x y z
#    x 1.892630 0.000000 -0.018310 
#    y 0.000000 1.836120 0.000000 
#    z -0.018310 0.000000 1.871370 
# 
# From -- ./inp_files/49230.got.cif
#   From: 2010.03.12/outbox.cif.g09.slc.cpg/sg5_25_cif.got.tgz:49230.got - 2010.03.31 09:47:26.
