data_PCOD8049449
_publ_section_title
;
Structure prediction by ZEFSAII (Michael W. Deem and Ramdas Pophale) SiO2 
 PCOD8049449
Probable space group: C 2
;
_chemical_formula_sum "Si O2"
_cell_formula_units_Z 32
_cell_length_a 16.732192
_cell_length_b 9.791196
_cell_length_c 16.971885
_cell_angle_alpha 90.000000
_cell_angle_beta 31.752082
_cell_angle_gamma 90.000000
_cell_volume 1463.209461
_symmetry_space_group_name_H-M "C 2"
_symmetry_group_IT_number 5
_symmetry_cell_setting 'monoclinic'
loop_
_space_group_symop_operation_xyz
x,y,z
-x,y,-z
1/2+x,1/2+y,z
1/2-x,1/2+y,-z
loop_
_atom_site_type_symbol
_atom_site_label
_atom_site_fract_x
_atom_site_fract_y
_atom_site_fract_z
Si Si1 0.970467 0.875000 0.829754
Si Si2 0.058340 0.297705 0.532034
Si Si3 0.258376 0.475564 0.874205
Si Si4 0.184444 0.278546 0.152990
Si Si5 0.695253 0.147230 0.579007
Si Si6 0.237209 0.058565 0.647885
Si Si7 0.157417 0.272435 0.827309
Si Si8 0.019636 0.407943 0.799084
O O1 0.877545 0.903775 0.829745
O O2 0.075741 0.751373 0.715395
O O3 0.854099 0.835467 0.997849
O O4 0.064279 0.006409 0.779448
O O5 0.145355 0.181674 0.511037
O O6 0.160506 0.426893 0.426779
O O7 0.000000 0.229025 0.500000
O O8 0.911180 0.359635 0.701088
O O9 0.314207 0.627490 0.810258
O O10 0.248160 0.379867 0.805285
O O11 0.096166 0.499405 0.052615
O O12 0.082899 0.293606 0.158952
O O13 0.717349 0.152823 0.465949
O O14 0.628737 0.996084 0.651100
O O15 0.250482 0.137949 0.721300
O O16 0.133100 0.335579 0.762327
O O17 0.000000 0.229308 0.000000
#
# Coordination Sequence:
#
# PCOD8049449 Si02
#       8
#     4   4   4   4   4   4   4   4
#     4  10  23  40  70  99 125 186 229 275 335 409
#     4  11  26  41  63  98 134 177 221 287 342 396
#     4  10  21  39  66 103 131 166 229 280 341 391
#     4  11  21  43  66  98 133 174 233 282 329 416
#     4  11  22  43  66  97 135 176 231 270 343 418
#     4  11  24  45  67  95 138 183 230 271 347 410
#     4  10  23  40  65  98 136 173 220 288 347 400
#     4  10  20  39  66  98 129 175 216 283 334 406
#
# _framework density 21.869733
#
# number of rings (size 3 to 8) (size 9 to 14) (size 15 to 20)
#    0.000    1.500    2.500    2.250    3.500    2.000 
#    0.000    1.875    0.000    0.000    0.000    0.000 
#    0.000    0.000    0.000    0.000    0.000    0.000 
#
# Total GULP energy -198255.550300 kJ/mol
# GULP energy per Si atom -12390.971894 kJ/mol
# Density = 2.181996 g / cm^3
# Si number density = 21.869733 Si / 1000 Ang^3
#
#
#
# Elastic Constant Matrix: (Units=GPa)
#
#
# Indices 1 2 3 4 5 6 
#
# 1 78.9014 25.7378 34.7378 0.0000 7.8794 0.0000
# 2 25.7378 90.9699 41.5988 -0.0001 4.2858 0.0000
# 3 34.7378 41.5988 131.5337 -0.0001 1.8868 0.0001
# 4 0.0000 -0.0001 -0.0001 29.1385 0.0001 11.6226
# 5 7.8794 4.2858 1.8868 0.0001 29.4779 -0.0001
# 6 0.0000 0.0000 0.0001 11.6226 -0.0001 34.7953
#
#
#
# Elastic Compliance Matrix: (Units=1/GPa)
#
#
# Indices 1 2 3 4 5 6 
#
# 1 0.015289 -0.002733 -0.003123 0.000000 -0.003490 0.000000
# 2 -0.002733 0.013416 -0.003507 0.000000 -0.000996 0.000000
# 3 -0.003123 -0.003507 0.009526 0.000000 0.000735 0.000000
# 4 0.000000 0.000000 0.000000 0.039594 0.000000 -0.013226
# 5 -0.003490 -0.000996 0.000735 0.000000 0.034954 0.000000
# 6 0.000000 0.000000 0.000000 -0.013226 0.000000 0.033157
#
#
# Mechanical properties :
#
#
# Convention : Reuss Voigt Hill
#
# Bulk Modulus (GPa) = 51.26946 56.17265 53.72106
# Shear Modulus (GPa) = 29.21141 31.97105 30.59123
#
# Velocity S-wave (km/s) = 3.65869 3.82761 3.74410
# Velocity P-wave (km/s) = 6.42977 6.72867 6.58092
#
# Compressibility (1/GPa) = 0.01950479
#
# Stress axis : x y z
#
# Youngs Moduli (GPa) = 65.40565 74.53514 104.97476
#
# Poissons Ratio (x) = 0.20371 0.32788
# Poissons Ratio (y) = 0.17876 0.36815
# Poissons Ratio (z) = 0.20429 0.26140
#
# Static dielectric constant tensor:
#      x y z
#    x 3.946870 0.000000 -0.084480 
#    y 0.000000 4.040780 0.000000 
#    z -0.084480 0.000000 4.279480 
# 
# 
# High freq. dielectric constant tensor:
#      x y z
#    x 1.849170 0.000000 -0.001540 
#    y 0.000000 1.851120 0.000000 
#    z -0.001540 0.000000 1.878060 
# 
# From -- ./inp_files/54568.got.cif
#   From: 2010.03.12/outbox.cif.g09.slc.cpg/sg5_28_cif.got.tgz:54568.got - 2010.03.31 09:47:26.
