data_PCOD8049979
_publ_section_title
;
Structure prediction by ZEFSAII (Michael W. Deem and Ramdas Pophale) SiO2 
 PCOD8049979
Probable space group: C 2
;
_chemical_formula_sum "Si O2"
_cell_formula_units_Z 30
_cell_length_a 16.000805
_cell_length_b 7.723105
_cell_length_c 12.812300
_cell_angle_alpha 90.000000
_cell_angle_beta 105.149985
_cell_angle_gamma 90.000000
_cell_volume 1528.264169
_symmetry_space_group_name_H-M "C 2"
_symmetry_group_IT_number 5
_symmetry_cell_setting 'monoclinic'
loop_
_space_group_symop_operation_xyz
x,y,z
-x,y,-z
1/2+x,1/2+y,z
1/2-x,1/2+y,-z
loop_
_atom_site_type_symbol
_atom_site_label
_atom_site_fract_x
_atom_site_fract_y
_atom_site_fract_z
Si Si1 0.518892 0.661280 0.222060
Si Si2 0.937946 0.028063 0.389640
Si Si3 0.953988 0.633728 0.379761
Si Si4 0.596581 0.017292 0.281270
Si Si5 0.879791 0.862645 0.818583
Si Si6 0.271585 0.613184 0.447742
Si Si7 0.500000 0.541863 0.000000
Si Si8 0.729157 0.979057 0.643596
O O1 0.448625 0.659855 0.293899
O O2 0.568662 0.477042 0.251489
O O3 0.473718 0.659594 0.091858
O O4 0.589603 0.817708 0.242541
O O5 0.965909 0.837072 0.366739
O O6 0.000000 0.104047 0.500000
O O7 0.840608 0.007179 0.401453
O O8 0.854536 0.578631 0.343752
O O9 0.000000 0.570876 0.500000
O O10 0.002793 0.544655 0.300662
O O11 0.608000 0.155912 0.190752
O O12 0.674696 0.052450 0.386761
O O13 0.780751 0.920692 0.764897
O O14 0.916340 0.920435 0.944200
O O15 0.293635 0.810761 0.431353
O O16 0.282777 0.594871 0.576763
#
# Coordination Sequence:
#
# PCOD8049979 Si02
#       8
#     4   4   4   4   4   4   2   4
#     4  10  21  39  63  88 116 158 202 248 302 356
#     4  11  23  36  57  87 126 161 199 248 309 360
#     4  11  21  36  54  86 126 165 199 246 296 371
#     4  11  22  38  61  88 124 157 204 248 306 362
#     4   9  21  40  57  91 113 156 198 258 297 348
#     4  11  24  34  55  89 120 167 195 245 302 375
#     4   8  20  40  66  86 116 158 206 256 298 354
#     4  11  22  34  57  83 128 158 207 240 306 358
#
# _framework density 19.630113000000001
#
# number of rings (size 3 to 8) (size 9 to 14) (size 15 to 20)
#    0.800    0.800    2.667    2.400    9.333    1.600 
#    0.000    0.000    0.000   14.400    0.000    0.000 
#    0.000    0.000    0.000    0.000    0.000    0.000 
#
# Total GULP energy -185821.571881 kJ/mol
# GULP energy per Si atom -12388.104792 kJ/mol
# Density = 1.958543 g / cm^3
# Si number density = 19.630113 Si / 1000 Ang^3
#
#
#
# Elastic Constant Matrix: (Units=GPa)
#
#
# Indices 1 2 3 4 5 6 
#
# 1 88.8342 12.8714 31.4538 0.0000 -4.7168 0.0000
# 2 12.8714 72.7181 29.1404 0.0000 6.1328 0.0000
# 3 31.4538 29.1404 108.4485 0.0000 2.7170 0.0000
# 4 0.0000 0.0000 0.0000 22.3553 0.0000 0.9870
# 5 -4.7168 6.1328 2.7170 0.0000 20.3048 0.0000
# 6 0.0000 0.0000 0.0000 0.9870 0.0000 25.5089
#
#
#
# Elastic Compliance Matrix: (Units=1/GPa)
#
#
# Indices 1 2 3 4 5 6 
#
# 1 0.012875 -0.001195 -0.003509 0.000000 0.003821 0.000000
# 2 -0.001195 0.015872 -0.003804 0.000000 -0.004563 0.000000
# 3 -0.003509 -0.003804 0.011290 0.000000 -0.001177 0.000000
# 4 0.000000 0.000000 0.000000 0.044809 0.000000 -0.001734
# 5 0.003821 -0.004563 -0.001177 0.000000 0.051673 0.000000
# 6 0.000000 0.000000 0.000000 -0.001734 0.000000 0.039269
#
#
# Mechanical properties :
#
#
# Convention : Reuss Voigt Hill
#
# Bulk Modulus (GPa) = 43.43669 46.32577 44.88123
# Shear Modulus (GPa) = 24.94028 26.73614 25.83821
#
# Velocity S-wave (km/s) = 3.56829 3.69453 3.63196
# Velocity P-wave (km/s) = 6.25720 6.46915 6.36406
#
# Compressibility (1/GPa) = 0.02302201
#
# Stress axis : x y z
#
# Youngs Moduli (GPa) = 77.66743 63.00209 88.57151
#
# Poissons Ratio (x) = 0.07530 0.31079
# Poissons Ratio (y) = 0.09282 0.33693
# Poissons Ratio (z) = 0.27253 0.23966
#
# Static dielectric constant tensor:
#      x y z
#    x 3.439160 0.000000 0.058090 
#    y 0.000000 3.670810 0.000000 
#    z 0.058090 0.000000 3.324460 
# 
# 
# High freq. dielectric constant tensor:
#      x y z
#    x 1.750450 0.000000 0.009820 
#    y 0.000000 1.776210 0.000000 
#    z 0.009820 0.000000 1.732720 
# 
# From -- ./inp_files/54041.got.cif
#   From: 2010.03.12/outbox.cif.g09.slc.cpg/sg5_28_cif.got.tgz:54041.got - 2010.03.31 09:47:26.
