data_PCOD8049469
_publ_section_title
;
Structure prediction by ZEFSAII (Michael W. Deem and Ramdas Pophale) SiO2 
 PCOD8049469
Probable space group: C 2
;
_chemical_formula_sum "Si O2"
_cell_formula_units_Z 32
_cell_length_a 11.391241
_cell_length_b 8.354173
_cell_length_c 16.973025
_cell_angle_alpha 90.000000
_cell_angle_beta 85.826233
_cell_angle_gamma 90.000000
_cell_volume 1610.943969
_symmetry_space_group_name_H-M "C 2"
_symmetry_group_IT_number 5
_symmetry_cell_setting 'monoclinic'
loop_
_space_group_symop_operation_xyz
x,y,z
-x,y,-z
1/2+x,1/2+y,z
1/2-x,1/2+y,-z
loop_
_atom_site_type_symbol
_atom_site_label
_atom_site_fract_x
_atom_site_fract_y
_atom_site_fract_z
Si Si1 0.092108 0.094030 0.709892
Si Si2 0.488096 0.287674 0.636199
Si Si3 0.392234 0.710736 0.454026
Si Si4 0.658775 0.350242 0.504005
Si Si5 0.485441 0.816180 0.842243
Si Si6 0.876418 0.094368 0.972775
Si Si7 0.266419 0.814059 0.104132
Si Si8 0.653722 0.097168 0.235969
O O1 0.092838 0.229696 0.640662
O O2 0.224337 0.043807 0.728786
O O3 0.017036 0.170728 0.783124
O O4 0.023488 0.934669 0.689664
O O5 0.594239 0.233913 0.571527
O O6 0.382586 0.337489 0.583605
O O7 0.442604 0.145444 0.693526
O O8 0.500000 0.768713 0.500000
O O9 0.365284 0.525288 0.463768
O O10 0.295228 0.820388 0.498122
O O11 0.404598 0.742598 0.914359
O O12 0.609611 0.886252 0.869234
O O13 0.405909 0.952192 0.807370
O O14 0.804671 0.953760 0.934904
O O15 0.794711 0.164574 0.045916
O O16 0.000000 0.023853 0.000000
O O17 0.183346 0.746586 0.177738
#
# Coordination Sequence:
#
# PCOD8049469 Si02
#       8
#     4   4   4   4   4   4   4   4
#     4  10  21  38  57  81 117 155 194 244 301 349
#     4  10  20  40  57  80 119 151 193 252 297 347
#     4  11  21  40  60  82 115 155 198 251 303 352
#     4  10  21  39  58  83 113 150 198 250 300 353
#     4  10  23  38  58  89 120 153 198 240 288 350
#     4  10  21  40  62  89 122 154 193 237 286 348
#     4  10  22  39  62  90 121 156 192 239 287 347
#     4  11  22  38  60  86 121 155 197 245 291 354
#
# _framework density 19.864128000000001
#
# number of rings (size 3 to 8) (size 9 to 14) (size 15 to 20)
#    0.000    1.750    3.750    1.500    0.000    5.000 
#    2.250    0.000    0.000    0.000    0.000    0.000 
#    0.000    0.000    0.000    0.000    0.000    0.000 
#
# Total GULP energy -198339.879364 kJ/mol
# GULP energy per Si atom -12396.242460 kJ/mol
# Density = 1.981892 g / cm^3
# Si number density = 19.864128 Si / 1000 Ang^3
#
#
#
# Elastic Constant Matrix: (Units=GPa)
#
#
# Indices 1 2 3 4 5 6 
#
# 1 121.0839 44.7354 42.2034 0.0000 19.6640 0.0000
# 2 44.7354 45.6763 25.6419 0.0000 16.3218 0.0000
# 3 42.2034 25.6419 97.9489 0.0000 14.1634 0.0000
# 4 0.0000 0.0000 0.0000 31.9856 0.0000 8.5852
# 5 19.6640 16.3218 14.1634 0.0000 33.6076 0.0000
# 6 0.0000 0.0000 0.0000 8.5852 0.0000 33.0268
#
#
#
# Elastic Compliance Matrix: (Units=1/GPa)
#
#
# Indices 1 2 3 4 5 6 
#
# 1 0.013602 -0.011334 -0.002703 0.000000 -0.001315 0.000000
# 2 -0.011334 0.038924 -0.003761 0.000000 -0.010687 0.000000
# 3 -0.002703 -0.003761 0.012636 0.000000 -0.001917 0.000000
# 4 0.000000 0.000000 0.000000 0.033609 0.000000 -0.008737
# 5 -0.001315 -0.010687 -0.001917 0.000000 0.036523 0.000000
# 6 0.000000 0.000000 0.000000 -0.008737 0.000000 0.032549
#
#
# Mechanical properties :
#
#
# Convention : Reuss Voigt Hill
#
# Bulk Modulus (GPa) = 33.82391 54.43004 44.12698
# Shear Modulus (GPa) = 23.44158 29.86588 26.65373
#
# Velocity S-wave (km/s) = 3.43898 3.88172 3.66704
# Velocity P-wave (km/s) = 5.73004 6.89572 6.33973
#
# Compressibility (1/GPa) = 0.02956488
#
# Stress axis : x y z
#
# Youngs Moduli (GPa) = 73.51796 25.69082 79.13909
#
# Poissons Ratio (x) = 0.29119 0.21395
# Poissons Ratio (y) = 0.83329 0.29763
# Poissons Ratio (z) = 0.19875 0.09662
#
# Static dielectric constant tensor:
#      x y z
#    x 3.603050 0.000000 -0.058400 
#    y 0.000000 3.282000 0.000000 
#    z -0.058400 0.000000 4.024880 
# 
# 
# High freq. dielectric constant tensor:
#      x y z
#    x 1.785960 0.000000 -0.001760 
#    y 0.000000 1.747010 0.000000 
#    z -0.001760 0.000000 1.798360 
# 
# From -- ./inp_files/52452.got.cif
#   From: 2010.03.12/outbox.cif.g09.slc.cpg/sg5_27_cif.got.tgz:52452.got - 2010.03.31 09:47:26.
