data_PCOD8049257
_publ_section_title
;
Structure prediction by ZEFSAII (Michael W. Deem and Ramdas Pophale) SiO2 
 PCOD8049257
Probable space group: C 2
;
_chemical_formula_sum "Si O2"
_cell_formula_units_Z 32
_cell_length_a 15.778163
_cell_length_b 11.075287
_cell_length_c 24.299880
_cell_angle_alpha 90.000000
_cell_angle_beta 23.128429
_cell_angle_gamma 90.000000
_cell_volume 1667.937643
_symmetry_space_group_name_H-M "C 2"
_symmetry_group_IT_number 5
_symmetry_cell_setting 'monoclinic'
loop_
_space_group_symop_operation_xyz
x,y,z
-x,y,-z
1/2+x,1/2+y,z
1/2-x,1/2+y,-z
loop_
_atom_site_type_symbol
_atom_site_label
_atom_site_fract_x
_atom_site_fract_y
_atom_site_fract_z
Si Si1 0.283113 0.328750 0.380900
Si Si2 0.650346 0.859580 0.304114
Si Si3 0.675508 0.470440 0.187066
Si Si4 0.793480 0.551895 0.650864
Si Si5 0.407154 0.733473 0.885545
Si Si6 0.054125 0.683569 0.809778
Si Si7 0.532029 0.945699 0.886878
Si Si8 0.245839 0.238224 0.142176
O O1 0.466875 0.385570 0.309838
O O2 0.228101 0.426048 0.367737
O O3 0.354072 0.205353 0.306911
O O4 0.072283 0.298719 0.542269
O O5 0.663488 0.003109 0.312279
O O6 0.857725 0.787327 0.202661
O O7 0.658557 0.845201 0.233298
O O8 0.807024 0.415611 0.159524
O O9 0.624124 0.611687 0.228639
O O10 0.798991 0.468904 0.054124
O O11 0.578349 0.627615 0.773588
O O12 0.000000 0.621266 0.500000
O O13 0.528611 0.835769 0.846786
O O14 0.313748 0.781660 0.883441
O O15 0.205093 0.686595 0.041297
O O16 0.118341 0.556846 0.798786
O O17 0.500000 0.213182 0.000000
#
# Coordination Sequence:
#
# PCOD8049257 Si02
#       8
#     4   4   4   4   4   4   4   4
#     4  10  20  37  64  87 115 162 202 246 296 357
#     4  10  21  39  62  89 116 158 210 244 287 364
#     4  11  18  38  60  87 116 156 201 239 301 363
#     4   9  20  39  62  86 119 161 202 235 300 367
#     4  12  22  36  64  90 123 154 195 254 306 352
#     4  11  19  35  61  91 118 150 203 252 291 352
#     4  11  22  36  60  93 120 152 201 255 302 353
#     4  12  20  37  64  91 113 152 206 254 290 353
#
# _framework density 19.185369000000001
#
# number of rings (size 3 to 8) (size 9 to 14) (size 15 to 20)
#    0.000    1.250    7.500    1.125    1.750    0.000 
#    2.250    3.750    2.750    0.000    0.000    0.000 
#    0.000    0.000    0.000    0.000    0.000    0.000 
#
# Total GULP energy -198318.577546 kJ/mol
# GULP energy per Si atom -12394.911097 kJ/mol
# Density = 1.914170 g / cm^3
# Si number density = 19.185369 Si / 1000 Ang^3
#
#
#
# Elastic Constant Matrix: (Units=GPa)
#
#
# Indices 1 2 3 4 5 6 
#
# 1 101.1693 32.6162 32.6361 -0.0278 1.7826 -0.0124
# 2 32.6162 49.7746 28.1842 -0.0164 3.2485 0.0132
# 3 32.6361 28.1842 112.6127 -0.0178 -6.9008 -0.0290
# 4 -0.0278 -0.0164 -0.0178 23.1389 0.0258 -2.2624
# 5 1.7826 3.2485 -6.9008 0.0258 25.4469 0.0124
# 6 -0.0124 0.0132 -0.0290 -2.2624 0.0124 25.8122
#
#
#
# Elastic Compliance Matrix: (Units=1/GPa)
#
#
# Indices 1 2 3 4 5 6 
#
# 1 0.012873 -0.007309 -0.001931 0.000010 -0.000492 0.000009
# 2 -0.007309 0.028113 -0.005193 0.000010 -0.004485 -0.000021
# 3 -0.001931 -0.005193 0.010971 -0.000001 0.003773 0.000012
# 4 0.000010 0.000010 -0.000001 0.043591 -0.000048 0.003821
# 5 -0.000492 -0.004485 0.003773 -0.000048 0.040928 -0.000018
# 6 0.000009 -0.000021 0.000012 0.003821 -0.000018 0.039076
#
#
# Mechanical properties :
#
#
# Convention : Reuss Voigt Hill
#
# Bulk Modulus (GPa) = 43.30948 50.04775 46.67861
# Shear Modulus (GPa) = 23.57215 26.22094 24.89655
#
# Velocity S-wave (km/s) = 3.50902 3.70092 3.60625
# Velocity P-wave (km/s) = 6.24827 6.66374 6.45935
#
# Compressibility (1/GPa) = 0.02308963
#
# Stress axis : x y z
#
# Youngs Moduli (GPa) = 77.68410 35.57050 91.15343
#
# Poissons Ratio (x) = 0.26000 0.17605
# Poissons Ratio (y) = 0.56782 0.47332
# Poissons Ratio (z) = 0.15004 0.18470
#
# Static dielectric constant tensor:
#      x y z
#    x 3.655850 0.000000 -0.008840 
#    y 0.000000 3.273100 0.000040 
#    z -0.008840 0.000040 3.684280 
# 
# 
# High freq. dielectric constant tensor:
#      x y z
#    x 1.747560 0.000000 -0.006530 
#    y 0.000000 1.711780 0.000010 
#    z -0.006530 0.000010 1.743780 
# 
# From -- ./inp_files/70942.got.cif
#   From: 2010.03.12/outbox.cif.g09.slc.cpg/sg5_36_cif.got.tgz:70942.got - 2010.03.31 09:47:26.
