data_PCOD8049609
_publ_section_title
;
Structure prediction by ZEFSAII (Michael W. Deem and Ramdas Pophale) SiO2 
 PCOD8049609
Probable space group: C 2
;
_chemical_formula_sum "Si O2"
_cell_formula_units_Z 28
_cell_length_a 13.236538
_cell_length_b 10.060829
_cell_length_c 10.475850
_cell_angle_alpha 90.000000
_cell_angle_beta 64.729686
_cell_angle_gamma 90.000000
_cell_volume 1261.571384
_symmetry_space_group_name_H-M "C 2"
_symmetry_group_IT_number 5
_symmetry_cell_setting 'monoclinic'
loop_
_space_group_symop_operation_xyz
x,y,z
-x,y,-z
1/2+x,1/2+y,z
1/2-x,1/2+y,-z
loop_
_atom_site_type_symbol
_atom_site_label
_atom_site_fract_x
_atom_site_fract_y
_atom_site_fract_z
Si Si1 0.123668 0.768230 0.408290
Si Si2 0.377024 0.972435 0.545318
Si Si3 0.445519 0.844493 0.894306
Si Si4 0.113647 0.554636 0.738457
Si Si5 0.842845 0.846558 0.336960
Si Si6 0.234518 0.928422 0.131944
Si Si7 0.518190 0.554501 0.141653
O O1 0.120434 0.611586 0.382083
O O2 0.188959 0.817737 0.498066
O O3 0.176023 0.819602 0.250508
O O4 0.000000 0.824399 0.500000
O O5 0.500000 0.905079 0.500000
O O6 0.337093 0.007379 0.422994
O O7 0.279809 0.878605 0.657659
O O8 0.494025 0.978906 0.805225
O O9 0.483465 0.707146 0.804375
O O10 0.500000 0.828938 0.000000
O O11 0.312232 0.857684 0.983551
O O12 0.098829 0.714511 0.752196
O O13 0.192309 0.521950 0.815272
O O14 0.925316 0.970818 0.268865
O O15 0.142712 0.006878 0.102934
O O16 0.500000 0.542145 0.000000
#
# Coordination Sequence:
#
# PCOD8049609 Si02
#       7
#     4   4   4   4   4   4   4
#     4  10  20  41  67  98 127 177 214 266 348 395
#     4  10  23  38  64  98 134 170 215 272 335 392
#     4   9  23  43  65  92 133 183 219 266 339 395
#     4  10  23  42  63  96 133 175 217 268 337 391
#     4  11  23  41  69 101 131 165 228 285 317 400
#     4  11  22  43  70  91 135 178 222 266 335 404
#     4  11  26  41  65 102 126 176 227 279 326 389
#
# _framework density 22.194541999999998
#
# number of rings (size 3 to 8) (size 9 to 14) (size 15 to 20)
#    0.000    1.714    2.857    0.000    6.000    6.286 
#    0.000    0.714    0.000    0.000    0.000    0.000 
#    0.000    0.000    0.000    0.000    0.000    0.000 
#
# Total GULP energy -173463.841656 kJ/mol
# GULP energy per Si atom -12390.274404 kJ/mol
# Density = 2.214403 g / cm^3
# Si number density = 22.194542 Si / 1000 Ang^3
#
#
#
# Elastic Constant Matrix: (Units=GPa)
#
#
# Indices 1 2 3 4 5 6 
#
# 1 115.1868 55.1684 30.3377 0.0000 -23.2644 0.0000
# 2 55.1684 159.7092 60.6678 0.0000 -31.8632 0.0000
# 3 30.3377 60.6678 71.7838 0.0000 -17.4294 0.0000
# 4 0.0000 0.0000 0.0000 9.7590 0.0000 -33.6892
# 5 -23.2644 -31.8632 -17.4294 0.0000 45.5405 0.0000
# 6 0.0000 0.0000 0.0000 -33.6892 0.0000 -5.3897
#
#
#
# Elastic Compliance Matrix: (Units=1/GPa)
#
#
# Indices 1 2 3 4 5 6 
#
# 1 0.010982 -0.002486 -0.001765 0.000000 0.003196 0.000000
# 2 -0.002486 0.010431 -0.006947 0.000000 0.003370 0.000000
# 3 -0.001765 -0.006947 0.021111 0.000000 0.002317 0.000000
# 4 0.000000 0.000000 0.000000 0.004538 0.000000 -0.028368
# 5 0.003196 0.003370 0.002317 0.000000 0.026836 0.000000
# 6 0.000000 0.000000 0.000000 -0.028368 0.000000 -0.008218
#
#
# Mechanical properties :
#
#
# Convention : Reuss Voigt Hill
#
# Bulk Modulus (GPa) = 49.67973 71.00308 60.34140
# Shear Modulus (GPa) = 52.75054 23.34900 38.04977
#
# Velocity S-wave (km/s) = 4.88047 3.24700 4.14499
# Velocity P-wave (km/s) = 7.36145 6.79102 7.08198
#
# Compressibility (1/GPa) = 0.02012894
#
# Stress axis : x y z
#
# Youngs Moduli (GPa) = 91.05560 95.86493 47.36943
#
# Poissons Ratio (x) = 0.23829 0.08359
# Poissons Ratio (y) = 0.22634 0.32909
# Poissons Ratio (z) = 0.16068 0.66600
#
# Static dielectric constant tensor:
#      x y z
#    x 4.326860 0.000000 -0.300870 
#    y 0.000000 4.328230 0.000000 
#    z -0.300870 0.000000 4.424730 
# 
# 
# High freq. dielectric constant tensor:
#      x y z
#    x 1.880760 0.000000 -0.004470 
#    y 0.000000 1.872780 0.000000 
#    z -0.004470 0.000000 1.858850 
# 
# From -- ./inp_files/41890.got.cif
#   From: 2010.03.12/outbox.cif.g09.slc.cpg/sg5_21_cif.got.tgz:41890.got - 2010.03.31 09:47:26.
