data_PCOD8049659
_publ_section_title
;
Structure prediction by ZEFSAII (Michael W. Deem and Ramdas Pophale) SiO2 
 PCOD8049659
Probable space group: C 2
;
_chemical_formula_sum "Si O2"
_cell_formula_units_Z 30
_cell_length_a 11.247154
_cell_length_b 16.124084
_cell_length_c 8.854728
_cell_angle_alpha 90.000000
_cell_angle_beta 69.957797
_cell_angle_gamma 90.000000
_cell_volume 1508.558548
_symmetry_space_group_name_H-M "C 2"
_symmetry_group_IT_number 5
_symmetry_cell_setting 'monoclinic'
loop_
_space_group_symop_operation_xyz
x,y,z
-x,y,-z
1/2+x,1/2+y,z
1/2-x,1/2+y,-z
loop_
_atom_site_type_symbol
_atom_site_label
_atom_site_fract_x
_atom_site_fract_y
_atom_site_fract_z
Si Si1 0.360297 0.521060 0.605394
Si Si2 0.500000 0.086030 0.000000
Si Si3 0.740112 0.171716 0.812768
Si Si4 0.875491 0.295688 0.969383
Si Si5 0.305670 0.950271 0.555383
Si Si6 0.970582 0.455311 0.756971
Si Si7 0.142673 0.833700 0.285344
Si Si8 0.362757 0.295821 0.375243
O O1 0.500000 0.545747 0.500000
O O2 0.314348 0.588480 0.743125
O O3 0.278460 0.521318 0.486549
O O4 0.352693 0.431572 0.686734
O O5 0.378504 0.145013 0.032608
O O6 0.485445 0.030811 0.156826
O O7 0.836108 0.231354 0.858121
O O8 0.688659 0.213965 0.682839
O O9 0.908887 0.384185 0.884231
O O10 0.758747 0.306477 0.132672
O O11 0.000000 0.260869 0.000000
O O12 0.369781 0.988364 0.677156
O O13 0.408615 0.919371 0.386014
O O14 0.220464 0.873224 0.644840
O O15 0.151243 0.784230 0.439202
O O16 0.008991 0.811833 0.264491
#
# Coordination Sequence:
#
# PCOD8049659 Si02
#       8
#     4   2   4   4   4   4   4   4
#     4  11  21  41  67  92 131 165 215 272 323 374
#     4  12  24  46  64  96 136 172 210 276 340 378
#     4  12  26  42  63  99 136 164 208 280 338 373
#     4  12  24  42  64  98 135 172 219 268 327 390
#     4  10  20  42  67  97 119 173 231 261 306 404
#     4  11  22  40  73  91 127 176 226 264 316 403
#     4  10  21  42  71  89 125 181 222 258 312 402
#     4  10  20  42  67  95 124 170 225 262 316 390
#
# _framework density 19.886534999999999
#
# number of rings (size 3 to 8) (size 9 to 14) (size 15 to 20)
#    0.000    1.067    6.000    3.200    0.000    2.133 
#    9.600    0.000    0.000    0.000    0.000    0.000 
#    0.000    0.000    0.000    0.000    0.000    0.000 
#
# Total GULP energy -186024.471830 kJ/mol
# GULP energy per Si atom -12401.631455 kJ/mol
# Density = 1.984127 g / cm^3
# Si number density = 19.886535 Si / 1000 Ang^3
#
#
#
# Elastic Constant Matrix: (Units=GPa)
#
#
# Indices 1 2 3 4 5 6 
#
# 1 136.8076 25.4687 51.3257 0.0000 -5.4947 0.0000
# 2 25.4687 66.5191 30.0422 0.0000 2.0142 0.0000
# 3 51.3257 30.0422 87.9215 0.0000 -9.1025 0.0000
# 4 0.0000 0.0000 0.0000 -1.2127 0.0000 -17.2627
# 5 -5.4947 2.0142 -9.1025 0.0000 40.3232 0.0000
# 6 0.0000 0.0000 0.0000 -17.2627 0.0000 10.9020
#
#
#
# Elastic Compliance Matrix: (Units=1/GPa)
#
#
# Indices 1 2 3 4 5 6 
#
# 1 0.009460 -0.001354 -0.005037 0.000000 0.000220 0.000000
# 2 -0.001354 0.018184 -0.005669 0.000000 -0.002372 0.000000
# 3 -0.005037 -0.005669 0.016597 0.000000 0.003343 0.000000
# 4 0.000000 0.000000 0.000000 -0.035030 0.000000 -0.055468
# 5 0.000220 -0.002372 0.003343 0.000000 0.025703 0.000000
# 6 0.000000 0.000000 0.000000 -0.055468 0.000000 0.003897
#
#
# Mechanical properties :
#
#
# Convention : Reuss Voigt Hill
#
# Bulk Modulus (GPa) = 49.69669 56.10238 52.89954
# Shear Modulus (GPa) = 71.80075 22.29660 47.04867
#
# Velocity S-wave (km/s) = 6.01528 3.35205 4.86928
# Velocity P-wave (km/s) = 8.56091 6.57679 7.63359
#
# Compressibility (1/GPa) = 0.02012206
#
# Stress axis : x y z
#
# Youngs Moduli (GPa) = 105.70625 54.99477 60.25038
#
# Poissons Ratio (x) = 0.07445 0.30350
# Poissons Ratio (y) = 0.14310 0.34153
# Poissons Ratio (z) = 0.53247 0.31174
#
# Static dielectric constant tensor:
#      x y z
#    x 4.047080 0.000000 0.009250 
#    y 0.000000 3.397290 0.000000 
#    z 0.009250 0.000000 3.653030 
# 
# 
# High freq. dielectric constant tensor:
#      x y z
#    x 1.800570 0.000000 -0.004650 
#    y 0.000000 1.757280 0.000000 
#    z -0.004650 0.000000 1.773310 
# 
# From -- ./inp_files/20597.got.cif
#   From: 2010.03.12/outbox.cif.g09.slc.cpg/sg5_11_cif.got.tgz:20597.got - 2010.03.31 09:47:26.
