data_PCOD8049800
_publ_section_title
;
Structure prediction by ZEFSAII (Michael W. Deem and Ramdas Pophale) SiO2 
 PCOD8049800
Probable space group: C 2
;
_chemical_formula_sum "Si O2"
_cell_formula_units_Z 32
_cell_length_a 14.622323
_cell_length_b 18.752057
_cell_length_c 8.689257
_cell_angle_alpha 90.000000
_cell_angle_beta 138.609927
_cell_angle_gamma 90.000000
_cell_volume 1575.320341
_symmetry_space_group_name_H-M "C 2"
_symmetry_group_IT_number 5
_symmetry_cell_setting 'monoclinic'
loop_
_space_group_symop_operation_xyz
x,y,z
-x,y,-z
1/2+x,1/2+y,z
1/2-x,1/2+y,-z
loop_
_atom_site_type_symbol
_atom_site_label
_atom_site_fract_x
_atom_site_fract_y
_atom_site_fract_z
Si Si1 0.488403 0.729100 0.312275
Si Si2 0.350426 0.078521 0.861160
Si Si3 0.697049 0.271535 0.961105
Si Si4 0.291839 0.230537 0.680872
Si Si5 0.966320 0.850744 0.782634
Si Si6 0.090490 0.981023 0.473706
Si Si7 0.926470 0.088329 0.064704
Si Si8 0.634901 0.123812 0.766167
O O1 0.500000 0.696345 0.500000
O O2 0.636800 0.760093 0.452753
O O3 0.453504 0.668857 0.147652
O O4 0.362453 0.787215 0.150559
O O5 0.308176 0.144418 0.691875
O O6 0.236392 0.016949 0.700673
O O7 0.500000 0.048633 0.000000
O O8 0.363440 0.100577 0.054660
O O9 0.600272 0.341899 0.835412
O O10 0.652947 0.209924 0.785507
O O11 0.660162 0.247071 0.087298
O O12 0.384642 0.274725 0.677278
O O13 0.875849 0.914390 0.596070
O O14 0.000000 0.874150 0.000000
O O15 0.000000 0.951836 0.500000
O O16 0.985939 0.036769 0.266908
O O17 0.760395 0.082411 0.839508
O O18 0.000000 0.069290 0.000000
O O19 0.500000 0.101538 0.500000
#
# Coordination Sequence:
#
# PCOD8049800 Si02
#       8
#     4   4   4   4   4   4   4   4
#     4   9  16  32  60  90 119 157 204 256 310 371
#     4  11  22  39  66  95 123 170 217 269 325 382
#     4   8  17  32  56  88 123 158 199 249 314 375
#     4   9  16  33  63  92 120 158 208 258 308 378
#     4  10  21  39  60  91 125 168 213 257 318 387
#     4  12  24  43  63  86 127 177 216 258 319 397
#     4  11  22  35  57  91 125 163 206 258 313 368
#     4  10  21  36  59  95 131 153 205 276 324 367
#
# _framework density 20.313329
#
# number of rings (size 3 to 8) (size 9 to 14) (size 15 to 20)
#    0.000    2.000    2.500    3.375    1.750    1.500 
#    0.000    2.500    0.000    0.750    0.000    0.000 
#    0.000    0.000    0.000    0.000    0.000    0.000 
#
# Total GULP energy -198215.009120 kJ/mol
# GULP energy per Si atom -12388.438070 kJ/mol
# Density = 2.026709 g / cm^3
# Si number density = 20.313329 Si / 1000 Ang^3
#
#
#
# Elastic Constant Matrix: (Units=GPa)
#
#
# Indices 1 2 3 4 5 6 
#
# 1 106.3316 32.6571 55.2659 0.0000 27.1168 0.0000
# 2 32.6571 70.7808 41.8692 0.0000 10.0236 0.0000
# 3 55.2659 41.8692 122.9125 0.0000 29.6750 0.0000
# 4 0.0000 0.0000 0.0000 24.2627 0.0000 -5.3162
# 5 27.1168 10.0236 29.6750 0.0000 38.7341 0.0000
# 6 0.0000 0.0000 0.0000 -5.3162 0.0000 -21.2380
#
#
#
# Elastic Compliance Matrix: (Units=1/GPa)
#
#
# Indices 1 2 3 4 5 6 
#
# 1 0.013875 -0.003405 -0.003615 0.000000 -0.006063 0.000000
# 2 -0.003405 0.018529 -0.005152 0.000000 0.001535 0.000000
# 3 -0.003615 -0.005152 0.012985 0.000000 -0.006084 0.000000
# 4 0.000000 0.000000 0.000000 0.039073 0.000000 -0.009780
# 5 -0.006063 0.001535 -0.006084 0.000000 0.034325 0.000000
# 6 0.000000 0.000000 0.000000 -0.009780 0.000000 -0.044637
#
#
# Mechanical properties :
#
#
# Convention : Reuss Voigt Hill
#
# Bulk Modulus (GPa) = 47.51405 62.17883 54.84644
# Shear Modulus (GPa) = 47.38937 19.70061 33.54499
#
# Velocity S-wave (km/s) = 4.83527 3.11760 4.06812
# Velocity P-wave (km/s) = 7.39016 6.60572 7.00892
#
# Compressibility (1/GPa) = 0.02104640
#
# Stress axis : x y z
#
# Youngs Moduli (GPa) = 72.06950 53.96979 77.01092
#
# Poissons Ratio (x) = 0.18375 0.27842
# Poissons Ratio (y) = 0.24538 0.39672
# Poissons Ratio (z) = 0.26055 0.27803
#
# Static dielectric constant tensor:
#      x y z
#    x 3.943210 0.000000 0.342920 
#    y 0.000000 3.432180 0.000000 
#    z 0.342920 0.000000 3.781150 
# 
# 
# High freq. dielectric constant tensor:
#      x y z
#    x 1.797990 0.000000 0.016070 
#    y 0.000000 1.749480 0.000000 
#    z 0.016070 0.000000 1.795420 
# 
# From -- ./inp_files/25442.got.cif
#   From: 2010.03.12/outbox.cif.g09.slc.cpg/sg5_13_cif.got.tgz:25442.got - 2010.03.31 09:47:26.
