data_PCOD8049936
_publ_section_title
;
Structure prediction by ZEFSAII (Michael W. Deem and Ramdas Pophale) SiO2 
 PCOD8049936
Probable space group: C 2
;
_chemical_formula_sum "Si O2"
_cell_formula_units_Z 28
_cell_length_a 5.249120
_cell_length_b 17.546611
_cell_length_c 14.961855
_cell_angle_alpha 90.000000
_cell_angle_beta 76.119406
_cell_angle_gamma 90.000000
_cell_volume 1337.808559
_symmetry_space_group_name_H-M "C 2"
_symmetry_group_IT_number 5
_symmetry_cell_setting 'monoclinic'
loop_
_space_group_symop_operation_xyz
x,y,z
-x,y,-z
1/2+x,1/2+y,z
1/2-x,1/2+y,-z
loop_
_atom_site_type_symbol
_atom_site_label
_atom_site_fract_x
_atom_site_fract_y
_atom_site_fract_z
Si Si1 0.117056 0.307210 0.891965
Si Si2 0.427504 0.793491 0.603667
Si Si3 0.574168 0.689855 0.234056
Si Si4 0.282166 0.966156 0.213188
Si Si5 0.683139 0.557541 0.816079
Si Si6 0.426786 0.392046 0.604390
Si Si7 0.935061 0.668608 0.904523
O O1 0.176250 0.385205 0.837080
O O2 0.375153 0.256990 0.888225
O O3 0.941233 0.256729 0.839488
O O4 0.000000 0.323651 0.000000
O O5 0.500000 0.762055 0.500000
O O6 0.389066 0.721264 0.669955
O O7 0.661977 0.843609 0.622969
O O8 0.160763 0.841117 0.623270
O O9 0.338756 0.626819 0.256184
O O10 0.832772 0.643038 0.182445
O O11 0.126437 0.959421 0.320763
O O12 0.562126 0.003836 0.212785
O O13 0.086733 0.009884 0.162197
O O14 0.699552 0.608091 0.905728
O O15 0.500000 0.425065 0.500000
O O16 0.000000 0.656632 0.000000
#
# Coordination Sequence:
#
# PCOD8049936 Si02
#       7
#     4   4   4   4   4   4   4
#     4  11  24  39  67 102 125 169 223 278 317 373
#     4  10  21  38  69 103 125 162 219 276 324 374
#     4  11  22  45  68  93 133 172 216 269 323 383
#     4  12  24  45  65  97 137 168 214 272 327 376
#     4  11  27  43  64  92 135 180 211 258 331 395
#     4  10  21  39  68 100 128 166 213 267 332 387
#     4  11  23  44  69  92 131 177 223 261 324 393
#
# _framework density 20.929749999999999
#
# number of rings (size 3 to 8) (size 9 to 14) (size 15 to 20)
#    0.000    1.143    4.286    1.714    4.000    0.571 
#    2.571    0.714    3.143    0.000    0.000    0.000 
#    0.000    0.000    0.000    0.000    0.000    0.000 
#
# Total GULP energy -173442.731737 kJ/mol
# GULP energy per Si atom -12388.766553 kJ/mol
# Density = 2.088211 g / cm^3
# Si number density = 20.929750 Si / 1000 Ang^3
#
#
#
# Elastic Constant Matrix: (Units=GPa)
#
#
# Indices 1 2 3 4 5 6 
#
# 1 140.7880 48.3403 30.0485 0.0000 3.0735 0.0000
# 2 48.3403 115.6591 40.4051 0.0000 5.1466 0.0000
# 3 30.0485 40.4051 98.5616 0.0000 5.6111 0.0000
# 4 0.0000 0.0000 0.0000 -7.1193 0.0000 -6.6082
# 5 3.0735 5.1466 5.6111 0.0000 33.5833 0.0000
# 6 0.0000 0.0000 0.0000 -6.6082 0.0000 34.6152
#
#
#
# Elastic Compliance Matrix: (Units=1/GPa)
#
#
# Indices 1 2 3 4 5 6 
#
# 1 0.008437 -0.003064 -0.001311 0.000000 -0.000083 0.000000
# 2 -0.003064 0.011229 -0.003622 0.000000 -0.000835 0.000000
# 3 -0.001311 -0.003622 0.012107 0.000000 -0.001348 0.000000
# 4 0.000000 0.000000 0.000000 -0.119320 0.000000 -0.022779
# 5 -0.000083 -0.000835 -0.001348 0.000000 0.030138 0.000000
# 6 0.000000 0.000000 0.000000 -0.022779 0.000000 0.024540
#
#
# Mechanical properties :
#
#
# Convention : Reuss Voigt Hill
#
# Bulk Modulus (GPa) = 63.37628 65.84405 64.61017
# Shear Modulus (GPa) = -430.46966 27.96351 -201.25307
#
# Velocity S-wave (km/s) = -14.35688 3.65919 -9.81658
# Velocity P-wave (km/s) = 15.63587 7.02714 9.87674
#
# Compressibility (1/GPa) = 0.01577877
#
# Stress axis : x y z
#
# Youngs Moduli (GPa) = 118.52962 89.05316 82.59655
#
# Poissons Ratio (x) = 0.27290 0.10829
# Poissons Ratio (y) = 0.36322 0.29913
# Poissons Ratio (z) = 0.15540 0.32251
#
# Static dielectric constant tensor:
#      x y z
#    x 4.191480 0.000000 0.096650 
#    y 0.000000 3.781650 0.000000 
#    z 0.096650 0.000000 3.846510 
# 
# 
# High freq. dielectric constant tensor:
#      x y z
#    x 1.844220 0.000000 0.013710 
#    y 0.000000 1.814320 0.000000 
#    z 0.013710 0.000000 1.806920 
# 
# From -- ./inp_files/49173.got.cif
#   From: 2010.03.12/outbox.cif.g09.slc.cpg/sg5_25_cif.got.tgz:49173.got - 2010.03.31 09:47:26.
