data_PCOD8049413
_publ_section_title
;
Structure prediction by ZEFSAII (Michael W. Deem and Ramdas Pophale) SiO2 
 PCOD8049413
Probable space group: C 2
;
_chemical_formula_sum "Si O2"
_cell_formula_units_Z 24
_cell_length_a 13.454191
_cell_length_b 8.735881
_cell_length_c 15.183188
_cell_angle_alpha 90.000000
_cell_angle_beta 39.862893
_cell_angle_gamma 90.000000
_cell_volume 1143.808226
_symmetry_space_group_name_H-M "C 2"
_symmetry_group_IT_number 5
_symmetry_cell_setting 'monoclinic'
loop_
_space_group_symop_operation_xyz
x,y,z
-x,y,-z
1/2+x,1/2+y,z
1/2-x,1/2+y,-z
loop_
_atom_site_type_symbol
_atom_site_label
_atom_site_fract_x
_atom_site_fract_y
_atom_site_fract_z
Si Si1 0.090078 0.586640 0.649275
Si Si2 0.115782 0.248818 0.581460
Si Si3 0.190567 0.514629 0.774969
Si Si4 0.742456 0.066037 0.083116
Si Si5 0.786608 0.207481 0.871165
Si Si6 0.500000 0.761318 0.000000
Si Si7 0.000000 0.069437 0.500000
O O1 0.120512 0.429010 0.579326
O O2 0.207234 0.697789 0.516162
O O3 0.114254 0.578526 0.738182
O O4 0.908957 0.630905 0.761928
O O5 0.974604 0.188444 0.738910
O O6 0.089098 0.185165 0.502863
O O7 0.197015 0.647369 0.845010
O O8 0.098463 0.365124 0.866849
O O9 0.369653 0.463929 0.634586
O O10 0.759323 0.884082 0.083801
O O11 0.725827 0.100890 0.990867
O O12 0.891675 0.152787 0.016678
#
# Coordination Sequence:
#
# PCOD8049413 Si02
#       7
#     4   4   4   4   4   2   2
#     4  10  21  38  60  86 116 153 192 240 294 345
#     4   9  19  37  59  86 115 149 193 237 291 353
#     4  10  20  39  63  86 117 153 194 243 294 348
#     4  11  24  39  60  88 119 156 199 242 292 347
#     4  10  21  41  63  87 118 155 195 242 294 350
#     4  12  24  38  56  88 122 158 202 242 284 346
#     4   8  18  36  62  84 112 156 196 236 294 344
#
# _framework density 20.982538999999999
#
# number of rings (size 3 to 8) (size 9 to 14) (size 15 to 20)
#    0.000    2.000    0.000    4.000    0.000    7.333 
#    0.000   11.667    0.000    1.000    0.000    0.000 
#    0.000    0.000    0.000    0.000    0.000    0.000 
#
# Total GULP energy -148702.639234 kJ/mol
# GULP energy per Si atom -12391.886603 kJ/mol
# Density = 2.093478 g / cm^3
# Si number density = 20.982539 Si / 1000 Ang^3
#
#
#
# Elastic Constant Matrix: (Units=GPa)
#
#
# Indices 1 2 3 4 5 6 
#
# 1 60.9641 33.4251 32.3413 0.0000 -18.0279 0.0000
# 2 33.4251 88.8319 72.0825 0.0000 -16.0357 0.0000
# 3 32.3413 72.0825 127.5825 0.0000 -23.9901 0.0000
# 4 0.0000 0.0000 0.0000 37.2439 0.0000 -8.6837
# 5 -18.0279 -16.0357 -23.9901 0.0000 26.5838 0.0000
# 6 0.0000 0.0000 0.0000 -8.6837 0.0000 32.2526
#
#
#
# Elastic Compliance Matrix: (Units=1/GPa)
#
#
# Indices 1 2 3 4 5 6 
#
# 1 0.023634 -0.006824 0.000125 0.000000 0.012024 0.000000
# 2 -0.006824 0.022879 -0.011407 0.000000 -0.001121 0.000000
# 3 0.000125 -0.011407 0.015625 0.000000 0.007304 0.000000
# 4 0.000000 0.000000 0.000000 0.028648 0.000000 0.007713
# 5 0.012024 -0.001121 0.007304 0.000000 0.051686 0.000000
# 6 0.000000 0.000000 0.000000 0.007713 0.000000 0.033082
#
#
# Mechanical properties :
#
#
# Convention : Reuss Voigt Hill
#
# Bulk Modulus (GPa) = 38.57179 61.45292 50.01235
# Shear Modulus (GPa) = 22.68523 28.51803 25.60163
#
# Velocity S-wave (km/s) = 3.29165 3.69064 3.49684
# Velocity P-wave (km/s) = 5.73318 6.89292 6.33962
#
# Compressibility (1/GPa) = 0.02592568
#
# Stress axis : x y z
#
# Youngs Moduli (GPa) = 42.31258 43.70824 64.00113
#
# Poissons Ratio (x) = 0.29826 -0.00803
# Poissons Ratio (y) = 0.28874 0.73008
# Poissons Ratio (z) = -0.00531 0.49859
#
# Static dielectric constant tensor:
#      x y z
#    x 3.899490 0.000000 -0.308050 
#    y 0.000000 3.602940 0.000000 
#    z -0.308050 0.000000 4.372630 
# 
# 
# High freq. dielectric constant tensor:
#      x y z
#    x 1.818920 0.000000 -0.017890 
#    y 0.000000 1.802930 0.000000 
#    z -0.017890 0.000000 1.847030 
# 
# From -- ./inp_files/54097.got.cif
#   From: 2010.03.12/outbox.cif.g09.slc.cpg/sg5_28_cif.got.tgz:54097.got - 2010.03.31 09:47:26.
