data_PCOD8049149
_publ_section_title
;
Structure prediction by ZEFSAII (Michael W. Deem and Ramdas Pophale) SiO2 
 PCOD8049149
Probable space group: C 2
;
_chemical_formula_sum "Si O2"
_cell_formula_units_Z 24
_cell_length_a 8.405610
_cell_length_b 11.402418
_cell_length_c 17.391246
_cell_angle_alpha 90.000000
_cell_angle_beta 129.472839
_cell_angle_gamma 90.000000
_cell_volume 1286.686005
_symmetry_space_group_name_H-M "C 2"
_symmetry_group_IT_number 5
_symmetry_cell_setting 'monoclinic'
loop_
_space_group_symop_operation_xyz
x,y,z
-x,y,-z
1/2+x,1/2+y,z
1/2-x,1/2+y,-z
loop_
_atom_site_type_symbol
_atom_site_label
_atom_site_fract_x
_atom_site_fract_y
_atom_site_fract_z
Si Si1 0.500000 0.667181 0.000000
Si Si2 0.527888 0.545133 0.166102
Si Si3 0.527818 0.957336 0.669617
Si Si4 0.000000 0.345536 0.500000
Si Si5 0.668876 0.774301 0.279375
Si Si6 0.907433 0.710839 0.634809
Si Si7 0.814284 0.830360 0.168426
O O1 0.458837 0.585706 0.060762
O O2 0.702409 0.747757 0.072193
O O3 0.540072 0.654042 0.229012
O O4 0.357375 0.456063 0.144950
O O5 0.749464 0.483037 0.226013
O O6 0.550155 0.928328 0.586872
O O7 0.425591 0.847605 0.680849
O O8 0.381768 0.070722 0.635112
O O9 0.194051 0.263503 0.539769
O O10 0.663782 0.845921 0.196656
O O11 0.908989 0.739991 0.370104
O O12 0.973884 0.766596 0.738064
#
# Coordination Sequence:
#
# PCOD8049149 Si02
#       7
#     2   4   4   2   4   4   4
#     4  10  20  36  64  92 116 164 194 236 322 340
#     4  10  20  40  63  86 124 156 198 252 292 360
#     4  11  21  40  63  85 125 158 202 249 295 351
#     4  12  24  36  62  94 114 170 198 242 306 354
#     4   8  20  37  60  84 115 163 191 244 299 342
#     4   9  22  40  56  86 121 155 199 250 291 350
#     4   9  19  42  58  85 124 152 199 250 286 358
#
# _framework density 18.652570000000001
#
# number of rings (size 3 to 8) (size 9 to 14) (size 15 to 20)
#    1.000    1.333    3.333    0.000    0.000    8.667 
#    0.000    0.000    0.000    0.000    0.000    0.000 
#    0.000    0.000    0.000    0.000    0.000    0.000 
#
# Total GULP energy -148735.611033 kJ/mol
# GULP energy per Si atom -12394.634253 kJ/mol
# Density = 1.861012 g / cm^3
# Si number density = 18.652570 Si / 1000 Ang^3
#
#
#
# Elastic Constant Matrix: (Units=GPa)
#
#
# Indices 1 2 3 4 5 6 
#
# 1 62.8444 54.2192 29.8324 0.0000 -11.1116 0.0000
# 2 54.2192 130.6120 34.2302 0.0000 -11.3156 0.0000
# 3 29.8324 34.2302 83.7206 0.0000 -1.2941 0.0000
# 4 0.0000 0.0000 0.0000 32.2918 0.0000 1.9436
# 5 -11.1116 -11.3156 -1.2941 0.0000 24.4346 0.0000
# 6 0.0000 0.0000 0.0000 1.9436 0.0000 45.0646
#
#
#
# Elastic Compliance Matrix: (Units=1/GPa)
#
#
# Indices 1 2 3 4 5 6 
#
# 1 0.028475 -0.009500 -0.006135 0.000000 0.008225 0.000000
# 2 -0.009500 0.012110 -0.001547 0.000000 0.001206 0.000000
# 3 -0.006135 -0.001547 0.014721 0.000000 -0.002727 0.000000
# 4 0.000000 0.000000 0.000000 0.031048 0.000000 -0.001339
# 5 0.008225 0.001206 -0.002727 0.000000 0.045080 0.000000
# 6 0.000000 0.000000 0.000000 -0.001339 0.000000 0.022248
#
#
# Mechanical properties :
#
#
# Convention : Reuss Voigt Hill
#
# Bulk Modulus (GPa) = 47.75389 57.08229 52.41809
# Shear Modulus (GPa) = 25.63730 30.95122 28.29426
#
# Velocity S-wave (km/s) = 3.71140 4.07794 3.89898
# Velocity P-wave (km/s) = 6.63501 7.26926 6.95936
#
# Compressibility (1/GPa) = 0.02094070
#
# Stress axis : x y z
#
# Youngs Moduli (GPa) = 35.11830 82.57680 67.92904
#
# Poissons Ratio (x) = 0.78449 0.41676
# Poissons Ratio (y) = 0.33363 0.10512
# Poissons Ratio (z) = 0.21546 0.12778
#
# Static dielectric constant tensor:
#      x y z
#    x 3.067410 0.000000 0.047580 
#    y 0.000000 3.424370 0.000000 
#    z 0.047580 0.000000 3.318220 
# 
# 
# High freq. dielectric constant tensor:
#      x y z
#    x 1.697000 0.000000 0.002420 
#    y 0.000000 1.730250 0.000000 
#    z 0.002420 0.000000 1.720540 
# 
# From -- ./inp_files/50003.got.cif
#   From: 2010.03.12/outbox.cif.g09.slc.cpg/sg5_26_cif.got.tgz:50003.got - 2010.03.31 09:47:26.
