data_PCOD8049731
_publ_section_title
;
Structure prediction by ZEFSAII (Michael W. Deem and Ramdas Pophale) SiO2 
 PCOD8049731
Probable space group: C 2
;
_chemical_formula_sum "Si O2"
_cell_formula_units_Z 30
_cell_length_a 20.084413
_cell_length_b 11.365768
_cell_length_c 7.938916
_cell_angle_alpha 90.000000
_cell_angle_beta 48.480048
_cell_angle_gamma 90.000000
_cell_volume 1356.879972
_symmetry_space_group_name_H-M "C 2"
_symmetry_group_IT_number 5
_symmetry_cell_setting 'monoclinic'
loop_
_space_group_symop_operation_xyz
x,y,z
-x,y,-z
1/2+x,1/2+y,z
1/2-x,1/2+y,-z
loop_
_atom_site_type_symbol
_atom_site_label
_atom_site_fract_x
_atom_site_fract_y
_atom_site_fract_z
Si Si1 0.363171 0.745020 0.055498
Si Si2 0.267471 0.073548 0.863453
Si Si3 0.803059 0.171387 0.504181
Si Si4 0.500000 0.471855 0.000000
Si Si5 0.739534 0.448822 0.252476
Si Si6 0.326315 0.362537 0.152231
Si Si7 0.476963 0.643132 0.352183
Si Si8 0.893443 0.774643 0.681337
O O1 0.306549 0.675411 0.011452
O O2 0.357808 0.672672 0.238283
O O3 0.324953 0.872384 0.155674
O O4 0.461833 0.752277 0.812455
O O5 0.360650 0.144216 0.673275
O O6 0.240862 0.971817 0.774142
O O7 0.270213 0.023407 0.043206
O O8 0.726413 0.268105 0.644623
O O9 0.876204 0.190455 0.528860
O O10 0.769707 0.036835 0.574672
O O11 0.411148 0.394484 0.124231
O O12 0.491248 0.541158 0.191028
O O13 0.649207 0.374206 0.370451
O O14 0.357675 0.299994 0.928491
O O15 0.500000 0.595095 0.500000
O O16 0.000000 0.781283 0.500000
#
# Coordination Sequence:
#
# PCOD8049731 Si02
#       8
#     4   4   4   2   4   4   4   4
#     4  11  24  43  69 103 137 182 235 291 346 411
#     4  10  20  45  66  98 141 177 236 279 350 413
#     4  12  25  44  69 103 141 183 234 287 358 417
#     4  12  26  46  70 106 142 178 248 296 336 430
#     4  10  24  41  71  95 138 186 228 285 345 416
#     4  11  25  42  70 101 141 186 228 294 363 408
#     4  12  26  44  72 104 139 181 237 293 345 414
#     4  10  23  40  70 103 138 181 238 289 345 418
#
# _framework density 22.109545000000001
#
# number of rings (size 3 to 8) (size 9 to 14) (size 15 to 20)
#    0.000    1.067    4.000    0.800   11.200    1.067 
#    2.400    0.000    2.933    0.000    0.000    0.000 
#    0.000    0.000    0.000    0.000    0.000    0.000 
#
# Total GULP energy -185909.013926 kJ/mol
# GULP energy per Si atom -12393.934262 kJ/mol
# Density = 2.205922 g / cm^3
# Si number density = 22.109545 Si / 1000 Ang^3
#
#
#
# Elastic Constant Matrix: (Units=GPa)
#
#
# Indices 1 2 3 4 5 6 
#
# 1 107.6717 54.0028 40.6535 0.0000 -6.0517 0.0000
# 2 54.0028 121.8289 45.5271 0.0000 -17.9240 0.0000
# 3 40.6535 45.5271 93.5621 0.0000 -2.5323 0.0000
# 4 0.0000 0.0000 0.0000 20.6889 0.0000 -10.6175
# 5 -6.0517 -17.9240 -2.5323 0.0000 49.1509 0.0000
# 6 0.0000 0.0000 0.0000 -10.6175 0.0000 24.6595
#
#
#
# Elastic Compliance Matrix: (Units=1/GPa)
#
#
# Indices 1 2 3 4 5 6 
#
# 1 0.012780 -0.004424 -0.003406 0.000000 -0.000215 0.000000
# 2 -0.004424 0.012170 -0.003900 0.000000 0.003692 0.000000
# 3 -0.003406 -0.003900 0.014035 0.000000 -0.001118 0.000000
# 4 0.000000 0.000000 0.000000 0.062045 0.000000 0.026714
# 5 -0.000215 0.003692 -0.001118 0.000000 0.021608 0.000000
# 6 0.000000 0.000000 0.000000 0.026714 0.000000 0.052054
#
#
# Mechanical properties :
#
#
# Convention : Reuss Voigt Hill
#
# Bulk Modulus (GPa) = 64.40864 67.04772 65.72818
# Shear Modulus (GPa) = 24.59088 31.09181 27.84135
#
# Velocity S-wave (km/s) = 3.33863 3.75408 3.55243
# Velocity P-wave (km/s) = 6.63753 7.01298 6.82784
#
# Compressibility (1/GPa) = 0.01552587
#
# Stress axis : x y z
#
# Youngs Moduli (GPa) = 78.24544 82.17143 71.24810
#
# Poissons Ratio (x) = 0.36351 0.24270
# Poissons Ratio (y) = 0.34614 0.27784
# Poissons Ratio (z) = 0.26653 0.32044
#
# Static dielectric constant tensor:
#      x y z
#    x 4.296920 0.000000 -0.148020 
#    y 0.000000 4.131350 0.000000 
#    z -0.148020 0.000000 3.975630 
# 
# 
# High freq. dielectric constant tensor:
#      x y z
#    x 1.879060 0.000000 0.007430 
#    y 0.000000 1.859550 0.000000 
#    z 0.007430 0.000000 1.869400 
# 
# From -- ./inp_files/30922.got.cif
#   From: 2010.03.12/outbox.cif.g09.slc.cpg/sg5_16_cif.got.tgz:30922.got - 2010.03.31 09:47:26.
