data_PCOD8049799
_publ_section_title
;
Structure prediction by ZEFSAII (Michael W. Deem and Ramdas Pophale) SiO2 
 PCOD8049799
Probable space group: C 2
;
_chemical_formula_sum "Si O2"
_cell_formula_units_Z 28
_cell_length_a 13.212388
_cell_length_b 5.042596
_cell_length_c 21.670867
_cell_angle_alpha 90.000000
_cell_angle_beta 79.126105
_cell_angle_gamma 90.000000
_cell_volume 1417.891719
_symmetry_space_group_name_H-M "C 2"
_symmetry_group_IT_number 5
_symmetry_cell_setting 'monoclinic'
loop_
_space_group_symop_operation_xyz
x,y,z
-x,y,-z
1/2+x,1/2+y,z
1/2-x,1/2+y,-z
loop_
_atom_site_type_symbol
_atom_site_label
_atom_site_fract_x
_atom_site_fract_y
_atom_site_fract_z
Si Si1 0.755626 0.598450 0.457804
Si Si2 0.467127 0.039375 0.373747
Si Si3 0.533255 0.559364 0.927078
Si Si4 0.991744 0.558232 0.772703
Si Si5 0.046739 0.026007 0.427937
Si Si6 0.616193 0.559615 0.166126
Si Si7 0.140938 0.558192 0.866015
O O1 0.752981 0.303481 0.485331
O O2 0.662250 0.633587 0.420853
O O3 0.857001 0.653463 0.406576
O O4 0.471441 0.007637 0.300398
O O5 0.549703 0.255303 0.387968
O O6 0.481356 0.752662 0.402256
O O7 0.430405 0.540943 0.897321
O O8 0.618000 0.346521 0.896089
O O9 0.587145 0.844633 0.916769
O O10 0.500000 0.500039 0.000000
O O11 0.905700 0.345213 0.801977
O O12 0.093687 0.530468 0.802988
O O13 0.939010 0.844025 0.784282
O O14 0.000000 0.958646 0.500000
O O15 0.737570 0.508737 0.150021
#
# Coordination Sequence:
#
# PCOD8049799 Si02
#       7
#     4   4   4   4   4   4   4
#     4  12  23  39  61  85 113 149 184 230 296 360
#     4  12  24  40  60  88 115 149 195 246 292 359
#     4  10  21  36  59  95 125 156 200 241 288 346
#     4  10  23  39  58  84 116 151 203 247 288 346
#     4  12  23  40  63  84 116 150 185 235 304 358
#     4  10  21  40  61  84 120 162 197 244 293 337
#     4  10  21  39  61  83 122 163 194 246 291 337
#
# _framework density 19.747630000000001
#
# number of rings (size 3 to 8) (size 9 to 14) (size 15 to 20)
#    0.000    1.143    2.857    3.429    0.000    3.429 
#    0.000    0.000    0.000    0.000    0.000    0.000 
#    0.000    0.000    0.000    0.000    0.000    0.000 
#
# Total GULP energy -173690.576722 kJ/mol
# GULP energy per Si atom -12406.469766 kJ/mol
# Density = 1.970268 g / cm^3
# Si number density = 19.747630 Si / 1000 Ang^3
#
#
#
# Elastic Constant Matrix: (Units=GPa)
#
#
# Indices 1 2 3 4 5 6 
#
# 1 121.6181 9.0372 36.4467 0.0000 -8.4989 0.0000
# 2 9.0372 85.8558 16.7684 0.0000 9.8652 0.0000
# 3 36.4467 16.7684 120.8932 0.0001 12.3340 0.0000
# 4 0.0000 0.0000 0.0001 19.6357 0.0000 1.8409
# 5 -8.4989 9.8652 12.3340 0.0000 18.5845 0.0000
# 6 0.0000 0.0000 0.0000 1.8409 0.0000 25.7695
#
#
#
# Elastic Compliance Matrix: (Units=1/GPa)
#
#
# Indices 1 2 3 4 5 6 
#
# 1 0.009918 -0.001211 -0.003594 0.000000 0.007564 0.000000
# 2 -0.001211 0.012696 -0.000699 0.000000 -0.006829 0.000000
# 3 -0.003594 -0.000699 0.010278 0.000000 -0.008093 0.000000
# 4 0.000000 0.000000 0.000000 0.051271 0.000000 -0.003663
# 5 0.007564 -0.006829 -0.008093 0.000000 0.066264 0.000000
# 6 0.000000 0.000000 0.000000 -0.003663 0.000000 0.039067
#
#
# Mechanical properties :
#
#
# Convention : Reuss Voigt Hill
#
# Bulk Modulus (GPa) = 45.69536 50.31907 48.00722
# Shear Modulus (GPa) = 24.06194 30.53891 27.30043
#
# Velocity S-wave (km/s) = 3.49445 3.93677 3.72219
# Velocity P-wave (km/s) = 6.28263 6.79710 6.54492
#
# Compressibility (1/GPa) = 0.02188406
#
# Stress axis : x y z
#
# Youngs Moduli (GPa) = 100.82687 78.76374 97.29621
#
# Poissons Ratio (x) = 0.09540 0.34966
# Poissons Ratio (y) = 0.12212 0.06802
# Poissons Ratio (z) = 0.36234 0.05506
#
# Static dielectric constant tensor:
#      x y z
#    x 3.665420 0.000000 0.118260 
#    y 0.000000 3.706560 0.000000 
#    z 0.118260 0.000000 3.388820 
# 
# 
# High freq. dielectric constant tensor:
#      x y z
#    x 1.773180 0.000000 0.003720 
#    y 0.000000 1.789810 0.000000 
#    z 0.003720 0.000000 1.759280 
# 
# From -- ./inp_files/64965.got.cif
#   From: 2010.03.12/outbox.cif.g09.slc.cpg/sg5_33_cif.got.tgz:64965.got - 2010.03.31 09:47:26.
