data_PCOD8049520
_publ_section_title
;
Structure prediction by ZEFSAII (Michael W. Deem and Ramdas Pophale) SiO2 
 PCOD8049520
Probable space group: C 2
;
_chemical_formula_sum "Si O2"
_cell_formula_units_Z 26
_cell_length_a 12.549026
_cell_length_b 7.888907
_cell_length_c 26.327333
_cell_angle_alpha 90.000000
_cell_angle_beta 152.247956
_cell_angle_gamma 90.000000
_cell_volume 1213.639447
_symmetry_space_group_name_H-M "C 2"
_symmetry_group_IT_number 5
_symmetry_cell_setting 'monoclinic'
loop_
_space_group_symop_operation_xyz
x,y,z
-x,y,-z
1/2+x,1/2+y,z
1/2-x,1/2+y,-z
loop_
_atom_site_type_symbol
_atom_site_label
_atom_site_fract_x
_atom_site_fract_y
_atom_site_fract_z
Si Si1 0.499989 0.975090 0.737274
Si Si2 0.800621 0.670044 0.261112
Si Si3 0.000000 0.048481 0.500000
Si Si4 0.019313 0.113399 0.780017
Si Si5 0.222502 0.284283 0.123982
Si Si6 0.286165 0.789440 0.492570
Si Si7 0.286910 0.125315 0.440638
O O1 0.606443 0.806268 0.807876
O O2 0.608040 0.997236 0.726764
O O3 0.571443 0.145408 0.799398
O O4 0.223980 0.945632 0.615189
O O5 0.634169 0.612927 0.234996
O O6 0.670971 0.783475 0.163085
O O7 0.012342 0.781059 0.370660
O O8 0.921808 0.158581 0.514958
O O9 0.887735 0.050656 0.674012
O O10 0.215926 0.973011 0.870092
O O11 0.000000 0.222631 0.000000
O O12 0.330690 0.763625 0.571810
O O13 0.375384 0.975446 0.515030
O O14 0.500000 0.206950 0.500000
#
# Coordination Sequence:
#
# PCOD8049520 Si02
#       7
#     4   4   2   4   4   4   4
#     4   9  24  41  66 101 138 173 225 278 335 414
#     4   9  22  45  61  98 135 166 237 279 327 415
#     4  10  20  40  64  96 142 182 214 274 344 408
#     4  12  23  44  70  99 131 184 227 274 350 404
#     4  10  24  51  68  97 140 173 233 302 331 392
#     4  11  23  38  61  93 141 182 217 274 339 401
#     4  12  25  37  63  96 137 184 221 272 333 411
#
# _framework density 21.423168
#
# number of rings (size 3 to 8) (size 9 to 14) (size 15 to 20)
#    0.923    0.615    3.846    0.000    7.538    0.615 
#    5.538    0.000    0.000    0.000    0.000    0.000 
#    0.000    0.000    0.000    0.000    0.000    0.000 
#
# Total GULP energy -161061.300495 kJ/mol
# GULP energy per Si atom -12389.330807 kJ/mol
# Density = 2.137441 g / cm^3
# Si number density = 21.423168 Si / 1000 Ang^3
#
#
#
# Elastic Constant Matrix: (Units=GPa)
#
#
# Indices 1 2 3 4 5 6 
#
# 1 153.9613 35.8959 30.2865 0.0000 -2.9040 0.0001
# 2 35.8959 130.9796 27.9064 0.0000 6.9288 0.0000
# 3 30.2865 27.9064 91.0464 0.0007 -1.4400 0.0010
# 4 0.0000 0.0000 0.0007 25.0628 0.0004 -0.4202
# 5 -2.9040 6.9288 -1.4400 0.0004 15.1174 0.0000
# 6 0.0001 0.0000 0.0010 -0.4202 0.0000 18.5483
#
#
#
# Elastic Compliance Matrix: (Units=1/GPa)
#
#
# Indices 1 2 3 4 5 6 
#
# 1 0.007300 -0.001708 -0.001873 0.000000 0.002006 0.000000
# 2 -0.001708 0.008815 -0.002206 0.000000 -0.004578 0.000000
# 3 -0.001873 -0.002206 0.012312 0.000000 0.001824 -0.000001
# 4 0.000000 0.000000 0.000000 0.039915 -0.000001 0.000904
# 5 0.002006 -0.004578 0.001824 -0.000001 0.068807 0.000000
# 6 0.000000 0.000000 -0.000001 0.000904 0.000000 0.053934
#
#
# Mechanical properties :
#
#
# Convention : Reuss Voigt Hill
#
# Bulk Modulus (GPa) = 59.33892 62.68499 61.01195
# Shear Modulus (GPa) = 24.00698 30.53893 27.27296
#
# Velocity S-wave (km/s) = 3.35118 3.77969 3.57187
# Velocity P-wave (km/s) = 6.53701 6.95499 6.74924
#
# Compressibility (1/GPa) = 0.01685235
#
# Stress axis : x y z
#
# Youngs Moduli (GPa) = 136.99452 113.44293 81.22442
#
# Poissons Ratio (x) = 0.19371 0.15214
# Poissons Ratio (y) = 0.23393 0.17920
# Poissons Ratio (z) = 0.25660 0.25028
#
# Static dielectric constant tensor:
#      x y z
#    x 4.026610 0.000000 -0.144230 
#    y 0.000000 3.834780 0.000000 
#    z -0.144230 0.000000 3.494840 
# 
# 
# High freq. dielectric constant tensor:
#      x y z
#    x 1.844290 0.000000 -0.013510 
#    y 0.000000 1.851340 0.000000 
#    z -0.013510 0.000000 1.798910 
# 
# From -- ./inp_files/70373.got.cif
#   From: 2010.03.12/outbox.cif.g09.slc.cpg/sg5_36_cif.got.tgz:70373.got - 2010.03.31 09:47:26.
