data_PCOD8049956
_publ_section_title
;
Structure prediction by ZEFSAII (Michael W. Deem and Ramdas Pophale) SiO2 
 PCOD8049956
Probable space group: C 2
;
_chemical_formula_sum "Si O2"
_cell_formula_units_Z 28
_cell_length_a 9.522993
_cell_length_b 30.534916
_cell_length_c 4.934343
_cell_angle_alpha 90.000000
_cell_angle_beta 115.833821
_cell_angle_gamma 90.000000
_cell_volume 1291.432802
_symmetry_space_group_name_H-M "C 2"
_symmetry_group_IT_number 5
_symmetry_cell_setting 'monoclinic'
loop_
_space_group_symop_operation_xyz
x,y,z
-x,y,-z
1/2+x,1/2+y,z
1/2-x,1/2+y,-z
loop_
_atom_site_type_symbol
_atom_site_label
_atom_site_fract_x
_atom_site_fract_y
_atom_site_fract_z
Si Si1 0.816437 0.975010 0.343565
Si Si2 0.323614 0.931081 0.272105
Si Si3 0.888357 0.201631 0.665689
Si Si4 0.183944 0.567905 0.176092
Si Si5 0.680916 0.611726 0.209570
Si Si6 0.822739 0.839208 0.820766
Si Si7 0.675915 0.281162 0.669664
O O1 0.773363 0.962943 0.614420
O O2 0.000000 0.968784 0.500000
O O3 0.768804 0.022269 0.186032
O O4 0.723359 0.941310 0.075024
O O5 0.500000 0.940424 0.500000
O O6 0.294015 0.879260 0.262995
O O7 0.784791 0.157363 0.595792
O O8 0.788689 0.243889 0.652395
O O9 0.000000 0.207710 0.500000
O O10 0.000000 0.190807 0.000000
O O11 0.239160 0.576729 0.527939
O O12 0.234977 0.606588 0.011146
O O13 0.000000 0.561625 0.000000
O O14 0.500000 0.601554 0.000000
O O15 0.801461 0.822747 0.499286
O O16 0.784639 0.798693 0.995198
O O17 0.000000 0.855812 0.000000
O O18 0.500000 0.262509 0.500000
#
# Coordination Sequence:
#
# PCOD8049956 Si02
#       7
#     4   4   4   4   4   4   4
#     4  12  25  44  67  92 126 172 212 254 316 387
#     4  12  25  42  65  96 129 164 211 269 316 367
#     4  11  23  41  64  92 125 164 209 261 314 375
#     4  12  25  42  65  96 128 162 210 269 317 368
#     4  11  23  43  65  91 127 170 211 254 316 388
#     4  10  21  39  61  89 124 167 210 255 313 381
#     4  10  22  39  62  90 124 163 210 260 311 372
#
# _framework density 21.681346000000001
#
# number of rings (size 3 to 8) (size 9 to 14) (size 15 to 20)
#    0.000    0.857    0.000    8.571    0.000    4.000 
#    0.000    1.429    0.000    0.000    0.000    0.000 
#    0.000    0.000    0.000    0.000    0.000    0.000 
#
# Total GULP energy -173519.128761 kJ/mol
# GULP energy per Si atom -12394.223483 kJ/mol
# Density = 2.163200 g / cm^3
# Si number density = 21.681346 Si / 1000 Ang^3
#
#
#
# Elastic Constant Matrix: (Units=GPa)
#
#
# Indices 1 2 3 4 5 6 
#
# 1 70.8003 31.4570 28.5106 0.0000 -1.8630 0.0000
# 2 31.4570 79.5391 4.4873 0.0000 7.4559 0.0000
# 3 28.5106 4.4873 95.6431 0.0000 5.9388 0.0000
# 4 0.0000 0.0000 0.0000 9.3687 0.0000 -15.9983
# 5 -1.8630 7.4559 5.9388 0.0000 45.2865 0.0000
# 6 0.0000 0.0000 0.0000 -15.9983 0.0000 44.8836
#
#
#
# Elastic Compliance Matrix: (Units=1/GPa)
#
#
# Indices 1 2 3 4 5 6 
#
# 1 0.020019 -0.007861 -0.005777 0.000000 0.002875 0.000000
# 2 -0.007861 0.015877 0.001795 0.000000 -0.003173 0.000000
# 3 -0.005777 0.001795 0.012226 0.000000 -0.002137 0.000000
# 4 0.000000 0.000000 0.000000 0.272758 0.000000 0.097222
# 5 0.002875 -0.003173 -0.002137 0.000000 0.023002 0.000000
# 6 0.000000 0.000000 0.000000 0.097222 0.000000 0.056934
#
#
# Mechanical properties :
#
#
# Convention : Reuss Voigt Hill
#
# Bulk Modulus (GPa) = 40.92160 41.65473 41.28816
# Shear Modulus (GPa) = 11.55672 32.00960 21.78316
#
# Velocity S-wave (km/s) = 2.31124 3.84652 3.17313
# Velocity P-wave (km/s) = 5.10270 6.24352 5.70171
#
# Compressibility (1/GPa) = 0.02443697
#
# Stress axis : x y z
#
# Youngs Moduli (GPa) = 49.95256 62.98224 81.79202
#
# Poissons Ratio (x) = 0.49510 0.47253
# Poissons Ratio (y) = 0.39267 -0.14685
# Poissons Ratio (z) = 0.28859 -0.11308
#
# Static dielectric constant tensor:
#      x y z
#    x 3.804060 0.000000 0.026280 
#    y 0.000000 3.928640 0.000000 
#    z 0.026280 0.000000 4.064950 
# 
# 
# High freq. dielectric constant tensor:
#      x y z
#    x 1.853750 0.000000 -0.007910 
#    y 0.000000 1.855780 0.000000 
#    z -0.007910 0.000000 1.867850 
# 
# From -- ./inp_files/3980.got.cif
#   From: 2010.03.12/outbox.cif.g09.slc.cpg/sg5_2_cif.got.tgz:3980.got - 2010.03.31 09:47:26.
