data_PCOD8049943
_publ_section_title
;
Structure prediction by ZEFSAII (Michael W. Deem and Ramdas Pophale) SiO2 
 PCOD8049943
Probable space group: C 2
;
_chemical_formula_sum "Si O2"
_cell_formula_units_Z 20
_cell_length_a 23.547427
_cell_length_b 9.486787
_cell_length_c 14.230038
_cell_angle_alpha 90.000000
_cell_angle_beta 161.786517
_cell_angle_gamma 90.000000
_cell_volume 993.573334
_symmetry_space_group_name_H-M "C 2"
_symmetry_group_IT_number 5
_symmetry_cell_setting 'monoclinic'
loop_
_space_group_symop_operation_xyz
x,y,z
-x,y,-z
1/2+x,1/2+y,z
1/2-x,1/2+y,-z
loop_
_atom_site_type_symbol
_atom_site_label
_atom_site_fract_x
_atom_site_fract_y
_atom_site_fract_z
Si Si1 0.852525 0.996780 0.950746
Si Si2 0.527213 0.057731 0.306518
Si Si3 0.083455 0.249185 0.379249
Si Si4 0.907685 0.754348 0.762131
Si Si5 0.804948 0.235798 0.235324
O O1 0.753591 0.898337 0.873591
O O2 0.700016 0.070613 0.646699
O O3 0.000402 0.902229 0.126018
O O4 0.950092 0.119227 0.160210
O O5 0.592298 0.131181 0.313652
O O6 0.470025 0.893870 0.210411
O O7 0.341928 0.136151 0.047249
O O8 0.200502 0.278232 0.469401
O O9 0.201264 0.220148 0.659756
O O10 0.000000 0.692277 0.000000
O O11 0.000000 0.200946 0.500000
#
# Coordination Sequence:
#
# PCOD8049943 Si02
#       5
#     4   4   4   4   4
#     4  10  23  40  61  89 120 155 193 240 292 348
#     4  10  21  39  59  87 120 150 199 240 289 349
#     4  11  22  37  61  89 119 155 195 239 287 350
#     4  11  19  39  59  86 126 155 184 232 294 349
#     4  10  23  43  62  81 117 158 197 247 296 339
#
# _framework density 20.129366000000001
#
# number of rings (size 3 to 8) (size 9 to 14) (size 15 to 20)
#    0.000    1.600    6.000    1.200    0.000    6.400 
#    3.600    1.000    0.000    0.000    0.000    0.000 
#    0.000    0.000    0.000    0.000    0.000    0.000 
#
# Total GULP energy -123894.302728 kJ/mol
# GULP energy per Si atom -12389.430273 kJ/mol
# Density = 2.008355 g / cm^3
# Si number density = 20.129366 Si / 1000 Ang^3
#
#
#
# Elastic Constant Matrix: (Units=GPa)
#
#
# Indices 1 2 3 4 5 6 
#
# 1 32.8702 7.7744 11.4843 0.0000 12.6004 0.0000
# 2 7.7744 120.0654 66.3770 0.0000 -21.1712 0.0000
# 3 11.4843 66.3770 105.4758 0.0000 3.3414 0.0000
# 4 0.0000 0.0000 0.0000 49.9759 0.0000 -4.7621
# 5 12.6004 -21.1712 3.3414 0.0000 33.1313 0.0000
# 6 0.0000 0.0000 0.0000 -4.7621 0.0000 16.0766
#
#
#
# Elastic Compliance Matrix: (Units=1/GPa)
#
#
# Indices 1 2 3 4 5 6 
#
# 1 0.038870 -0.005759 -0.000023 0.000000 -0.018461 0.000000
# 2 -0.005759 0.017011 -0.010525 0.000000 0.014122 0.000000
# 3 -0.000023 -0.010525 0.016372 0.000000 -0.008368 0.000000
# 4 0.000000 0.000000 0.000000 0.020591 0.000000 0.006099
# 5 -0.018461 0.014122 -0.008368 0.000000 0.047072 0.000000
# 6 0.000000 0.000000 0.000000 0.006099 0.000000 0.064009
#
#
# Mechanical properties :
#
#
# Convention : Reuss Voigt Hill
#
# Bulk Modulus (GPa) = 25.22880 47.74253 36.48567
# Shear Modulus (GPa) = 20.01993 31.35514 25.68754
#
# Velocity S-wave (km/s) = 3.15709 3.95103 3.57616
# Velocity P-wave (km/s) = 5.08431 6.67709 5.93438
#
# Compressibility (1/GPa) = 0.03963723
#
# Stress axis : x y z
#
# Youngs Moduli (GPa) = 25.72707 58.78679 61.07955
#
# Poissons Ratio (x) = 0.33858 0.00140
# Poissons Ratio (y) = 0.14817 0.64288
# Poissons Ratio (z) = 0.00059 0.61875
#
# Static dielectric constant tensor:
#      x y z
#    x 3.542290 0.000000 0.107290 
#    y 0.000000 3.678610 0.000000 
#    z 0.107290 0.000000 3.703410 
# 
# 
# High freq. dielectric constant tensor:
#      x y z
#    x 1.767450 0.000000 0.009460 
#    y 0.000000 1.786740 0.000000 
#    z 0.009460 0.000000 1.791170 
# 
# From -- ./inp_files/34738.got.cif
#   From: 2010.03.12/outbox.cif.g09.slc.cpg/sg5_18_cif.got.tgz:34738.got - 2010.03.31 09:47:26.
