data_PCOD8049744
_publ_section_title
;
Structure prediction by ZEFSAII (Michael W. Deem and Ramdas Pophale) SiO2 
 PCOD8049744
Probable space group: C 2
;
_chemical_formula_sum "Si O2"
_cell_formula_units_Z 28
_cell_length_a 23.126223
_cell_length_b 10.667961
_cell_length_c 5.347299
_cell_angle_alpha 90.000000
_cell_angle_beta 83.359464
_cell_angle_gamma 90.000000
_cell_volume 1310.379787
_symmetry_space_group_name_H-M "C 2"
_symmetry_group_IT_number 5
_symmetry_cell_setting 'monoclinic'
loop_
_space_group_symop_operation_xyz
x,y,z
-x,y,-z
1/2+x,1/2+y,z
1/2-x,1/2+y,-z
loop_
_atom_site_type_symbol
_atom_site_label
_atom_site_fract_x
_atom_site_fract_y
_atom_site_fract_z
Si Si1 0.782571 0.169980 0.053989
Si Si2 0.328531 0.217004 0.156057
Si Si3 0.240593 0.869444 0.442959
Si Si4 0.036517 0.113100 0.228146
Si Si5 0.359327 0.981223 0.385099
Si Si6 0.381749 0.840607 0.860932
Si Si7 0.854391 0.949883 0.887803
O O1 0.718411 0.133403 0.975741
O O2 0.822014 0.261098 0.853458
O O3 0.821348 0.046565 0.097005
O O4 0.770608 0.246175 0.310768
O O5 0.288908 0.325081 0.291572
O O6 0.367202 0.130211 0.320497
O O7 0.370155 0.308425 0.973047
O O8 0.290626 0.969747 0.470780
O O9 0.191611 0.939282 0.310506
O O10 0.062728 0.250787 0.175178
O O11 0.000000 0.110958 0.500000
O O12 0.085955 0.008435 0.238901
O O13 0.000000 0.077639 0.000000
O O14 0.390441 0.939704 0.627366
O O15 0.382854 0.907155 0.131300
#
# Coordination Sequence:
#
# PCOD8049744 Si02
#       7
#     4   4   4   4   4   4   4
#     4   9  19  34  52  86 130 174 206 253 306 381
#     4  11  22  32  56  90 135 179 208 245 319 403
#     4  10  21  31  55  88 132 176 212 245 308 394
#     4  11  25  47  75  97 118 164 227 293 341 369
#     4  11  22  37  60  93 136 174 206 248 316 403
#     4  10  22  41  62  93 123 160 215 274 319 373
#     4  10  23  38  58  91 136 169 218 272 319 386
#
# _framework density 21.367851000000002
#
# number of rings (size 3 to 8) (size 9 to 14) (size 15 to 20)
#    0.000    1.714    2.857    0.857    8.000    0.000 
#    0.000    0.000    0.000    3.429    0.000    0.000 
#    0.000    0.000    0.000    0.000    0.000    0.000 
#
# Total GULP energy -173465.143517 kJ/mol
# GULP energy per Si atom -12390.367394 kJ/mol
# Density = 2.131922 g / cm^3
# Si number density = 21.367851 Si / 1000 Ang^3
#
#
#
# Elastic Constant Matrix: (Units=GPa)
#
#
# Indices 1 2 3 4 5 6 
#
# 1 69.8566 26.7203 19.7646 0.0000 -14.9141 0.0000
# 2 26.7203 93.5121 12.5681 0.0000 -7.1948 0.0000
# 3 19.7646 12.5681 85.3132 0.0000 -5.4673 0.0000
# 4 0.0000 0.0000 0.0000 26.0772 0.0000 6.8198
# 5 -14.9141 -7.1948 -5.4673 0.0000 23.5145 0.0000
# 6 0.0000 0.0000 0.0000 6.8198 0.0000 20.6060
#
#
#
# Elastic Compliance Matrix: (Units=1/GPa)
#
#
# Indices 1 2 3 4 5 6 
#
# 1 0.018951 -0.004225 -0.003127 0.000000 0.010000 0.000000
# 2 -0.004225 0.012066 -0.000745 0.000000 0.000839 0.000000
# 3 -0.003127 -0.000745 0.012602 0.000000 0.000719 0.000000
# 4 0.000000 0.000000 0.000000 0.041981 0.000000 -0.013894
# 5 0.010000 0.000839 0.000719 0.000000 0.049293 0.000000
# 6 0.000000 0.000000 0.000000 -0.013894 0.000000 0.053128
#
#
# Mechanical properties :
#
#
# Convention : Reuss Voigt Hill
#
# Bulk Modulus (GPa) = 36.46468 40.75424 38.60946
# Shear Modulus (GPa) = 23.43493 26.68147 25.05820
#
# Velocity S-wave (km/s) = 3.31530 3.53749 3.42819
# Velocity P-wave (km/s) = 5.63535 5.98324 5.81190
#
# Compressibility (1/GPa) = 0.02742380
#
# Stress axis : x y z
#
# Youngs Moduli (GPa) = 52.76790 82.87877 79.35403
#
# Poissons Ratio (x) = 0.35020 0.24815
# Poissons Ratio (y) = 0.22297 0.05911
# Poissons Ratio (z) = 0.16501 0.06173
#
# Static dielectric constant tensor:
#      x y z
#    x 3.575600 0.000000 -0.093270 
#    y 0.000000 4.082960 0.000000 
#    z -0.093270 0.000000 3.735690 
# 
# 
# High freq. dielectric constant tensor:
#      x y z
#    x 1.792450 0.000000 -0.008420 
#    y 0.000000 1.847720 0.000000 
#    z -0.008420 0.000000 1.837840 
# 
# From -- ./inp_files/9453.got.cif
#   From: 2010.03.12/outbox.cif.g09.slc.cpg/sg5_5_cif.got.tgz:9453.got - 2010.03.31 09:47:26.
