data_PCOD8049190
_publ_section_title
;
Structure prediction by ZEFSAII (Michael W. Deem and Ramdas Pophale) SiO2 
 PCOD8049190
Probable space group: C 2
;
_chemical_formula_sum "Si O2"
_cell_formula_units_Z 28
_cell_length_a 8.849271
_cell_length_b 9.192632
_cell_length_c 24.831565
_cell_angle_alpha 90.000000
_cell_angle_beta 140.369207
_cell_angle_gamma 90.000000
_cell_volume 1288.433037
_symmetry_space_group_name_H-M "C 2"
_symmetry_group_IT_number 5
_symmetry_cell_setting 'monoclinic'
loop_
_space_group_symop_operation_xyz
x,y,z
-x,y,-z
1/2+x,1/2+y,z
1/2-x,1/2+y,-z
loop_
_atom_site_type_symbol
_atom_site_label
_atom_site_fract_x
_atom_site_fract_y
_atom_site_fract_z
Si Si1 0.292775 0.742430 0.804329
Si Si2 0.376356 0.988095 0.117981
Si Si3 0.534868 0.534380 0.571907
Si Si4 0.395670 0.856186 0.530546
Si Si5 0.980745 0.802834 0.815059
Si Si6 0.569739 0.498377 0.934306
Si Si7 0.456532 0.989993 0.321030
O O1 0.429129 0.870578 0.812761
O O2 0.493433 0.659105 0.894372
O O3 0.180649 0.640834 0.727401
O O4 0.095517 0.820460 0.787572
O O5 0.508584 0.134647 0.169203
O O6 0.152406 0.942399 0.092089
O O7 0.304549 0.000630 0.035345
O O8 0.500000 0.549494 0.500000
O O9 0.449062 0.694801 0.569794
O O10 0.382582 0.398783 0.553447
O O11 0.813484 0.496754 0.655441
O O12 0.500000 0.880468 0.500000
O O13 0.489319 0.973939 0.600303
O O14 0.708931 0.855834 0.741924
O O15 0.127100 0.894321 0.899625
#
# Coordination Sequence:
#
# PCOD8049190 Si02
#       7
#     4   4   4   4   4   4   4
#     4  10  21  38  58  86 122 159 199 247 299 348
#     4  10  20  37  59  85 118 158 205 251 293 347
#     4   9  20  40  62  87 119 150 188 239 292 350
#     4  10  21  41  66  91 114 150 199 240 291 355
#     4  10  21  38  59  87 119 161 203 239 298 352
#     4   9  20  37  57  84 120 157 202 256 298 340
#     4  10  21  41  60  84 128 159 185 244 301 350
#
# _framework density 21.731822999999999
#
# number of rings (size 3 to 8) (size 9 to 14) (size 15 to 20)
#    0.000    2.286    0.000    1.714    0.000    5.714 
#    0.000   34.286    0.000    0.000    0.000    0.000 
#    0.000    0.000    0.000    0.000    0.000    0.000 
#
# Total GULP energy -173477.157991 kJ/mol
# GULP energy per Si atom -12391.225571 kJ/mol
# Density = 2.168236 g / cm^3
# Si number density = 21.731823 Si / 1000 Ang^3
#
#
#
# Elastic Constant Matrix: (Units=GPa)
#
#
# Indices 1 2 3 4 5 6 
#
# 1 77.6568 58.9291 35.7949 0.0000 6.3431 0.0000
# 2 58.9291 93.5532 32.2082 0.0000 25.9907 0.0000
# 3 35.7949 32.2082 76.9185 0.0000 17.4951 0.0000
# 4 0.0000 0.0000 0.0000 24.9677 0.0000 2.9287
# 5 6.3431 25.9907 17.4951 0.0000 36.4310 0.0000
# 6 0.0000 0.0000 0.0000 2.9287 0.0000 29.0367
#
#
#
# Elastic Compliance Matrix: (Units=1/GPa)
#
#
# Indices 1 2 3 4 5 6 
#
# 1 0.031522 -0.020448 -0.009179 0.000000 0.013508 0.000000
# 2 -0.020448 0.027688 0.001802 0.000000 -0.017058 0.000000
# 3 -0.009179 0.001802 0.018463 0.000000 -0.008554 0.000000
# 4 0.000000 0.000000 0.000000 0.040531 0.000000 -0.004088
# 5 0.013508 -0.017058 -0.008554 0.000000 0.041375 0.000000
# 6 0.000000 0.000000 0.000000 -0.004088 0.000000 0.034851
#
#
# Mechanical properties :
#
#
# Convention : Reuss Voigt Hill
#
# Bulk Modulus (GPa) = 45.40806 55.77698 50.59252
# Shear Modulus (GPa) = 19.42336 26.16685 22.79510
#
# Velocity S-wave (km/s) = 2.99285 3.47375 3.24223
# Velocity P-wave (km/s) = 5.73437 6.46614 6.11122
#
# Compressibility (1/GPa) = 0.02202252
#
# Stress axis : x y z
#
# Youngs Moduli (GPa) = 31.72430 36.11664 54.16106
#
# Poissons Ratio (x) = 0.73851 0.49715
# Poissons Ratio (y) = 0.64870 -0.09758
# Poissons Ratio (z) = 0.29120 -0.06507
#
# Static dielectric constant tensor:
#      x y z
#    x 4.281930 0.000000 0.372740 
#    y 0.000000 4.017260 0.000000 
#    z 0.372740 0.000000 4.378260 
# 
# 
# High freq. dielectric constant tensor:
#      x y z
#    x 1.841440 0.000000 -0.000180 
#    y 0.000000 1.849950 0.000000 
#    z -0.000180 0.000000 1.858670 
# 
# From -- ./inp_files/64385.got.cif
#   From: 2010.03.12/outbox.cif.g09.slc.cpg/sg5_33_cif.got.tgz:64385.got - 2010.03.31 09:47:26.
