data_PCOD8049324
_publ_section_title
;
Structure prediction by ZEFSAII (Michael W. Deem and Ramdas Pophale) SiO2 
 PCOD8049324
Probable space group: C 2
;
_chemical_formula_sum "Si O2"
_cell_formula_units_Z 26
_cell_length_a 12.891805
_cell_length_b 9.741447
_cell_length_c 14.514988
_cell_angle_alpha 90.000000
_cell_angle_beta 136.369847
_cell_angle_gamma 90.000000
_cell_volume 1257.776055
_symmetry_space_group_name_H-M "C 2"
_symmetry_group_IT_number 5
_symmetry_cell_setting 'monoclinic'
loop_
_space_group_symop_operation_xyz
x,y,z
-x,y,-z
1/2+x,1/2+y,z
1/2-x,1/2+y,-z
loop_
_atom_site_type_symbol
_atom_site_label
_atom_site_fract_x
_atom_site_fract_y
_atom_site_fract_z
Si Si1 0.169803 0.898360 0.137414
Si Si2 0.812676 0.881827 0.641347
Si Si3 0.000000 0.836629 0.500000
Si Si4 0.882037 0.211548 0.164076
Si Si5 0.731284 0.690627 0.424149
Si Si6 0.389174 0.433170 0.248120
Si Si7 0.157884 0.203236 0.072797
O O1 0.221434 0.852444 0.273184
O O2 0.293517 0.842349 0.145716
O O3 0.183609 0.062155 0.143654
O O4 0.000000 0.851858 0.000000
O O5 0.755762 0.755289 0.541830
O O6 0.993358 0.893455 0.756231
O O7 0.746029 0.025688 0.559004
O O8 0.146262 0.744909 0.570150
O O9 0.025944 0.940551 0.600306
O O10 0.062272 0.230402 0.284032
O O11 0.821328 0.082151 0.183940
O O12 0.829338 0.181801 0.027348
O O13 0.271264 0.314093 0.182611
O O14 0.000000 0.266998 0.000000
#
# Coordination Sequence:
#
# PCOD8049324 Si02
#       7
#     4   4   2   4   4   4   4
#     4  11  23  40  62  86 120 158 198 243 292 349
#     4  10  22  40  60  87 120 155 196 242 292 348
#     4  10  20  38  62  84 116 156 198 238 290 352
#     4  11  23  38  59  89 120 150 196 248 294 343
#     4  10  22  39  60  88 119 155 197 241 291 349
#     4  10  21  38  59  84 117 153 193 243 294 344
#     4  11  21  39  63  85 116 156 199 240 291 355
#
# _framework density 20.671406000000001
#
# number of rings (size 3 to 8) (size 9 to 14) (size 15 to 20)
#    0.000    1.538    0.000    7.385    0.000    8.615 
#    0.000    4.615    0.000    0.000    0.000    0.000 
#    0.000    0.000    0.000    0.000    0.000    0.000 
#
# Total GULP energy -161174.334883 kJ/mol
# GULP energy per Si atom -12398.025760 kJ/mol
# Density = 2.062436 g / cm^3
# Si number density = 20.671406 Si / 1000 Ang^3
#
#
#
# Elastic Constant Matrix: (Units=GPa)
#
#
# Indices 1 2 3 4 5 6 
#
# 1 99.8498 20.3112 23.8941 0.0000 -3.2138 0.0000
# 2 20.3112 55.6817 25.8175 0.0000 -0.8002 0.0000
# 3 23.8941 25.8175 81.3366 0.0000 -13.2589 0.0000
# 4 0.0000 0.0000 0.0000 26.9348 0.0000 0.7184
# 5 -3.2138 -0.8002 -13.2589 0.0000 37.2114 0.0000
# 6 0.0000 0.0000 0.0000 0.7184 0.0000 33.5492
#
#
#
# Elastic Compliance Matrix: (Units=1/GPa)
#
#
# Indices 1 2 3 4 5 6 
#
# 1 0.011183 -0.003003 -0.002320 0.000000 0.000075 0.000000
# 2 -0.003003 0.022013 -0.006445 0.000000 -0.002082 0.000000
# 3 -0.002320 -0.006445 0.015889 0.000000 0.005323 0.000000
# 4 0.000000 0.000000 0.000000 0.037148 0.000000 -0.000795
# 5 0.000075 -0.002082 0.005323 0.000000 0.028732 0.000000
# 6 0.000000 0.000000 0.000000 -0.000795 0.000000 0.029824
#
#
# Mechanical properties :
#
#
# Convention : Reuss Voigt Hill
#
# Bulk Modulus (GPa) = 39.13735 41.87932 40.50833
# Shear Modulus (GPa) = 28.27406 30.66210 29.46808
#
# Velocity S-wave (km/s) = 3.70237 3.85555 3.77974
# Velocity P-wave (km/s) = 6.10335 6.33434 6.21992
#
# Compressibility (1/GPa) = 0.02555104
#
# Stress axis : x y z
#
# Youngs Moduli (GPa) = 89.41804 45.42839 62.93500
#
# Poissons Ratio (x) = 0.13640 0.14601
# Poissons Ratio (y) = 0.26849 0.40559
# Poissons Ratio (z) = 0.20746 0.29276
#
# Static dielectric constant tensor:
#      x y z
#    x 3.901930 0.000000 0.030030 
#    y 0.000000 3.615280 0.000000 
#    z 0.030030 0.000000 3.745680 
# 
# 
# High freq. dielectric constant tensor:
#      x y z
#    x 1.819210 0.000000 -0.009080 
#    y 0.000000 1.798930 0.000000 
#    z -0.009080 0.000000 1.814440 
# 
# From -- ./inp_files/47263.got.cif
#   From: 2010.03.12/outbox.cif.g09.slc.cpg/sg5_24_cif.got.tgz:47263.got - 2010.03.31 09:47:26.
