data_PCOD8049517
_publ_section_title
;
Structure prediction by ZEFSAII (Michael W. Deem and Ramdas Pophale) SiO2 
 PCOD8049517
Probable space group: C 2
;
_chemical_formula_sum "Si O2"
_cell_formula_units_Z 26
_cell_length_a 21.346404
_cell_length_b 9.851419
_cell_length_c 8.823284
_cell_angle_alpha 90.000000
_cell_angle_beta 140.240025
_cell_angle_gamma 90.000000
_cell_volume 1186.707781
_symmetry_space_group_name_H-M "C 2"
_symmetry_group_IT_number 5
_symmetry_cell_setting 'monoclinic'
loop_
_space_group_symop_operation_xyz
x,y,z
-x,y,-z
1/2+x,1/2+y,z
1/2-x,1/2+y,-z
loop_
_atom_site_type_symbol
_atom_site_label
_atom_site_fract_x
_atom_site_fract_y
_atom_site_fract_z
Si Si1 0.211007 0.200510 0.298144
Si Si2 0.225612 0.912553 0.371833
Si Si3 0.038536 0.958317 0.812877
Si Si4 0.706912 0.114089 0.865218
Si Si5 0.500000 0.238445 0.500000
Si Si6 0.000000 0.169621 0.500000
Si Si7 0.500000 0.628746 0.000000
Si Si8 0.683268 0.813930 0.736810
O O1 0.276402 0.326565 0.477351
O O2 0.233052 0.181612 0.161940
O O3 0.092954 0.216219 0.110867
O O4 0.250830 0.067366 0.460963
O O5 0.310768 0.842372 0.431157
O O6 0.131053 0.915034 0.086451
O O7 0.999721 0.827392 0.653469
O O8 0.062409 0.074002 0.730969
O O9 0.963047 0.028249 0.793075
O O10 0.591864 0.142084 0.647086
O O11 0.718158 0.950453 0.891934
O O12 0.748242 0.186695 0.091624
O O13 0.928337 0.272427 0.450499
#
# Coordination Sequence:
#
# PCOD8049517 Si02
#       8
#     4   4   4   4   2   2   2   4
#     4  10  23  39  65  90 131 163 218 264 319 381
#     4  10  21  41  59  95 122 167 210 265 311 385
#     4  10  22  38  65  96 123 165 221 260 323 384
#     4  11  25  41  63  96 132 169 217 264 319 388
#     4  11  23  42  62  92 132 170 214 270 318 376
#     4  11  21  38  68  94 126 172 212 268 326 380
#     4  10  20  40  64  94 126 166 216 262 318 390
#     4  11  22  40  63  92 130 165 216 266 319 382
#
# _framework density 21.909351999999998
#
# number of rings (size 3 to 8) (size 9 to 14) (size 15 to 20)
#    0.000    1.538    1.538    4.154    6.462    1.231 
#    0.000    0.000    0.000    0.000    0.000    0.000 
#    0.000    0.000    0.000    0.000    0.000    0.000 
#
# Total GULP energy -161056.858222 kJ/mol
# GULP energy per Si atom -12388.989094 kJ/mol
# Density = 2.185949 g / cm^3
# Si number density = 21.909352 Si / 1000 Ang^3
#
#
#
# Elastic Constant Matrix: (Units=GPa)
#
#
# Indices 1 2 3 4 5 6 
#
# 1 74.7837 -14.2991 5.6527 0.0000 17.2381 0.0000
# 2 -14.2991 72.8013 10.7245 0.0000 -3.8206 0.0000
# 3 5.6527 10.7245 60.8516 0.0000 5.3263 0.0000
# 4 0.0000 0.0000 0.0000 39.3502 0.0000 -8.1570
# 5 17.2381 -3.8206 5.3263 0.0000 32.5783 0.0000
# 6 0.0000 0.0000 0.0000 -8.1570 0.0000 33.3047
#
#
#
# Elastic Compliance Matrix: (Units=1/GPa)
#
#
# Indices 1 2 3 4 5 6 
#
# 1 0.015825 0.002888 -0.001294 0.000000 -0.007823 0.000000
# 2 0.002888 0.014771 -0.002931 0.000000 0.000683 0.000000
# 3 -0.001294 -0.002931 0.017288 0.000000 -0.002485 0.000000
# 4 0.000000 0.000000 0.000000 0.026772 0.000000 0.006557
# 5 -0.007823 0.000683 -0.002485 0.000000 0.035321 0.000000
# 6 0.000000 0.000000 0.000000 0.006557 0.000000 0.031632
#
#
# Mechanical properties :
#
#
# Convention : Reuss Voigt Hill
#
# Bulk Modulus (GPa) = 22.11922 23.62143 22.87033
# Shear Modulus (GPa) = 31.37674 34.80387 33.09031
#
# Velocity S-wave (km/s) = 3.78844 3.98997 3.89051
# Velocity P-wave (km/s) = 5.40870 5.65962 5.53558
#
# Compressibility (1/GPa) = 0.04520955
#
# Stress axis : x y z
#
# Youngs Moduli (GPa) = 63.18979 67.70016 57.84418
#
# Poissons Ratio (x) = -0.19555 0.07487
# Poissons Ratio (y) = -0.18252 0.16956
# Poissons Ratio (z) = 0.08179 0.19845
#
# Static dielectric constant tensor:
#      x y z
#    x 4.211870 0.000000 -0.142360 
#    y 0.000000 4.110490 0.000000 
#    z -0.142360 0.000000 3.670400 
# 
# 
# High freq. dielectric constant tensor:
#      x y z
#    x 1.871480 0.000000 -0.003040 
#    y 0.000000 1.856870 0.000000 
#    z -0.003040 0.000000 1.844540 
# 
# From -- ./inp_files/26725.got.cif
#   From: 2010.03.12/outbox.cif.g09.slc.cpg/sg5_14_cif.got.tgz:26725.got - 2010.03.31 09:47:26.
