data_PCOD8049097
_publ_section_title
;
Structure prediction by ZEFSAII (Michael W. Deem and Ramdas Pophale) SiO2 
 PCOD8049097
Probable space group: C 2
;
_chemical_formula_sum "Si O2"
_cell_formula_units_Z 22
_cell_length_a 24.217115
_cell_length_b 8.390149
_cell_length_c 6.784168
_cell_angle_alpha 90.000000
_cell_angle_beta 54.545503
_cell_angle_gamma 90.000000
_cell_volume 1122.846832
_symmetry_space_group_name_H-M "C 2"
_symmetry_group_IT_number 5
_symmetry_cell_setting 'monoclinic'
loop_
_space_group_symop_operation_xyz
x,y,z
-x,y,-z
1/2+x,1/2+y,z
1/2-x,1/2+y,-z
loop_
_atom_site_type_symbol
_atom_site_label
_atom_site_fract_x
_atom_site_fract_y
_atom_site_fract_z
Si Si1 0.317866 0.609280 0.981306
Si Si2 0.558693 0.828177 0.228295
Si Si3 0.500000 0.628664 0.000000
Si Si4 0.683149 0.311739 0.288877
Si Si5 0.571031 0.180317 0.241960
Si Si6 0.619205 0.413688 0.812646
O O1 0.382206 0.720835 0.801526
O O2 0.308769 0.487922 0.819083
O O3 0.253539 0.720960 0.132677
O O4 0.328629 0.518200 0.165911
O O5 0.500000 0.859951 0.500000
O O6 0.584327 0.005411 0.121641
O O7 0.523049 0.742259 0.123920
O O8 0.564498 0.520432 0.807891
O O9 0.628424 0.210075 0.284594
O O10 0.662419 0.319592 0.561226
O O11 0.500000 0.206783 0.500000
O O12 0.576849 0.300210 0.046739
#
# Coordination Sequence:
#
# PCOD8049097 Si02
#       6
#     4   4   2   4   4   4
#     4  10  23  38  58  86 114 152 197 238 286 344
#     4  10  21  38  58  85 116 149 191 236 284 341
#     4  10  20  36  58  84 114 148 188 236 286 334
#     4  11  22  40  60  82 118 155 190 242 292 335
#     4  10  22  38  60  89 117 149 195 238 283 345
#     4  10  22  38  60  86 114 153 194 236 289 346
#
# _framework density 19.593056000000001
#
# number of rings (size 3 to 8) (size 9 to 14) (size 15 to 20)
#    0.000    1.818    0.000    3.273    0.000   13.091 
#    0.000    5.455    0.000    0.000    0.000    0.000 
#    0.000    0.000    0.000    0.000    0.000    0.000 
#
# Total GULP energy -136399.755718 kJ/mol
# GULP energy per Si atom -12399.977793 kJ/mol
# Density = 1.954846 g / cm^3
# Si number density = 19.593056 Si / 1000 Ang^3
#
#
#
# Elastic Constant Matrix: (Units=GPa)
#
#
# Indices 1 2 3 4 5 6 
#
# 1 116.1858 68.7471 46.1395 0.0000 -2.8845 0.0000
# 2 68.7471 141.7528 47.3952 0.0000 -0.7513 0.0000
# 3 46.1395 47.3952 91.9415 0.0000 1.4328 0.0000
# 4 0.0000 0.0000 0.0000 23.7878 0.0000 -16.5678
# 5 -2.8845 -0.7513 1.4328 0.0000 17.1336 0.0000
# 6 0.0000 0.0000 0.0000 -16.5678 0.0000 21.5308
#
#
#
# Elastic Compliance Matrix: (Units=1/GPa)
#
#
# Indices 1 2 3 4 5 6 
#
# 1 0.013287 -0.005062 -0.004095 0.000000 0.002357 0.000000
# 2 -0.005062 0.010462 -0.002850 0.000000 -0.000155 0.000000
# 3 -0.004095 -0.002850 0.014432 0.000000 -0.002021 0.000000
# 4 0.000000 0.000000 0.000000 0.090588 0.000000 0.069706
# 5 0.002357 -0.000155 -0.002021 0.000000 0.058924 0.000000
# 6 0.000000 0.000000 0.000000 0.069706 0.000000 0.100084
#
#
# Mechanical properties :
#
#
# Convention : Reuss Voigt Hill
#
# Bulk Modulus (GPa) = 70.59100 74.93821 72.76461
# Shear Modulus (GPa) = 15.79713 24.99699 20.39706
#
# Velocity S-wave (km/s) = 2.84256 3.57572 3.23001
# Velocity P-wave (km/s) = 6.84692 7.44164 7.15047
#
# Compressibility (1/GPa) = 0.01416611
#
# Stress axis : x y z
#
# Youngs Moduli (GPa) = 75.26175 95.58660 69.28923
#
# Poissons Ratio (x) = 0.48388 0.28374
# Poissons Ratio (y) = 0.38099 0.19748
# Poissons Ratio (z) = 0.30820 0.27243
#
# Static dielectric constant tensor:
#      x y z
#    x 3.927900 0.000000 -0.116960 
#    y 0.000000 3.924440 0.000000 
#    z -0.116960 0.000000 3.232770 
# 
# 
# High freq. dielectric constant tensor:
#      x y z
#    x 1.776760 0.000000 -0.002170 
#    y 0.000000 1.780360 0.000000 
#    z -0.002170 0.000000 1.754210 
# 
# From -- ./inp_files/9236.got.cif
#   From: 2010.03.12/outbox.cif.g09.slc.cpg/sg5_5_cif.got.tgz:9236.got - 2010.03.31 09:47:26.
