data_PCOD8049113
_publ_section_title
;
Structure prediction by ZEFSAII (Michael W. Deem and Ramdas Pophale) SiO2 
 PCOD8049113
Probable space group: C 2
;
_chemical_formula_sum "Si O2"
_cell_formula_units_Z 24
_cell_length_a 9.876374
_cell_length_b 19.801452
_cell_length_c 10.581838
_cell_angle_alpha 90.000000
_cell_angle_beta 149.397014
_cell_angle_gamma 90.000000
_cell_volume 1053.530372
_symmetry_space_group_name_H-M "C 2"
_symmetry_group_IT_number 5
_symmetry_cell_setting 'monoclinic'
loop_
_space_group_symop_operation_xyz
x,y,z
-x,y,-z
1/2+x,1/2+y,z
1/2-x,1/2+y,-z
loop_
_atom_site_type_symbol
_atom_site_label
_atom_site_fract_x
_atom_site_fract_y
_atom_site_fract_z
Si Si1 0.000000 0.559820 0.000000
Si Si2 0.863495 0.812409 0.011886
Si Si3 0.213894 0.627229 0.580094
Si Si4 0.646548 0.871603 0.483725
Si Si5 0.501190 0.004699 0.268382
Si Si6 0.377479 0.682225 0.270437
Si Si7 0.500000 0.530723 0.000000
O O1 0.003036 0.507714 0.118780
O O2 0.260358 0.607638 0.201506
O O3 0.070090 0.830986 0.291257
O O4 0.561552 0.840120 0.786783
O O5 0.843639 0.731354 0.969364
O O6 0.000000 0.847171 0.000000
O O7 0.057976 0.581114 0.354897
O O8 0.385347 0.680961 0.641218
O O9 0.395668 0.577830 0.805687
O O10 0.000000 0.664641 0.500000
O O11 0.500000 0.867170 0.500000
O O12 0.707306 0.948595 0.487092
O O13 0.220650 0.983410 0.109589
O O14 0.500000 0.712259 0.500000
#
# Coordination Sequence:
#
# PCOD8049113 Si02
#       7
#     2   4   4   4   4   4   2
#     4  12  24  38  65 105 144 188 214 292 380 430
#     4  10  22  38  64 100 131 177 237 296 343 396
#     4  10  22  38  60  98 137 182 224 284 353 428
#     4  10  22  39  64  97 133 182 235 294 343 406
#     4  11  23  38  63 100 140 179 231 283 365 421
#     4  12  22  40  66 101 145 178 233 296 358 432
#     4  10  20  36  59  93 132 178 224 276 338 430
#
# _framework density 22.780549000000001
#
# number of rings (size 3 to 8) (size 9 to 14) (size 15 to 20)
#    0.000    1.333    4.167    3.000    5.833    0.000 
#    0.000    0.000    0.000    1.000    4.333    0.000 
#    0.000    0.000    0.000    0.000    0.000    0.000 
#
# Total GULP energy -148713.088940 kJ/mol
# GULP energy per Si atom -12392.757412 kJ/mol
# Density = 2.272870 g / cm^3
# Si number density = 22.780549 Si / 1000 Ang^3
#
#
#
# Elastic Constant Matrix: (Units=GPa)
#
#
# Indices 1 2 3 4 5 6 
#
# 1 125.6927 38.9817 53.3170 -0.0015 0.7317 0.0030
# 2 38.9817 82.5205 41.6261 0.0001 6.1420 -0.0003
# 3 53.3170 41.6261 141.2975 -0.0006 11.1624 0.0015
# 4 -0.0015 0.0001 -0.0006 54.8194 -0.0010 -6.0727
# 5 0.7317 6.1420 11.1624 -0.0010 30.1792 0.0021
# 6 0.0030 -0.0003 0.0015 -6.0727 0.0021 21.8642
#
#
#
# Elastic Compliance Matrix: (Units=1/GPa)
#
#
# Indices 1 2 3 4 5 6 
#
# 1 0.010289 -0.003472 -0.002983 0.000000 0.001560 -0.000001
# 2 -0.003472 0.015461 -0.003093 0.000000 -0.001918 0.000001
# 3 -0.002983 -0.003093 0.009331 0.000000 -0.002749 0.000000
# 4 0.000000 0.000000 0.000000 0.018821 0.000000 0.005227
# 5 0.001560 -0.001918 -0.002749 0.000000 0.034505 -0.000003
# 6 -0.000001 0.000001 0.000000 0.005227 -0.000003 0.047189
#
#
# Mechanical properties :
#
#
# Convention : Reuss Voigt Hill
#
# Bulk Modulus (GPa) = 62.55635 68.59560 65.57598
# Shear Modulus (GPa) = 31.24599 35.74495 33.49547
#
# Velocity S-wave (km/s) = 3.70754 3.96548 3.83868
# Velocity P-wave (km/s) = 6.77110 7.15148 6.96389
#
# Compressibility (1/GPa) = 0.01598559
#
# Stress axis : x y z
#
# Youngs Moduli (GPa) = 97.19269 64.67717 107.16607
#
# Poissons Ratio (x) = 0.22455 0.31966
# Poissons Ratio (y) = 0.33743 0.33150
# Poissons Ratio (z) = 0.28991 0.20007
#
# Static dielectric constant tensor:
#      x y z
#    x 3.782710 0.000000 0.452580 
#    y 0.000000 3.736130 0.000000 
#    z 0.452580 0.000000 4.289020 
# 
# 
# High freq. dielectric constant tensor:
#      x y z
#    x 1.862800 0.000000 0.013500 
#    y 0.000000 1.876170 0.000000 
#    z 0.013500 0.000000 1.912580 
# 
# From -- ./inp_files/40517.got.cif
#   From: 2010.03.12/outbox.cif.g09.slc.cpg/sg5_21_cif.got.tgz:40517.got - 2010.03.31 09:47:26.
