data_PCOD8049373
_publ_section_title
;
Structure prediction by ZEFSAII (Michael W. Deem and Ramdas Pophale) SiO2 
 PCOD8049373
Probable space group: C 2
;
_chemical_formula_sum "Si O2"
_cell_formula_units_Z 26
_cell_length_a 20.959815
_cell_length_b 13.155235
_cell_length_c 5.005516
_cell_angle_alpha 90.000000
_cell_angle_beta 56.909456
_cell_angle_gamma 90.000000
_cell_volume 1156.324811
_symmetry_space_group_name_H-M "C 2"
_symmetry_group_IT_number 5
_symmetry_cell_setting 'monoclinic'
loop_
_space_group_symop_operation_xyz
x,y,z
-x,y,-z
1/2+x,1/2+y,z
1/2-x,1/2+y,-z
loop_
_atom_site_type_symbol
_atom_site_label
_atom_site_fract_x
_atom_site_fract_y
_atom_site_fract_z
Si Si1 0.689038 0.136020 0.178058
Si Si2 0.139955 0.142489 0.087201
Si Si3 0.587284 0.756451 0.718077
Si Si4 0.078212 0.468185 0.483311
Si Si5 0.947852 0.942368 0.866834
Si Si6 0.000000 0.624900 0.000000
Si Si7 0.368935 0.243700 0.165431
O O1 0.650663 0.210187 0.487501
O O2 0.647153 0.029438 0.181715
O O3 0.773502 0.107848 0.074734
O O4 0.693967 0.203702 0.898392
O O5 0.103671 0.175912 0.450062
O O6 0.091666 0.048449 0.100130
O O7 0.135804 0.232714 0.874639
O O8 0.609459 0.867300 0.553410
O O9 0.500000 0.754440 0.000000
O O10 0.063128 0.552216 0.737146
O O11 0.000000 0.444974 0.500000
O O12 0.000000 0.905397 0.500000
O O13 0.880482 0.863815 0.099185
O O14 0.000000 0.960920 0.000000
O O15 0.047389 0.695344 0.098070
#
# Coordination Sequence:
#
# PCOD8049373 Si02
#       7
#     4   4   4   4   4   2   4
#     4  11  26  43  67 101 141 178 210 278 341 407
#     4  12  27  46  65  96 144 181 221 265 335 405
#     4  12  25  45  71  98 131 179 229 281 322 392
#     4  11  22  40  71 103 129 166 229 279 339 379
#     4  12  25  43  71 100 126 178 231 283 322 389
#     4  10  20  38  66 102 130 156 214 284 332 378
#     4  11  23  42  69 101 133 168 223 274 339 387
#
# _framework density 22.485030999999999
#
# number of rings (size 3 to 8) (size 9 to 14) (size 15 to 20)
#    0.000    0.615    3.077    5.538    2.154    2.462 
#    0.000    0.000    0.000    0.000    0.000    0.000 
#    0.000    0.000    0.000    0.000    0.000    0.000 
#
# Total GULP energy -161120.575608 kJ/mol
# GULP energy per Si atom -12393.890431 kJ/mol
# Density = 2.243385 g / cm^3
# Si number density = 22.485031 Si / 1000 Ang^3
#
#
#
# Elastic Constant Matrix: (Units=GPa)
#
#
# Indices 1 2 3 4 5 6 
#
# 1 119.6400 18.9045 19.6909 0.0000 8.1851 0.0000
# 2 18.9045 73.5185 25.8087 0.0000 -8.2467 0.0000
# 3 19.6909 25.8087 73.1350 0.0000 10.6090 0.0000
# 4 0.0000 0.0000 0.0000 125.7889 0.0000 -33.7616
# 5 8.1851 -8.2467 10.6090 0.0000 32.1005 0.0000
# 6 0.0000 0.0000 0.0000 -33.7616 0.0000 76.8842
#
#
#
# Elastic Compliance Matrix: (Units=1/GPa)
#
#
# Indices 1 2 3 4 5 6 
#
# 1 0.009082 -0.002137 -0.001340 0.000000 -0.002422 0.000000
# 2 -0.002137 0.017251 -0.006548 0.000000 0.007141 0.000000
# 3 -0.001340 -0.006548 0.017372 0.000000 -0.007082 0.000000
# 4 0.000000 0.000000 0.000000 0.009012 0.000000 0.003957
# 5 -0.002422 0.007141 -0.007082 0.000000 0.035945 0.000000
# 6 0.000000 0.000000 0.000000 0.003957 0.000000 0.014744
#
#
# Mechanical properties :
#
#
# Convention : Reuss Voigt Hill
#
# Bulk Modulus (GPa) = 42.27305 43.90019 43.08662
# Shear Modulus (GPa) = 38.06850 60.41404 49.24127
#
# Velocity S-wave (km/s) = 4.11914 5.18911 4.68478
# Velocity P-wave (km/s) = 6.43929 7.44776 6.96181
#
# Compressibility (1/GPa) = 0.02365573
#
# Stress axis : x y z
#
# Youngs Moduli (GPa) = 110.10480 57.96682 57.56288
#
# Poissons Ratio (x) = 0.12386 0.07713
# Poissons Ratio (y) = 0.23526 0.37694
# Poissons Ratio (z) = 0.14754 0.37959
#
# Static dielectric constant tensor:
#      x y z
#    x -0.122050 0.000000 3.996500 
#    y 0.000000 4.143260 0.000000 
#    z 3.996500 0.000000 0.448930 
# 
# 
# High freq. dielectric constant tensor:
#      x y z
#    x 1.890310 0.000000 0.010420 
#    y 0.000000 1.893280 0.000000 
#    z 0.010420 0.000000 1.878780 
# 
# From -- ./inp_files/9533.got.cif
#   From: 2010.03.12/outbox.cif.g09.slc.cpg/sg5_5_cif.got.tgz:9533.got - 2010.03.31 09:47:26.
