data_PCOD8049307
_publ_section_title
;
Structure prediction by ZEFSAII (Michael W. Deem and Ramdas Pophale) SiO2 
 PCOD8049307
Probable space group: C 2
;
_chemical_formula_sum "Si O2"
_cell_formula_units_Z 20
_cell_length_a 15.537065
_cell_length_b 9.843152
_cell_length_c 13.576040
_cell_angle_alpha 90.000000
_cell_angle_beta 26.147703
_cell_angle_gamma 90.000000
_cell_volume 914.968661
_symmetry_space_group_name_H-M "C 2"
_symmetry_group_IT_number 5
_symmetry_cell_setting 'monoclinic'
loop_
_space_group_symop_operation_xyz
x,y,z
-x,y,-z
1/2+x,1/2+y,z
1/2-x,1/2+y,-z
loop_
_atom_site_type_symbol
_atom_site_label
_atom_site_fract_x
_atom_site_fract_y
_atom_site_fract_z
Si Si1 0.904158 0.777620 0.703154
Si Si2 0.935349 0.073493 0.952615
Si Si3 0.986495 0.777940 0.129500
Si Si4 0.070420 0.483742 0.040369
Si Si5 0.210129 0.277890 0.570774
O O1 0.000000 0.762514 0.500000
O O2 0.068377 0.782986 0.616695
O O3 0.767400 0.647311 0.860000
O O4 0.780666 0.915996 0.835522
O O5 0.104689 0.140320 0.712155
O O6 0.906995 0.917609 0.946848
O O7 0.000000 0.088402 0.000000
O O8 0.092064 0.638811 0.056311
O O9 0.759515 0.778383 0.402319
O O10 0.000000 0.775719 0.000000
O O11 0.911551 0.408979 0.272011
O O12 0.000000 0.472085 0.000000
#
# Coordination Sequence:
#
# PCOD8049307 Si02
#       5
#     4   4   4   4   4
#     4  11  19  35  63  87 111 144 195 233 271 339
#     4  10  20  38  60  86 113 148 188 232 283 335
#     4  10  23  39  56  84 120 150 185 234 286 331
#     4  10  20  38  60  86 113 148 188 232 283 335
#     4  11  20  37  65  82 110 155 189 229 279 334
#
# _framework density 21.858671999999999
#
# number of rings (size 3 to 8) (size 9 to 14) (size 15 to 20)
#    0.000    1.600    4.000    2.400    0.000    1.600 
#    0.000    3.000    0.000    0.000    0.000    0.000 
#    0.000    0.000    0.000    0.000    0.000    0.000 
#
# Total GULP energy -123941.827737 kJ/mol
# GULP energy per Si atom -12394.182774 kJ/mol
# Density = 2.180892 g / cm^3
# Si number density = 21.858672 Si / 1000 Ang^3
#
#
#
# Elastic Constant Matrix: (Units=GPa)
#
#
# Indices 1 2 3 4 5 6 
#
# 1 51.4229 12.8069 41.9500 0.0002 3.6785 0.0000
# 2 12.8069 201.3333 46.6189 0.0001 -5.2204 0.0000
# 3 41.9500 46.6189 139.4640 0.0000 16.7952 -0.0001
# 4 0.0002 0.0001 0.0000 24.5831 0.0000 10.0443
# 5 3.6785 -5.2204 16.7952 0.0000 53.8803 0.0001
# 6 0.0000 0.0000 -0.0001 10.0443 0.0001 5.1459
#
#
#
# Elastic Compliance Matrix: (Units=1/GPa)
#
#
# Indices 1 2 3 4 5 6 
#
# 1 0.025803 0.000211 -0.007920 0.000000 0.000727 0.000000
# 2 0.000211 0.005452 -0.002024 0.000000 0.001145 0.000000
# 3 -0.007920 -0.002024 0.010585 0.000000 -0.002955 0.000001
# 4 0.000000 0.000000 0.000000 0.200912 0.000001 -0.392167
# 5 0.000727 0.001145 -0.002955 0.000001 0.019542 -0.000002
# 6 0.000000 0.000000 0.000001 -0.392167 -0.000002 0.959813
#
#
# Mechanical properties :
#
#
# Convention : Reuss Voigt Hill
#
# Bulk Modulus (GPa) = 44.69245 66.10798 55.40022
# Shear Modulus (GPa) = 4.00311 36.11148 20.05730
#
# Velocity S-wave (km/s) = 1.35475 4.06894 3.03246
# Velocity P-wave (km/s) = 4.78932 7.23769 6.13684
#
# Compressibility (1/GPa) = 0.02237514
#
# Stress axis : x y z
#
# Youngs Moduli (GPa) = 38.75588 183.42804 94.47528
#
# Poissons Ratio (x) = -0.03876 0.74820
# Poissons Ratio (y) = -0.00819 0.19120
# Poissons Ratio (z) = 0.30693 0.37122
#
# Static dielectric constant tensor:
#      x y z
#    x 4.084290 0.000000 0.510120 
#    y 0.000000 4.651640 0.000000 
#    z 0.510120 0.000000 4.309370 
# 
# 
# High freq. dielectric constant tensor:
#      x y z
#    x 1.832320 0.000000 0.032920 
#    y 0.000000 1.877720 0.000000 
#    z 0.032920 0.000000 1.875210 
# 
# From -- ./inp_files/6492.got.cif
#   From: 2010.03.12/outbox.cif.g09.slc.cpg/sg5_4_cif.got.tgz:6492.got - 2010.03.31 09:47:26.
