data_PCOD8049299
_publ_section_title
;
Structure prediction by ZEFSAII (Michael W. Deem and Ramdas Pophale) SiO2 
 PCOD8049299
Probable space group: C 2
;
_chemical_formula_sum "Si O2"
_cell_formula_units_Z 32
_cell_length_a 8.527214
_cell_length_b 14.775589
_cell_length_c 11.892378
_cell_angle_alpha 90.000000
_cell_angle_beta 91.800559
_cell_angle_gamma 90.000000
_cell_volume 1497.635704
_symmetry_space_group_name_H-M "C 2"
_symmetry_group_IT_number 5
_symmetry_cell_setting 'monoclinic'
loop_
_space_group_symop_operation_xyz
x,y,z
-x,y,-z
1/2+x,1/2+y,z
1/2-x,1/2+y,-z
loop_
_atom_site_type_symbol
_atom_site_label
_atom_site_fract_x
_atom_site_fract_y
_atom_site_fract_z
Si Si1 0.182743 0.014720 0.481958
Si Si2 0.090197 0.916823 0.276674
Si Si3 0.824536 0.206690 0.451122
Si Si4 0.686034 0.767009 0.799585
Si Si5 0.831321 0.289393 0.836340
Si Si6 0.365910 0.448763 0.078054
Si Si7 0.313715 0.342851 0.395449
Si Si8 0.184303 0.143406 0.995544
O O1 0.254827 0.112178 0.511217
O O2 0.000000 0.024225 0.500000
O O3 0.199218 0.986697 0.350066
O O4 0.257748 0.940574 0.568376
O O5 0.201906 0.854299 0.203568
O O6 0.959517 0.969376 0.197826
O O7 0.995915 0.854389 0.364836
O O8 0.829142 0.213839 0.317303
O O9 0.704772 0.280775 0.495746
O O10 0.000000 0.222522 0.500000
O O11 0.518352 0.798113 0.843750
O O12 0.757615 0.696534 0.891082
O O13 0.765197 0.372975 0.907495
O O14 0.781179 0.295997 0.706510
O O15 0.761901 0.194801 0.887883
O O16 0.278595 0.536665 0.021124
O O17 0.500000 0.410106 0.000000
O O18 0.000000 0.151098 0.000000
#
# Coordination Sequence:
#
# PCOD8049299 Si02
#       8
#     4   4   4   4   4   4   4   4
#     4   9  20  34  55  87 117 158 204 240 286 359
#     4  10  21  37  61  83 125 157 199 247 294 355
#     4  11  21  33  60  88 119 160 199 246 292 354
#     4  11  21  36  59  85 121 156 196 246 304 344
#     4  10  21  38  62  90 119 154 200 250 299 354
#     4  10  21  38  65  89 113 157 202 246 300 353
#     4  10  20  38  59  88 118 160 203 244 292 352
#     4   9  21  37  59  88 113 152 204 245 289 365
#
# _framework density 21.367013
#
# number of rings (size 3 to 8) (size 9 to 14) (size 15 to 20)
#    0.000    2.000    2.500    0.750    7.000    1.000 
#    0.000    1.250    5.500   23.250    0.000    0.000 
#    0.000    0.000    0.000    0.000    0.000    0.000 
#
# Total GULP energy -198248.117710 kJ/mol
# GULP energy per Si atom -12390.507357 kJ/mol
# Density = 2.131838 g / cm^3
# Si number density = 21.367013 Si / 1000 Ang^3
#
#
#
# Elastic Constant Matrix: (Units=GPa)
#
#
# Indices 1 2 3 4 5 6 
#
# 1 43.9764 33.5395 16.3518 0.0000 -13.3907 0.0000
# 2 33.5395 136.6758 35.6468 0.0000 -10.7804 0.0000
# 3 16.3518 35.6468 76.0732 0.0000 -11.2931 0.0000
# 4 0.0000 0.0000 0.0000 39.9432 0.0000 -1.7582
# 5 -13.3907 -10.7804 -11.2931 0.0000 34.8092 0.0000
# 6 0.0000 0.0000 0.0000 -1.7582 0.0000 26.1969
#
#
#
# Elastic Compliance Matrix: (Units=1/GPa)
#
#
# Indices 1 2 3 4 5 6 
#
# 1 0.031278 -0.006321 -0.002380 0.000000 0.009302 0.000000
# 2 -0.006321 0.009676 -0.003248 0.000000 -0.000489 0.000000
# 3 -0.002380 -0.003248 0.015647 0.000000 0.003155 0.000000
# 4 0.000000 0.000000 0.000000 0.025110 0.000000 0.001685
# 5 0.009302 -0.000489 0.003155 0.000000 0.033179 0.000000
# 6 0.000000 0.000000 0.000000 0.001685 0.000000 0.038286
#
#
# Mechanical properties :
#
#
# Convention : Reuss Voigt Hill
#
# Bulk Modulus (GPa) = 30.57833 47.53352 39.05592
# Shear Modulus (GPa) = 26.59930 31.60233 29.10082
#
# Velocity S-wave (km/s) = 3.53211 3.84998 3.69447
# Velocity P-wave (km/s) = 5.56565 6.48519 6.04293
#
# Compressibility (1/GPa) = 0.03270290
#
# Stress axis : x y z
#
# Youngs Moduli (GPa) = 31.97152 103.34541 63.90927
#
# Poissons Ratio (x) = 0.65323 0.15212
# Poissons Ratio (y) = 0.20209 0.20758
# Poissons Ratio (z) = 0.07610 0.33567
#
# Static dielectric constant tensor:
#      x y z
#    x 3.434130 0.000000 -0.090940 
#    y 0.000000 4.471370 0.000000 
#    z -0.090940 0.000000 4.293590 
# 
# 
# High freq. dielectric constant tensor:
#      x y z
#    x 1.793700 0.000000 -0.012010 
#    y 0.000000 1.835020 0.000000 
#    z -0.012010 0.000000 1.860740 
# 
# From -- ./inp_files/36431.got.cif
#   From: 2010.03.12/outbox.cif.g09.slc.cpg/sg5_19_cif.got.tgz:36431.got - 2010.03.31 09:47:26.
