data_PCOD8049384
_publ_section_title
;
Structure prediction by ZEFSAII (Michael W. Deem and Ramdas Pophale) SiO2 
 PCOD8049384
Probable space group: C 2
;
_chemical_formula_sum "Si O2"
_cell_formula_units_Z 24
_cell_length_a 8.663037
_cell_length_b 17.830884
_cell_length_c 9.171856
_cell_angle_alpha 90.000000
_cell_angle_beta 128.348128
_cell_angle_gamma 90.000000
_cell_volume 1111.111995
_symmetry_space_group_name_H-M "C 2"
_symmetry_group_IT_number 5
_symmetry_cell_setting 'monoclinic'
loop_
_space_group_symop_operation_xyz
x,y,z
-x,y,-z
1/2+x,1/2+y,z
1/2-x,1/2+y,-z
loop_
_atom_site_type_symbol
_atom_site_label
_atom_site_fract_x
_atom_site_fract_y
_atom_site_fract_z
Si Si1 0.962781 0.617640 0.139409
Si Si2 0.307058 0.763918 0.631903
Si Si3 0.698998 0.105839 0.543259
Si Si4 0.556873 0.280553 0.768731
Si Si5 0.717759 0.508175 0.149148
Si Si6 0.382097 0.873939 0.080897
O O1 0.140665 0.584068 0.343878
O O2 0.955917 0.707320 0.137827
O O3 0.756690 0.583664 0.077821
O O4 0.000000 0.587969 0.000000
O O5 0.353840 0.675296 0.628836
O O6 0.210712 0.766476 0.732188
O O7 0.509103 0.810249 0.758512
O O8 0.160997 0.799177 0.422516
O O9 0.500000 0.141088 0.500000
O O10 0.760644 0.030916 0.666893
O O11 0.655552 0.348193 0.918438
O O12 0.870845 0.445854 0.180796
O O13 0.500000 0.478231 0.000000
O O14 0.500000 0.893073 0.000000
#
# Coordination Sequence:
#
# PCOD8049384 Si02
#       6
#     4   4   4   4   4   4
#     4  10  20  38  67  91 126 163 225 276 314 371
#     4   9  15  34  63  91 122 165 220 256 313 386
#     4   9  17  37  65  93 122 168 221 262 322 389
#     4   9  17  34  61  95 124 168 209 268 316 388
#     4  11  23  39  61  92 133 173 216 259 332 391
#     4  10  22  36  63  95 135 170 218 259 329 385
#
# _framework density 21.599982000000001
#
# number of rings (size 3 to 8) (size 9 to 14) (size 15 to 20)
#    0.000    2.333    5.000    0.500    2.333    0.667 
#    9.000    0.833    3.667    0.000    0.000    0.000 
#    0.000    0.000    0.000    0.000    0.000    0.000 
#
# Total GULP energy -148675.257826 kJ/mol
# GULP energy per Si atom -12389.604819 kJ/mol
# Density = 2.155082 g / cm^3
# Si number density = 21.599982 Si / 1000 Ang^3
#
#
#
# Elastic Constant Matrix: (Units=GPa)
#
#
# Indices 1 2 3 4 5 6 
#
# 1 44.3609 28.6227 46.7801 0.0000 -3.9156 0.0000
# 2 28.6227 100.9275 65.3128 0.0000 0.2385 0.0000
# 3 46.7801 65.3128 138.5285 0.0000 -9.2266 0.0000
# 4 0.0000 0.0000 0.0000 28.1545 0.0000 4.5978
# 5 -3.9156 0.2385 -9.2266 0.0000 27.9268 0.0000
# 6 0.0000 0.0000 0.0000 4.5978 0.0000 27.9692
#
#
#
# Elastic Compliance Matrix: (Units=1/GPa)
#
#
# Indices 1 2 3 4 5 6 
#
# 1 0.035852 -0.003464 -0.010365 0.000000 0.001632 0.000000
# 2 -0.003464 0.014752 -0.005957 0.000000 -0.002580 0.000000
# 3 -0.010365 -0.005957 0.013736 0.000000 0.003136 0.000000
# 4 0.000000 0.000000 0.000000 0.036498 0.000000 -0.006000
# 5 0.001632 -0.002580 0.003136 0.000000 0.037095 0.000000
# 6 0.000000 0.000000 0.000000 -0.006000 0.000000 0.036740
#
#
# Mechanical properties :
#
#
# Convention : Reuss Voigt Hill
#
# Bulk Modulus (GPa) = 40.37518 62.80535 51.59026
# Shear Modulus (GPa) = 22.47188 26.35017 24.41102
#
# Velocity S-wave (km/s) = 3.22897 3.49652 3.36540
# Velocity P-wave (km/s) = 5.71266 6.74096 6.24800
#
# Compressibility (1/GPa) = 0.02476769
#
# Stress axis : x y z
#
# Youngs Moduli (GPa) = 27.89273 67.78960 72.79901
#
# Poissons Ratio (x) = 0.23481 0.75457
# Poissons Ratio (y) = 0.09661 0.43367
# Poissons Ratio (z) = 0.28911 0.40383
#
# Static dielectric constant tensor:
#      x y z
#    x 3.437290 0.000000 0.028580 
#    y 0.000000 3.777490 0.000000 
#    z 0.028580 0.000000 4.285110 
# 
# 
# High freq. dielectric constant tensor:
#      x y z
#    x 1.805430 0.000000 -0.005930 
#    y 0.000000 1.835910 0.000000 
#    z -0.005930 0.000000 1.854220 
# 
# From -- ./inp_files/16850.got.cif
#   From: 2010.03.12/outbox.cif.g09.slc.cpg/sg5_9_cif.got.tgz:16850.got - 2010.03.31 09:47:26.
