data_PCOD8049507
_publ_section_title
;
Structure prediction by ZEFSAII (Michael W. Deem and Ramdas Pophale) SiO2 
 PCOD8049507
Probable space group: C 2
;
_chemical_formula_sum "Si O2"
_cell_formula_units_Z 30
_cell_length_a 13.692590
_cell_length_b 9.006660
_cell_length_c 11.015416
_cell_angle_alpha 90.000000
_cell_angle_beta 83.306607
_cell_angle_gamma 90.000000
_cell_volume 1349.211495
_symmetry_space_group_name_H-M "C 2"
_symmetry_group_IT_number 5
_symmetry_cell_setting 'monoclinic'
loop_
_space_group_symop_operation_xyz
x,y,z
-x,y,-z
1/2+x,1/2+y,z
1/2-x,1/2+y,-z
loop_
_atom_site_type_symbol
_atom_site_label
_atom_site_fract_x
_atom_site_fract_y
_atom_site_fract_z
Si Si1 0.500000 0.122630 0.500000
Si Si2 0.408941 0.291517 0.928523
Si Si3 0.539730 0.674188 0.618202
Si Si4 0.762705 0.304908 0.371878
Si Si5 0.234752 0.804164 0.838483
Si Si6 0.860718 0.856663 0.394705
Si Si7 0.858637 0.039209 0.768696
Si Si8 0.863311 0.562663 0.728755
O O1 0.429673 0.229513 0.435555
O O2 0.444549 0.025860 0.612200
O O3 0.421720 0.443307 0.853549
O O4 0.404016 0.158520 0.833975
O O5 0.500000 0.256570 0.000000
O O6 0.311861 0.322598 0.022418
O O7 0.500000 0.743538 0.500000
O O8 0.618425 0.793825 0.663392
O O9 0.593740 0.517431 0.585860
O O10 0.441320 0.650431 0.708159
O O11 0.742652 0.333666 0.518169
O O12 0.702087 0.435086 0.314883
O O13 0.724709 0.147108 0.327508
O O14 0.153057 0.826773 0.745933
O O15 0.274505 0.637544 0.840222
O O16 0.324152 0.915126 0.798320
#
# Coordination Sequence:
#
# PCOD8049507 Si02
#       8
#     2   4   4   4   4   4   4   4
#     4  10  20  40  64 102 138 178 228 280 358 416
#     4  11  24  46  72  92 124 184 236 284 351 424
#     4  12  20  40  67 101 139 180 232 275 347 434
#     4  10  22  40  66  98 138 182 222 284 349 414
#     4  12  24  42  65  99 136 174 226 287 354 406
#     4  11  20  37  65  94 136 183 224 281 343 414
#     4  11  25  45  66  98 136 180 230 289 354 418
#     4  10  22  42  67  98 133 175 227 287 344 423
#
# _framework density 22.235209999999999
#
# number of rings (size 3 to 8) (size 9 to 14) (size 15 to 20)
#    0.000    1.067    3.333    4.800    0.000    0.000 
#    8.400    0.667    0.000    0.000    0.000    0.000 
#    0.000    0.000    0.000    0.000    0.000    0.000 
#
# Total GULP energy -185885.398958 kJ/mol
# GULP energy per Si atom -12392.359931 kJ/mol
# Density = 2.218460 g / cm^3
# Si number density = 22.235210 Si / 1000 Ang^3
#
#
#
# Elastic Constant Matrix: (Units=GPa)
#
#
# Indices 1 2 3 4 5 6 
#
# 1 114.9860 15.1557 38.1255 0.0000 -3.3740 0.0000
# 2 15.1557 39.1540 14.2777 0.0000 -9.0485 0.0000
# 3 38.1255 14.2777 120.1565 0.0000 -5.6752 0.0000
# 4 0.0000 0.0000 0.0000 15.1075 0.0000 -12.9179
# 5 -3.3740 -9.0485 -5.6752 0.0000 38.4966 0.0000
# 6 0.0000 0.0000 0.0000 -12.9179 0.0000 35.1286
#
#
#
# Elastic Compliance Matrix: (Units=1/GPa)
#
#
# Indices 1 2 3 4 5 6 
#
# 1 0.010014 -0.002890 -0.002845 0.000000 -0.000221 0.000000
# 2 -0.002890 0.028906 -0.002224 0.000000 0.006213 0.000000
# 3 -0.002845 -0.002224 0.009519 0.000000 0.000631 0.000000
# 4 0.000000 0.000000 0.000000 0.096552 0.000000 0.035505
# 5 -0.000221 0.006213 0.000631 0.000000 0.027510 0.000000
# 6 0.000000 0.000000 0.000000 0.035505 0.000000 0.041523
#
#
# Mechanical properties :
#
#
# Convention : Reuss Voigt Hill
#
# Bulk Modulus (GPa) = 30.74899 45.49048 38.11974
# Shear Modulus (GPa) = 20.76558 31.52904 26.14731
#
# Velocity S-wave (km/s) = 3.05930 3.76969 3.43292
# Velocity P-wave (km/s) = 5.13206 6.28097 5.73536
#
# Compressibility (1/GPa) = 0.03252139
#
# Stress axis : x y z
#
# Youngs Moduli (GPa) = 99.85702 34.59513 105.05128
#
# Poissons Ratio (x) = 0.09998 0.29882
# Poissons Ratio (y) = 0.28860 0.23366
# Poissons Ratio (z) = 0.28405 0.07695
#
# Static dielectric constant tensor:
#      x y z
#    x 4.012270 0.000000 -0.140560 
#    y 0.000000 3.933950 0.000000 
#    z -0.140560 0.000000 4.130870 
# 
# 
# High freq. dielectric constant tensor:
#      x y z
#    x 1.882860 0.000000 -0.003260 
#    y 0.000000 1.874170 0.000000 
#    z -0.003260 0.000000 1.872850 
# 
# From -- ./inp_files/41942.got.cif
#   From: 2010.03.12/outbox.cif.g09.slc.cpg/sg5_21_cif.got.tgz:41942.got - 2010.03.31 09:47:26.
