data_PCOD8049411
_publ_section_title
;
Structure prediction by ZEFSAII (Michael W. Deem and Ramdas Pophale) SiO2 
 PCOD8049411
Probable space group: C 2
;
_chemical_formula_sum "Si O2"
_cell_formula_units_Z 28
_cell_length_a 32.078715
_cell_length_b 8.424463
_cell_length_c 6.739499
_cell_angle_alpha 90.000000
_cell_angle_beta 48.578975
_cell_angle_gamma 90.000000
_cell_volume 1365.751938
_symmetry_space_group_name_H-M "C 2"
_symmetry_group_IT_number 5
_symmetry_cell_setting 'monoclinic'
loop_
_space_group_symop_operation_xyz
x,y,z
-x,y,-z
1/2+x,1/2+y,z
1/2-x,1/2+y,-z
loop_
_atom_site_type_symbol
_atom_site_label
_atom_site_fract_x
_atom_site_fract_y
_atom_site_fract_z
Si Si1 0.779295 0.191530 0.336623
Si Si2 0.554987 0.702181 0.426577
Si Si3 0.359981 0.268935 0.817625
Si Si4 0.944275 0.926418 0.273170
Si Si5 0.619316 0.491216 0.915803
Si Si6 0.158366 0.402137 0.168138
Si Si7 0.246738 0.403815 0.223224
O O1 0.748147 0.278132 0.612935
O O2 0.818977 0.057959 0.305088
O O3 0.738813 0.087067 0.320924
O O4 0.811945 0.324558 0.112561
O O5 0.500000 0.780590 0.500000
O O6 0.537974 0.578163 0.651517
O O7 0.595735 0.835270 0.390993
O O8 0.585280 0.612676 0.155339
O O9 0.411192 0.296746 0.505809
O O10 0.343568 0.087159 0.868493
O O11 0.379691 0.320501 0.976455
O O12 0.306417 0.379095 0.923817
O O13 0.903959 0.982072 0.228589
O O14 0.000000 0.851117 0.000000
O O15 0.194162 0.363815 0.251601
#
# Coordination Sequence:
#
# PCOD8049411 Si02
#       7
#     4   4   4   4   4   4   4
#     4  10  22  36  61  89 120 165 197 243 298 359
#     4  10  20  39  62  90 118 159 204 251 298 351
#     4  10  24  38  59  93 122 159 198 250 298 364
#     4  11  21  39  66  85 114 161 206 252 297 356
#     4   9  20  39  61  87 116 154 205 245 299 355
#     4  11  23  40  60  92 129 159 197 249 303 362
#     4  11  22  40  63  90 126 163 202 240 302 362
#
# _framework density 20.501528
#
# number of rings (size 3 to 8) (size 9 to 14) (size 15 to 20)
#    0.000    1.714    1.429    3.429    0.000    6.857 
#    2.571    0.714    0.000    0.000    0.000    0.000 
#    0.000    0.000    0.000    0.000    0.000    0.000 
#
# Total GULP energy -173563.646160 kJ/mol
# GULP energy per Si atom -12397.403297 kJ/mol
# Density = 2.045487 g / cm^3
# Si number density = 20.501528 Si / 1000 Ang^3
#
#
#
# Elastic Constant Matrix: (Units=GPa)
#
#
# Indices 1 2 3 4 5 6 
#
# 1 129.7912 24.9941 27.7052 0.0000 -1.8205 0.0000
# 2 24.9941 97.8893 29.0553 0.0000 0.1032 0.0000
# 3 27.7052 29.0553 86.4509 0.0000 -7.0160 0.0000
# 4 0.0000 0.0000 0.0000 13.7595 0.0000 -3.2493
# 5 -1.8205 0.1032 -7.0160 0.0000 29.9911 0.0000
# 6 0.0000 0.0000 0.0000 -3.2493 0.0000 29.1459
#
#
#
# Elastic Compliance Matrix: (Units=1/GPa)
#
#
# Indices 1 2 3 4 5 6 
#
# 1 0.008466 -0.001507 -0.002206 0.000000 0.000003 0.000000
# 2 -0.001507 0.011642 -0.003507 0.000000 -0.000952 0.000000
# 3 -0.002206 -0.003507 0.013703 0.000000 0.003084 0.000000
# 4 0.000000 0.000000 0.000000 0.074642 0.000000 0.008321
# 5 0.000003 -0.000952 0.003084 0.000000 0.034068 0.000000
# 6 0.000000 0.000000 0.000000 0.008321 0.000000 0.035238
#
#
# Mechanical properties :
#
#
# Convention : Reuss Voigt Hill
#
# Bulk Modulus (GPa) = 51.62420 53.07117 52.34768
# Shear Modulus (GPa) = 25.16895 30.07109 27.62002
#
# Velocity S-wave (km/s) = 3.50760 3.83400 3.67443
# Velocity P-wave (km/s) = 6.45288 6.74849 6.60234
#
# Compressibility (1/GPa) = 0.01937076
#
# Stress axis : x y z
#
# Youngs Moduli (GPa) = 118.12156 85.89330 72.97453
#
# Poissons Ratio (x) = 0.12941 0.16102
# Poissons Ratio (y) = 0.17797 0.25594
# Poissons Ratio (z) = 0.26063 0.30125
#
# Static dielectric constant tensor:
#      x y z
#    x 3.960830 0.000000 -0.060130 
#    y 0.000000 3.593350 0.000000 
#    z -0.060130 0.000000 3.713780 
# 
# 
# High freq. dielectric constant tensor:
#      x y z
#    x 1.807290 0.000000 -0.001780 
#    y 0.000000 1.786160 0.000000 
#    z -0.001780 0.000000 1.802390 
# 
# From -- ./inp_files/11181.got.cif
#   From: 2010.03.12/outbox.cif.g09.slc.cpg/sg5_6_cif.got.tgz:11181.got - 2010.03.31 09:47:26.
