data_PCOD8049084
_publ_section_title
;
Structure prediction by ZEFSAII (Michael W. Deem and Ramdas Pophale) SiO2 
 PCOD8049084
Probable space group: C 2
;
_chemical_formula_sum "Si O2"
_cell_formula_units_Z 26
_cell_length_a 10.583909
_cell_length_b 8.622076
_cell_length_c 20.879704
_cell_angle_alpha 90.000000
_cell_angle_beta 136.255657
_cell_angle_gamma 90.000000
_cell_volume 1317.461306
_symmetry_space_group_name_H-M "C 2"
_symmetry_group_IT_number 5
_symmetry_cell_setting 'monoclinic'
loop_
_space_group_symop_operation_xyz
x,y,z
-x,y,-z
1/2+x,1/2+y,z
1/2-x,1/2+y,-z
loop_
_atom_site_type_symbol
_atom_site_label
_atom_site_fract_x
_atom_site_fract_y
_atom_site_fract_z
Si Si1 0.850960 0.642920 0.070058
Si Si2 0.279687 0.668183 0.716882
Si Si3 0.147059 0.407596 0.157158
Si Si4 0.296867 0.287853 0.442732
Si Si5 0.500000 0.693429 0.000000
Si Si6 0.444747 0.981291 0.548435
Si Si7 0.137505 0.993164 0.883411
O O1 0.685847 0.593985 0.059217
O O2 0.892432 0.825633 0.093885
O O3 0.031084 0.541410 0.151431
O O4 0.783155 0.600528 0.973985
O O5 0.234184 0.807312 0.749390
O O6 0.318515 0.755668 0.663977
O O7 0.447445 0.579972 0.809988
O O8 0.120295 0.541711 0.651703
O O9 0.005657 0.301697 0.065031
O O10 0.293925 0.481569 0.163819
O O11 0.500000 0.358653 0.500000
O O12 0.320377 0.125233 0.485528
O O13 0.177284 0.382776 0.448594
O O14 0.500000 0.898641 0.500000
#
# Coordination Sequence:
#
# PCOD8049084 Si02
#       7
#     4   4   4   4   2   4   4
#     4  11  20  39  57  78 112 163 203 251 296 337
#     4  10  22  39  59  91 125 154 196 248 300 351
#     4  11  21  40  55  82 120 155 202 255 290 343
#     4   9  21  41  65  92 123 156 193 242 304 364
#     4  10  20  36  56  74 116 150 204 254 298 328
#     4   9  21  42  66  92 124 156 190 246 300 367
#     4  11  22  38  57  82 118 157 205 251 298 344
#
# _framework density 19.734925
#
# number of rings (size 3 to 8) (size 9 to 14) (size 15 to 20)
#    0.000    2.154    4.615    0.000    0.000    9.231 
#    5.538    0.000    0.000    0.000    0.000    0.000 
#    0.000    0.000    0.000    0.000    0.000    0.000 
#
# Total GULP energy -161053.146938 kJ/mol
# GULP energy per Si atom -12388.703611 kJ/mol
# Density = 1.969001 g / cm^3
# Si number density = 19.734925 Si / 1000 Ang^3
#
#
#
# Elastic Constant Matrix: (Units=GPa)
#
#
# Indices 1 2 3 4 5 6 
#
# 1 126.2291 59.2101 15.8795 0.0000 -13.9878 0.0000
# 2 59.2101 60.9823 30.5931 0.0000 -3.8378 0.0000
# 3 15.8795 30.5931 78.3107 0.0000 -8.4607 0.0000
# 4 0.0000 0.0000 0.0000 23.3770 0.0000 -8.2380
# 5 -13.9878 -3.8378 -8.4607 0.0000 10.4090 0.0000
# 6 0.0000 0.0000 0.0000 -8.2380 0.0000 43.7285
#
#
#
# Elastic Compliance Matrix: (Units=1/GPa)
#
#
# Indices 1 2 3 4 5 6 
#
# 1 0.019498 -0.020818 0.006776 0.000000 0.024034 0.000000
# 2 -0.020818 0.042635 -0.015083 0.000000 -0.024516 0.000000
# 3 0.006776 -0.015083 0.019372 0.000000 0.019290 0.000000
# 4 0.000000 0.000000 0.000000 0.045819 0.000000 0.008632
# 5 0.024034 -0.024516 0.019290 0.000000 0.135008 0.000000
# 6 0.000000 0.000000 0.000000 0.008632 0.000000 0.024494
#
#
# Mechanical properties :
#
#
# Convention : Reuss Voigt Hill
#
# Bulk Modulus (GPa) = 43.00295 52.98751 47.99523
# Shear Modulus (GPa) = 14.17113 26.15888 20.16500
#
# Velocity S-wave (km/s) = 2.68260 3.64471 3.20002
# Velocity P-wave (km/s) = 5.60649 6.67980 6.16654
#
# Compressibility (1/GPa) = 0.02325422
#
# Stress axis : x y z
#
# Youngs Moduli (GPa) = 51.28706 23.45472 51.62002
#
# Poissons Ratio (x) = 0.48828 -0.34976
# Poissons Ratio (y) = 1.06770 0.77860
# Poissons Ratio (z) = -0.34751 0.35378
#
# Static dielectric constant tensor:
#      x y z
#    x 3.674490 0.000000 -0.133940 
#    y 0.000000 3.500820 0.000000 
#    z -0.133940 0.000000 3.766620 
# 
# 
# High freq. dielectric constant tensor:
#      x y z
#    x 1.772770 0.000000 -0.005040 
#    y 0.000000 1.753830 0.000000 
#    z -0.005040 0.000000 1.767610 
# 
# From -- ./inp_files/52101.got.cif
#   From: 2010.03.12/outbox.cif.g09.slc.cpg/sg5_27_cif.got.tgz:52101.got - 2010.03.31 09:47:26.
