data_PCOD8049302
_publ_section_title
;
Structure prediction by ZEFSAII (Michael W. Deem and Ramdas Pophale) SiO2 
 PCOD8049302
Probable space group: C 2
;
_chemical_formula_sum "Si O2"
_cell_formula_units_Z 24
_cell_length_a 15.646116
_cell_length_b 9.032082
_cell_length_c 17.945577
_cell_angle_alpha 90.000000
_cell_angle_beta 28.064231
_cell_angle_gamma 90.000000
_cell_volume 1193.096451
_symmetry_space_group_name_H-M "C 2"
_symmetry_group_IT_number 5
_symmetry_cell_setting 'monoclinic'
loop_
_space_group_symop_operation_xyz
x,y,z
-x,y,-z
1/2+x,1/2+y,z
1/2-x,1/2+y,-z
loop_
_atom_site_type_symbol
_atom_site_label
_atom_site_fract_x
_atom_site_fract_y
_atom_site_fract_z
Si Si1 0.638475 0.897430 0.181794
Si Si2 0.852752 0.220407 0.318628
Si Si3 0.012855 0.706673 0.316906
Si Si4 0.795526 0.626855 0.132121
Si Si5 0.889901 0.966401 0.860551
Si Si6 0.805841 0.334969 0.190725
O O1 0.525695 0.815453 0.206168
O O2 0.689340 0.784440 0.210962
O O3 0.513175 0.031503 0.304297
O O4 0.816663 0.954472 0.001288
O O5 0.683239 0.253755 0.502093
O O6 0.807443 0.271283 0.271210
O O7 0.918145 0.051270 0.278169
O O8 0.059887 0.802896 0.207811
O O9 0.168482 0.725366 0.257494
O O10 0.759031 0.547338 0.079245
O O11 0.727012 0.505048 0.245966
O O12 0.000000 0.664042 0.000000
O O13 0.000000 0.332593 0.000000
#
# Coordination Sequence:
#
# PCOD8049302 Si02
#       6
#     4   4   4   4   4   4
#     4  11  21  36  60  87 115 153 197 245 292 354
#     4  11  22  38  59  86 118 155 196 246 300 348
#     4  11  22  37  58  88 121 152 192 249 301 345
#     4   9  19  35  56  83 112 146 194 242 285 341
#     4  10  21  38  60  86 116 156 199 238 292 358
#     4  10  20  38  60  82 113 156 199 240 291 356
#
# _framework density 20.115725000000001
#
# number of rings (size 3 to 8) (size 9 to 14) (size 15 to 20)
#    0.000    1.667    0.000    7.500    0.000    2.000 
#    0.000    0.000    0.000   12.000    0.000    0.000 
#    0.000    0.000    0.000    0.000    0.000    0.000 
#
# Total GULP energy -148672.418406 kJ/mol
# GULP energy per Si atom -12389.368201 kJ/mol
# Density = 2.006994 g / cm^3
# Si number density = 20.115725 Si / 1000 Ang^3
#
#
#
# Elastic Constant Matrix: (Units=GPa)
#
#
# Indices 1 2 3 4 5 6 
#
# 1 82.6773 32.7148 5.1935 0.0002 2.1617 0.0001
# 2 32.7148 113.7017 8.0951 0.0011 6.4815 0.0000
# 3 5.1935 8.0951 78.7573 0.0018 6.3145 -0.0001
# 4 0.0002 0.0011 0.0018 33.8050 -0.0004 -2.6205
# 5 2.1617 6.4815 6.3145 -0.0004 18.5168 0.0000
# 6 0.0001 0.0000 -0.0001 -2.6205 0.0000 29.6367
#
#
#
# Elastic Compliance Matrix: (Units=1/GPa)
#
#
# Indices 1 2 3 4 5 6 
#
# 1 0.013669 -0.003894 -0.000496 0.000000 -0.000064 0.000000
# 2 -0.003894 0.010120 -0.000551 0.000000 -0.002900 0.000000
# 3 -0.000496 -0.000551 0.013125 -0.000001 -0.004225 0.000000
# 4 0.000000 0.000000 -0.000001 0.029786 0.000001 0.002634
# 5 -0.000064 -0.002900 -0.004225 0.000001 0.056468 0.000000
# 6 0.000000 0.000000 0.000000 0.002634 0.000000 0.033975
#
#
# Mechanical properties :
#
#
# Convention : Reuss Voigt Hill
#
# Bulk Modulus (GPa) = 36.99276 40.79368 38.89322
# Shear Modulus (GPa) = 28.40340 31.66723 30.03531
#
# Velocity S-wave (km/s) = 3.76174 3.97199 3.86829
# Velocity P-wave (km/s) = 6.10716 6.43111 6.27123
#
# Compressibility (1/GPa) = 0.02703232
#
# Stress axis : x y z
#
# Youngs Moduli (GPa) = 73.15917 98.81576 76.18857
#
# Poissons Ratio (x) = 0.38478 0.03779
# Poissons Ratio (y) = 0.28488 0.04197
# Poissons Ratio (z) = 0.03629 0.05444
#
# Static dielectric constant tensor:
#      x y z
#    x 3.615580 0.000000 -0.155510 
#    y 0.000000 3.950580 0.000000 
#    z -0.155510 0.000000 3.338800 
# 
# 
# High freq. dielectric constant tensor:
#      x y z
#    x 1.785190 0.000000 -0.018880 
#    y 0.000000 1.799620 0.000000 
#    z -0.018880 0.000000 1.761190 
# 
# From -- ./inp_files/22859.got.cif
#   From: 2010.03.12/outbox.cif.g09.slc.cpg/sg5_12_cif.got.tgz:22859.got - 2010.03.31 09:47:26.
