data_PCOD8049566
_publ_section_title
;
Structure prediction by ZEFSAII (Michael W. Deem and Ramdas Pophale) SiO2 
 PCOD8049566
Probable space group: C 2
;
_chemical_formula_sum "Si O2"
_cell_formula_units_Z 24
_cell_length_a 26.637023
_cell_length_b 7.218608
_cell_length_c 5.263550
_cell_angle_alpha 90.000000
_cell_angle_beta 96.891559
_cell_angle_gamma 90.000000
_cell_volume 1004.774819
_symmetry_space_group_name_H-M "C 2"
_symmetry_group_IT_number 5
_symmetry_cell_setting 'monoclinic'
loop_
_space_group_symop_operation_xyz
x,y,z
-x,y,-z
1/2+x,1/2+y,z
1/2-x,1/2+y,-z
loop_
_atom_site_type_symbol
_atom_site_label
_atom_site_fract_x
_atom_site_fract_y
_atom_site_fract_z
Si Si1 0.601123 0.985780 0.741733
Si Si2 0.391887 0.347185 0.984000
Si Si3 0.179671 0.676995 0.434896
Si Si4 0.714727 0.791408 0.317842
Si Si5 0.500000 0.086307 0.500000
Si Si6 0.500000 0.327901 0.000000
Si Si7 0.335236 0.652022 0.198236
O O1 0.618474 0.787428 0.854185
O O2 0.647902 0.071919 0.623234
O O3 0.550071 0.958407 0.546881
O O4 0.591238 0.134303 0.957122
O O5 0.353863 0.334533 0.723275
O O6 0.446894 0.447204 0.972152
O O7 0.360546 0.447407 0.192606
O O8 0.225683 0.788314 0.590427
O O9 0.200446 0.508319 0.268563
O O10 0.684776 0.692344 0.531837
O O11 0.706471 0.681235 0.048649
O O12 0.505254 0.211248 0.257841
#
# Coordination Sequence:
#
# PCOD8049566 Si02
#       7
#     4   4   4   4   2   2   4
#     4  10  23  44  66  99 132 178 221 278 337 395
#     4  11  23  43  70  94 137 177 219 281 336 393
#     4  11  23  42  68  93 137 175 225 276 338 391
#     4  11  26  42  65 101 131 176 229 271 331 408
#     4  10  20  40  72  92 132 172 226 268 340 400
#     4  10  22  40  68 104 122 176 228 266 338 406
#     4  11  26  43  65 101 134 172 225 273 335 400
#
# _framework density 23.885950999999999
#
# number of rings (size 3 to 8) (size 9 to 14) (size 15 to 20)
#    0.000    1.333    3.333    1.000    7.000    0.000 
#    0.000   10.000    0.000    0.000    0.000    0.000 
#    0.000    0.000    0.000    0.000    0.000    0.000 
#
# Total GULP energy -148685.737794 kJ/mol
# GULP energy per Si atom -12390.478150 kJ/mol
# Density = 2.383159 g / cm^3
# Si number density = 23.885951 Si / 1000 Ang^3
#
#
#
# Elastic Constant Matrix: (Units=GPa)
#
#
# Indices 1 2 3 4 5 6 
#
# 1 145.0648 12.0262 25.2066 0.0000 39.4265 0.0000
# 2 12.0262 47.2474 5.2383 0.0000 17.0805 0.0000
# 3 25.2066 5.2383 98.8789 0.0000 14.6575 0.0000
# 4 0.0000 0.0000 0.0000 22.8516 0.0000 -3.4250
# 5 39.4265 17.0805 14.6575 0.0000 48.9021 0.0000
# 6 0.0000 0.0000 0.0000 -3.4250 0.0000 25.4100
#
#
#
# Elastic Compliance Matrix: (Units=1/GPa)
#
#
# Indices 1 2 3 4 5 6 
#
# 1 0.008984 0.000383 -0.001274 0.000000 -0.006996 0.000000
# 2 0.000383 0.024240 -0.000085 0.000000 -0.008750 0.000000
# 3 -0.001274 -0.000085 0.010764 0.000000 -0.002170 0.000000
# 4 0.000000 0.000000 0.000000 0.044663 0.000000 0.006020
# 5 -0.006996 -0.008750 -0.002170 0.000000 0.029796 0.000000
# 6 0.000000 0.000000 0.000000 0.006020 0.000000 0.040166
#
#
# Mechanical properties :
#
#
# Convention : Reuss Voigt Hill
#
# Bulk Modulus (GPa) = 23.78754 41.79258 32.79006
# Shear Modulus (GPa) = 28.64070 36.01407 32.32738
#
# Velocity S-wave (km/s) = 3.46650 3.88719 3.68286
# Velocity P-wave (km/s) = 5.09927 6.13854 5.64288
#
# Compressibility (1/GPa) = 0.04203882
#
# Stress axis : x y z
#
# Youngs Moduli (GPa) = 111.30539 41.25349 92.90049
#
# Poissons Ratio (x) = -0.01582 0.11832
# Poissons Ratio (y) = -0.04267 0.00788
# Poissons Ratio (z) = 0.14176 0.00350
#
# Static dielectric constant tensor:
#      x y z
#    x 4.919850 0.000000 0.357590 
#    y 0.000000 4.593860 0.000000 
#    z 0.357590 0.000000 4.088140 
# 
# 
# High freq. dielectric constant tensor:
#      x y z
#    x 1.968680 0.000000 0.013240 
#    y 0.000000 1.922320 0.000000 
#    z 0.013240 0.000000 1.943750 
# 
# From -- ./inp_files/10706.got.cif
#   From: 2010.03.12/outbox.cif.g09.slc.cpg/sg5_6_cif.got.tgz:10706.got - 2010.03.31 09:47:26.
