data_PCOD8049369
_publ_section_title
;
Structure prediction by ZEFSAII (Michael W. Deem and Ramdas Pophale) SiO2 
 PCOD8049369
Probable space group: C 2
;
_chemical_formula_sum "Si O2"
_cell_formula_units_Z 20
_cell_length_a 7.801242
_cell_length_b 22.857172
_cell_length_c 7.536816
_cell_angle_alpha 90.000000
_cell_angle_beta 142.846428
_cell_angle_gamma 90.000000
_cell_volume 811.666536
_symmetry_space_group_name_H-M "C 2"
_symmetry_group_IT_number 5
_symmetry_cell_setting 'monoclinic'
loop_
_space_group_symop_operation_xyz
x,y,z
-x,y,-z
1/2+x,1/2+y,z
1/2-x,1/2+y,-z
loop_
_atom_site_type_symbol
_atom_site_label
_atom_site_fract_x
_atom_site_fract_y
_atom_site_fract_z
Si Si1 0.791511 0.323270 0.174894
Si Si2 0.402822 0.547840 0.122270
Si Si3 0.306011 0.731236 0.682555
Si Si4 0.204046 0.920225 0.831554
Si Si5 0.398927 0.118274 0.618088
O O1 0.000000 0.347667 0.500000
O O2 0.992304 0.281537 0.225333
O O3 0.500000 0.290323 0.000000
O O4 0.650595 0.376920 0.951092
O O5 0.292166 0.486197 0.097028
O O6 0.665631 0.568045 0.459413
O O7 0.500000 0.541653 0.000000
O O8 0.165021 0.598764 0.957107
O O9 0.235197 0.683326 0.468706
O O10 0.000000 0.756300 0.500000
O O11 0.500000 0.702030 0.000000
O O12 0.000000 0.909320 0.500000
O O13 0.500000 0.901363 0.000000
O O14 0.500000 0.118694 0.500000
#
# Coordination Sequence:
#
# PCOD8049369 Si02
#       5
#     4   4   4   4   4
#     4  12  27  46  68  99 137 183 232 287 347 407
#     4  10  20  38  65  95 129 169 216 271 330 400
#     4  11  22  42  70 100 134 180 232 282 332 403
#     4  12  26  45  68  99 135 178 228 284 345 409
#     4   9  18  35  64  97 127 168 219 266 326 403
#
# _framework density 24.64066
#
# number of rings (size 3 to 8) (size 9 to 14) (size 15 to 20)
#    0.000    1.200    0.000    7.800    0.000    4.000 
#    0.000    4.000    0.000    0.000    0.000    0.000 
#    0.000    0.000    0.000    0.000    0.000    0.000 
#
# Total GULP energy -123906.459666 kJ/mol
# GULP energy per Si atom -12390.645967 kJ/mol
# Density = 2.458458 g / cm^3
# Si number density = 24.640660 Si / 1000 Ang^3
#
#
#
# Elastic Constant Matrix: (Units=GPa)
#
#
# Indices 1 2 3 4 5 6 
#
# 1 74.6398 32.4363 40.0904 0.0000 22.6160 0.0000
# 2 32.4363 124.9073 35.9277 0.0000 -0.4416 0.0000
# 3 40.0904 35.9277 176.8828 0.0000 12.7581 0.0000
# 4 0.0000 0.0000 0.0000 39.4755 0.0000 7.5477
# 5 22.6160 -0.4416 12.7581 0.0000 42.3906 0.0000
# 6 0.0000 0.0000 0.0000 7.5477 0.0000 25.0953
#
#
#
# Elastic Compliance Matrix: (Units=1/GPa)
#
#
# Indices 1 2 3 4 5 6 
#
# 1 0.019790 -0.004339 -0.002902 0.000000 -0.009730 0.000000
# 2 -0.004339 0.009470 -0.001139 0.000000 0.002756 0.000000
# 3 -0.002902 -0.001139 0.006575 0.000000 -0.000442 0.000000
# 4 0.000000 0.000000 0.000000 0.026878 0.000000 -0.008084
# 5 -0.009730 0.002756 -0.000442 0.000000 0.028943 0.000000
# 6 0.000000 0.000000 0.000000 -0.008084 0.000000 0.042279
#
#
# Mechanical properties :
#
#
# Convention : Reuss Voigt Hill
#
# Bulk Modulus (GPa) = 52.42558 65.92652 59.17605
# Shear Modulus (GPa) = 31.83628 39.25732 35.54680
#
# Velocity S-wave (km/s) = 3.59837 3.99581 3.80229
# Velocity P-wave (km/s) = 6.21181 6.93556 6.58364
#
# Compressibility (1/GPa) = 0.01907466
#
# Stress axis : x y z
#
# Youngs Moduli (GPa) = 50.52963 105.59678 152.10274
#
# Poissons Ratio (x) = 0.45816 0.44146
# Poissons Ratio (y) = 0.21924 0.17323
# Poissons Ratio (z) = 0.14666 0.12027
#
# Static dielectric constant tensor:
#      x y z
#    x 4.455430 0.000000 0.242400 
#    y 0.000000 4.388980 0.000000 
#    z 0.242400 0.000000 4.971410 
# 
# 
# High freq. dielectric constant tensor:
#      x y z
#    x 1.974160 0.000000 0.021940 
#    y 0.000000 1.972390 0.000000 
#    z 0.021940 0.000000 2.001030 
# 
# From -- ./inp_files/17329.got.cif
#   From: 2010.03.12/outbox.cif.g09.slc.cpg/sg5_9_cif.got.tgz:17329.got - 2010.03.31 09:47:26.
