data_PCOD8049286
_publ_section_title
;
Structure prediction by ZEFSAII (Michael W. Deem and Ramdas Pophale) SiO2 
 PCOD8049286
Probable space group: C 2
;
_chemical_formula_sum "Si O2"
_cell_formula_units_Z 24
_cell_length_a 22.145290
_cell_length_b 10.659110
_cell_length_c 12.400372
_cell_angle_alpha 90.000000
_cell_angle_beta 23.751201
_cell_angle_gamma 90.000000
_cell_volume 1178.934557
_symmetry_space_group_name_H-M "C 2"
_symmetry_group_IT_number 5
_symmetry_cell_setting 'monoclinic'
loop_
_space_group_symop_operation_xyz
x,y,z
-x,y,-z
1/2+x,1/2+y,z
1/2-x,1/2+y,-z
loop_
_atom_site_type_symbol
_atom_site_label
_atom_site_fract_x
_atom_site_fract_y
_atom_site_fract_z
Si Si1 0.532662 0.658600 0.236194
Si Si2 0.472002 0.920398 0.251066
Si Si3 0.000000 0.555754 0.000000
Si Si4 0.237367 0.297490 0.068982
Si Si5 0.000000 0.736070 0.500000
Si Si6 0.214146 0.609072 0.824839
Si Si7 0.688996 0.023768 0.286002
O O1 0.489447 0.771239 0.226316
O O2 0.613421 0.715383 0.210178
O O3 0.386719 0.581727 0.513190
O O4 0.636438 0.562470 0.001245
O O5 0.347540 0.959335 0.541435
O O6 0.416386 0.964636 0.223771
O O7 0.635448 0.986243 0.008108
O O8 0.122023 0.640604 0.864332
O O9 0.296337 0.226443 0.078612
O O10 0.163200 0.428457 0.227245
O O11 0.382411 0.322902 0.756437
O O12 0.911377 0.647039 0.562089
#
# Coordination Sequence:
#
# PCOD8049286 Si02
#       7
#     4   4   2   4   2   4   4
#     4  11  24  38  67  99 126 168 209 265 322 382
#     4  10  21  45  63  87 128 169 211 264 315 362
#     4   8  22  44  68  86 126 176 214 266 306 376
#     4  11  22  37  65  96 136 161 205 267 318 384
#     4  10  20  38  54  90 132 174 192 250 314 384
#     4  10  21  43  65  92 125 172 213 259 322 370
#     4  11  22  38  60  94 126 168 210 248 322 376
#
# _framework density 20.357364
#
# number of rings (size 3 to 8) (size 9 to 14) (size 15 to 20)
#    1.000    0.667    3.333    1.500    2.333    2.667 
#    3.000    1.667    0.000    0.000    0.000    0.000 
#    0.000    0.000    0.000    0.000    0.000    0.000 
#
# Total GULP energy -148738.063857 kJ/mol
# GULP energy per Si atom -12394.838655 kJ/mol
# Density = 2.031103 g / cm^3
# Si number density = 20.357364 Si / 1000 Ang^3
#
#
#
# Elastic Constant Matrix: (Units=GPa)
#
#
# Indices 1 2 3 4 5 6 
#
# 1 103.7441 8.0550 32.3088 0.0000 7.8018 0.0000
# 2 8.0550 52.3475 27.1725 0.0000 7.0193 0.0000
# 3 32.3088 27.1725 149.1508 0.0000 9.1290 0.0000
# 4 0.0000 0.0000 0.0000 21.4283 0.0000 -3.4805
# 5 7.8018 7.0193 9.1290 0.0000 26.1903 0.0000
# 6 0.0000 0.0000 0.0000 -3.4805 0.0000 19.1460
#
#
#
# Elastic Compliance Matrix: (Units=1/GPa)
#
#
# Indices 1 2 3 4 5 6 
#
# 1 0.010482 -0.000216 -0.002088 0.000000 -0.002337 0.000000
# 2 -0.000216 0.021613 -0.003617 0.000000 -0.004467 0.000000
# 3 -0.002088 -0.003617 0.007887 0.000000 -0.001157 0.000000
# 4 0.000000 0.000000 0.000000 0.048087 0.000000 0.008742
# 5 -0.002337 -0.004467 -0.001157 0.000000 0.040479 0.000000
# 6 0.000000 0.000000 0.000000 0.008742 0.000000 0.053819
#
#
# Mechanical properties :
#
#
# Convention : Reuss Voigt Hill
#
# Bulk Modulus (GPa) = 35.53746 48.92391 42.23069
# Shear Modulus (GPa) = 24.55925 29.20001 26.87963
#
# Velocity S-wave (km/s) = 3.47710 3.79142 3.63766
# Velocity P-wave (km/s) = 5.79785 6.57656 6.19944
#
# Compressibility (1/GPa) = 0.02813932
#
# Stress axis : x y z
#
# Youngs Moduli (GPa) = 95.40241 46.26841 126.79344
#
# Poissons Ratio (x) = 0.00998 0.26478
# Poissons Ratio (y) = 0.02057 0.45866
# Poissons Ratio (z) = 0.19923 0.16737
#
# Static dielectric constant tensor:
#      x y z
#    x 3.418750 0.000000 0.144980 
#    y 0.000000 3.476680 0.000000 
#    z 0.144980 0.000000 3.932990 
# 
# 
# High freq. dielectric constant tensor:
#      x y z
#    x 1.767990 0.000000 0.014800 
#    y 0.000000 1.776920 0.000000 
#    z 0.014800 0.000000 1.811340 
# 
# From -- ./inp_files/58134.got.cif
#   From: 2010.03.12/outbox.cif.g09.slc.cpg/sg5_30_cif.got.tgz:58134.got - 2010.03.31 09:47:26.
