data_PCOD8049040
_publ_section_title
;
Structure prediction by ZEFSAII (Michael W. Deem and Ramdas Pophale) SiO2 
 PCOD8049040
Probable space group: C 2
;
_chemical_formula_sum "Si O2"
_cell_formula_units_Z 20
_cell_length_a 14.725263
_cell_length_b 10.019686
_cell_length_c 12.012166
_cell_angle_alpha 90.000000
_cell_angle_beta 32.081661
_cell_angle_gamma 90.000000
_cell_volume 941.319837
_symmetry_space_group_name_H-M "C 2"
_symmetry_group_IT_number 5
_symmetry_cell_setting 'monoclinic'
loop_
_space_group_symop_operation_xyz
x,y,z
-x,y,-z
1/2+x,1/2+y,z
1/2-x,1/2+y,-z
loop_
_atom_site_type_symbol
_atom_site_label
_atom_site_fract_x
_atom_site_fract_y
_atom_site_fract_z
Si Si1 0.122037 0.420170 0.474509
Si Si2 0.372613 0.775314 0.880955
Si Si3 0.799557 0.174487 0.727371
Si Si4 0.881009 0.145019 0.219454
Si Si5 0.203228 0.877411 0.275988
O O1 0.250353 0.296591 0.304485
O O2 0.233382 0.542270 0.402152
O O3 0.000000 0.466170 0.500000
O O4 0.997089 0.390293 0.706584
O O5 0.260844 0.711958 0.896573
O O6 0.499498 0.662209 0.797344
O O7 0.246324 0.832270 0.105624
O O8 0.000000 0.167141 0.500000
O O9 0.724516 0.028320 0.777886
O O10 0.801041 0.286373 0.263500
O O11 0.000000 0.083462 0.000000
O O12 0.000000 0.866954 0.500000
#
# Coordination Sequence:
#
# PCOD8049040 Si02
#       5
#     4   4   4   4   4
#     4   9  19  38  57  76 107 145 180 219 265 320
#     4   9  20  35  56  82 110 138 178 226 266 311
#     4   8  18  36  55  75 104 141 180 218 260 317
#     4  10  21  36  53  80 113 141 176 224 267 312
#     4  10  20  35  57  81 108 143 180 219 266 320
#
# _framework density 21.246763000000001
#
# number of rings (size 3 to 8) (size 9 to 14) (size 15 to 20)
#    0.000    3.200    0.000    0.600    0.000   12.800 
#    0.000    5.000    0.000    0.000    0.000    0.000 
#    0.000    0.000    0.000    0.000    0.000    0.000 
#
# Total GULP energy -123903.899740 kJ/mol
# GULP energy per Si atom -12390.389974 kJ/mol
# Density = 2.119840 g / cm^3
# Si number density = 21.246763 Si / 1000 Ang^3
#
#
#
# Elastic Constant Matrix: (Units=GPa)
#
#
# Indices 1 2 3 4 5 6 
#
# 1 36.8117 16.5487 32.8820 0.0000 13.0943 0.0000
# 2 16.5487 128.2380 35.4493 0.0000 1.8707 0.0000
# 3 32.8820 35.4493 100.3514 0.0000 12.7222 0.0000
# 4 0.0000 0.0000 0.0000 28.0794 0.0000 -7.8752
# 5 13.0943 1.8707 12.7222 0.0000 25.3966 0.0000
# 6 0.0000 0.0000 0.0000 -7.8752 0.0000 6.5564
#
#
#
# Elastic Compliance Matrix: (Units=1/GPa)
#
#
# Indices 1 2 3 4 5 6 
#
# 1 0.044674 -0.002290 -0.011672 0.000000 -0.017018 0.000000
# 2 -0.002290 0.008781 -0.002583 0.000000 0.001828 0.000000
# 3 -0.011672 -0.002583 0.014859 0.000000 -0.001235 0.000000
# 4 0.000000 0.000000 0.000000 0.053705 0.000000 0.064507
# 5 -0.017018 0.001828 -0.001235 0.000000 0.048634 0.000000
# 6 0.000000 0.000000 0.000000 0.064507 0.000000 0.230003
#
#
# Mechanical properties :
#
#
# Convention : Reuss Voigt Hill
#
# Bulk Modulus (GPa) = 28.39041 48.35125 38.37083
# Shear Modulus (GPa) = 11.22367 24.04122 17.63244
#
# Velocity S-wave (km/s) = 2.30087 3.36746 2.88390
# Velocity P-wave (km/s) = 4.52216 6.15842 5.40259
#
# Compressibility (1/GPa) = 0.03522316
#
# Stress axis : x y z
#
# Youngs Moduli (GPa) = 22.38426 113.88266 67.30135
#
# Poissons Ratio (x) = 0.26083 0.78553
# Poissons Ratio (y) = 0.05127 0.17385
# Poissons Ratio (z) = 0.26126 0.29418
#
# Static dielectric constant tensor:
#      x y z
#    x 3.868720 0.000000 0.325470 
#    y 0.000000 4.482940 0.000000 
#    z 0.325470 0.000000 3.840640 
# 
# 
# High freq. dielectric constant tensor:
#      x y z
#    x 1.808990 0.000000 0.019370 
#    y 0.000000 1.835780 0.000000 
#    z 0.019370 0.000000 1.829050 
# 
# From -- ./inp_files/23036.got.cif
#   From: 2010.03.12/outbox.cif.g09.slc.cpg/sg5_12_cif.got.tgz:23036.got - 2010.03.31 09:47:26.
