data_PCOD8049533
_publ_section_title
;
Structure prediction by ZEFSAII (Michael W. Deem and Ramdas Pophale) SiO2 
 PCOD8049533
Probable space group: C 2
;
_chemical_formula_sum "Si O2"
_cell_formula_units_Z 28
_cell_length_a 15.249707
_cell_length_b 17.251592
_cell_length_c 9.319437
_cell_angle_alpha 90.000000
_cell_angle_beta 34.776627
_cell_angle_gamma 90.000000
_cell_volume 1398.439025
_symmetry_space_group_name_H-M "C 2"
_symmetry_group_IT_number 5
_symmetry_cell_setting 'monoclinic'
loop_
_space_group_symop_operation_xyz
x,y,z
-x,y,-z
1/2+x,1/2+y,z
1/2-x,1/2+y,-z
loop_
_atom_site_type_symbol
_atom_site_label
_atom_site_fract_x
_atom_site_fract_y
_atom_site_fract_z
Si Si1 0.885511 0.614810 0.786975
Si Si2 0.500000 0.872953 0.000000
Si Si3 0.570687 0.680502 0.258176
Si Si4 0.168424 0.275036 0.557493
Si Si5 0.182357 0.451790 0.007028
Si Si6 0.294458 0.833240 0.789310
Si Si7 0.516683 0.270633 0.735245
Si Si8 0.000000 0.880137 0.500000
O O1 0.000000 0.599261 0.500000
O O2 0.954008 0.685668 0.783310
O O3 0.703894 0.632098 0.996106
O O4 0.872043 0.539808 0.905005
O O5 0.625240 0.817885 0.760395
O O6 0.581616 0.923274 0.010458
O O7 0.500000 0.641559 0.500000
O O8 0.430997 0.696374 0.334072
O O9 0.645400 0.762423 0.196888
O O10 0.137312 0.331716 0.462738
O O11 0.346851 0.254290 0.336069
O O12 0.362819 0.437115 0.732472
O O13 0.151668 0.410463 0.201539
O O14 0.111782 0.823712 0.016759
O O15 0.566801 0.320806 0.529427
#
# Coordination Sequence:
#
# PCOD8049533 Si02
#       8
#     4   2   4   4   4   4   4   2
#     4  11  25  40  64  90 135 177 215 258 339 394
#     4  12  24  36  64  96 126 164 218 282 314 378
#     4   9  20  40  64  91 123 168 215 265 313 392
#     4  11  21  36  68  97 122 153 224 278 314 375
#     4  11  24  42  63  93 130 171 214 272 330 389
#     4   9  20  39  66  88 123 163 213 262 327 383
#     4  10  20  40  66  95 122 167 220 270 320 387
#     4  10  20  42  68  90 124 172 226 260 320 392
#
# _framework density 20.022324999999999
#
# number of rings (size 3 to 8) (size 9 to 14) (size 15 to 20)
#    0.000    1.714    3.571    0.429    5.000    0.000 
#    7.714    0.000    0.000    0.000    0.000    0.000 
#    0.000    0.000    0.000    0.000    0.000    0.000 
#
# Total GULP energy -173441.861408 kJ/mol
# GULP energy per Si atom -12388.704386 kJ/mol
# Density = 1.997675 g / cm^3
# Si number density = 20.022325 Si / 1000 Ang^3
#
#
#
# Elastic Constant Matrix: (Units=GPa)
#
#
# Indices 1 2 3 4 5 6 
#
# 1 117.9370 35.5793 46.6534 -0.0005 -18.6898 0.0005
# 2 35.5793 88.0541 42.1616 -0.0003 5.8818 0.0002
# 3 46.6534 42.1616 120.5175 -0.0006 -10.1580 0.0004
# 4 -0.0005 -0.0003 -0.0006 23.7035 0.0005 -0.1264
# 5 -18.6898 5.8818 -10.1580 0.0005 33.6307 -0.0004
# 6 0.0005 0.0002 0.0004 -0.1264 -0.0004 21.7701
#
#
#
# Elastic Compliance Matrix: (Units=1/GPa)
#
#
# Indices 1 2 3 4 5 6 
#
# 1 0.011709 -0.003899 -0.002630 0.000000 0.006395 0.000000
# 2 -0.003899 0.015465 -0.004424 0.000000 -0.006208 0.000000
# 3 -0.002630 -0.004424 0.011088 0.000000 0.002661 0.000000
# 4 0.000000 0.000000 0.000000 0.042189 -0.000001 0.000245
# 5 0.006395 -0.006208 0.002661 -0.000001 0.035178 0.000001
# 6 0.000000 0.000000 0.000000 0.000245 0.000001 0.045936
#
#
# Mechanical properties :
#
#
# Convention : Reuss Voigt Hill
#
# Bulk Modulus (GPa) = 61.14018 63.92192 62.53105
# Shear Modulus (GPa) = 26.46580 29.29513 27.88047
#
# Velocity S-wave (km/s) = 3.63962 3.82923 3.73563
# Velocity P-wave (km/s) = 6.94728 7.17950 7.06435
#
# Compressibility (1/GPa) = 0.01635586
#
# Stress axis : x y z
#
# Youngs Moduli (GPa) = 85.40403 64.66119 90.19139
#
# Poissons Ratio (x) = 0.25213 0.23716
# Poissons Ratio (y) = 0.33301 0.39902
# Poissons Ratio (z) = 0.22458 0.28607
#
# Static dielectric constant tensor:
#      x y z
#    x 3.600470 0.000000 -0.236050 
#    y 0.000000 3.363430 0.000000 
#    z -0.236050 0.000000 4.127120 
# 
# 
# High freq. dielectric constant tensor:
#      x y z
#    x 1.775990 0.000000 -0.014470 
#    y 0.000000 1.746630 0.000000 
#    z -0.014470 0.000000 1.806290 
# 
# From -- ./inp_files/20577.got.cif
#   From: 2010.03.12/outbox.cif.g09.slc.cpg/sg5_11_cif.got.tgz:20577.got - 2010.03.31 09:47:26.
