data_PCOD8049367
_publ_section_title
;
Structure prediction by ZEFSAII (Michael W. Deem and Ramdas Pophale) SiO2 
 PCOD8049367
Probable space group: C 2
;
_chemical_formula_sum "Si O2"
_cell_formula_units_Z 30
_cell_length_a 14.745933
_cell_length_b 16.939371
_cell_length_c 12.191124
_cell_angle_alpha 90.000000
_cell_angle_beta 151.459760
_cell_angle_gamma 90.000000
_cell_volume 1454.914533
_symmetry_space_group_name_H-M "C 2"
_symmetry_group_IT_number 5
_symmetry_cell_setting 'monoclinic'
loop_
_space_group_symop_operation_xyz
x,y,z
-x,y,-z
1/2+x,1/2+y,z
1/2-x,1/2+y,-z
loop_
_atom_site_type_symbol
_atom_site_label
_atom_site_fract_x
_atom_site_fract_y
_atom_site_fract_z
Si Si1 0.153968 0.051550 0.261541
Si Si2 0.414776 0.442826 0.115604
Si Si3 0.481676 0.932304 0.646400
Si Si4 0.271731 0.218341 0.469891
Si Si5 0.497926 0.852523 0.877830
Si Si6 0.916098 0.814835 0.289550
Si Si7 0.500000 0.341647 0.000000
Si Si8 0.638716 0.763273 0.561201
O O1 0.238780 0.137339 0.371543
O O2 0.334858 0.992968 0.433803
O O3 0.034736 0.024300 0.242709
O O4 0.000000 0.050197 0.000000
O O5 0.451116 0.399565 0.268955
O O6 0.519604 0.393702 0.130034
O O7 0.196537 0.461202 0.853824
O O8 0.450339 0.924196 0.744330
O O9 0.466485 0.844201 0.583367
O O10 0.493122 0.244099 0.688505
O O11 0.200254 0.212466 0.519889
O O12 0.165331 0.287534 0.292813
O O13 0.500000 0.892038 0.000000
O O14 0.689499 0.804484 0.050684
O O15 0.000000 0.816552 0.500000
O O16 0.323209 0.284094 0.826450
O O17 0.500000 0.717076 0.500000
#
# Coordination Sequence:
#
# PCOD8049367 Si02
#       8
#     4   4   4   4   4   4   2   4
#     4  12  25  40  60  87 133 169 197 252 317 385
#     4  11  21  39  62  95 118 161 213 265 311 360
#     4  10  22  37  61  93 121 155 211 263 302 362
#     4  11  24  41  57  91 132 163 203 249 314 384
#     4  10  20  38  65  91 118 161 213 257 307 355
#     4  11  22  38  66  94 122 163 214 263 304 361
#     4  12  18  34  64  90 116 142 210 272 310 348
#     4  11  21  37  66  89 115 156 210 267 306 350
#
# _framework density 20.619768000000001
#
# number of rings (size 3 to 8) (size 9 to 14) (size 15 to 20)
#    0.000    1.067    6.000    1.200    0.000    1.067 
#    0.000    0.667    1.467    0.000    0.000    0.000 
#    0.000    0.000    0.000    0.000    0.000    0.000 
#
# Total GULP energy -185892.907697 kJ/mol
# GULP energy per Si atom -12392.860513 kJ/mol
# Density = 2.057284 g / cm^3
# Si number density = 20.619768 Si / 1000 Ang^3
#
#
#
# Elastic Constant Matrix: (Units=GPa)
#
#
# Indices 1 2 3 4 5 6 
#
# 1 117.2989 13.1145 28.4437 0.0000 -2.7436 0.0000
# 2 13.1145 58.9680 23.4194 0.0000 6.1561 0.0000
# 3 28.4437 23.4194 79.9566 0.0000 9.3144 0.0000
# 4 0.0000 0.0000 0.0000 20.7736 0.0000 -1.4364
# 5 -2.7436 6.1561 9.3144 0.0000 43.4242 0.0000
# 6 0.0000 0.0000 0.0000 -1.4364 0.0000 14.5995
#
#
#
# Elastic Compliance Matrix: (Units=1/GPa)
#
#
# Indices 1 2 3 4 5 6 
#
# 1 0.009454 -0.000962 -0.003248 0.000000 0.001430 0.000000
# 2 -0.000962 0.019391 -0.005139 0.000000 -0.001708 0.000000
# 3 -0.003248 -0.005139 0.015494 0.000000 -0.002800 0.000000
# 4 0.000000 0.000000 0.000000 0.048468 0.000000 0.004768
# 5 0.001430 -0.001708 -0.002800 0.000000 0.023962 0.000000
# 6 0.000000 0.000000 0.000000 0.004768 0.000000 0.068964
#
#
# Mechanical properties :
#
#
# Convention : Reuss Voigt Hill
#
# Bulk Modulus (GPa) = 38.99903 42.90872 40.95388
# Shear Modulus (GPa) = 23.47674 28.50920 25.99297
#
# Velocity S-wave (km/s) = 3.37791 3.72239 3.55432
# Velocity P-wave (km/s) = 5.84535 6.27133 6.06208
#
# Compressibility (1/GPa) = 0.02564166
#
# Stress axis : x y z
#
# Youngs Moduli (GPa) = 105.77724 51.56932 64.54314
#
# Poissons Ratio (x) = 0.04960 0.20963
# Poissons Ratio (y) = 0.10175 0.33166
# Poissons Ratio (z) = 0.34356 0.26500
#
# Static dielectric constant tensor:
#      x y z
#    x 4.113060 0.000000 0.028400 
#    y 0.000000 3.310820 0.000000 
#    z 0.028400 0.000000 4.153610 
# 
# 
# High freq. dielectric constant tensor:
#      x y z
#    x 1.824250 0.000000 0.014400 
#    y 0.000000 1.745520 0.000000 
#    z 0.014400 0.000000 1.822770 
# 
# From -- ./inp_files/43341.got.cif
#   From: 2010.03.12/outbox.cif.g09.slc.cpg/sg5_22_cif.got.tgz:43341.got - 2010.03.31 09:47:26.
