data_PCOD8049935
_publ_section_title
;
Structure prediction by ZEFSAII (Michael W. Deem and Ramdas Pophale) SiO2 
 PCOD8049935
Probable space group: C 2
;
_chemical_formula_sum "Si O2"
_cell_formula_units_Z 30
_cell_length_a 7.969866
_cell_length_b 16.470543
_cell_length_c 10.992360
_cell_angle_alpha 90.000000
_cell_angle_beta 106.792142
_cell_angle_gamma 90.000000
_cell_volume 1381.416893
_symmetry_space_group_name_H-M "C 2"
_symmetry_group_IT_number 5
_symmetry_cell_setting 'monoclinic'
loop_
_space_group_symop_operation_xyz
x,y,z
-x,y,-z
1/2+x,1/2+y,z
1/2-x,1/2+y,-z
loop_
_atom_site_type_symbol
_atom_site_label
_atom_site_fract_x
_atom_site_fract_y
_atom_site_fract_z
Si Si1 0.843344 0.715350 0.228572
Si Si2 0.178062 0.450989 0.983938
Si Si3 0.128325 0.064026 0.143711
Si Si4 0.000000 0.283911 0.500000
Si Si5 0.355215 0.505577 0.255886
Si Si6 0.306355 0.284847 0.965019
Si Si7 0.811260 0.851972 0.406760
Si Si8 0.264175 0.184019 0.718087
O O1 0.721363 0.639251 0.228453
O O2 0.771791 0.792178 0.287085
O O3 0.047301 0.700018 0.304036
O O4 0.808947 0.727085 0.079989
O O5 0.226196 0.502201 0.875063
O O6 0.165251 0.357105 0.940747
O O7 0.307591 0.458666 0.122690
O O8 0.000000 0.485746 0.000000
O O9 0.050009 0.028204 0.253375
O O10 0.000000 0.084376 0.000000
O O11 0.855223 0.341850 0.536593
O O12 0.892439 0.222870 0.391775
O O13 0.331472 0.444757 0.364241
O O14 0.252410 0.587441 0.268091
O O15 0.255036 0.226069 0.846179
O O16 0.500000 0.325954 0.000000
O O17 0.000000 0.826781 0.500000
#
# Coordination Sequence:
#
# PCOD8049935 Si02
#       8
#     4   4   4   2   4   4   4   4
#     4  11  22  46  71 104 143 183 231 293 357 414
#     4  11  22  35  62 107 145 174 226 286 355 425
#     4  10  22  39  69 101 147 181 225 289 365 422
#     4  12  28  50  74 102 138 200 240 288 360 424
#     4  11  24  45  67 102 137 184 237 290 350 415
#     4  10  21  38  69 101 140 181 223 285 354 415
#     4  12  27  50  71 100 141 186 242 299 348 426
#     4  11  25  44  74 104 143 184 237 289 348 429
#
# _framework density 21.716833000000001
#
# number of rings (size 3 to 8) (size 9 to 14) (size 15 to 20)
#    0.000    1.067    2.667    4.400    4.667    2.667 
#    2.400    0.000    0.000    0.000    0.000    0.000 
#    0.000    0.000    0.000    0.000    0.000    0.000 
#
# Total GULP energy -185858.858602 kJ/mol
# GULP energy per Si atom -12390.590573 kJ/mol
# Density = 2.166740 g / cm^3
# Si number density = 21.716833 Si / 1000 Ang^3
#
#
#
# Elastic Constant Matrix: (Units=GPa)
#
#
# Indices 1 2 3 4 5 6 
#
# 1 144.7601 58.6966 37.4108 0.0000 -15.3672 0.0000
# 2 58.6966 143.7144 47.1450 0.0000 -4.4408 0.0000
# 3 37.4108 47.1450 91.9831 0.0000 -0.9757 0.0000
# 4 0.0000 0.0000 0.0000 36.5968 0.0000 -17.4886
# 5 -15.3672 -4.4408 -0.9757 0.0000 31.4602 0.0000
# 6 0.0000 0.0000 0.0000 -17.4886 0.0000 67.7742
#
#
#
# Elastic Compliance Matrix: (Units=1/GPa)
#
#
# Indices 1 2 3 4 5 6 
#
# 1 0.009049 -0.002861 -0.002172 0.000000 0.003949 0.000000
# 2 -0.002861 0.009304 -0.003607 0.000000 -0.000196 0.000000
# 3 -0.002172 -0.003607 0.013591 0.000000 -0.001149 0.000000
# 4 0.000000 0.000000 0.000000 0.031168 0.000000 0.008043
# 5 0.003949 -0.000196 -0.001149 0.000000 0.033652 0.000000
# 6 0.000000 0.000000 0.000000 0.008043 0.000000 0.016830
#
#
# Mechanical properties :
#
#
# Convention : Reuss Voigt Hill
#
# Bulk Modulus (GPa) = 68.19475 74.10694 71.15084
# Shear Modulus (GPa) = 36.82905 42.97992 39.90448
#
# Velocity S-wave (km/s) = 4.12257 4.45354 4.29125
# Velocity P-wave (km/s) = 7.35736 7.78740 7.57543
#
# Compressibility (1/GPa) = 0.01466389
#
# Stress axis : x y z
#
# Youngs Moduli (GPa) = 110.51471 107.47996 73.57561
#
# Poissons Ratio (x) = 0.30752 0.15979
# Poissons Ratio (y) = 0.31620 0.26539
# Poissons Ratio (z) = 0.24002 0.38769
#
# Static dielectric constant tensor:
#      x y z
#    x 3.817550 0.000000 -0.102400 
#    y 0.000000 3.892670 0.000000 
#    z -0.102400 0.000000 3.647660 
# 
# 
# High freq. dielectric constant tensor:
#      x y z
#    x 1.866420 0.000000 -0.007320 
#    y 0.000000 1.860550 0.000000 
#    z -0.007320 0.000000 1.837060 
# 
# From -- ./inp_files/36459.got.cif
#   From: 2010.03.12/outbox.cif.g09.slc.cpg/sg5_19_cif.got.tgz:36459.got - 2010.03.31 09:47:26.
