data_PCOD8049466
_publ_section_title
;
Structure prediction by ZEFSAII (Michael W. Deem and Ramdas Pophale) SiO2 
 PCOD8049466
Probable space group: C 2
;
_chemical_formula_sum "Si O2"
_cell_formula_units_Z 32
_cell_length_a 22.941765
_cell_length_b 15.812167
_cell_length_c 8.808972
_cell_angle_alpha 90.000000
_cell_angle_beta 151.082456
_cell_angle_gamma 90.000000
_cell_volume 1545.201856
_symmetry_space_group_name_H-M "C 2"
_symmetry_group_IT_number 5
_symmetry_cell_setting 'monoclinic'
loop_
_space_group_symop_operation_xyz
x,y,z
-x,y,-z
1/2+x,1/2+y,z
1/2-x,1/2+y,-z
loop_
_atom_site_type_symbol
_atom_site_label
_atom_site_fract_x
_atom_site_fract_y
_atom_site_fract_z
Si Si1 0.710312 0.220470 0.133627
Si Si2 0.283803 0.049171 0.731958
Si Si3 0.585482 0.893497 0.828360
Si Si4 0.532638 0.497764 0.250761
Si Si5 0.727090 0.247088 0.818878
Si Si6 0.522737 0.766067 0.204991
Si Si7 0.992703 0.812778 0.163274
Si Si8 0.340313 0.622026 0.847047
O O1 0.652621 0.129952 0.046811
O O2 0.848755 0.221338 0.498410
O O3 0.704385 0.234372 0.942919
O O4 0.637654 0.289540 0.066098
O O5 0.251726 0.074897 0.482563
O O6 0.167695 0.031590 0.572511
O O7 0.370153 0.966850 0.953153
O O8 0.500000 0.932140 0.500000
O O9 0.490274 0.829663 0.686702
O O10 0.697783 0.833990 0.034873
O O11 0.523493 0.404763 0.298964
O O12 0.500000 0.499192 0.000000
O O13 0.436943 0.553442 0.127226
O O14 0.594429 0.249368 0.448603
O O15 0.780498 0.163112 0.860297
O O16 0.500000 0.820300 0.000000
O O17 0.417780 0.695826 0.946133
O O18 0.000000 0.812293 0.000000
#
# Coordination Sequence:
#
# PCOD8049466 Si02
#       8
#     4   4   4   4   4   4   4   4
#     4  12  24  42  66  96 140 177 229 281 349 418
#     4  11  21  42  67  97 132 176 220 284 341 400
#     4  11  24  42  68  99 142 180 223 286 357 407
#     4   9  18  36  64  98 124 159 219 283 329 381
#     4  11  24  44  64  97 137 184 225 277 350 420
#     4  11  21  39  70 102 129 177 235 281 335 415
#     4  11  24  42  67  97 131 178 229 280 343 409
#     4  10  20  39  70  99 128 166 233 280 336 405
#
# _framework density 20.709268999999999
#
# number of rings (size 3 to 8) (size 9 to 14) (size 15 to 20)
#    0.000    1.250    5.000    1.500    1.750    1.000 
#    2.250    4.375    0.000    0.000    0.000    0.000 
#    0.000    0.000    0.000    0.000    0.000    0.000 
#
# Total GULP energy -198214.041510 kJ/mol
# GULP energy per Si atom -12388.377594 kJ/mol
# Density = 2.066213 g / cm^3
# Si number density = 20.709269 Si / 1000 Ang^3
#
#
#
# Elastic Constant Matrix: (Units=GPa)
#
#
# Indices 1 2 3 4 5 6 
#
# 1 102.8163 40.8946 21.6377 0.0000 -4.5459 0.0000
# 2 40.8946 99.4601 23.8855 0.0000 0.8055 0.0000
# 3 21.6377 23.8855 80.1753 0.0000 -6.6196 0.0000
# 4 0.0000 0.0000 0.0000 44.7483 0.0000 8.5307
# 5 -4.5459 0.8055 -6.6196 0.0000 25.4417 0.0000
# 6 0.0000 0.0000 0.0000 8.5307 0.0000 28.9787
#
#
#
# Elastic Compliance Matrix: (Units=1/GPa)
#
#
# Indices 1 2 3 4 5 6 
#
# 1 0.011970 -0.004520 -0.001733 0.000000 0.001831 0.000000
# 2 -0.004520 0.012573 -0.002683 0.000000 -0.001904 0.000000
# 3 -0.001733 -0.002683 0.014022 0.000000 0.003424 0.000000
# 4 0.000000 0.000000 0.000000 0.023676 0.000000 -0.006970
# 5 0.001831 -0.001904 0.003424 0.000000 0.040584 0.000000
# 6 0.000000 0.000000 0.000000 -0.006970 0.000000 0.036560
#
#
# Mechanical properties :
#
#
# Convention : Reuss Voigt Hill
#
# Bulk Modulus (GPa) = 48.32522 50.58749 49.45636
# Shear Modulus (GPa) = 30.45942 32.90264 31.68103
#
# Velocity S-wave (km/s) = 3.83928 3.99028 3.91551
# Velocity P-wave (km/s) = 6.56042 6.76094 6.66144
#
# Compressibility (1/GPa) = 0.02069313
#
# Stress axis : x y z
#
# Youngs Moduli (GPa) = 83.54535 79.53834 71.31562
#
# Poissons Ratio (x) = 0.35953 0.12356
# Poissons Ratio (y) = 0.37764 0.19133
# Poissons Ratio (z) = 0.14474 0.21339
#
# Static dielectric constant tensor:
#      x y z
#    x 3.531560 0.000000 0.270830 
#    y 0.000000 3.873720 0.000000 
#    z 0.270830 0.000000 3.427940 
# 
# 
# High freq. dielectric constant tensor:
#      x y z
#    x 1.794570 0.000000 0.002720 
#    y 0.000000 1.811210 0.000000 
#    z 0.002720 0.000000 1.811800 
# 
# From -- ./inp_files/31036.got.cif
#   From: 2010.03.12/outbox.cif.g09.slc.cpg/sg5_16_cif.got.tgz:31036.got - 2010.03.31 09:47:26.
