data_PCOD8049635
_publ_section_title
;
Structure prediction by ZEFSAII (Michael W. Deem and Ramdas Pophale) SiO2 
 PCOD8049635
Probable space group: C 2
;
_chemical_formula_sum "Si O2"
_cell_formula_units_Z 24
_cell_length_a 23.611540
_cell_length_b 8.116032
_cell_length_c 17.486627
_cell_angle_alpha 90.000000
_cell_angle_beta 20.389696
_cell_angle_gamma 90.000000
_cell_volume 1167.499216
_symmetry_space_group_name_H-M "C 2"
_symmetry_group_IT_number 5
_symmetry_cell_setting 'monoclinic'
loop_
_space_group_symop_operation_xyz
x,y,z
-x,y,-z
1/2+x,1/2+y,z
1/2-x,1/2+y,-z
loop_
_atom_site_type_symbol
_atom_site_label
_atom_site_fract_x
_atom_site_fract_y
_atom_site_fract_z
Si Si1 0.314819 0.336870 0.627070
Si Si2 0.239567 0.209838 0.328216
Si Si3 0.500000 0.124802 0.500000
Si Si4 0.077885 0.416740 0.253583
Si Si5 0.420358 0.246014 0.827578
Si Si6 0.493700 0.339191 0.903076
Si Si7 0.500000 0.636186 0.000000
O O1 0.285107 0.528825 0.673535
O O2 0.355376 0.245563 0.655357
O O3 0.468508 0.322493 0.377835
O O4 0.155475 0.250989 0.796803
O O5 0.370173 0.218592 0.232098
O O6 0.074053 0.295168 0.564733
O O7 0.311971 0.303046 0.163167
O O8 0.570194 0.012023 0.343663
O O9 0.077675 0.547147 0.183467
O O10 0.237722 0.307090 0.047744
O O11 0.498818 0.311020 0.806707
O O12 0.522318 0.526703 0.894708
#
# Coordination Sequence:
#
# PCOD8049635 Si02
#       7
#     4   4   2   4   4   4   2
#     4  11  23  39  60  89 119 155 200 244 292 353
#     4  10  22  40  60  86 120 160 198 237 293 360
#     4  10  22  40  62  86 118 162 200 236 294 358
#     4  11  22  40  60  87 122 158 196 245 297 351
#     4  11  23  38  59  89 119 153 198 249 295 342
#     4  10  21  39  62  87 116 157 199 243 293 347
#     4  10  20  42  64  84 118 160 198 240 294 360
#
# _framework density 20.556759
#
# number of rings (size 3 to 8) (size 9 to 14) (size 15 to 20)
#    0.000    1.667    0.000    8.000    0.000    7.333 
#    0.000    6.667    0.000    0.000    0.000    0.000 
#    0.000    0.000    0.000    0.000    0.000    0.000 
#
# Total GULP energy -148765.023600 kJ/mol
# GULP energy per Si atom -12397.085300 kJ/mol
# Density = 2.050997 g / cm^3
# Si number density = 20.556759 Si / 1000 Ang^3
#
#
#
# Elastic Constant Matrix: (Units=GPa)
#
#
# Indices 1 2 3 4 5 6 
#
# 1 83.6110 29.0075 30.7697 -0.0004 0.5647 0.0002
# 2 29.0075 129.9612 45.2101 -0.0002 -11.8953 0.0001
# 3 30.7697 45.2101 124.1902 -0.0003 -22.2307 0.0001
# 4 -0.0004 -0.0002 -0.0003 42.6979 -0.0002 -11.2615
# 5 0.5647 -11.8953 -22.2307 -0.0002 24.0028 0.0001
# 6 0.0002 0.0001 0.0001 -11.2615 0.0001 24.4882
#
#
#
# Elastic Compliance Matrix: (Units=1/GPa)
#
#
# Indices 1 2 3 4 5 6 
#
# 1 0.014093 -0.002369 -0.003475 0.000000 -0.004724 0.000000
# 2 -0.002369 0.009265 -0.002342 0.000000 0.002478 0.000000
# 3 -0.003475 -0.002342 0.011475 0.000000 0.009549 0.000000
# 4 0.000000 0.000000 0.000000 0.026653 0.000000 0.012257
# 5 -0.004724 0.002478 0.009549 0.000000 0.051845 0.000000
# 6 0.000000 0.000000 0.000000 0.012257 0.000000 0.046473
#
#
# Mechanical properties :
#
#
# Convention : Reuss Voigt Hill
#
# Bulk Modulus (GPa) = 54.16995 60.85968 57.51481
# Shear Modulus (GPa) = 27.42287 33.75612 30.58950
#
# Velocity S-wave (km/s) = 3.65637 4.05667 3.86171
# Velocity P-wave (km/s) = 6.65086 7.18415 6.92265
#
# Compressibility (1/GPa) = 0.01846042
#
# Stress axis : x y z
#
# Youngs Moduli (GPa) = 70.95851 107.93283 87.14535
#
# Poissons Ratio (x) = 0.25570 0.30281
# Poissons Ratio (y) = 0.16811 0.20412
# Poissons Ratio (z) = 0.24657 0.25281
#
# Static dielectric constant tensor:
#      x y z
#    x 3.541960 0.000000 -0.229180 
#    y 0.000000 3.924280 0.000000 
#    z -0.229180 0.000000 3.782840 
# 
# 
# High freq. dielectric constant tensor:
#      x y z
#    x 1.792220 0.000000 -0.012920 
#    y 0.000000 1.813250 0.000000 
#    z -0.012920 0.000000 1.816450 
# 
# From -- ./inp_files/22878.got.cif
#   From: 2010.03.12/outbox.cif.g09.slc.cpg/sg5_12_cif.got.tgz:22878.got - 2010.03.31 09:47:26.
