data_PCOD8049940
_publ_section_title
;
Structure prediction by ZEFSAII (Michael W. Deem and Ramdas Pophale) SiO2 
 PCOD8049940
Probable space group: C 2
;
_chemical_formula_sum "Si O2"
_cell_formula_units_Z 28
_cell_length_a 9.199500
_cell_length_b 11.275818
_cell_length_c 13.977082
_cell_angle_alpha 90.000000
_cell_angle_beta 64.552184
_cell_angle_gamma 90.000000
_cell_volume 1309.198468
_symmetry_space_group_name_H-M "C 2"
_symmetry_group_IT_number 5
_symmetry_cell_setting 'monoclinic'
loop_
_space_group_symop_operation_xyz
x,y,z
-x,y,-z
1/2+x,1/2+y,z
1/2-x,1/2+y,-z
loop_
_atom_site_type_symbol
_atom_site_label
_atom_site_fract_x
_atom_site_fract_y
_atom_site_fract_z
Si Si1 0.557492 0.618680 0.379255
Si Si2 0.548411 0.346689 0.378894
Si Si3 0.167196 0.805446 0.737383
Si Si4 0.104473 0.253241 0.055229
Si Si5 0.106645 0.433518 0.202652
Si Si6 0.124932 0.234100 0.722636
Si Si7 0.433617 0.150915 0.914666
O O1 0.500000 0.655826 0.500000
O O2 0.609777 0.481832 0.358099
O O3 0.706351 0.697342 0.301221
O O4 0.401959 0.642566 0.356328
O O5 0.500000 0.312035 0.500000
O O6 0.398828 0.330982 0.349612
O O7 0.687337 0.254530 0.307335
O O8 0.256884 0.925315 0.752077
O O9 0.027225 0.768186 0.851968
O O10 0.183709 0.361800 0.090812
O O11 0.974807 0.182147 0.158355
O O12 0.243370 0.168244 0.979009
O O13 0.000000 0.309257 0.000000
O O14 0.051215 0.560337 0.179096
O O15 0.947326 0.364398 0.284895
O O16 0.500000 0.108184 0.000000
#
# Coordination Sequence:
#
# PCOD8049940 Si02
#       7
#     4   4   4   4   4   4   4
#     4  10  21  41  64  89 124 162 202 257 316 369
#     4  11  23  39  68  95 119 163 208 259 317 367
#     4  11  23  42  61  94 125 159 211 258 301 374
#     4  10  21  39  56  89 122 163 205 243 305 362
#     4   9  22  40  59  85 123 165 202 247 308 353
#     4   9  20  41  57  89 124 157 204 249 309 365
#     4  12  21  41  63  90 128 166 210 252 301 367
#
# _framework density 21.387131
#
# number of rings (size 3 to 8) (size 9 to 14) (size 15 to 20)
#    0.857    0.857    1.429    3.000    0.000    2.286 
#    7.714    0.000    0.000    6.000    0.000    0.000 
#    0.000    0.000    0.000    0.000    0.000    0.000 
#
# Total GULP energy -173469.495380 kJ/mol
# GULP energy per Si atom -12390.678241 kJ/mol
# Density = 2.133845 g / cm^3
# Si number density = 21.387131 Si / 1000 Ang^3
#
#
#
# Elastic Constant Matrix: (Units=GPa)
#
#
# Indices 1 2 3 4 5 6 
#
# 1 137.7636 9.5836 33.4074 0.0000 19.4061 0.0000
# 2 9.5836 25.1943 10.0463 0.0000 -3.5510 0.0000
# 3 33.4074 10.0463 70.8316 0.0000 8.3546 0.0000
# 4 0.0000 0.0000 0.0000 26.4815 0.0000 2.9052
# 5 19.4061 -3.5510 8.3546 0.0000 42.2364 0.0000
# 6 0.0000 0.0000 0.0000 2.9052 0.0000 25.6906
#
#
#
# Elastic Compliance Matrix: (Units=1/GPa)
#
#
# Indices 1 2 3 4 5 6 
#
# 1 0.008747 -0.002494 -0.003351 0.000000 -0.003566 0.000000
# 2 -0.002494 0.043767 -0.005734 0.000000 0.005960 0.000000
# 3 -0.003351 -0.005734 0.016779 0.000000 -0.002261 0.000000
# 4 0.000000 0.000000 0.000000 0.038237 0.000000 -0.004324
# 5 -0.003566 0.005960 -0.002261 0.000000 0.026263 0.000000
# 6 0.000000 0.000000 0.000000 -0.004324 0.000000 0.039414
#
#
# Mechanical properties :
#
#
# Convention : Reuss Voigt Hill
#
# Bulk Modulus (GPa) = 21.67606 37.76269 29.71937
# Shear Modulus (GPa) = 23.61359 30.93184 27.27271
#
# Velocity S-wave (km/s) = 3.32641 3.80713 3.57486
# Velocity P-wave (km/s) = 4.99103 6.08446 5.56467
#
# Compressibility (1/GPa) = 0.04613384
#
# Stress axis : x y z
#
# Youngs Moduli (GPa) = 114.32140 22.84847 59.59940
#
# Poissons Ratio (x) = 0.05697 0.19974
# Poissons Ratio (y) = 0.28507 0.34177
# Poissons Ratio (z) = 0.38313 0.13102
#
# Static dielectric constant tensor:
#      x y z
#    x 3.889500 0.000000 0.186420 
#    y 0.000000 3.457050 0.000000 
#    z 0.186420 0.000000 3.756550 
# 
# 
# High freq. dielectric constant tensor:
#      x y z
#    x 1.851280 0.000000 0.012410 
#    y 0.000000 1.806350 0.000000 
#    z 0.012410 0.000000 1.834090 
# 
# From -- ./inp_files/50399.got.cif
#   From: 2010.03.12/outbox.cif.g09.slc.cpg/sg5_26_cif.got.tgz:50399.got - 2010.03.31 09:47:26.
