data_PCOD8049278
_publ_section_title
;
Structure prediction by ZEFSAII (Michael W. Deem and Ramdas Pophale) SiO2 
 PCOD8049278
Probable space group: C 2
;
_chemical_formula_sum "Si O2"
_cell_formula_units_Z 32
_cell_length_a 14.812598
_cell_length_b 19.669230
_cell_length_c 8.680872
_cell_angle_alpha 90.000000
_cell_angle_beta 38.542696
_cell_angle_gamma 90.000000
_cell_volume 1575.934136
_symmetry_space_group_name_H-M "C 2"
_symmetry_group_IT_number 5
_symmetry_cell_setting 'monoclinic'
loop_
_space_group_symop_operation_xyz
x,y,z
-x,y,-z
1/2+x,1/2+y,z
1/2-x,1/2+y,-z
loop_
_atom_site_type_symbol
_atom_site_label
_atom_site_fract_x
_atom_site_fract_y
_atom_site_fract_z
Si Si1 0.107231 0.475170 0.076971
Si Si2 0.332456 0.729068 0.761698
Si Si3 0.857092 0.744215 0.267792
Si Si4 0.838687 0.627831 0.511891
Si Si5 0.590991 0.372592 0.610067
Si Si6 0.797044 0.493884 0.395129
Si Si7 0.213302 0.849285 0.118860
Si Si8 0.674501 0.110564 0.121437
O O1 0.157318 0.499683 0.842513
O O2 0.157210 0.402284 0.067884
O O3 0.181949 0.529388 0.091650
O O4 0.933159 0.468338 0.315784
O O5 0.500000 0.732932 0.500000
O O6 0.265065 0.754485 0.694237
O O7 0.272322 0.777385 0.978724
O O8 0.286387 0.651965 0.865018
O O9 0.794325 0.697734 0.488703
O O10 0.896955 0.818674 0.271550
O O11 0.000000 0.710324 0.000000
O O12 0.763053 0.568022 0.511865
O O13 0.781250 0.627067 0.762462
O O14 0.012466 0.628915 0.286072
O O15 0.658976 0.443172 0.584397
O O16 0.674307 0.342469 0.350698
O O17 0.422062 0.380497 0.794496
#
# Coordination Sequence:
#
# PCOD8049278 Si02
#       8
#     4   4   4   4   4   4   4   4
#     4   9  19  36  61  86 126 161 197 242 300 364
#     4  12  26  41  60  90 125 162 201 253 305 359
#     4  12  22  39  64  90 116 158 206 251 300 358
#     4  10  20  37  67  91 117 156 207 252 297 361
#     4  10  21  39  64  91 120 156 204 249 300 361
#     4   9  19  35  61  92 118 159 202 248 295 357
#     4  10  21  41  61  89 123 162 197 246 307 360
#     4  10  20  40  61  92 120 158 204 250 302 357
#
# _framework density 20.305418
#
# number of rings (size 3 to 8) (size 9 to 14) (size 15 to 20)
#    0.000    1.750    2.500    1.500    3.500    3.000 
#    9.000    1.875    0.000    0.000    0.000    0.000 
#    0.000    0.000    0.000    0.000    0.000    0.000 
#
# Total GULP energy -198334.513501 kJ/mol
# GULP energy per Si atom -12395.907094 kJ/mol
# Density = 2.025920 g / cm^3
# Si number density = 20.305418 Si / 1000 Ang^3
#
#
#
# Elastic Constant Matrix: (Units=GPa)
#
#
# Indices 1 2 3 4 5 6 
#
# 1 93.1545 30.4251 29.3720 0.0003 3.1396 0.0000
# 2 30.4251 70.1520 16.4456 0.0000 -2.0446 0.0000
# 3 29.3720 16.4456 59.0776 0.0004 -11.1383 0.0002
# 4 0.0003 0.0000 0.0004 36.3534 -0.0003 8.6142
# 5 3.1396 -2.0446 -11.1383 -0.0003 32.2024 -0.0001
# 6 0.0000 0.0000 0.0002 8.6142 -0.0001 44.8316
#
#
#
# Elastic Compliance Matrix: (Units=1/GPa)
#
#
# Indices 1 2 3 4 5 6 
#
# 1 0.014556 -0.004874 -0.006639 0.000000 -0.004025 0.000000
# 2 -0.004874 0.016891 -0.002126 0.000000 0.000812 0.000000
# 3 -0.006639 -0.002126 0.022375 0.000000 0.008251 0.000000
# 4 0.000000 0.000000 0.000000 0.028820 0.000000 -0.005538
# 5 -0.004025 0.000812 0.008251 0.000000 0.034352 0.000000
# 6 0.000000 0.000000 0.000000 -0.005538 0.000000 0.023370
#
#
# Mechanical properties :
#
#
# Convention : Reuss Voigt Hill
#
# Bulk Modulus (GPa) = 37.67223 41.65218 39.66221
# Shear Modulus (GPa) = 28.33073 32.42022 30.37547
#
# Velocity S-wave (km/s) = 3.73933 4.00012 3.87192
# Velocity P-wave (km/s) = 6.10217 6.47240 6.29001
#
# Compressibility (1/GPa) = 0.02654475
#
# Stress axis : x y z
#
# Youngs Moduli (GPa) = 68.70223 59.20484 44.69289
#
# Poissons Ratio (x) = 0.28855 0.29671
# Poissons Ratio (y) = 0.33484 0.09500
# Poissons Ratio (z) = 0.45610 0.12584
#
# Static dielectric constant tensor:
#      x y z
#    x 3.598160 0.000000 0.163230 
#    y 0.000000 3.618010 0.000000 
#    z 0.163230 0.000000 3.453990 
# 
# 
# High freq. dielectric constant tensor:
#      x y z
#    x 1.800190 0.000000 0.013830 
#    y 0.000000 1.792970 0.000000 
#    z 0.013830 0.000000 1.771190 
# 
# From -- ./inp_files/25408.got.cif
#   From: 2010.03.12/outbox.cif.g09.slc.cpg/sg5_13_cif.got.tgz:25408.got - 2010.03.31 09:47:26.
