data_PCOD8049707
_publ_section_title
;
Structure prediction by ZEFSAII (Michael W. Deem and Ramdas Pophale) SiO2 
 PCOD8049707
Probable space group: C 2
;
_chemical_formula_sum "Si O2"
_cell_formula_units_Z 32
_cell_length_a 15.141177
_cell_length_b 11.167424
_cell_length_c 17.154839
_cell_angle_alpha 90.000000
_cell_angle_beta 146.762386
_cell_angle_gamma 90.000000
_cell_volume 1589.896819
_symmetry_space_group_name_H-M "C 2"
_symmetry_group_IT_number 5
_symmetry_cell_setting 'monoclinic'
loop_
_space_group_symop_operation_xyz
x,y,z
-x,y,-z
1/2+x,1/2+y,z
1/2-x,1/2+y,-z
loop_
_atom_site_type_symbol
_atom_site_label
_atom_site_fract_x
_atom_site_fract_y
_atom_site_fract_z
Si Si1 0.519779 0.581730 0.100742
Si Si2 0.825922 0.512348 0.403388
Si Si3 0.978314 0.320081 0.142110
Si Si4 0.252697 0.498093 0.326062
Si Si5 0.987185 0.983510 0.360136
Si Si6 0.614729 0.393585 0.880878
Si Si7 0.829378 0.176779 0.587599
Si Si8 0.189962 0.760734 0.335694
O O1 0.709222 0.570396 0.253825
O O2 0.468170 0.721291 0.066071
O O3 0.420036 0.512555 0.094185
O O4 0.500000 0.528851 0.000000
O O5 0.781835 0.575901 0.452839
O O6 0.804283 0.369490 0.392307
O O7 0.000000 0.545914 0.500000
O O8 0.078024 0.437067 0.190651
O O9 0.072205 0.263024 0.283656
O O10 0.798662 0.359738 0.031256
O O11 0.332564 0.485189 0.300974
O O12 0.360325 0.436460 0.474696
O O13 0.237044 0.639431 0.327741
O O14 0.034582 0.115279 0.365660
O O15 0.936172 0.907241 0.247084
O O16 0.495972 0.289073 0.823599
O O17 0.710212 0.251399 0.444222
#
# Coordination Sequence:
#
# PCOD8049707 Si02
#       8
#     4   4   4   4   4   4   4   4
#     4  10  24  46  58  90 127 163 209 254 306 365
#     4  10  22  41  64  94 121 160 206 258 308 362
#     4  11  24  40  64  92 125 167 208 250 310 370
#     4  10  24  38  64  98 120 162 204 254 311 374
#     4  10  20  44  62  89 128 155 203 258 308 363
#     4  11  23  43  65  87 127 169 201 260 304 371
#     4  10  21  42  63  93 125 160 207 256 307 376
#     4  10  22  40  65  93 125 159 207 254 312 368
#
# _framework density 20.127092999999999
#
# number of rings (size 3 to 8) (size 9 to 14) (size 15 to 20)
#    0.000    1.750    3.750    0.750    8.750    2.000 
#   13.500    0.000    0.000    0.000    0.000    0.000 
#    0.000    0.000    0.000    0.000    0.000    0.000 
#
# Total GULP energy -198301.065692 kJ/mol
# GULP energy per Si atom -12393.816606 kJ/mol
# Density = 2.008128 g / cm^3
# Si number density = 20.127093 Si / 1000 Ang^3
#
#
#
# Elastic Constant Matrix: (Units=GPa)
#
#
# Indices 1 2 3 4 5 6 
#
# 1 100.1027 18.7194 50.6106 0.0000 5.6190 0.0000
# 2 18.7194 69.5282 35.2867 0.0000 10.6018 0.0000
# 3 50.6106 35.2867 91.0288 0.0001 28.8988 0.0000
# 4 0.0000 0.0000 0.0001 23.7201 0.0000 2.2992
# 5 5.6190 10.6018 28.8988 0.0000 40.9580 0.0000
# 6 0.0000 0.0000 0.0000 2.2992 0.0000 8.2739
#
#
#
# Elastic Compliance Matrix: (Units=1/GPa)
#
#
# Indices 1 2 3 4 5 6 
#
# 1 0.014597 0.000287 -0.009752 0.000000 0.004804 0.000000
# 2 0.000287 0.017915 -0.007241 0.000000 0.000433 0.000000
# 3 -0.009752 -0.007241 0.023447 0.000000 -0.013331 0.000000
# 4 0.000000 0.000000 0.000000 0.043325 0.000000 -0.012040
# 5 0.004804 0.000433 -0.013331 0.000000 0.033050 0.000000
# 6 0.000000 0.000000 0.000000 -0.012040 0.000000 0.124208
#
#
# Mechanical properties :
#
#
# Convention : Reuss Voigt Hill
#
# Bulk Modulus (GPa) = 44.35526 52.21035 48.28281
# Shear Modulus (GPa) = 16.80846 24.99327 20.90086
#
# Velocity S-wave (km/s) = 2.89297 3.52770 3.22599
# Velocity P-wave (km/s) = 5.76580 6.52607 6.15768
#
# Compressibility (1/GPa) = 0.02254524
#
# Stress axis : x y z
#
# Youngs Moduli (GPa) = 68.50772 55.82066 42.65000
#
# Poissons Ratio (x) = -0.01601 0.41592
# Poissons Ratio (y) = -0.01964 0.30884
# Poissons Ratio (z) = 0.66808 0.40421
#
# Static dielectric constant tensor:
#      x y z
#    x 3.612800 0.000000 -0.074950 
#    y 0.000000 3.599870 0.000000 
#    z -0.074950 0.000000 3.719730 
# 
# 
# High freq. dielectric constant tensor:
#      x y z
#    x 1.786180 0.000000 -0.000790 
#    y 0.000000 1.784060 0.000000 
#    z -0.000790 0.000000 1.783780 
# 
# From -- ./inp_files/61708.got.cif
#   From: 2010.03.12/outbox.cif.g09.slc.cpg/sg5_31_cif.got.tgz:61708.got - 2010.03.31 09:47:26.
