data_PCOD8049060
_publ_section_title
;
Structure prediction by ZEFSAII (Michael W. Deem and Ramdas Pophale) SiO2 
 PCOD8049060
Probable space group: C 2
;
_chemical_formula_sum "Si O2"
_cell_formula_units_Z 32
_cell_length_a 13.573144
_cell_length_b 16.026860
_cell_length_c 8.891885
_cell_angle_alpha 90.000000
_cell_angle_beta 119.952697
_cell_angle_gamma 90.000000
_cell_volume 1675.946616
_symmetry_space_group_name_H-M "C 2"
_symmetry_group_IT_number 5
_symmetry_cell_setting 'monoclinic'
loop_
_space_group_symop_operation_xyz
x,y,z
-x,y,-z
1/2+x,1/2+y,z
1/2-x,1/2+y,-z
loop_
_atom_site_type_symbol
_atom_site_label
_atom_site_fract_x
_atom_site_fract_y
_atom_site_fract_z
Si Si1 0.114677 0.472630 0.164941
Si Si2 0.242011 0.124784 0.836038
Si Si3 0.382190 0.224653 0.176125
Si Si4 0.493233 0.552091 0.316081
Si Si5 0.030161 0.868229 0.347355
Si Si6 0.744858 0.313004 0.648335
Si Si7 0.795296 0.158692 0.534882
Si Si8 0.058011 0.582065 0.396842
O O1 0.175786 0.544698 0.114873
O O2 0.194082 0.391815 0.231045
O O3 0.083095 0.505989 0.305063
O O4 0.000000 0.443167 0.000000
O O5 0.124221 0.095500 0.824134
O O6 0.217525 0.162810 0.654290
O O7 0.297266 0.197624 0.978436
O O8 0.461914 0.302873 0.190404
O O9 0.313451 0.255809 0.268676
O O10 0.466764 0.148082 0.267388
O O11 0.500000 0.547895 0.500000
O O12 0.500552 0.458543 0.257237
O O13 0.601653 0.600293 0.333831
O O14 0.163585 0.847545 0.452693
O O15 0.000000 0.859977 0.500000
O O16 0.828065 0.250253 0.622473
O O17 0.677585 0.127988 0.521449
O O18 0.000000 0.542167 0.500000
#
# Coordination Sequence:
#
# PCOD8049060 Si02
#       8
#     4   4   4   4   4   4   4   4
#     4  11  23  38  60  91 129 160 203 258 321 376
#     4  10  21  37  60  89 118 160 201 255 319 369
#     4  11  19  34  63  90 118 149 203 259 299 362
#     4   9  18  36  58  83 117 159 199 245 305 376
#     4   9  16  32  57  84 108 145 198 241 287 351
#     4  11  21  36  58  90 119 157 205 251 297 371
#     4  10  20  35  61  86 116 158 212 251 304 368
#     4  11  19  38  62  91 116 162 210 257 300 366
#
# _framework density 19.093688
#
# number of rings (size 3 to 8) (size 9 to 14) (size 15 to 20)
#    0.000    1.750    3.750    4.125    0.000    1.000 
#    0.000    3.125    0.000    1.500    0.000    0.000 
#    0.000    0.000    0.000    0.000    0.000    0.000 
#
# Total GULP energy -198292.569922 kJ/mol
# GULP energy per Si atom -12393.285620 kJ/mol
# Density = 1.905023 g / cm^3
# Si number density = 19.093688 Si / 1000 Ang^3
#
#
#
# Elastic Constant Matrix: (Units=GPa)
#
#
# Indices 1 2 3 4 5 6 
#
# 1 87.1787 35.4531 39.4164 0.0000 10.9392 0.0000
# 2 35.4531 112.7027 46.6791 0.0000 11.7358 0.0000
# 3 39.4164 46.6791 68.2031 0.0000 26.0602 0.0000
# 4 0.0000 0.0000 0.0000 37.2877 0.0000 5.2173
# 5 10.9392 11.7358 26.0602 0.0000 25.0406 0.0000
# 6 0.0000 0.0000 0.0000 5.2173 0.0000 22.3376
#
#
#
# Elastic Compliance Matrix: (Units=1/GPa)
#
#
# Indices 1 2 3 4 5 6 
#
# 1 0.015954 -0.001388 -0.009722 0.000000 0.003798 0.000000
# 2 -0.001388 0.012894 -0.009871 0.000000 0.004836 0.000000
# 3 -0.009722 -0.009871 0.039256 0.000000 -0.031981 0.000000
# 4 0.000000 0.000000 0.000000 0.027725 0.000000 -0.006475
# 5 0.003798 0.004836 -0.031981 0.000000 0.069293 0.000000
# 6 0.000000 0.000000 0.000000 -0.006475 0.000000 0.046280
#
#
# Mechanical properties :
#
#
# Convention : Reuss Voigt Hill
#
# Bulk Modulus (GPa) = 38.24971 56.79799 47.52385
# Shear Modulus (GPa) = 19.07838 26.70224 22.89031
#
# Velocity S-wave (km/s) = 3.16444 3.74369 3.46619
# Velocity P-wave (km/s) = 5.78167 6.96409 6.40024
#
# Compressibility (1/GPa) = 0.02614399
#
# Stress axis : x y z
#
# Youngs Moduli (GPa) = 62.68042 77.55493 25.47364
#
# Poissons Ratio (x) = 0.10761 0.24765
# Poissons Ratio (y) = 0.08697 0.25144
# Poissons Ratio (z) = 0.60937 0.76552
#
# Static dielectric constant tensor:
#      x y z
#    x 3.638020 0.000000 0.236690 
#    y 0.000000 3.553840 0.000000 
#    z 0.236690 0.000000 3.268310 
# 
# 
# High freq. dielectric constant tensor:
#      x y z
#    x 1.740520 0.000000 0.020540 
#    y 0.000000 1.744870 0.000000 
#    z 0.020540 0.000000 1.714160 
# 
# From -- ./inp_files/24645.got.cif
#   From: 2010.03.12/outbox.cif.g09.slc.cpg/sg5_13_cif.got.tgz:24645.got - 2010.03.31 09:47:26.
