data_PCOD8049161
_publ_section_title
;
Structure prediction by ZEFSAII (Michael W. Deem and Ramdas Pophale) SiO2 
 PCOD8049161
Probable space group: C 2
;
_chemical_formula_sum "Si O2"
_cell_formula_units_Z 18
_cell_length_a 23.616073
_cell_length_b 7.729272
_cell_length_c 7.298074
_cell_angle_alpha 90.000000
_cell_angle_beta 138.244974
_cell_angle_gamma 90.000000
_cell_volume 887.144314
_symmetry_space_group_name_H-M "C 2"
_symmetry_group_IT_number 5
_symmetry_cell_setting 'monoclinic'
loop_
_space_group_symop_operation_xyz
x,y,z
-x,y,-z
1/2+x,1/2+y,z
1/2-x,1/2+y,-z
loop_
_atom_site_type_symbol
_atom_site_label
_atom_site_fract_x
_atom_site_fract_y
_atom_site_fract_z
Si Si1 0.153966 0.381920 0.915561
Si Si2 0.413990 0.041541 0.882732
Si Si3 0.000000 0.155371 0.500000
Si Si4 0.676322 0.165578 0.666421
Si Si5 0.503656 0.325664 0.309824
O O1 0.175901 0.548999 0.847963
O O2 0.080306 0.271865 0.639635
O O3 0.119759 0.425733 0.034335
O O4 0.235579 0.262797 0.134470
O O5 0.338598 0.048673 0.550809
O O6 0.500000 0.960359 0.000000
O O7 0.437956 0.234297 0.014094
O O8 0.019791 0.029193 0.722795
O O9 0.600846 0.306092 0.479799
O O10 0.500000 0.230136 0.500000
#
# Coordination Sequence:
#
# PCOD8049161 Si02
#       5
#     4   4   2   4   4
#     4  12  23  41  62  91 127 160 210 251 306 361
#     4  10  22  41  65  88 123 165 204 251 305 368
#     4  10  20  36  66  84 120 166 196 248 302 364
#     4  11  24  39  64  92 123 166 199 260 304 358
#     4   9  18  40  64  88 121 157 200 243 309 362
#
# _framework density 20.289822000000001
#
# number of rings (size 3 to 8) (size 9 to 14) (size 15 to 20)
#    0.667    0.889    2.222    4.000    0.000    3.556 
#    0.000   12.222    0.000    0.000    0.000    0.000 
#    0.000    0.000    0.000    0.000    0.000    0.000 
#
# Total GULP energy -111543.720264 kJ/mol
# GULP energy per Si atom -12393.746696 kJ/mol
# Density = 2.024364 g / cm^3
# Si number density = 20.289822 Si / 1000 Ang^3
#
#
#
# Elastic Constant Matrix: (Units=GPa)
#
#
# Indices 1 2 3 4 5 6 
#
# 1 129.9453 51.5054 44.0521 0.0000 -2.7619 0.0000
# 2 51.5054 80.6681 25.0455 0.0000 15.9111 0.0000
# 3 44.0521 25.0455 98.0128 0.0000 12.7223 0.0000
# 4 0.0000 0.0000 0.0000 27.6380 0.0000 3.7935
# 5 -2.7619 15.9111 12.7223 0.0000 37.8792 0.0000
# 6 0.0000 0.0000 0.0000 3.7935 0.0000 29.2646
#
#
#
# Elastic Compliance Matrix: (Units=1/GPa)
#
#
# Indices 1 2 3 4 5 6 
#
# 1 0.012281 -0.007598 -0.004296 0.000000 0.005530 0.000000
# 2 -0.007598 0.019019 -0.000351 0.000000 -0.008425 0.000000
# 3 -0.004296 -0.000351 0.012803 0.000000 -0.004466 0.000000
# 4 0.000000 0.000000 0.000000 0.036837 0.000000 -0.004775
# 5 0.005530 -0.008425 -0.004466 0.000000 0.031842 0.000000
# 6 0.000000 0.000000 0.000000 -0.004775 0.000000 0.034790
#
#
# Mechanical properties :
#
#
# Convention : Reuss Voigt Hill
#
# Bulk Modulus (GPa) = 50.98981 61.09246 56.04114
# Shear Modulus (GPa) = 27.99552 31.49125 29.74338
#
# Velocity S-wave (km/s) = 3.71857 3.94391 3.83290
# Velocity P-wave (km/s) = 6.60472 7.13544 6.87520
#
# Compressibility (1/GPa) = 0.01961176
#
# Stress axis : x y z
#
# Youngs Moduli (GPa) = 81.42595 52.58001 78.10665
#
# Poissons Ratio (x) = 0.39952 0.33554
# Poissons Ratio (y) = 0.61869 0.02744
# Poissons Ratio (z) = 0.34980 0.01847
#
# Static dielectric constant tensor:
#      x y z
#    x 3.863580 0.000000 -0.059190 
#    y 0.000000 3.428420 0.000000 
#    z -0.059190 0.000000 3.615850 
# 
# 
# High freq. dielectric constant tensor:
#      x y z
#    x 1.803200 0.000000 -0.000160 
#    y 0.000000 1.774110 0.000000 
#    z -0.000160 0.000000 1.786220 
# 
# From -- ./inp_files/31591.got.cif
#   From: 2010.03.12/outbox.cif.g09.slc.cpg/sg5_16_cif.got.tgz:31591.got - 2010.03.31 09:47:26.
