data_PCOD8049455
_publ_section_title
;
Structure prediction by ZEFSAII (Michael W. Deem and Ramdas Pophale) SiO2 
 PCOD8049455
Probable space group: C 2
;
_chemical_formula_sum "Si O2"
_cell_formula_units_Z 26
_cell_length_a 9.313081
_cell_length_b 19.927223
_cell_length_c 8.571228
_cell_angle_alpha 90.000000
_cell_angle_beta 50.481936
_cell_angle_gamma 90.000000
_cell_volume 1227.089833
_symmetry_space_group_name_H-M "C 2"
_symmetry_group_IT_number 5
_symmetry_cell_setting 'monoclinic'
loop_
_space_group_symop_operation_xyz
x,y,z
-x,y,-z
1/2+x,1/2+y,z
1/2-x,1/2+y,-z
loop_
_atom_site_type_symbol
_atom_site_label
_atom_site_fract_x
_atom_site_fract_y
_atom_site_fract_z
Si Si1 0.556851 0.655430 0.290588
Si Si2 0.237053 0.025828 0.070170
Si Si3 0.157744 0.745758 0.772300
Si Si4 0.157998 0.640176 0.519584
Si Si5 0.208925 0.380825 0.404103
Si Si6 0.855391 0.499675 0.326319
Si Si7 0.500000 0.450111 0.000000
O O1 0.500000 0.624526 0.500000
O O2 0.699154 0.605754 0.103044
O O3 0.661703 0.725904 0.247905
O O4 0.364029 0.667764 0.326689
O O5 0.248821 0.998071 0.236785
O O6 0.060770 0.994037 0.106272
O O7 0.422980 0.007750 0.847863
O O8 0.091500 0.680941 0.718850
O O9 0.206046 0.806827 0.620083
O O10 0.000000 0.769135 0.000000
O O11 0.196614 0.561978 0.527579
O O12 0.000000 0.650335 0.500000
O O13 0.211771 0.430564 0.549041
O O14 0.323834 0.407294 0.176280
O O15 0.000000 0.371108 0.500000
#
# Coordination Sequence:
#
# PCOD8049455 Si02
#       7
#     4   4   4   4   4   4   2
#     4  10  20  39  67  96 130 179 220 275 342 399
#     4  11  23  41  65 104 133 176 229 277 345 399
#     4  11  23  46  69  94 133 186 230 276 346 412
#     4  11  23  40  66 102 133 177 227 282 339 397
#     4  12  24  45  67 100 138 180 228 280 341 410
#     4  11  23  42  69  97 141 176 220 289 338 408
#     4  12  26  40  68 102 130 176 228 286 338 406
#
# _framework density 21.188343
#
# number of rings (size 3 to 8) (size 9 to 14) (size 15 to 20)
#    0.000    0.923    5.385    3.692    2.154    0.000 
#    2.769    0.000    0.000    0.000    0.000    0.000 
#    0.000    0.000    0.000    0.000    0.000    0.000 
#
# Total GULP energy -161130.412099 kJ/mol
# GULP energy per Si atom -12394.647085 kJ/mol
# Density = 2.114012 g / cm^3
# Si number density = 21.188343 Si / 1000 Ang^3
#
#
#
# Elastic Constant Matrix: (Units=GPa)
#
#
# Indices 1 2 3 4 5 6 
#
# 1 149.6051 42.5160 35.1230 0.0000 -10.1579 0.0000
# 2 42.5160 128.4930 47.0793 0.0000 -4.8104 0.0000
# 3 35.1230 47.0793 104.0130 0.0000 -18.5100 0.0000
# 4 0.0000 0.0000 0.0000 40.7768 0.0000 -1.7227
# 5 -10.1579 -4.8104 -18.5100 0.0000 23.3654 0.0000
# 6 0.0000 0.0000 0.0000 -1.7227 0.0000 21.8702
#
#
#
# Elastic Compliance Matrix: (Units=1/GPa)
#
#
# Indices 1 2 3 4 5 6 
#
# 1 0.007693 -0.001972 -0.001376 0.000000 0.001848 0.000000
# 2 -0.001972 0.009891 -0.004192 0.000000 -0.002142 0.000000
# 3 -0.001376 -0.004192 0.013639 0.000000 0.009344 0.000000
# 4 0.000000 0.000000 0.000000 0.024606 0.000000 0.001938
# 5 0.001848 -0.002142 0.009344 0.000000 0.050563 0.000000
# 6 0.000000 0.000000 0.000000 0.001938 0.000000 0.045877
#
#
# Mechanical properties :
#
#
# Convention : Reuss Voigt Hill
#
# Bulk Modulus (GPa) = 61.94941 70.17196 66.06069
# Shear Modulus (GPa) = 28.94680 34.36200 31.65440
#
# Velocity S-wave (km/s) = 3.70018 4.03145 3.86936
# Velocity P-wave (km/s) = 6.89609 7.40677 7.15599
#
# Compressibility (1/GPa) = 0.01614220
#
# Stress axis : x y z
#
# Youngs Moduli (GPa) = 129.98278 101.10355 73.31816
#
# Poissons Ratio (x) = 0.19939 0.10091
# Poissons Ratio (y) = 0.25634 0.30736
# Poissons Ratio (z) = 0.17890 0.42384
#
# Static dielectric constant tensor:
#      x y z
#    x 3.895890 0.000000 -0.271060 
#    y 0.000000 3.815670 0.000000 
#    z -0.271060 0.000000 3.862390 
# 
# 
# High freq. dielectric constant tensor:
#      x y z
#    x 1.824060 0.000000 -0.027640 
#    y 0.000000 1.822060 0.000000 
#    z -0.027640 0.000000 1.831180 
# 
# From -- ./inp_files/16764.got.cif
#   From: 2010.03.12/outbox.cif.g09.slc.cpg/sg5_9_cif.got.tgz:16764.got - 2010.03.31 09:47:26.
