data_PCOD8049057
_publ_section_title
;
Structure prediction by ZEFSAII (Michael W. Deem and Ramdas Pophale) SiO2 
 PCOD8049057
Probable space group: C 2
;
_chemical_formula_sum "Si O2"
_cell_formula_units_Z 32
_cell_length_a 29.867261
_cell_length_b 6.797768
_cell_length_c 8.385387
_cell_angle_alpha 90.000000
_cell_angle_beta 77.454447
_cell_angle_gamma 90.000000
_cell_volume 1661.841758
_symmetry_space_group_name_H-M "C 2"
_symmetry_group_IT_number 5
_symmetry_cell_setting 'monoclinic'
loop_
_space_group_symop_operation_xyz
x,y,z
-x,y,-z
1/2+x,1/2+y,z
1/2-x,1/2+y,-z
loop_
_atom_site_type_symbol
_atom_site_label
_atom_site_fract_x
_atom_site_fract_y
_atom_site_fract_z
Si Si1 0.795004 0.166990 0.095036
Si Si2 0.703645 0.968543 0.177621
Si Si3 0.650542 0.275622 0.002882
Si Si4 0.042415 0.385121 0.083493
Si Si5 0.070224 0.718916 0.280314
Si Si6 0.880769 0.407221 0.552277
Si Si7 0.367466 0.939963 0.192764
Si Si8 0.043807 0.131460 0.371197
O O1 0.822964 0.303324 0.195678
O O2 0.748404 0.082092 0.211224
O O3 0.781757 0.282500 0.942962
O O4 0.825095 0.980957 0.027420
O O5 0.671970 0.890939 0.346950
O O6 0.675811 0.117662 0.091702
O O7 0.602546 0.321072 0.124000
O O8 0.644357 0.169175 0.834960
O O9 0.037918 0.565735 0.211632
O O10 0.039079 0.187032 0.188993
O O11 0.090920 0.378304 0.955344
O O12 0.000000 0.400538 0.000000
O O13 0.097381 0.607149 0.398708
O O14 0.042673 0.894941 0.384910
O O15 0.882538 0.413806 0.361387
O O16 0.909318 0.218794 0.590763
O O17 0.000000 0.215242 0.500000
#
# Coordination Sequence:
#
# PCOD8049057 Si02
#       8
#     4   4   4   4   4   4   4   4
#     4  11  19  36  58  84 110 147 194 237 279 342
#     4  10  20  35  60  83 107 150 194 231 288 332
#     4   9  18  36  58  80 107 145 191 230 278 338
#     4  10  21  39  60  85 116 153 187 234 280 338
#     4   9  20  37  59  83 112 150 191 231 278 334
#     4  10  22  41  56  83 121 154 184 236 285 337
#     4  10  22  37  56  83 118 152 187 230 291 334
#     4  11  22  37  61  89 112 149 195 233 279 335
#
# _framework density 19.255745999999998
#
# number of rings (size 3 to 8) (size 9 to 14) (size 15 to 20)
#    0.000    2.000    1.250    4.500    0.000    4.500 
#    2.250    2.500    0.000    0.000    0.000    0.000 
#    0.000    0.000    0.000    0.000    0.000    0.000 
#
# Total GULP energy -198366.875371 kJ/mol
# GULP energy per Si atom -12397.929711 kJ/mol
# Density = 1.921192 g / cm^3
# Si number density = 19.255746 Si / 1000 Ang^3
#
#
#
# Elastic Constant Matrix: (Units=GPa)
#
#
# Indices 1 2 3 4 5 6 
#
# 1 103.6414 32.4564 36.1529 0.0000 0.1972 0.0000
# 2 32.4564 92.6833 34.0999 0.0000 -7.2637 0.0000
# 3 36.1529 34.0999 102.5400 0.0000 5.7932 0.0000
# 4 0.0000 0.0000 0.0000 17.3235 0.0000 -6.7644
# 5 0.1972 -7.2637 5.7932 0.0000 19.6859 0.0000
# 6 0.0000 0.0000 0.0000 -6.7644 0.0000 27.0511
#
#
#
# Elastic Compliance Matrix: (Units=1/GPa)
#
#
# Indices 1 2 3 4 5 6 
#
# 1 0.011662 -0.002963 -0.003110 0.000000 -0.000295 0.000000
# 2 -0.002963 0.013743 -0.003878 0.000000 0.006242 0.000000
# 3 -0.003110 -0.003878 0.012424 0.000000 -0.005056 0.000000
# 4 0.000000 0.000000 0.000000 0.063971 0.000000 0.015997
# 5 -0.000295 0.006242 -0.005056 0.000000 0.054592 0.000000
# 6 0.000000 0.000000 0.000000 0.015997 0.000000 0.040967
#
#
# Mechanical properties :
#
#
# Convention : Reuss Voigt Hill
#
# Bulk Modulus (GPa) = 55.78085 56.03145 55.90615
# Shear Modulus (GPa) = 22.39775 25.88912 24.14344
#
# Velocity S-wave (km/s) = 3.41423 3.67070 3.54479
# Velocity P-wave (km/s) = 6.67637 6.86492 6.77130
#
# Compressibility (1/GPa) = 0.01792730
#
# Stress axis : x y z
#
# Youngs Moduli (GPa) = 85.75008 72.76400 80.48884
#
# Poissons Ratio (x) = 0.21559 0.25030
# Poissons Ratio (y) = 0.25406 0.31216
# Poissons Ratio (z) = 0.26666 0.28220
#
# Static dielectric constant tensor:
#      x y z
#    x 3.638730 0.000000 -0.094220 
#    y 0.000000 3.675190 0.000000 
#    z -0.094220 0.000000 3.406410 
# 
# 
# High freq. dielectric constant tensor:
#      x y z
#    x 1.754130 0.000000 -0.007740 
#    y 0.000000 1.754240 0.000000 
#    z -0.007740 0.000000 1.730920 
# 
# From -- ./inp_files/32275.got.cif
#   From: 2010.03.12/outbox.cif.g09.slc.cpg/sg5_17_cif.got.tgz:32275.got - 2010.03.31 09:47:26.
