data_PCOD8049843
_publ_section_title
;
Structure prediction by ZEFSAII (Michael W. Deem and Ramdas Pophale) SiO2 
 PCOD8049843
Probable space group: C 2
;
_chemical_formula_sum "Si O2"
_cell_formula_units_Z 30
_cell_length_a 12.762073
_cell_length_b 17.762051
_cell_length_c 11.934201
_cell_angle_alpha 90.000000
_cell_angle_beta 34.176706
_cell_angle_gamma 90.000000
_cell_volume 1519.667256
_symmetry_space_group_name_H-M "C 2"
_symmetry_group_IT_number 5
_symmetry_cell_setting 'monoclinic'
loop_
_space_group_symop_operation_xyz
x,y,z
-x,y,-z
1/2+x,1/2+y,z
1/2-x,1/2+y,-z
loop_
_atom_site_type_symbol
_atom_site_label
_atom_site_fract_x
_atom_site_fract_y
_atom_site_fract_z
Si Si1 0.819464 0.741360 0.429974
Si Si2 0.460774 0.518632 0.838823
Si Si3 0.272174 0.901364 0.587432
Si Si4 0.300721 0.240019 0.012076
Si Si5 0.500000 0.191229 0.500000
Si Si6 0.346551 0.657583 0.066304
Si Si7 0.476088 0.640349 0.647860
Si Si8 0.797225 0.400952 0.822161
O O1 0.765596 0.827387 0.452698
O O2 0.897557 0.738490 0.489936
O O3 0.650242 0.683776 0.553955
O O4 0.982315 0.721069 0.196752
O O5 0.652520 0.472983 0.654019
O O6 0.426469 0.562267 0.753016
O O7 0.459536 0.581696 0.935997
O O8 0.291156 0.465285 0.023373
O O9 0.218133 0.890316 0.766090
O O10 0.486489 0.920814 0.378271
O O11 0.206771 0.194404 0.197095
O O12 0.258366 0.327207 0.061051
O O13 0.186862 0.211370 0.006764
O O14 0.656685 0.139377 0.302949
O O15 0.500000 0.704662 0.000000
O O16 0.500000 0.616664 0.500000
#
# Coordination Sequence:
#
# PCOD8049843 Si02
#       8
#     4   4   4   4   2   4   4   4
#     4  11  22  39  65  95 126 161 213 256 311 366
#     4  11  24  40  60  90 128 161 203 254 318 372
#     4  11  23  37  61  93 123 162 206 258 312 362
#     4  10  21  37  62  93 121 157 208 258 303 367
#     4  10  22  38  62  96 122 164 210 258 306 370
#     4  10  21  37  60  89 124 161 204 252 310 368
#     4  11  24  43  66  92 127 165 206 258 312 376
#     4  11  22  38  61  91 126 158 208 261 308 362
#
# _framework density 19.741164000000001
#
# number of rings (size 3 to 8) (size 9 to 14) (size 15 to 20)
#    0.000    1.333    2.667    3.600    0.000    6.933 
#    1.200    0.000    0.000    0.000    0.000    0.000 
#    0.000    0.000    0.000    0.000    0.000    0.000 
#
# Total GULP energy -185833.741851 kJ/mol
# GULP energy per Si atom -12388.916123 kJ/mol
# Density = 1.969623 g / cm^3
# Si number density = 19.741164 Si / 1000 Ang^3
#
#
#
# Elastic Constant Matrix: (Units=GPa)
#
#
# Indices 1 2 3 4 5 6 
#
# 1 81.3760 44.9810 31.2340 -0.0278 9.4104 -0.0058
# 2 44.9810 106.6749 35.7917 -0.0206 12.3042 0.0017
# 3 31.2340 35.7917 112.9702 -0.0294 11.5838 -0.0082
# 4 -0.0278 -0.0206 -0.0294 41.3205 0.0125 -7.0675
# 5 9.4104 12.3042 11.5838 0.0125 26.2184 -0.0004
# 6 -0.0058 0.0017 -0.0082 -7.0675 -0.0004 -6.5507
#
#
#
# Elastic Compliance Matrix: (Units=1/GPa)
#
#
# Indices 1 2 3 4 5 6 
#
# 1 0.016821 -0.006000 -0.002534 0.000004 -0.002102 -0.000018
# 2 -0.006000 0.012968 -0.002144 0.000003 -0.002985 0.000008
# 3 -0.002534 -0.002144 0.010511 0.000003 -0.002729 -0.000015
# 4 0.000004 0.000003 0.000003 0.020431 -0.000014 -0.022043
# 5 -0.002102 -0.002985 -0.002729 -0.000014 0.041502 0.000018
# 6 -0.000018 0.000008 -0.000015 -0.022043 0.000018 -0.128873
#
#
# Mechanical properties :
#
#
# Convention : Reuss Voigt Hill
#
# Bulk Modulus (GPa) = 52.78524 58.33718 55.56121
# Shear Modulus (GPa) = 4850.67450 24.79859 2437.73654
#
# Velocity S-wave (km/s) = 49.62329 3.54812 35.17855
# Velocity P-wave (km/s) = 57.53340 6.81181 40.96640
#
# Compressibility (1/GPa) = 0.01894469
#
# Stress axis : x y z
#
# Youngs Moduli (GPa) = 59.44967 77.11400 95.13437
#
# Poissons Ratio (x) = 0.46269 0.24109
# Poissons Ratio (y) = 0.35670 0.20392
# Poissons Ratio (z) = 0.15065 0.16530
#
# Static dielectric constant tensor:
#      x y z
#    x 3.632370 -0.000030 -0.046430 
#    y -0.000030 3.565720 0.000030 
#    z -0.046430 0.000030 4.357150 
# 
# 
# High freq. dielectric constant tensor:
#      x y z
#    x 1.762850 0.000000 -0.003110 
#    y 0.000000 1.756630 0.000000 
#    z -0.003110 0.000000 1.800110 
# 
# From -- ./inp_files/40440.got.cif
#   From: 2010.03.12/outbox.cif.g09.slc.cpg/sg5_21_cif.got.tgz:40440.got - 2010.03.31 09:47:26.
