data_PCOD8049583
_publ_section_title
;
Structure prediction by ZEFSAII (Michael W. Deem and Ramdas Pophale) SiO2 
 PCOD8049583
Probable space group: C 2
;
_chemical_formula_sum "Si O2"
_cell_formula_units_Z 32
_cell_length_a 10.949661
_cell_length_b 8.936466
_cell_length_c 28.235569
_cell_angle_alpha 90.000000
_cell_angle_beta 144.534276
_cell_angle_gamma 90.000000
_cell_volume 1603.070397
_symmetry_space_group_name_H-M "C 2"
_symmetry_group_IT_number 5
_symmetry_cell_setting 'monoclinic'
loop_
_space_group_symop_operation_xyz
x,y,z
-x,y,-z
1/2+x,1/2+y,z
1/2-x,1/2+y,-z
loop_
_atom_site_type_symbol
_atom_site_label
_atom_site_fract_x
_atom_site_fract_y
_atom_site_fract_z
Si Si1 0.306864 0.141530 0.162298
Si Si2 0.595945 0.811043 0.979667
Si Si3 0.856775 0.878183 0.717843
Si Si4 0.931062 0.572582 0.102812
Si Si5 0.184836 0.913704 0.528568
Si Si6 0.936134 0.449815 0.290369
Si Si7 0.082453 0.116911 0.727410
Si Si8 0.008715 0.169717 0.407367
O O1 0.438896 0.293683 0.197927
O O2 0.346602 0.033837 0.129280
O O3 0.063033 0.185290 0.090833
O O4 0.384191 0.068374 0.234590
O O5 0.632020 0.946606 0.954907
O O6 0.500000 0.866912 0.000000
O O7 0.823023 0.731220 0.055586
O O8 0.751276 0.948080 0.730964
O O9 0.695426 0.764728 0.640191
O O10 0.918734 0.009970 0.701934
O O11 0.181668 0.582710 0.181809
O O12 0.350399 0.996343 0.615378
O O13 0.295619 0.784186 0.533498
O O14 0.000000 0.834164 0.500000
O O15 0.070313 0.039001 0.461592
O O16 0.970180 0.288314 0.276595
O O17 0.052097 0.093998 0.661803
#
# Coordination Sequence:
#
# PCOD8049583 Si02
#       8
#     4   4   4   4   4   4   4   4
#     4  11  21  41  66  90 127 163 205 252 311 367
#     4  10  25  41  63  92 127 164 199 258 312 368
#     4  10  20  41  62  89 126 162 210 254 304 365
#     4  11  22  44  64  92 126 161 205 256 308 367
#     4  10  22  39  60  89 128 160 202 263 307 357
#     4  10  24  39  63  96 122 165 208 255 305 373
#     4  10  21  41  65  87 128 167 204 258 305 366
#     4  10  23  40  60  93 123 164 211 257 306 370
#
# _framework density 19.961694000000001
#
# number of rings (size 3 to 8) (size 9 to 14) (size 15 to 20)
#    0.000    2.000    3.750    0.750    1.750    7.000 
#    2.250    0.000    0.000    0.000    0.000    0.000 
#    0.000    0.000    0.000    0.000    0.000    0.000 
#
# Total GULP energy -198344.087875 kJ/mol
# GULP energy per Si atom -12396.505492 kJ/mol
# Density = 1.991626 g / cm^3
# Si number density = 19.961694 Si / 1000 Ang^3
#
#
#
# Elastic Constant Matrix: (Units=GPa)
#
#
# Indices 1 2 3 4 5 6 
#
# 1 88.9244 58.8880 43.3257 0.0000 4.9863 0.0000
# 2 58.8880 73.8557 34.6406 0.0000 -0.4747 0.0000
# 3 43.3257 34.6406 87.8341 0.0000 1.1678 0.0000
# 4 0.0000 0.0000 0.0000 37.1715 0.0000 -2.6487
# 5 4.9863 -0.4747 1.1678 0.0000 29.8975 0.0000
# 6 0.0000 0.0000 0.0000 -2.6487 0.0000 34.7222
#
#
#
# Elastic Compliance Matrix: (Units=1/GPa)
#
#
# Indices 1 2 3 4 5 6 
#
# 1 0.026548 -0.018506 -0.005737 0.000000 -0.004497 0.000000
# 2 -0.018506 0.029521 -0.002563 0.000000 0.003655 0.000000
# 3 -0.005737 -0.002563 0.015221 0.000000 0.000322 0.000000
# 4 0.000000 0.000000 0.000000 0.027049 0.000000 0.002063
# 5 -0.004497 0.003655 0.000322 0.000000 0.034243 0.000000
# 6 0.000000 0.000000 0.000000 0.002063 0.000000 0.028957
#
#
# Mechanical properties :
#
#
# Convention : Reuss Voigt Hill
#
# Bulk Modulus (GPa) = 56.56473 58.25810 57.41142
# Shear Modulus (GPa) = 22.61992 27.94223 25.28108
#
# Velocity S-wave (km/s) = 3.36991 3.74544 3.56262
# Velocity P-wave (km/s) = 6.59847 6.92479 6.76360
#
# Compressibility (1/GPa) = 0.01767886
#
# Stress axis : x y z
#
# Youngs Moduli (GPa) = 37.66794 33.87447 65.69663
#
# Poissons Ratio (x) = 0.62687 0.37690
# Poissons Ratio (y) = 0.69707 0.16838
# Poissons Ratio (z) = 0.21610 0.08682
#
# Static dielectric constant tensor:
#      x y z
#    x 3.652520 0.000000 0.096780 
#    y 0.000000 3.414790 0.000000 
#    z 0.096780 0.000000 3.852320 
# 
# 
# High freq. dielectric constant tensor:
#      x y z
#    x 1.777090 0.000000 0.008190 
#    y 0.000000 1.760860 0.000000 
#    z 0.008190 0.000000 1.799700 
# 
# From -- ./inp_files/71769.got.cif
#   From: 2010.03.12/outbox.cif.g09.slc.cpg/sg5_36_cif.got.tgz:71769.got - 2010.03.31 09:47:26.
