data_PCOD8049612
_publ_section_title
;
Structure prediction by ZEFSAII (Michael W. Deem and Ramdas Pophale) SiO2 
 PCOD8049612
Probable space group: C 2
;
_chemical_formula_sum "Si O2"
_cell_formula_units_Z 30
_cell_length_a 8.722159
_cell_length_b 16.354915
_cell_length_c 11.505343
_cell_angle_alpha 90.000000
_cell_angle_beta 113.423303
_cell_angle_gamma 90.000000
_cell_volume 1505.989571
_symmetry_space_group_name_H-M "C 2"
_symmetry_group_IT_number 5
_symmetry_cell_setting 'monoclinic'
loop_
_space_group_symop_operation_xyz
x,y,z
-x,y,-z
1/2+x,1/2+y,z
1/2-x,1/2+y,-z
loop_
_atom_site_type_symbol
_atom_site_label
_atom_site_fract_x
_atom_site_fract_y
_atom_site_fract_z
Si Si1 0.264179 0.349850 0.524354
Si Si2 0.236837 0.007374 0.871430
Si Si3 0.564763 0.785693 0.142653
Si Si4 0.570167 0.962919 0.852661
Si Si5 0.874887 0.863697 0.300775
Si Si6 0.000000 0.213760 0.500000
Si Si7 0.656973 0.013159 0.619262
Si Si8 0.480226 0.628976 0.722064
O O1 0.278001 0.376366 0.394144
O O2 0.444927 0.324359 0.628073
O O3 0.193190 0.425994 0.572819
O O4 0.153852 0.269767 0.507103
O O5 0.410565 0.012231 0.853500
O O6 0.108630 0.948947 0.762516
O O7 0.272316 0.979456 0.014443
O O8 0.133544 0.091275 0.841798
O O9 0.464566 0.865682 0.157560
O O10 0.760563 0.806470 0.185496
O O11 0.559497 0.714727 0.232826
O O12 0.500000 0.754801 0.000000
O O13 0.610614 0.997106 0.738729
O O14 0.050619 0.151378 0.616829
O O15 0.500000 0.051738 0.500000
O O16 0.813920 0.073920 0.661775
#
# Coordination Sequence:
#
# PCOD8049612 Si02
#       8
#     4   4   4   4   4   2   4   4
#     4  11  22  41  68  93 128 174 225 260 308 401
#     4  10  21  43  65  98 125 173 216 264 323 383
#     4  11  21  43  68  95 130 168 211 267 330 378
#     4  10  22  44  73  89 126 177 223 255 311 406
#     4  10  20  41  68  94 122 175 225 257 307 393
#     4  12  26  44  62  96 138 172 208 268 344 372
#     4  12  25  40  66  98 129 170 221 267 319 384
#     4  12  28  40  65 101 136 164 209 283 332 372
#
# _framework density 19.920456000000001
#
# number of rings (size 3 to 8) (size 9 to 14) (size 15 to 20)
#    0.000    1.067    6.000    2.400    5.600    1.067 
#    0.000    0.000    0.000    0.000    0.000    0.000 
#    0.000    0.000    0.000    0.000    0.000    0.000 
#
# Total GULP energy -185957.635134 kJ/mol
# GULP energy per Si atom -12397.175676 kJ/mol
# Density = 1.987512 g / cm^3
# Si number density = 19.920456 Si / 1000 Ang^3
#
#
#
# Elastic Constant Matrix: (Units=GPa)
#
#
# Indices 1 2 3 4 5 6 
#
# 1 73.9192 32.5225 45.4590 0.0000 7.1882 0.0000
# 2 32.5225 87.7058 32.9631 0.0000 9.3605 0.0000
# 3 45.4590 32.9631 140.1325 0.0000 6.9240 0.0000
# 4 0.0000 0.0000 0.0000 29.4432 0.0000 4.3492
# 5 7.1882 9.3605 6.9240 0.0000 37.1495 0.0000
# 6 0.0000 0.0000 0.0000 4.3492 0.0000 9.1174
#
#
#
# Elastic Compliance Matrix: (Units=1/GPa)
#
#
# Indices 1 2 3 4 5 6 
#
# 1 0.018871 -0.005009 -0.004870 0.000000 -0.001482 0.000000
# 2 -0.005009 0.014096 -0.001578 0.000000 -0.002289 0.000000
# 3 -0.004870 -0.001578 0.009105 0.000000 -0.000357 0.000000
# 4 0.000000 0.000000 0.000000 0.036538 0.000000 -0.017429
# 5 -0.001482 -0.002289 -0.000357 0.000000 0.027848 0.000000
# 6 0.000000 0.000000 0.000000 -0.017429 0.000000 0.117994
#
#
# Mechanical properties :
#
#
# Convention : Reuss Voigt Hill
#
# Bulk Modulus (GPa) = 52.19760 58.18297 55.19029
# Shear Modulus (GPa) = 19.70408 27.86287 23.78347
#
# Velocity S-wave (km/s) = 3.14847 3.74399 3.45907
# Velocity P-wave (km/s) = 6.28308 6.92539 6.61203
#
# Compressibility (1/GPa) = 0.01915797
#
# Stress axis : x y z
#
# Youngs Moduli (GPa) = 52.98997 70.93966 109.83146
#
# Poissons Ratio (x) = 0.35535 0.53492
# Poissons Ratio (y) = 0.26544 0.17329
# Poissons Ratio (z) = 0.25808 0.11193
#
# Static dielectric constant tensor:
#      x y z
#    x 3.645210 0.000000 0.179960 
#    y 0.000000 3.503220 0.000000 
#    z 0.179960 0.000000 3.965280 
# 
# 
# High freq. dielectric constant tensor:
#      x y z
#    x 1.771320 0.000000 0.011150 
#    y 0.000000 1.765200 0.000000 
#    z 0.011150 0.000000 1.801220 
# 
# From -- ./inp_files/36455.got.cif
#   From: 2010.03.12/outbox.cif.g09.slc.cpg/sg5_19_cif.got.tgz:36455.got - 2010.03.31 09:47:26.
