data_PCOD8049798
_publ_section_title
;
Structure prediction by ZEFSAII (Michael W. Deem and Ramdas Pophale) SiO2 
 PCOD8049798
Probable space group: C 2
;
_chemical_formula_sum "Si O2"
_cell_formula_units_Z 28
_cell_length_a 5.033279
_cell_length_b 13.088151
_cell_length_c 22.052089
_cell_angle_alpha 90.000000
_cell_angle_beta 104.958931
_cell_angle_gamma 90.000000
_cell_volume 1403.479613
_symmetry_space_group_name_H-M "C 2"
_symmetry_group_IT_number 5
_symmetry_cell_setting 'monoclinic'
loop_
_space_group_symop_operation_xyz
x,y,z
-x,y,-z
1/2+x,1/2+y,z
1/2-x,1/2+y,-z
loop_
_atom_site_type_symbol
_atom_site_label
_atom_site_fract_x
_atom_site_fract_y
_atom_site_fract_z
Si Si1 0.892740 0.509950 0.366334
Si Si2 0.039144 0.920755 0.572856
Si Si3 0.194530 0.017587 0.957407
Si Si4 0.523401 0.744148 0.931173
Si Si5 0.147002 0.743028 0.667895
Si Si6 0.978066 0.836556 0.874321
Si Si7 0.285167 0.832212 0.271353
O O1 0.735093 0.470636 0.416465
O O2 0.819502 0.626492 0.349322
O O3 0.800318 0.443436 0.303034
O O4 0.215226 0.499005 0.398256
O O5 0.101367 0.809890 0.604848
O O6 0.000000 0.902882 0.500000
O O7 0.126778 0.129627 0.929183
O O8 0.500000 0.013129 0.000000
O O9 0.143493 0.940335 0.899161
O O10 0.000000 0.984033 0.000000
O O11 0.743161 0.815258 0.910191
O O12 0.214871 0.749659 0.885543
O O13 0.500000 0.779237 0.000000
O O14 0.417817 0.781189 0.718669
O O15 0.894647 0.754983 0.699001
O O16 0.840289 0.848687 0.801562
#
# Coordination Sequence:
#
# PCOD8049798 Si02
#       7
#     4   4   4   4   4   4   4
#     4  10  21  40  60  82 121 159 187 235 291 331
#     4  10  21  36  59  92 118 146 197 239 275 342
#     4  11  23  39  59  84 113 146 185 231 290 350
#     4  11  23  40  59  84 117 149 187 237 294 350
#     4  10  21  41  60  81 119 159 187 233 292 332
#     4  12  23  38  61  86 113 150 192 239 288 338
#     4  10  23  38  58  87 114 149 200 238 275 343
#
# _framework density 19.950412
#
# number of rings (size 3 to 8) (size 9 to 14) (size 15 to 20)
#    0.000    1.429    0.000    6.429    0.000    3.429 
#    0.000    0.000    0.000    0.000    0.000    0.000 
#    0.000    0.000    0.000    0.000    0.000    0.000 
#
# Total GULP energy -173664.384886 kJ/mol
# GULP energy per Si atom -12404.598920 kJ/mol
# Density = 1.990500 g / cm^3
# Si number density = 19.950412 Si / 1000 Ang^3
#
#
#
# Elastic Constant Matrix: (Units=GPa)
#
#
# Indices 1 2 3 4 5 6 
#
# 1 102.5185 25.5761 30.9650 0.0000 4.5212 0.0000
# 2 25.5761 114.6488 54.0384 0.0000 1.0510 0.0000
# 3 30.9650 54.0384 132.9434 0.0000 7.8419 0.0000
# 4 0.0000 0.0000 0.0000 13.7921 0.0000 2.7005
# 5 4.5212 1.0510 7.8419 0.0000 23.5042 0.0000
# 6 0.0000 0.0000 0.0000 2.7005 0.0000 24.9863
#
#
#
# Elastic Compliance Matrix: (Units=1/GPa)
#
#
# Indices 1 2 3 4 5 6 
#
# 1 0.010742 -0.001538 -0.001794 0.000000 -0.001399 0.000000
# 2 -0.001538 0.011033 -0.004197 0.000000 0.001203 0.000000
# 3 -0.001794 -0.004197 0.009808 0.000000 -0.002739 0.000000
# 4 0.000000 0.000000 0.000000 0.074073 0.000000 -0.008006
# 5 -0.001399 0.001203 -0.002739 0.000000 0.043675 0.000000
# 6 0.000000 0.000000 0.000000 -0.008006 0.000000 0.040887
#
#
# Mechanical properties :
#
#
# Convention : Reuss Voigt Hill
#
# Bulk Modulus (GPa) = 60.52113 63.47442 61.99778
# Shear Modulus (GPa) = 23.72107 28.42526 26.07316
#
# Velocity S-wave (km/s) = 3.45193 3.77874 3.61903
# Velocity P-wave (km/s) = 6.80363 7.13608 6.97184
#
# Compressibility (1/GPa) = 0.01652315
#
# Stress axis : x y z
#
# Youngs Moduli (GPa) = 93.09578 90.64010 101.96131
#
# Poissons Ratio (x) = 0.13938 0.18296
# Poissons Ratio (y) = 0.14315 0.42796
# Poissons Ratio (z) = 0.16705 0.38044
#
# Static dielectric constant tensor:
#      x y z
#    x 3.905520 0.000000 0.045640 
#    y 0.000000 3.544880 0.000000 
#    z 0.045640 0.000000 3.479630 
# 
# 
# High freq. dielectric constant tensor:
#      x y z
#    x 1.803160 0.000000 0.004820 
#    y 0.000000 1.778620 0.000000 
#    z 0.004820 0.000000 1.770610 
# 
# From -- ./inp_files/63947.got.cif
#   From: 2010.03.12/outbox.cif.g09.slc.cpg/sg5_32_cif.got.tgz:63947.got - 2010.03.31 09:47:26.
