data_PCOD8049589
_publ_section_title
;
Structure prediction by ZEFSAII (Michael W. Deem and Ramdas Pophale) SiO2 
 PCOD8049589
Probable space group: C 2
;
_chemical_formula_sum "Si O2"
_cell_formula_units_Z 28
_cell_length_a 24.365300
_cell_length_b 9.800946
_cell_length_c 9.463839
_cell_angle_alpha 90.000000
_cell_angle_beta 37.465885
_cell_angle_gamma 90.000000
_cell_volume 1374.728782
_symmetry_space_group_name_H-M "C 2"
_symmetry_group_IT_number 5
_symmetry_cell_setting 'monoclinic'
loop_
_space_group_symop_operation_xyz
x,y,z
-x,y,-z
1/2+x,1/2+y,z
1/2-x,1/2+y,-z
loop_
_atom_site_type_symbol
_atom_site_label
_atom_site_fract_x
_atom_site_fract_y
_atom_site_fract_z
Si Si1 0.632172 0.533010 0.785932
Si Si2 0.749372 0.942313 0.716162
Si Si3 0.529084 0.281279 0.088899
Si Si4 0.817597 0.709001 0.025143
Si Si5 0.212118 0.452110 0.340531
Si Si6 0.135896 0.718190 0.380887
Si Si7 0.399994 0.842194 0.180955
O O1 0.672896 0.473823 0.557056
O O2 0.711067 0.539684 0.739823
O O3 0.590588 0.681365 0.859160
O O4 0.550964 0.438258 0.007330
O O5 0.779583 0.810755 0.744380
O O6 0.652071 0.912066 0.843704
O O7 0.739349 0.069545 0.844415
O O8 0.619629 0.212040 0.963348
O O9 0.453152 0.275612 0.363141
O O10 0.500000 0.207733 0.000000
O O11 0.876343 0.717794 0.762907
O O12 0.752942 0.840927 0.150061
O O13 0.148901 0.559730 0.391523
O O14 0.155527 0.363476 0.564596
O O15 0.500000 0.904747 0.000000
#
# Coordination Sequence:
#
# PCOD8049589 Si02
#       7
#     4   4   4   4   4   4   4
#     4  10  20  41  63  97 126 163 217 270 320 372
#     4  11  23  40  65  93 127 175 211 262 323 389
#     4  11  24  39  68  98 128 162 217 269 317 380
#     4  11  25  43  65  94 135 172 210 263 330 388
#     4  10  23  40  63  93 130 169 215 266 322 386
#     4  12  24  43  66  96 129 174 217 264 321 391
#     4  11  23  37  64  97 129 161 215 275 324 368
#
# _framework density 20.367654999999999
#
# number of rings (size 3 to 8) (size 9 to 14) (size 15 to 20)
#    0.000    1.143    4.286    1.714    6.000    0.000 
#    0.000    0.000    0.000    0.000    0.000    0.000 
#    0.000    0.000    0.000    0.000    0.000    0.000 
#
# Total GULP energy -173610.810253 kJ/mol
# GULP energy per Si atom -12400.772161 kJ/mol
# Density = 2.032130 g / cm^3
# Si number density = 20.367655 Si / 1000 Ang^3
#
#
#
# Elastic Constant Matrix: (Units=GPa)
#
#
# Indices 1 2 3 4 5 6 
#
# 1 55.0047 22.9511 26.2380 0.0000 -2.4039 0.0000
# 2 22.9511 117.9188 43.6135 0.0000 1.7588 0.0000
# 3 26.2380 43.6135 119.8494 0.0000 4.9865 0.0000
# 4 0.0000 0.0000 0.0000 24.7163 0.0000 -3.6767
# 5 -2.4039 1.7588 4.9865 0.0000 36.7075 0.0000
# 6 0.0000 0.0000 0.0000 -3.6767 0.0000 16.6980
#
#
#
# Elastic Compliance Matrix: (Units=1/GPa)
#
#
# Indices 1 2 3 4 5 6 
#
# 1 0.021201 -0.002783 -0.003713 0.000000 0.002026 0.000000
# 2 -0.002783 0.010165 -0.003079 0.000000 -0.000251 0.000000
# 3 -0.003713 -0.003079 0.010340 0.000000 -0.001500 0.000000
# 4 0.000000 0.000000 0.000000 0.041829 0.000000 0.009210
# 5 0.002026 -0.000251 -0.001500 0.000000 0.027591 0.000000
# 6 0.000000 0.000000 0.000000 0.009210 0.000000 0.061916
#
#
# Mechanical properties :
#
#
# Convention : Reuss Voigt Hill
#
# Bulk Modulus (GPa) = 44.33681 53.15312 48.74496
# Shear Modulus (GPa) = 25.03620 28.95570 26.99595
#
# Velocity S-wave (km/s) = 3.50982 3.77457 3.64460
# Velocity P-wave (km/s) = 6.18390 6.71937 6.45719
#
# Compressibility (1/GPa) = 0.02255462
#
# Stress axis : x y z
#
# Youngs Moduli (GPa) = 47.16680 98.37888 96.71566
#
# Poissons Ratio (x) = 0.27384 0.35909
# Poissons Ratio (y) = 0.13129 0.29780
# Poissons Ratio (z) = 0.17513 0.30293
#
# Static dielectric constant tensor:
#      x y z
#    x 3.773070 0.000000 -0.035340 
#    y 0.000000 3.629400 0.000000 
#    z -0.035340 0.000000 3.542140 
# 
# 
# High freq. dielectric constant tensor:
#      x y z
#    x 1.790500 0.000000 -0.005370 
#    y 0.000000 1.804730 0.000000 
#    z -0.005370 0.000000 1.789290 
# 
# From -- ./inp_files/31736.got.cif
#   From: 2010.03.12/outbox.cif.g09.slc.cpg/sg5_16_cif.got.tgz:31736.got - 2010.03.31 09:47:26.
