data_PCOD8049157
_publ_section_title
;
Structure prediction by ZEFSAII (Michael W. Deem and Ramdas Pophale) SiO2 
 PCOD8049157
Probable space group: C 2
;
_chemical_formula_sum "Si O2"
_cell_formula_units_Z 30
_cell_length_a 15.920851
_cell_length_b 17.135075
_cell_length_c 12.558769
_cell_angle_alpha 90.000000
_cell_angle_beta 153.663276
_cell_angle_gamma 90.000000
_cell_volume 1519.972194
_symmetry_space_group_name_H-M "C 2"
_symmetry_group_IT_number 5
_symmetry_cell_setting 'monoclinic'
loop_
_space_group_symop_operation_xyz
x,y,z
-x,y,-z
1/2+x,1/2+y,z
1/2-x,1/2+y,-z
loop_
_atom_site_type_symbol
_atom_site_label
_atom_site_fract_x
_atom_site_fract_y
_atom_site_fract_z
Si Si1 0.359509 0.368520 0.153289
Si Si2 0.000000 0.969223 0.500000
Si Si3 0.330955 0.004833 0.733293
Si Si4 0.128590 0.586077 0.440612
Si Si5 0.455188 0.698542 0.836412
Si Si6 0.505719 0.924055 0.384025
Si Si7 0.362418 0.199299 0.239552
Si Si8 0.273152 0.852704 0.544071
O O1 0.374676 0.417357 0.278784
O O2 0.305834 0.283583 0.132125
O O3 0.547999 0.361940 0.296620
O O4 0.198351 0.408201 0.899420
O O5 0.139068 0.019649 0.582949
O O6 0.334408 0.063389 0.638681
O O7 0.359052 0.915483 0.725363
O O8 0.500000 0.029462 0.000000
O O9 0.323060 0.623278 0.703621
O O10 0.065089 0.514418 0.442553
O O11 0.962526 0.650190 0.260452
O O12 0.345782 0.765038 0.645850
O O13 0.500000 0.738871 0.000000
O O14 0.653790 0.663762 0.019519
O O15 0.500000 0.898842 0.500000
O O16 0.665229 0.873272 0.505701
O O17 0.500000 0.202020 0.500000
#
# Coordination Sequence:
#
# PCOD8049157 Si02
#       8
#     4   2   4   4   4   4   4   4
#     4  11  21  39  70  98 125 158 216 278 317 379
#     4  10  20  36  66 100 118 154 214 268 332 362
#     4  10  22  39  63  91 128 162 206 265 316 383
#     4  11  25  42  59  97 133 170 210 258 329 386
#     4  12  23  38  68  96 132 163 210 277 328 377
#     4  11  25  43  62  91 133 178 213 252 314 395
#     4  12  22  39  68 100 127 161 213 275 335 374
#     4  10  21  40  67  99 120 159 218 270 327 370
#
# _framework density 19.737203000000001
#
# number of rings (size 3 to 8) (size 9 to 14) (size 15 to 20)
#    0.000    1.067    4.667    2.400    1.867    4.800 
#    0.000    1.333    1.467    0.000    0.000    0.000 
#    0.000    0.000    0.000    0.000    0.000    0.000 
#
# Total GULP energy -185946.452393 kJ/mol
# GULP energy per Si atom -12396.430160 kJ/mol
# Density = 1.969228 g / cm^3
# Si number density = 19.737203 Si / 1000 Ang^3
#
#
#
# Elastic Constant Matrix: (Units=GPa)
#
#
# Indices 1 2 3 4 5 6 
#
# 1 157.0209 36.2818 57.6036 0.0000 10.3540 0.0000
# 2 36.2818 85.6705 47.6770 0.0000 4.7471 0.0000
# 3 57.6036 47.6770 114.5252 0.0000 15.8427 0.0000
# 4 0.0000 0.0000 0.0000 22.3948 0.0000 9.7521
# 5 10.3540 4.7471 15.8427 0.0000 42.5037 0.0000
# 6 0.0000 0.0000 0.0000 9.7521 0.0000 36.5556
#
#
#
# Elastic Compliance Matrix: (Units=1/GPa)
#
#
# Indices 1 2 3 4 5 6 
#
# 1 0.007964 -0.001504 -0.003305 0.000000 -0.000540 0.000000
# 2 -0.001504 0.015496 -0.005805 0.000000 0.000799 0.000000
# 3 -0.003305 -0.005805 0.013295 0.000000 -0.003502 0.000000
# 4 0.000000 0.000000 0.000000 0.050522 0.000000 -0.013478
# 5 -0.000540 0.000799 -0.003502 0.000000 0.024875 0.000000
# 6 0.000000 0.000000 0.000000 -0.013478 0.000000 0.030951
#
#
# Mechanical properties :
#
#
# Convention : Reuss Voigt Hill
#
# Bulk Modulus (GPa) = 64.40238 71.14905 67.77571
# Shear Modulus (GPa) = 29.49719 34.66776 32.08248
#
# Velocity S-wave (km/s) = 3.87007 4.19557 4.03610
# Velocity P-wave (km/s) = 7.25746 7.71990 7.49225
#
# Compressibility (1/GPa) = 0.01552738
#
# Stress axis : x y z
#
# Youngs Moduli (GPa) = 125.56337 64.53351 75.21445
#
# Poissons Ratio (x) = 0.09703 0.24859
# Poissons Ratio (y) = 0.18879 0.43664
# Poissons Ratio (z) = 0.41500 0.37463
#
# Static dielectric constant tensor:
#      x y z
#    x 3.822090 0.000000 0.270580 
#    y 0.000000 3.493220 0.000000 
#    z 0.270580 0.000000 3.505610 
# 
# 
# High freq. dielectric constant tensor:
#      x y z
#    x 1.784430 0.000000 0.024340 
#    y 0.000000 1.754720 0.000000 
#    z 0.024340 0.000000 1.764800 
# 
# From -- ./inp_files/40453.got.cif
#   From: 2010.03.12/outbox.cif.g09.slc.cpg/sg5_21_cif.got.tgz:40453.got - 2010.03.31 09:47:26.
