data_PCOD8049899
_publ_section_title
;
Structure prediction by ZEFSAII (Michael W. Deem and Ramdas Pophale) SiO2 
 PCOD8049899
Probable space group: C 2
;
_chemical_formula_sum "Si O2"
_cell_formula_units_Z 26
_cell_length_a 18.809765
_cell_length_b 12.077322
_cell_length_c 8.641895
_cell_angle_alpha 90.000000
_cell_angle_beta 43.848410
_cell_angle_gamma 90.000000
_cell_volume 1360.007365
_symmetry_space_group_name_H-M "C 2"
_symmetry_group_IT_number 5
_symmetry_cell_setting 'monoclinic'
loop_
_space_group_symop_operation_xyz
x,y,z
-x,y,-z
1/2+x,1/2+y,z
1/2-x,1/2+y,-z
loop_
_atom_site_type_symbol
_atom_site_label
_atom_site_fract_x
_atom_site_fract_y
_atom_site_fract_z
Si Si1 0.000000 0.239040 0.000000
Si Si2 0.032944 0.348422 0.651444
Si Si3 0.000000 0.700426 0.000000
Si Si4 0.664351 0.596004 0.918746
Si Si5 0.657195 0.762977 0.194407
Si Si6 0.000000 0.752502 0.500000
Si Si7 0.888027 0.590839 0.460583
Si Si8 0.124517 0.846891 0.037471
O O1 0.941857 0.318845 0.211696
O O2 0.918630 0.165417 0.041148
O O3 0.088794 0.254088 0.458194
O O4 0.074425 0.469702 0.547864
O O5 0.909578 0.344374 0.813337
O O6 0.937358 0.623521 0.218266
O O7 0.085232 0.773832 0.954345
O O8 0.765176 0.594036 0.652860
O O9 0.679083 0.647730 0.068880
O O10 0.620417 0.473696 0.997959
O O11 0.763077 0.815770 0.081291
O O12 0.916242 0.675671 0.550977
O O13 0.950919 0.833085 0.701302
#
# Coordination Sequence:
#
# PCOD8049899 Si02
#       8
#     2   4   2   4   4   2   4   4
#     4  10  24  40  58  90 126 154 198 238 296 364
#     4  10  21  39  64  88 121 150 199 252 292 341
#     4  10  26  38  58  88 130 150 204 234 298 356
#     4  11  23  39  65  86 120 160 197 239 305 346
#     4  10  21  38  62  90 115 150 202 249 291 344
#     4  10  22  38  62  86 124 146 204 242 294 352
#     4  11  21  39  64  89 115 161 195 246 295 346
#     4  11  22  41  60  89 120 158 192 249 293 355
#
# _framework density 19.117543999999999
#
# number of rings (size 3 to 8) (size 9 to 14) (size 15 to 20)
#    0.000    1.538    3.077    1.846    2.154    2.462 
#    0.000    0.000    3.385    0.000    0.000    0.000 
#    0.000    0.000    0.000    0.000    0.000    0.000 
#
# Total GULP energy -161140.072958 kJ/mol
# GULP energy per Si atom -12395.390228 kJ/mol
# Density = 1.907403 g / cm^3
# Si number density = 19.117544 Si / 1000 Ang^3
#
#
#
# Elastic Constant Matrix: (Units=GPa)
#
#
# Indices 1 2 3 4 5 6 
#
# 1 84.4237 28.0248 33.8701 0.0000 0.7560 0.0000
# 2 28.0248 86.1068 49.0519 0.0000 0.5568 0.0000
# 3 33.8701 49.0519 105.2500 0.0000 10.1983 0.0000
# 4 0.0000 0.0000 0.0000 -0.0326 0.0000 -14.0113
# 5 0.7560 0.5568 10.1983 0.0000 39.8787 0.0000
# 6 0.0000 0.0000 0.0000 -14.0113 0.0000 20.1296
#
#
#
# Elastic Compliance Matrix: (Units=1/GPa)
#
#
# Indices 1 2 3 4 5 6 
#
# 1 0.014069 -0.002681 -0.003338 0.000000 0.000624 0.000000
# 2 -0.002681 0.016436 -0.006952 0.000000 0.001599 0.000000
# 3 -0.003338 -0.006952 0.014151 0.000000 -0.003458 0.000000
# 4 0.000000 0.000000 0.000000 -0.102195 0.000000 -0.071133
# 5 0.000624 0.001599 -0.003458 0.000000 0.025926 0.000000
# 6 0.000000 0.000000 0.000000 -0.071133 0.000000 0.000165
#
#
# Mechanical properties :
#
#
# Convention : Reuss Voigt Hill
#
# Bulk Modulus (GPa) = 53.44137 55.29711 54.36924
# Shear Modulus (GPa) = 6822.48800 22.98406 3422.73603
#
# Velocity S-wave (km/s) = 59.80345 3.47111 42.35860
# Velocity P-wave (km/s) = 69.25762 6.71211 49.20199
#
# Compressibility (1/GPa) = 0.01871210
#
# Stress axis : x y z
#
# Youngs Moduli (GPa) = 71.07936 60.84126 70.66784
#
# Poissons Ratio (x) = 0.16313 0.23591
# Poissons Ratio (y) = 0.19058 0.49130
# Poissons Ratio (z) = 0.23729 0.42298
#
# Static dielectric constant tensor:
#      x y z
#    x 3.697690 0.000000 0.062930 
#    y 0.000000 3.490170 0.000000 
#    z 0.062930 0.000000 3.847720 
# 
# 
# High freq. dielectric constant tensor:
#      x y z
#    x 1.752210 0.000000 0.001020 
#    y 0.000000 1.736540 0.000000 
#    z 0.001020 0.000000 1.754660 
# 
# From -- ./inp_files/23340.got.cif
#   From: 2010.03.12/outbox.cif.g09.slc.cpg/sg5_12_cif.got.tgz:23340.got - 2010.03.31 09:47:26.
