data_PCOD8049266
_publ_section_title
;
Structure prediction by ZEFSAII (Michael W. Deem and Ramdas Pophale) SiO2 
 PCOD8049266
Probable space group: C 2
;
_chemical_formula_sum "Si O2"
_cell_formula_units_Z 32
_cell_length_a 15.292803
_cell_length_b 10.601580
_cell_length_c 17.732495
_cell_angle_alpha 90.000000
_cell_angle_beta 31.823384
_cell_angle_gamma 90.000000
_cell_volume 1515.959019
_symmetry_space_group_name_H-M "C 2"
_symmetry_group_IT_number 5
_symmetry_cell_setting 'monoclinic'
loop_
_space_group_symop_operation_xyz
x,y,z
-x,y,-z
1/2+x,1/2+y,z
1/2-x,1/2+y,-z
loop_
_atom_site_type_symbol
_atom_site_label
_atom_site_fract_x
_atom_site_fract_y
_atom_site_fract_z
Si Si1 0.747466 0.618870 0.631086
Si Si2 0.511892 0.524956 0.684223
Si Si3 0.129813 0.177145 0.343511
Si Si4 0.475523 0.934089 0.630880
Si Si5 0.895523 0.492768 0.178946
Si Si6 0.701081 0.881083 0.599651
Si Si7 0.782701 0.376574 0.122683
Si Si8 0.179944 0.104794 0.855735
O O1 0.577225 0.572287 0.716884
O O2 0.790354 0.751776 0.559574
O O3 0.712694 0.637120 0.744403
O O4 0.900932 0.523523 0.507622
O O5 0.410393 0.629618 0.711759
O O6 0.663208 0.482693 0.521832
O O7 0.391204 0.406251 0.790441
O O8 0.114038 0.329495 0.356103
O O9 0.000000 0.121386 0.500000
O O10 0.317830 0.135185 0.230199
O O11 0.577309 0.859448 0.620403
O O12 0.328221 0.016210 0.776317
O O13 0.905270 0.442641 0.256175
O O14 0.767164 0.408885 0.223347
O O15 0.079810 0.472532 0.011684
O O16 0.825723 0.228999 0.086238
O O17 0.000000 0.039400 0.000000
#
# Coordination Sequence:
#
# PCOD8049266 Si02
#       8
#     4   4   4   4   4   4   4   4
#     4  11  22  42  65  89 127 163 206 259 311 369
#     4  10  22  35  62  93 118 154 200 261 305 357
#     4  11  20  39  61  91 126 155 202 255 308 369
#     4  11  26  40  61  94 130 164 203 256 319 369
#     4  10  20  37  65  88 117 159 204 264 297 362
#     4  11  20  40  62  93 118 159 212 254 308 365
#     4  10  20  39  61  91 119 153 215 251 303 361
#     4  12  23  43  62  88 125 170 209 253 306 377
#
# _framework density 21.108750000000001
#
# number of rings (size 3 to 8) (size 9 to 14) (size 15 to 20)
#    0.000    1.250    5.000    1.875    0.000    1.000 
#    4.500    0.000    0.000    0.000    0.000    0.000 
#    0.000    0.000    0.000    0.000    0.000    0.000 
#
# Total GULP energy -198311.001129 kJ/mol
# GULP energy per Si atom -12394.437571 kJ/mol
# Density = 2.106071 g / cm^3
# Si number density = 21.108750 Si / 1000 Ang^3
#
#
#
# Elastic Constant Matrix: (Units=GPa)
#
#
# Indices 1 2 3 4 5 6 
#
# 1 51.6303 24.7405 20.0720 0.0013 -0.6267 -0.0003
# 2 24.7405 93.4585 32.3140 -0.0008 -0.1624 0.0001
# 3 20.0720 32.3140 100.3916 -0.0002 -6.7537 -0.0003
# 4 0.0013 -0.0008 -0.0002 29.8706 0.0000 -7.6834
# 5 -0.6267 -0.1624 -6.7537 0.0000 24.4116 0.0001
# 6 -0.0003 0.0001 -0.0003 -7.6834 0.0001 28.4009
#
#
#
# Elastic Compliance Matrix: (Units=1/GPa)
#
#
# Indices 1 2 3 4 5 6 
#
# 1 0.022941 -0.005042 -0.002982 -0.000001 -0.000270 0.000000
# 2 -0.005042 0.013173 -0.003296 0.000001 -0.000954 0.000000
# 3 -0.002982 -0.003296 0.011832 0.000000 0.003175 0.000000
# 4 -0.000001 0.000001 0.000000 0.035982 0.000000 0.009734
# 5 -0.000270 -0.000954 0.003175 0.000000 0.041829 0.000000
# 6 0.000000 0.000000 0.000000 0.009734 0.000000 0.037844
#
#
# Mechanical properties :
#
#
# Convention : Reuss Voigt Hill
#
# Bulk Modulus (GPa) = 39.51840 44.41483 41.96662
# Shear Modulus (GPa) = 25.68386 27.76021 26.72203
#
# Velocity S-wave (km/s) = 3.49196 3.63037 3.56184
# Velocity P-wave (km/s) = 5.91780 6.21767 6.06959
#
# Compressibility (1/GPa) = 0.02530467
#
# Stress axis : x y z
#
# Youngs Moduli (GPa) = 43.59074 75.91436 84.51888
#
# Poissons Ratio (x) = 0.38279 0.25202
# Poissons Ratio (y) = 0.21980 0.27858
# Poissons Ratio (z) = 0.12998 0.25022
#
# Static dielectric constant tensor:
#      x y z
#    x 3.849660 0.000000 -0.135460 
#    y 0.000000 3.801460 0.000000 
#    z -0.135460 0.000000 3.640350 
# 
# 
# High freq. dielectric constant tensor:
#      x y z
#    x 1.823010 0.000000 -0.004600 
#    y 0.000000 1.820120 0.000000 
#    z -0.004600 0.000000 1.816900 
# 
# From -- ./inp_files/61697.got.cif
#   From: 2010.03.12/outbox.cif.g09.slc.cpg/sg5_31_cif.got.tgz:61697.got - 2010.03.31 09:47:26.
