data_PCOD8049787
_publ_section_title
;
Structure prediction by ZEFSAII (Michael W. Deem and Ramdas Pophale) SiO2 
 PCOD8049787
Probable space group: C 2
;
_chemical_formula_sum "Si O2"
_cell_formula_units_Z 30
_cell_length_a 10.938885
_cell_length_b 8.252244
_cell_length_c 19.063674
_cell_angle_alpha 90.000000
_cell_angle_beta 61.679725
_cell_angle_gamma 90.000000
_cell_volume 1514.911023
_symmetry_space_group_name_H-M "C 2"
_symmetry_group_IT_number 5
_symmetry_cell_setting 'monoclinic'
loop_
_space_group_symop_operation_xyz
x,y,z
-x,y,-z
1/2+x,1/2+y,z
1/2-x,1/2+y,-z
loop_
_atom_site_type_symbol
_atom_site_label
_atom_site_fract_x
_atom_site_fract_y
_atom_site_fract_z
Si Si1 0.017899 0.533320 0.418036
Si Si2 0.391794 0.272909 0.971213
Si Si3 0.815777 0.481233 0.891675
Si Si4 0.097942 0.982256 0.836303
Si Si5 0.471794 0.772141 0.247517
Si Si6 0.802713 0.278907 0.700955
Si Si7 0.000000 0.840335 0.500000
Si Si8 0.730039 0.986827 0.619200
O O1 0.029943 0.728057 0.423433
O O2 0.885898 0.514312 0.406109
O O3 0.000000 0.452245 0.500000
O O4 0.151158 0.448767 0.347343
O O5 0.357921 0.126765 0.929694
O O6 0.456310 0.424376 0.911336
O O7 0.500000 0.209314 0.000000
O O8 0.251033 0.334448 0.045904
O O9 0.705952 0.550130 0.864718
O O10 0.953158 0.414434 0.816458
O O11 0.061607 0.119434 0.790970
O O12 0.165234 0.822945 0.781973
O O13 0.573086 0.713677 0.283053
O O14 0.325193 0.842145 0.315746
O O15 0.764806 0.144657 0.654797
O O16 0.863332 0.949391 0.534433
#
# Coordination Sequence:
#
# PCOD8049787 Si02
#       8
#     4   4   4   4   4   4   2   4
#     4   9  23  39  57  81 114 146 184 234 289 334
#     4  10  21  36  57  87 115 149 185 229 277 328
#     4  10  21  37  58  85 116 147 190 227 277 331
#     4  10  21  38  58  80 117 151 184 231 280 326
#     4  10  22  39  57  84 113 149 191 231 277 337
#     4  10  22  38  58  82 112 150 187 233 283 334
#     4  10  24  36  56  86 108 142 190 232 280 346
#     4  11  23  38  60  85 111 147 194 232 284 340
#
# _framework density 19.803144
#
# number of rings (size 3 to 8) (size 9 to 14) (size 15 to 20)
#    0.400    1.600    0.000    2.400    2.800    4.267 
#    0.000    0.000    0.000    0.000    0.000    0.000 
#    0.000    0.000    0.000    0.000    0.000    0.000 
#
# Total GULP energy -185951.721327 kJ/mol
# GULP energy per Si atom -12396.781422 kJ/mol
# Density = 1.975807 g / cm^3
# Si number density = 19.803144 Si / 1000 Ang^3
#
#
#
# Elastic Constant Matrix: (Units=GPa)
#
#
# Indices 1 2 3 4 5 6 
#
# 1 84.8086 46.0315 44.0777 0.0000 11.4210 0.0000
# 2 46.0315 74.7277 25.4852 0.0000 22.1001 0.0000
# 3 44.0777 25.4852 84.1436 0.0000 8.3959 0.0000
# 4 0.0000 0.0000 0.0000 68.5654 0.0000 50.5483
# 5 11.4210 22.1001 8.3959 0.0000 40.0381 0.0000
# 6 0.0000 0.0000 0.0000 50.5483 0.0000 77.8584
#
#
#
# Elastic Compliance Matrix: (Units=1/GPa)
#
#
# Indices 1 2 3 4 5 6 
#
# 1 0.021934 -0.011179 -0.008269 0.000000 0.001647 0.000000
# 2 -0.011179 0.023164 -0.000207 0.000000 -0.009554 0.000000
# 3 -0.008269 -0.000207 0.016374 0.000000 -0.000961 0.000000
# 4 0.000000 0.000000 0.000000 0.027974 0.000000 -0.018162
# 5 0.001647 -0.009554 -0.000961 0.000000 0.029981 0.000000
# 6 0.000000 0.000000 0.000000 -0.018162 0.000000 0.024635
#
#
# Mechanical properties :
#
#
# Convention : Reuss Voigt Hill
#
# Bulk Modulus (GPa) = 45.11716 52.76318 48.94017
# Shear Modulus (GPa) = 26.21115 45.83142 36.02129
#
# Velocity S-wave (km/s) = 3.64206 4.81599 4.26956
# Velocity P-wave (km/s) = 6.36541 7.59122 7.00518
#
# Compressibility (1/GPa) = 0.02216452
#
# Stress axis : x y z
#
# Youngs Moduli (GPa) = 45.59076 43.17083 61.07097
#
# Poissons Ratio (x) = 0.48259 0.50498
# Poissons Ratio (y) = 0.50964 0.01263
# Poissons Ratio (z) = 0.37697 0.00893
#
# Static dielectric constant tensor:
#      x y z
#    x 3.631710 0.000000 -0.082720 
#    y 0.000000 3.366510 0.000000 
#    z -0.082720 0.000000 3.814540 
# 
# 
# High freq. dielectric constant tensor:
#      x y z
#    x 1.775730 0.000000 -0.002820 
#    y 0.000000 1.757040 0.000000 
#    z -0.002820 0.000000 1.789700 
# 
# From -- ./inp_files/60300.got.cif
#   From: 2010.03.12/outbox.cif.g09.slc.cpg/sg5_31_cif.got.tgz:60300.got - 2010.03.31 09:47:26.
