data_PCOD8049808
_publ_section_title
;
Structure prediction by ZEFSAII (Michael W. Deem and Ramdas Pophale) SiO2 
 PCOD8049808
Probable space group: C 2
;
_chemical_formula_sum "Si O2"
_cell_formula_units_Z 18
_cell_length_a 7.513661
_cell_length_b 18.523851
_cell_length_c 5.388889
_cell_angle_alpha 90.000000
_cell_angle_beta 61.235529
_cell_angle_gamma 90.000000
_cell_volume 657.485500
_symmetry_space_group_name_H-M "C 2"
_symmetry_group_IT_number 5
_symmetry_cell_setting 'monoclinic'
loop_
_space_group_symop_operation_xyz
x,y,z
-x,y,-z
1/2+x,1/2+y,z
1/2-x,1/2+y,-z
loop_
_atom_site_type_symbol
_atom_site_label
_atom_site_fract_x
_atom_site_fract_y
_atom_site_fract_z
Si Si1 0.259088 0.676150 0.200815
Si Si2 0.224405 0.111982 0.311331
Si Si3 0.280614 0.836826 0.266543
Si Si4 0.679294 0.469821 0.064463
Si Si5 0.000000 0.418253 0.500000
O O1 0.170070 0.629060 0.493128
O O2 0.186842 0.757346 0.313401
O O3 0.500000 0.667457 0.000000
O O4 0.163114 0.648354 0.003695
O O5 0.000000 0.146327 0.500000
O O6 0.205402 0.026342 0.272373
O O7 0.131928 0.891463 0.217082
O O8 0.317970 0.866896 0.518987
O O9 0.500000 0.836402 0.000000
O O10 0.500000 0.494900 0.000000
O O11 0.895618 0.468637 0.777106
#
# Coordination Sequence:
#
# PCOD8049808 Si02
#       5
#     4   4   4   4   2
#     4   9  19  35  62  95 135 171 228 279 329 403
#     4  10  21  36  62 102 132 174 225 276 337 401
#     4   9  21  38  64  99 131 179 228 280 338 401
#     4  11  24  41  68 104 137 176 227 282 344 409
#     4  10  24  42  66  98 132 180 228 278 342 396
#
# _framework density 27.377030000000001
#
# number of rings (size 3 to 8) (size 9 to 14) (size 15 to 20)
#    0.000    2.222    0.000    2.000   17.111    0.000 
#    0.000    0.000    0.000    6.667    0.000    0.000 
#    0.000    0.000    0.000    0.000    0.000    0.000 
#
# Total GULP energy -111554.624004 kJ/mol
# GULP energy per Si atom -12394.958223 kJ/mol
# Density = 2.731472 g / cm^3
# Si number density = 27.377030 Si / 1000 Ang^3
#
#
#
# Elastic Constant Matrix: (Units=GPa)
#
#
# Indices 1 2 3 4 5 6 
#
# 1 82.3956 40.3837 41.9087 0.0000 30.0275 0.0000
# 2 40.3837 201.1187 62.8229 0.0000 41.9658 0.0000
# 3 41.9087 62.8229 182.5219 0.0000 36.6474 0.0000
# 4 0.0000 0.0000 0.0000 26.1503 0.0000 19.3548
# 5 30.0275 41.9658 36.6474 0.0000 47.1927 0.0000
# 6 0.0000 0.0000 0.0000 19.3548 0.0000 17.8857
#
#
#
# Elastic Compliance Matrix: (Units=1/GPa)
#
#
# Indices 1 2 3 4 5 6 
#
# 1 0.016554 -0.001052 -0.001791 0.000000 -0.008206 0.000000
# 2 -0.001052 0.006401 -0.001129 0.000000 -0.004146 0.000000
# 3 -0.001791 -0.001129 0.006929 0.000000 -0.003237 0.000000
# 4 0.000000 0.000000 0.000000 0.192097 0.000000 -0.207876
# 5 -0.008206 -0.004146 -0.003237 0.000000 0.032611 0.000000
# 6 0.000000 0.000000 0.000000 -0.207876 0.000000 0.280861
#
#
# Mechanical properties :
#
#
# Convention : Reuss Voigt Hill
#
# Bulk Modulus (GPa) = 45.58128 84.02964 64.80546
# Shear Modulus (GPa) = 9.07917 39.64046 24.35982
#
# Velocity S-wave (km/s) = 1.82306 3.80932 2.98617
# Velocity P-wave (km/s) = 4.59532 7.07870 5.96762
#
# Compressibility (1/GPa) = 0.02193883
#
# Stress axis : x y z
#
# Youngs Moduli (GPa) = 60.40876 156.21849 144.32969
#
# Poissons Ratio (x) = 0.16436 0.25851
# Poissons Ratio (y) = 0.06356 0.16299
# Poissons Ratio (z) = 0.10820 0.17641
#
# Static dielectric constant tensor:
#      x y z
#    x 4.952770 0.000000 0.348740 
#    y 0.000000 4.969710 0.000000 
#    z 0.348740 0.000000 5.365450 
# 
# 
# High freq. dielectric constant tensor:
#      x y z
#    x 2.093520 0.000000 0.002830 
#    y 0.000000 2.085920 0.000000 
#    z 0.002830 0.000000 2.125350 
# 
# From -- ./inp_files/2294.got.cif
#   From: 2010.03.12/outbox.cif.g09.slc.cpg/sg5_2_cif.got.tgz:2294.got - 2010.03.31 09:47:26.
