data_PCOD8049535
_publ_section_title
;
Structure prediction by ZEFSAII (Michael W. Deem and Ramdas Pophale) SiO2 
 PCOD8049535
Probable space group: C 2
;
_chemical_formula_sum "Si O2"
_cell_formula_units_Z 26
_cell_length_a 11.802312
_cell_length_b 8.948923
_cell_length_c 13.290407
_cell_angle_alpha 90.000000
_cell_angle_beta 58.827346
_cell_angle_gamma 90.000000
_cell_volume 1201.026828
_symmetry_space_group_name_H-M "C 2"
_symmetry_group_IT_number 5
_symmetry_cell_setting 'monoclinic'
loop_
_space_group_symop_operation_xyz
x,y,z
-x,y,-z
1/2+x,1/2+y,z
1/2-x,1/2+y,-z
loop_
_atom_site_type_symbol
_atom_site_label
_atom_site_fract_x
_atom_site_fract_y
_atom_site_fract_z
Si Si1 0.114616 0.016760 0.263939
Si Si2 0.342802 0.642738 0.466509
Si Si3 0.049578 0.792089 0.136523
Si Si4 0.211444 0.388785 0.650217
Si Si5 0.789613 0.793443 0.131918
Si Si6 0.940357 0.503769 0.741294
Si Si7 0.000000 0.385613 0.500000
O O1 0.194777 0.168039 0.219106
O O2 0.974357 0.051309 0.378372
O O3 0.096522 0.948080 0.162116
O O4 0.196670 0.899250 0.294437
O O5 0.242101 0.524818 0.559423
O O6 0.270163 0.722908 0.405250
O O7 0.377190 0.777132 0.527764
O O8 0.047955 0.673414 0.227598
O O9 0.904251 0.819995 0.159905
O O10 0.150083 0.743680 0.002631
O O11 0.054726 0.407658 0.746014
O O12 0.703171 0.943041 0.159180
O O13 0.957317 0.489725 0.612907
#
# Coordination Sequence:
#
# PCOD8049535 Si02
#       7
#     4   4   4   4   4   4   2
#     4  12  23  44  67  97 134 169 226 275 326 399
#     4  11  23  41  65  98 136 181 212 271 331 395
#     4  11  27  41  74  99 124 184 228 275 331 399
#     4  11  23  40  68  98 133 177 215 268 333 398
#     4  11  23  50  67  95 139 171 226 284 334 383
#     4  11  23  43  70 101 133 180 218 272 340 398
#     4  10  20  40  66  96 142 172 208 276 328 394
#
# _framework density 21.648140999999999
#
# number of rings (size 3 to 8) (size 9 to 14) (size 15 to 20)
#    0.000    0.923    6.154    0.923    2.154    4.923 
#    0.000    0.000    0.000    0.000    0.000    0.000 
#    0.000    0.000    0.000    0.000    0.000    0.000 
#
# Total GULP energy -161226.524446 kJ/mol
# GULP energy per Si atom -12402.040342 kJ/mol
# Density = 2.159887 g / cm^3
# Si number density = 21.648141 Si / 1000 Ang^3
#
#
#
# Elastic Constant Matrix: (Units=GPa)
#
#
# Indices 1 2 3 4 5 6 
#
# 1 119.7207 47.1612 42.0575 0.0000 3.7929 0.0000
# 2 47.1612 44.1649 22.7337 0.0000 5.8950 0.0000
# 3 42.0575 22.7337 75.2007 0.0000 -0.3104 0.0000
# 4 0.0000 0.0000 0.0000 30.6959 0.0000 8.1135
# 5 3.7929 5.8950 -0.3104 0.0000 35.8763 0.0000
# 6 0.0000 0.0000 0.0000 8.1135 0.0000 44.2978
#
#
#
# Elastic Compliance Matrix: (Units=1/GPa)
#
#
# Indices 1 2 3 4 5 6 
#
# 1 0.015550 -0.014475 -0.004318 0.000000 0.000697 0.000000
# 2 -0.014475 0.041029 -0.004329 0.000000 -0.005249 0.000000
# 3 -0.004318 -0.004329 0.017027 0.000000 0.001315 0.000000
# 4 0.000000 0.000000 0.000000 0.034235 0.000000 -0.006270
# 5 0.000697 -0.005249 0.001315 0.000000 0.028674 0.000000
# 6 0.000000 0.000000 0.000000 -0.006270 0.000000 0.023723
#
#
# Mechanical properties :
#
#
# Convention : Reuss Voigt Hill
#
# Bulk Modulus (GPa) = 36.54880 51.44346 43.99613
# Shear Modulus (GPa) = 23.19098 30.64959 26.92029
#
# Velocity S-wave (km/s) = 3.27658 3.76680 3.53021
# Velocity P-wave (km/s) = 5.58877 6.53708 6.08144
#
# Compressibility (1/GPa) = 0.02736068
#
# Stress axis : x y z
#
# Youngs Moduli (GPa) = 64.31045 24.37323 58.73122
#
# Poissons Ratio (x) = 0.35280 0.25358
# Poissons Ratio (y) = 0.93090 0.25427
# Poissons Ratio (z) = 0.27767 0.10552
#
# Static dielectric constant tensor:
#      x y z
#    x 4.195830 0.000000 -0.057690 
#    y 0.000000 3.799480 0.000000 
#    z -0.057690 0.000000 3.835140 
# 
# 
# High freq. dielectric constant tensor:
#      x y z
#    x 1.866660 0.000000 -0.003420 
#    y 0.000000 1.842800 0.000000 
#    z -0.003420 0.000000 1.840750 
# 
# From -- ./inp_files/52200.got.cif
#   From: 2010.03.12/outbox.cif.g09.slc.cpg/sg5_27_cif.got.tgz:52200.got - 2010.03.31 09:47:26.
