data_PCOD8049513
_publ_section_title
;
Structure prediction by ZEFSAII (Michael W. Deem and Ramdas Pophale) SiO2 
 PCOD8049513
Probable space group: C 2
;
_chemical_formula_sum "Si O2"
_cell_formula_units_Z 24
_cell_length_a 14.298694
_cell_length_b 16.391046
_cell_length_c 7.642162
_cell_angle_alpha 90.000000
_cell_angle_beta 135.543348
_cell_angle_gamma 90.000000
_cell_volume 1254.430113
_symmetry_space_group_name_H-M "C 2"
_symmetry_group_IT_number 5
_symmetry_cell_setting 'monoclinic'
loop_
_space_group_symop_operation_xyz
x,y,z
-x,y,-z
1/2+x,1/2+y,z
1/2-x,1/2+y,-z
loop_
_atom_site_type_symbol
_atom_site_label
_atom_site_fract_x
_atom_site_fract_y
_atom_site_fract_z
Si Si1 0.438262 0.676970 0.590587
Si Si2 0.500000 0.896878 0.000000
Si Si3 0.298325 0.136725 0.491757
Si Si4 0.174541 0.263489 0.081083
Si Si5 0.751375 0.311166 0.196095
Si Si6 0.611395 0.967160 0.500811
Si Si7 0.500000 0.218858 0.000000
O O1 0.500000 0.631486 0.500000
O O2 0.325846 0.623524 0.538630
O O3 0.373845 0.761492 0.441449
O O4 0.554535 0.700868 0.879222
O O5 0.373213 0.840293 0.870582
O O6 0.458490 0.951702 0.779507
O O7 0.277497 0.212240 0.333547
O O8 0.316233 0.054340 0.406677
O O9 0.434918 0.157869 0.773263
O O10 0.246508 0.301261 0.009271
O O11 0.773136 0.403272 0.291340
O O12 0.609394 0.278582 0.066084
O O13 0.500000 0.965608 0.500000
#
# Coordination Sequence:
#
# PCOD8049513 Si02
#       7
#     4   2   4   4   4   4   2
#     4   9  17  37  64  89 113 159 214 249 287 369
#     4  12  19  40  69  86 118 158 220 244 297 370
#     4  11  23  37  60  95 127 156 201 258 317 354
#     4  11  19  37  70  90 110 168 218 244 290 380
#     4  10  20  40  64  89 125 159 206 254 301 365
#     4  12  24  40  61  97 125 159 202 267 307 353
#     4  10  23  42  59  88 126 168 202 250 305 376
#
# _framework density 19.132193999999998
#
# number of rings (size 3 to 8) (size 9 to 14) (size 15 to 20)
#    0.000    1.333    5.000    2.000    2.333    0.000 
#    6.000    0.000    0.000    0.000    0.000    0.000 
#    0.000    0.000    0.000    0.000    0.000    0.000 
#
# Total GULP energy -148810.289944 kJ/mol
# GULP energy per Si atom -12400.857495 kJ/mol
# Density = 1.908865 g / cm^3
# Si number density = 19.132194 Si / 1000 Ang^3
#
#
#
# Elastic Constant Matrix: (Units=GPa)
#
#
# Indices 1 2 3 4 5 6 
#
# 1 110.0153 36.8966 30.6189 0.0000 -6.5795 0.0000
# 2 36.8966 84.6141 22.3193 0.0000 0.4555 0.0000
# 3 30.6189 22.3193 93.7797 0.0000 -6.7148 0.0000
# 4 0.0000 0.0000 0.0000 25.7608 0.0000 0.2272
# 5 -6.5795 0.4555 -6.7148 0.0000 33.3988 0.0000
# 6 0.0000 0.0000 0.0000 0.2272 0.0000 21.0806
#
#
#
# Elastic Compliance Matrix: (Units=1/GPa)
#
#
# Indices 1 2 3 4 5 6 
#
# 1 0.011344 -0.004282 -0.002557 0.000000 0.001779 0.000000
# 2 -0.004282 0.014246 -0.002097 0.000000 -0.001459 0.000000
# 3 -0.002557 -0.002097 0.012138 0.000000 0.001965 0.000000
# 4 0.000000 0.000000 0.000000 0.038822 0.000000 -0.000418
# 5 0.001779 -0.001459 0.001965 0.000000 0.030707 0.000000
# 6 0.000000 0.000000 0.000000 -0.000418 0.000000 0.047441
#
#
# Mechanical properties :
#
#
# Convention : Reuss Voigt Hill
#
# Bulk Modulus (GPa) = 50.36233 52.00874 51.18553
# Shear Modulus (GPa) = 27.90344 29.28634 28.59489
#
# Velocity S-wave (km/s) = 3.82312 3.91671 3.87019
# Velocity P-wave (km/s) = 6.77265 6.90630 6.83980
#
# Compressibility (1/GPa) = 0.01985611
#
# Stress axis : x y z
#
# Youngs Moduli (GPa) = 88.15470 70.19324 82.38534
#
# Poissons Ratio (x) = 0.30053 0.21069
# Poissons Ratio (y) = 0.37744 0.17278
# Poissons Ratio (z) = 0.22544 0.14721
#
# Static dielectric constant tensor:
#      x y z
#    x 4.000000 0.000000 -0.183720 
#    y 0.000000 3.278360 0.000000 
#    z -0.183720 0.000000 3.465790 
# 
# 
# High freq. dielectric constant tensor:
#      x y z
#    x 1.760710 0.000000 -0.013170 
#    y 0.000000 1.718960 0.000000 
#    z -0.013170 0.000000 1.743360 
# 
# From -- ./inp_files/21075.got.cif
#   From: 2010.03.12/outbox.cif.g09.slc.cpg/sg5_11_cif.got.tgz:21075.got - 2010.03.31 09:47:26.
