data_PCOD8049789
_publ_section_title
;
Structure prediction by ZEFSAII (Michael W. Deem and Ramdas Pophale) SiO2 
 PCOD8049789
Probable space group: C 2
;
_chemical_formula_sum "Si O2"
_cell_formula_units_Z 28
_cell_length_a 5.032020
_cell_length_b 13.100019
_cell_length_c 22.019789
_cell_angle_alpha 90.000000
_cell_angle_beta 74.923307
_cell_angle_gamma 90.000000
_cell_volume 1401.570775
_symmetry_space_group_name_H-M "C 2"
_symmetry_group_IT_number 5
_symmetry_cell_setting 'monoclinic'
loop_
_space_group_symop_operation_xyz
x,y,z
-x,y,-z
1/2+x,1/2+y,z
1/2-x,1/2+y,-z
loop_
_atom_site_type_symbol
_atom_site_label
_atom_site_fract_x
_atom_site_fract_y
_atom_site_fract_z
Si Si1 0.303890 0.154580 0.134379
Si Si2 0.805151 0.332839 0.771231
Si Si3 0.694196 0.994409 0.542660
Si Si4 0.765515 0.421419 0.167831
Si Si5 0.973300 0.721286 0.431353
Si Si6 0.020213 0.313454 0.374259
Si Si7 0.125118 0.243616 0.926887
O O1 0.250358 0.220816 0.198000
O O2 0.575395 0.194416 0.084401
O O3 0.054637 0.165394 0.102120
O O4 0.339315 0.038032 0.151246
O O5 0.558713 0.409497 0.802470
O O6 0.824460 0.320595 0.698358
O O7 0.082508 0.382357 0.780710
O O8 0.500000 0.960833 0.500000
O O9 0.627777 0.106598 0.570503
O O10 0.000000 0.988729 0.500000
O O11 0.641372 0.918246 0.601598
O O12 0.867305 0.354778 0.104656
O O13 0.749243 0.791542 0.411607
O O14 0.000000 0.756385 0.500000
O O15 0.279896 0.727982 0.384645
O O16 0.000000 0.260437 0.000000
#
# Coordination Sequence:
#
# PCOD8049789 Si02
#       7
#     4   4   4   4   4   4   4
#     4  10  21  39  60  82 118 160 188 233 292 332
#     4  10  23  38  58  87 114 149 200 238 275 343
#     4  11  23  38  57  82 112 146 185 232 290 349
#     4  10  21  40  59  81 119 157 186 234 291 331
#     4  11  23  39  58  83 114 147 186 235 294 351
#     4  12  23  38  61  86 113 150 192 239 288 338
#     4  10  21  36  57  89 117 145 196 239 275 342
#
# _framework density 19.977585999999999
#
# number of rings (size 3 to 8) (size 9 to 14) (size 15 to 20)
#    0.000    1.429    0.000    6.429    0.000    3.429 
#    0.000    0.000    0.000    0.000    0.000    0.000 
#    0.000    0.000    0.000    0.000    0.000    0.000 
#
# Total GULP energy -173669.928466 kJ/mol
# GULP energy per Si atom -12404.994890 kJ/mol
# Density = 1.993212 g / cm^3
# Si number density = 19.977586 Si / 1000 Ang^3
#
#
#
# Elastic Constant Matrix: (Units=GPa)
#
#
# Indices 1 2 3 4 5 6 
#
# 1 107.1670 28.0237 32.1324 0.0000 -4.1293 0.0000
# 2 28.0237 118.4483 55.6704 0.0000 0.3142 0.0000
# 3 32.1324 55.6704 131.5379 0.0000 -7.2279 0.0000
# 4 0.0000 0.0000 0.0000 14.1187 0.0000 -2.4652
# 5 -4.1293 0.3142 -7.2279 0.0000 23.9851 0.0000
# 6 0.0000 0.0000 0.0000 -2.4652 0.0000 25.8135
#
#
#
# Elastic Compliance Matrix: (Units=1/GPa)
#
#
# Indices 1 2 3 4 5 6 
#
# 1 0.010334 -0.001616 -0.001771 0.000000 0.001267 0.000000
# 2 -0.001616 0.010845 -0.004289 0.000000 -0.001713 0.000000
# 3 -0.001771 -0.004289 0.010002 0.000000 0.002766 0.000000
# 4 0.000000 0.000000 0.000000 0.072029 0.000000 0.006879
# 5 0.001267 -0.001713 0.002766 0.000000 0.042766 0.000000
# 6 0.000000 0.000000 0.000000 0.006879 0.000000 0.039396
#
#
# Mechanical properties :
#
#
# Convention : Reuss Voigt Hill
#
# Bulk Modulus (GPa) = 63.17547 65.42291 64.29919
# Shear Modulus (GPa) = 24.27166 28.87191 26.57178
#
# Velocity S-wave (km/s) = 3.48939 3.80572 3.65098
# Velocity P-wave (km/s) = 6.92288 7.22015 7.07308
#
# Compressibility (1/GPa) = 0.01582893
#
# Stress axis : x y z
#
# Youngs Moduli (GPa) = 96.77227 92.20517 99.97678
#
# Poissons Ratio (x) = 0.14899 0.17704
# Poissons Ratio (y) = 0.15637 0.42884
# Poissons Ratio (z) = 0.17137 0.39551
#
# Static dielectric constant tensor:
#      x y z
#    x 3.844490 0.000000 -0.038660 
#    y 0.000000 3.561410 0.000000 
#    z -0.038660 0.000000 3.462140 
# 
# 
# High freq. dielectric constant tensor:
#      x y z
#    x 1.803450 0.000000 -0.004360 
#    y 0.000000 1.780780 0.000000 
#    z -0.004360 0.000000 1.769280 
# 
# From -- ./inp_files/63999.got.cif
#   From: 2010.03.12/outbox.cif.g09.slc.cpg/sg5_32_cif.got.tgz:63999.got - 2010.03.31 09:47:26.
