data_PCOD8049150
_publ_section_title
;
Structure prediction by ZEFSAII (Michael W. Deem and Ramdas Pophale) SiO2 
 PCOD8049150
Probable space group: C 2
;
_chemical_formula_sum "Si O2"
_cell_formula_units_Z 30
_cell_length_a 30.496557
_cell_length_b 8.909164
_cell_length_c 11.659129
_cell_angle_alpha 90.000000
_cell_angle_beta 152.195348
_cell_angle_gamma 90.000000
_cell_volume 1477.633901
_symmetry_space_group_name_H-M "C 2"
_symmetry_group_IT_number 5
_symmetry_cell_setting 'monoclinic'
loop_
_space_group_symop_operation_xyz
x,y,z
-x,y,-z
1/2+x,1/2+y,z
1/2-x,1/2+y,-z
loop_
_atom_site_type_symbol
_atom_site_label
_atom_site_fract_x
_atom_site_fract_y
_atom_site_fract_z
Si Si1 0.175486 0.900240 0.175167
Si Si2 0.298733 0.645521 0.361368
Si Si3 0.000000 0.259092 0.500000
Si Si4 0.138550 0.390945 0.650932
Si Si5 0.714388 0.406845 0.831443
Si Si6 0.109520 0.897326 0.275376
Si Si7 0.500154 0.469367 0.624628
Si Si8 0.311465 0.143884 0.382609
O O1 0.226330 0.744827 0.264762
O O2 0.167739 0.905147 0.293204
O O3 0.234530 0.042236 0.267704
O O4 0.072652 0.896415 0.880379
O O5 0.369366 0.748227 0.449949
O O6 0.238445 0.538833 0.136078
O O7 0.363354 0.546274 0.593321
O O8 0.077248 0.371096 0.624555
O O9 0.969648 0.145691 0.326194
O O10 0.115744 0.537995 0.521446
O O11 0.246407 0.408118 0.948032
O O12 0.603691 0.445219 0.565781
O O13 0.738972 0.248649 0.828670
O O14 0.133433 0.743753 0.397712
O O15 0.000000 0.899944 0.000000
O O16 0.500000 0.386315 0.500000
#
# Coordination Sequence:
#
# PCOD8049150 Si02
#       8
#     4   4   2   4   4   4   4   4
#     4  11  21  40  67  92 122 164 214 263 306 374
#     4  10  21  39  64  90 120 164 212 248 316 372
#     4  10  22  38  60  94 130 164 214 242 316 384
#     4  11  21  39  62  91 129 165 204 261 307 375
#     4  11  20  39  61  92 129 169 199 250 318 381
#     4  11  24  43  65  87 120 169 216 263 313 377
#     4  10  20  36  64  93 126 162 210 243 312 385
#     4  10  23  38  62  92 126 162 210 264 317 360
#
# _framework density 20.302728999999999
#
# number of rings (size 3 to 8) (size 9 to 14) (size 15 to 20)
#    0.400    1.067    1.333    5.600    0.000    0.000 
#    6.000    2.667    2.933    0.000    0.000    0.000 
#    0.000    0.000    0.000    0.000    0.000    0.000 
#
# Total GULP energy -185895.664639 kJ/mol
# GULP energy per Si atom -12393.044309 kJ/mol
# Density = 2.025652 g / cm^3
# Si number density = 20.302729 Si / 1000 Ang^3
#
#
#
# Elastic Constant Matrix: (Units=GPa)
#
#
# Indices 1 2 3 4 5 6 
#
# 1 141.4732 69.7624 44.5102 0.0000 -3.8162 0.0000
# 2 69.7624 148.3428 50.5475 0.0000 -5.4862 0.0000
# 3 44.5102 50.5475 113.2461 0.0000 -7.9789 0.0000
# 4 0.0000 0.0000 0.0000 20.1029 0.0000 -3.7169
# 5 -3.8162 -5.4862 -7.9789 0.0000 35.0539 0.0000
# 6 0.0000 0.0000 0.0000 -3.7169 0.0000 32.3034
#
#
#
# Elastic Compliance Matrix: (Units=1/GPa)
#
#
# Indices 1 2 3 4 5 6 
#
# 1 0.009598 -0.003808 -0.002074 0.000000 -0.000023 0.000000
# 2 -0.003808 0.009468 -0.002697 0.000000 0.000453 0.000000
# 3 -0.002074 -0.002697 0.010980 0.000000 0.001851 0.000000
# 4 0.000000 0.000000 0.000000 0.050825 0.000000 0.005848
# 5 -0.000023 0.000453 0.001851 0.000000 0.029017 0.000000
# 6 0.000000 0.000000 0.000000 0.005848 0.000000 0.031629
#
#
# Mechanical properties :
#
#
# Convention : Reuss Voigt Hill
#
# Bulk Modulus (GPa) = 77.59945 81.41136 79.50540
# Shear Modulus (GPa) = 30.67992 33.37483 32.02738
#
# Velocity S-wave (km/s) = 3.89153 4.05885 3.97607
# Velocity P-wave (km/s) = 7.64828 7.88362 7.76684
#
# Compressibility (1/GPa) = 0.01288669
#
# Stress axis : x y z
#
# Youngs Moduli (GPa) = 104.18608 105.62153 91.07384
#
# Poissons Ratio (x) = 0.40219 0.18893
# Poissons Ratio (y) = 0.39672 0.24566
# Poissons Ratio (z) = 0.21613 0.28490
#
# Static dielectric constant tensor:
#      x y z
#    x 3.917760 0.000000 -0.141980 
#    y 0.000000 3.804000 0.000000 
#    z -0.141980 0.000000 3.378530 
# 
# 
# High freq. dielectric constant tensor:
#      x y z
#    x 1.810480 0.000000 -0.009490 
#    y 0.000000 1.800640 0.000000 
#    z -0.009490 0.000000 1.764040 
# 
# From -- ./inp_files/48357.got.cif
#   From: 2010.03.12/outbox.cif.g09.slc.cpg/sg5_25_cif.got.tgz:48357.got - 2010.03.31 09:47:26.
