data_PCOD8049529
_publ_section_title
;
Structure prediction by ZEFSAII (Michael W. Deem and Ramdas Pophale) SiO2 
 PCOD8049529
Probable space group: C 2
;
_chemical_formula_sum "Si O2"
_cell_formula_units_Z 32
_cell_length_a 21.689322
_cell_length_b 13.011297
_cell_length_c 10.958999
_cell_angle_alpha 90.000000
_cell_angle_beta 147.848994
_cell_angle_gamma 90.000000
_cell_volume 1645.786734
_symmetry_space_group_name_H-M "C 2"
_symmetry_group_IT_number 5
_symmetry_cell_setting 'monoclinic'
loop_
_space_group_symop_operation_xyz
x,y,z
-x,y,-z
1/2+x,1/2+y,z
1/2-x,1/2+y,-z
loop_
_atom_site_type_symbol
_atom_site_label
_atom_site_fract_x
_atom_site_fract_y
_atom_site_fract_z
Si Si1 0.019885 0.258770 0.676536
Si Si2 0.638155 0.389633 0.901976
Si Si3 0.257279 0.311813 0.157779
Si Si4 0.711774 0.515655 0.366709
Si Si5 0.836421 0.101636 0.962866
Si Si6 0.770646 0.306826 0.337467
Si Si7 0.878088 0.681767 0.740334
Si Si8 0.888433 0.884658 0.598190
O O1 0.000000 0.248979 0.500000
O O2 0.906984 0.298301 0.553314
O O3 0.127422 0.336034 0.888883
O O4 0.047121 0.147029 0.780364
O O5 0.646799 0.348458 0.778925
O O6 0.505721 0.402752 0.720273
O O7 0.700403 0.500690 0.022572
O O8 0.706561 0.308698 0.100186
O O9 0.265590 0.188133 0.196567
O O10 0.281818 0.372137 0.324741
O O11 0.638593 0.573308 0.137724
O O12 0.755347 0.408517 0.389074
O O13 0.824281 0.584407 0.581542
O O14 0.634025 0.485058 0.354359
O O15 0.716762 0.209911 0.316625
O O16 0.903279 0.780146 0.698503
O O17 0.000000 0.645812 0.000000
#
# Coordination Sequence:
#
# PCOD8049529 Si02
#       8
#     4   4   4   4   4   4   4   4
#     4  10  20  40  66  90 129 161 214 265 323 388
#     4  11  21  41  65  94 129 166 218 270 320 392
#     4  10  22  42  65  91 133 167 212 270 324 388
#     4  10  23  40  62  91 131 164 215 266 318 394
#     4   9  22  40  66  90 128 167 219 257 333 380
#     4  10  21  38  64  92 120 169 210 263 328 376
#     4  11  21  40  61  88 129 164 212 268 318 382
#     4  11  23  41  64  96 126 171 216 267 324 383
#
# _framework density 19.443588999999999
#
# number of rings (size 3 to 8) (size 9 to 14) (size 15 to 20)
#    0.750    1.000    3.750    0.375    1.750    2.000 
#    2.250    5.625    2.750    0.000    0.000    0.000 
#    0.000    0.000    0.000    0.000    0.000    0.000 
#
# Total GULP energy -198289.582398 kJ/mol
# GULP energy per Si atom -12393.098900 kJ/mol
# Density = 1.939933 g / cm^3
# Si number density = 19.443589 Si / 1000 Ang^3
#
#
#
# Elastic Constant Matrix: (Units=GPa)
#
#
# Indices 1 2 3 4 5 6 
#
# 1 108.9603 28.0942 36.5212 0.0000 1.7436 0.0000
# 2 28.0942 56.8325 16.4554 0.0000 -5.6285 0.0000
# 3 36.5212 16.4554 110.7735 0.0000 -6.2427 0.0000
# 4 0.0000 0.0000 0.0000 29.4088 0.0000 -7.0088
# 5 1.7436 -5.6285 -6.2427 0.0000 37.4433 0.0000
# 6 0.0000 0.0000 0.0000 -7.0088 0.0000 18.4327
#
#
#
# Elastic Compliance Matrix: (Units=1/GPa)
#
#
# Indices 1 2 3 4 5 6 
#
# 1 0.011552 -0.004972 -0.003172 0.000000 -0.001814 0.000000
# 2 -0.004972 0.020730 -0.001264 0.000000 0.003137 0.000000
# 3 -0.003172 -0.001264 0.010356 0.000000 0.001684 0.000000
# 4 0.000000 0.000000 0.000000 0.037392 0.000000 0.014218
# 5 -0.001814 0.003137 0.001684 0.000000 0.027544 0.000000
# 6 0.000000 0.000000 0.000000 0.014218 0.000000 0.059658
#
#
# Mechanical properties :
#
#
# Convention : Reuss Voigt Hill
#
# Bulk Modulus (GPa) = 41.97680 48.74534 45.36107
# Shear Modulus (GPa) = 25.77498 30.08998 27.93248
#
# Velocity S-wave (km/s) = 3.64487 3.93816 3.79435
# Velocity P-wave (km/s) = 6.27290 6.76782 6.52506
#
# Compressibility (1/GPa) = 0.02382268
#
# Stress axis : x y z
#
# Youngs Moduli (GPa) = 86.56628 48.23994 96.56318
#
# Poissons Ratio (x) = 0.23983 0.30632
# Poissons Ratio (y) = 0.43038 0.12201
# Poissons Ratio (z) = 0.27461 0.06095
#
# Static dielectric constant tensor:
#      x y z
#    x 3.538220 0.000000 -0.203830 
#    y 0.000000 3.472880 0.000000 
#    z -0.203830 0.000000 3.564740 
# 
# 
# High freq. dielectric constant tensor:
#      x y z
#    x 1.752650 0.000000 -0.014900 
#    y 0.000000 1.746710 0.000000 
#    z -0.014900 0.000000 1.760990 
# 
# From -- ./inp_files/47521.got.cif
#   From: 2010.03.12/outbox.cif.g09.slc.cpg/sg5_24_cif.got.tgz:47521.got - 2010.03.31 09:47:26.
