data_PCOD8049565
_publ_section_title
;
Structure prediction by ZEFSAII (Michael W. Deem and Ramdas Pophale) SiO2 
 PCOD8049565
Probable space group: C 2
;
_chemical_formula_sum "Si O2"
_cell_formula_units_Z 28
_cell_length_a 14.674465
_cell_length_b 12.628252
_cell_length_c 8.647587
_cell_angle_alpha 90.000000
_cell_angle_beta 126.909051
_cell_angle_gamma 90.000000
_cell_volume 1281.349790
_symmetry_space_group_name_H-M "C 2"
_symmetry_group_IT_number 5
_symmetry_cell_setting 'monoclinic'
loop_
_space_group_symop_operation_xyz
x,y,z
-x,y,-z
1/2+x,1/2+y,z
1/2-x,1/2+y,-z
loop_
_atom_site_type_symbol
_atom_site_label
_atom_site_fract_x
_atom_site_fract_y
_atom_site_fract_z
Si Si1 0.455139 0.962290 0.127774
Si Si2 0.170356 0.667893 0.994517
Si Si3 0.873536 0.130360 0.420478
Si Si4 0.187745 0.283229 0.098851
Si Si5 0.000000 0.808215 0.000000
Si Si6 0.000000 0.137919 0.000000
Si Si7 0.668727 0.837877 0.431029
Si Si8 0.378689 0.469822 0.683663
O O1 0.552150 0.904648 0.326570
O O2 0.500000 0.974762 0.000000
O O3 0.340692 0.892040 0.018024
O O4 0.417714 0.077187 0.151947
O O5 0.285220 0.619843 0.188185
O O6 0.203165 0.731653 0.872747
O O7 0.108205 0.738959 0.060372
O O8 0.832693 0.226752 0.484426
O O9 0.000000 0.159409 0.500000
O O10 0.877637 0.015034 0.508097
O O11 0.210502 0.307388 0.301484
O O12 0.072523 0.212249 0.958729
O O13 0.972629 0.880341 0.820454
O O14 0.903614 0.071218 0.815233
O O15 0.757776 0.918050 0.600553
#
# Coordination Sequence:
#
# PCOD8049565 Si02
#       8
#     4   4   4   4   2   2   4   4
#     4  10  20  40  71  94 131 180 224 270 333 406
#     4  12  25  43  71 104 139 178 227 283 353 403
#     4  12  24  44  69 104 132 179 235 280 332 415
#     4  11  22  43  71  98 133 183 229 275 339 418
#     4  11  26  45  64 102 146 177 224 299 356 394
#     4  11  20  43  66  98 132 179 230 281 340 404
#     4  11  22  44  68  99 134 177 231 283 332 404
#     4  11  24  40  70  94 135 181 225 284 348 395
#
# _framework density 21.851956000000001
#
# number of rings (size 3 to 8) (size 9 to 14) (size 15 to 20)
#    0.000    0.857    5.714    3.429    0.000    4.571 
#    2.571    0.000    0.000    0.000    0.000    0.000 
#    0.000    0.000    0.000    0.000    0.000    0.000 
#
# Total GULP energy -173530.058379 kJ/mol
# GULP energy per Si atom -12395.004170 kJ/mol
# Density = 2.180222 g / cm^3
# Si number density = 21.851956 Si / 1000 Ang^3
#
#
#
# Elastic Constant Matrix: (Units=GPa)
#
#
# Indices 1 2 3 4 5 6 
#
# 1 93.7579 39.7897 13.4163 0.0000 2.1680 0.0000
# 2 39.7897 118.3590 22.3656 0.0000 3.2592 0.0000
# 3 13.4163 22.3656 66.8910 0.0000 12.5769 0.0000
# 4 0.0000 0.0000 0.0000 22.5985 0.0000 10.7543
# 5 2.1680 3.2592 12.5769 0.0000 24.7227 0.0000
# 6 0.0000 0.0000 0.0000 10.7543 0.0000 46.4947
#
#
#
# Elastic Compliance Matrix: (Units=1/GPa)
#
#
# Indices 1 2 3 4 5 6 
#
# 1 0.012527 -0.003988 -0.001185 0.000000 0.000030 0.000000
# 2 -0.003988 0.010292 -0.002711 0.000000 0.000372 0.000000
# 3 -0.001185 -0.002711 0.017700 0.000000 -0.008543 0.000000
# 4 0.000000 0.000000 0.000000 0.049724 0.000000 -0.011501
# 5 0.000030 0.000372 -0.008543 0.000000 0.044743 0.000000
# 6 0.000000 0.000000 0.000000 -0.011501 0.000000 0.024168
#
#
# Mechanical properties :
#
#
# Convention : Reuss Voigt Hill
#
# Bulk Modulus (GPa) = 40.40297 47.79457 44.09877
# Shear Modulus (GPa) = 27.29666 32.32561 29.81114
#
# Velocity S-wave (km/s) = 3.53818 3.85034 3.69756
# Velocity P-wave (km/s) = 5.93475 6.45649 6.20111
#
# Compressibility (1/GPa) = 0.02475066
#
# Stress axis : x y z
#
# Youngs Moduli (GPa) = 79.82634 97.16542 56.49695
#
# Poissons Ratio (x) = 0.38753 0.06693
# Poissons Ratio (y) = 0.31837 0.15317
# Poissons Ratio (z) = 0.09457 0.26343
#
# Static dielectric constant tensor:
#      x y z
#    x 3.710440 0.000000 0.187690 
#    y 0.000000 4.231480 0.000000 
#    z 0.187690 0.000000 3.877570 
# 
# 
# High freq. dielectric constant tensor:
#      x y z
#    x 1.836840 0.000000 0.017030 
#    y 0.000000 1.878770 0.000000 
#    z 0.017030 0.000000 1.847720 
# 
# From -- ./inp_files/23967.got.cif
#   From: 2010.03.12/outbox.cif.g09.slc.cpg/sg5_12_cif.got.tgz:23967.got - 2010.03.31 09:47:26.
