data_PCOD8049860
_publ_section_title
;
Structure prediction by ZEFSAII (Michael W. Deem and Ramdas Pophale) SiO2 
 PCOD8049860
Probable space group: C 2
;
_chemical_formula_sum "Si O2"
_cell_formula_units_Z 18
_cell_length_a 7.879103
_cell_length_b 23.691586
_cell_length_c 5.106142
_cell_angle_alpha 90.000000
_cell_angle_beta 63.130506
_cell_angle_gamma 90.000000
_cell_volume 850.251289
_symmetry_space_group_name_H-M "C 2"
_symmetry_group_IT_number 5
_symmetry_cell_setting 'monoclinic'
loop_
_space_group_symop_operation_xyz
x,y,z
-x,y,-z
1/2+x,1/2+y,z
1/2-x,1/2+y,-z
loop_
_atom_site_type_symbol
_atom_site_label
_atom_site_fract_x
_atom_site_fract_y
_atom_site_fract_z
Si Si1 0.778435 0.714060 0.651559
Si Si2 0.000000 0.309551 0.000000
Si Si3 0.000000 0.047689 0.500000
Si Si4 0.609852 0.439134 0.669212
Si Si5 0.722402 0.142507 0.850179
Si Si6 0.000000 0.381837 0.500000
O O1 0.673877 0.772762 0.770001
O O2 0.718360 0.686099 0.419280
O O3 0.000000 0.728163 0.500000
O O4 0.718774 0.670399 0.918042
O O5 0.930736 0.345851 0.799088
O O6 0.836492 0.084674 0.747419
O O7 0.900442 0.007503 0.351285
O O8 0.500000 0.410401 0.500000
O O9 0.828331 0.421117 0.524053
O O10 0.500000 0.417925 0.000000
O O11 0.500000 0.127768 0.000000
#
# Coordination Sequence:
#
# PCOD8049860 Si02
#       6
#     4   2   2   4   4   2
#     4  10  22  40  60  95 130 159 207 260 313 385
#     4  12  24  40  70  90 122 176 212 264 326 376
#     4  10  24  39  68  92 128 173 206 256 322 376
#     4  10  25  44  64  92 131 169 215 272 312 375
#     4  10  21  37  63  95 129 164 203 254 315 390
#     4  12  26  45  66  96 126 171 222 272 320 370
#
# _framework density 21.170213
#
# number of rings (size 3 to 8) (size 9 to 14) (size 15 to 20)
#    0.667    0.889    0.000    4.000    3.111    4.444 
#    2.000    0.000    0.000    0.000    0.000    0.000 
#    0.000    0.000    0.000    0.000    0.000    0.000 
#
# Total GULP energy -111614.573511 kJ/mol
# GULP energy per Si atom -12401.619279 kJ/mol
# Density = 2.112203 g / cm^3
# Si number density = 21.170213 Si / 1000 Ang^3
#
#
#
# Elastic Constant Matrix: (Units=GPa)
#
#
# Indices 1 2 3 4 5 6 
#
# 1 125.9041 62.4127 56.0429 0.0000 -5.6943 0.0000
# 2 62.4127 110.2621 51.6203 0.0000 -14.4899 0.0000
# 3 56.0429 51.6203 148.1881 0.0000 4.2010 0.0000
# 4 0.0000 0.0000 0.0000 15.0392 0.0000 -1.1231
# 5 -5.6943 -14.4899 4.2010 0.0000 24.2499 0.0000
# 6 0.0000 0.0000 0.0000 -1.1231 0.0000 24.0482
#
#
#
# Elastic Compliance Matrix: (Units=1/GPa)
#
#
# Indices 1 2 3 4 5 6 
#
# 1 0.011796 -0.005495 -0.002545 0.000000 -0.000073 0.000000
# 2 -0.005495 0.014795 -0.003306 0.000000 0.008123 0.000000
# 3 -0.002545 -0.003306 0.008979 0.000000 -0.004128 0.000000
# 4 0.000000 0.000000 0.000000 0.066726 0.000000 0.003116
# 5 -0.000073 0.008123 -0.004128 0.000000 0.046789 0.000000
# 6 0.000000 0.000000 0.000000 0.003116 0.000000 0.041729
#
#
# Mechanical properties :
#
#
# Convention : Reuss Voigt Hill
#
# Bulk Modulus (GPa) = 77.64869 80.50068 79.07468
# Shear Modulus (GPa) = 22.95708 26.95269 24.95489
#
# Velocity S-wave (km/s) = 3.29660 3.57198 3.43705
# Velocity P-wave (km/s) = 7.15877 7.42429 7.29274
#
# Compressibility (1/GPa) = 0.01287852
#
# Stress axis : x y z
#
# Youngs Moduli (GPa) = 84.77372 67.59120 111.36886
#
# Poissons Ratio (x) = 0.37143 0.28342
# Poissons Ratio (y) = 0.46585 0.36815
# Poissons Ratio (z) = 0.21574 0.22344
#
# Static dielectric constant tensor:
#      x y z
#    x 3.951420 0.000000 0.035020 
#    y 0.000000 3.625340 0.000000 
#    z 0.035020 0.000000 4.013600 
# 
# 
# High freq. dielectric constant tensor:
#      x y z
#    x 1.836080 0.000000 0.000560 
#    y 0.000000 1.818420 0.000000 
#    z 0.000560 0.000000 1.848930 
# 
# From -- ./inp_files/2511.got.cif
#   From: 2010.03.12/outbox.cif.g09.slc.cpg/sg5_2_cif.got.tgz:2511.got - 2010.03.31 09:47:26.
