data_PCOD8049676
_publ_section_title
;
Structure prediction by ZEFSAII (Michael W. Deem and Ramdas Pophale) SiO2 
 PCOD8049676
Probable space group: C 2
;
_chemical_formula_sum "Si O2"
_cell_formula_units_Z 20
_cell_length_a 25.237684
_cell_length_b 6.937173
_cell_length_c 17.720525
_cell_angle_alpha 90.000000
_cell_angle_beta 16.396094
_cell_angle_gamma 90.000000
_cell_volume 875.755051
_symmetry_space_group_name_H-M "C 2"
_symmetry_group_IT_number 5
_symmetry_cell_setting 'monoclinic'
loop_
_space_group_symop_operation_xyz
x,y,z
-x,y,-z
1/2+x,1/2+y,z
1/2-x,1/2+y,-z
loop_
_atom_site_type_symbol
_atom_site_label
_atom_site_fract_x
_atom_site_fract_y
_atom_site_fract_z
Si Si1 0.500000 0.090070 0.500000
Si Si2 0.588982 0.110702 0.148356
Si Si3 0.500000 0.752571 0.000000
Si Si4 0.289970 0.937711 0.649723
Si Si5 0.547496 0.402503 0.324948
Si Si6 0.641558 0.059600 0.907260
O O1 0.617949 0.223356 0.280552
O O2 0.353940 0.963809 0.650023
O O3 0.530276 0.317927 0.263549
O O4 0.471148 0.932557 0.346898
O O5 0.558224 0.123098 0.101166
O O6 0.808425 0.077805 0.867060
O O7 0.680617 0.619784 0.763934
O O8 0.492601 0.901251 0.080705
O O9 0.164035 0.744897 0.820508
O O10 0.348217 0.467861 0.630523
#
# Coordination Sequence:
#
# PCOD8049676 Si02
#       6
#     2   4   2   4   4   4
#     4  10  20  42  70 106 146 168 232 304 340 408
#     4  11  23  42  70 108 139 184 235 289 356 419
#     4  12  24  56  66 100 156 182 242 294 342 432
#     4  11  26  45  74 107 139 191 236 291 358 421
#     4  11  21  40  69 109 145 175 232 293 352 417
#     4  12  25  47  73  98 147 190 230 296 352 417
#
# _framework density 22.837434999999999
#
# number of rings (size 3 to 8) (size 9 to 14) (size 15 to 20)
#    0.000    0.800    6.000    1.800    8.400    0.000 
#   10.800    0.000    0.000    0.000    0.000    0.000 
#    0.000    0.000    0.000    0.000    0.000    0.000 
#
# Total GULP energy -123923.485363 kJ/mol
# GULP energy per Si atom -12392.348536 kJ/mol
# Density = 2.278546 g / cm^3
# Si number density = 22.837435 Si / 1000 Ang^3
#
#
#
# Elastic Constant Matrix: (Units=GPa)
#
#
# Indices 1 2 3 4 5 6 
#
# 1 96.8304 25.0587 46.9258 0.0000 4.4575 0.0000
# 2 25.0587 99.6968 22.7431 -0.0005 -4.7616 -0.0001
# 3 46.9258 22.7431 55.0288 -0.0001 5.8153 0.0000
# 4 0.0000 -0.0005 -0.0001 30.4186 -0.0001 -2.6164
# 5 4.4575 -4.7616 5.8153 -0.0001 38.7258 0.0000
# 6 0.0000 -0.0001 0.0000 -2.6164 0.0000 32.5967
#
#
#
# Elastic Compliance Matrix: (Units=1/GPa)
#
#
# Indices 1 2 3 4 5 6 
#
# 1 0.017712 -0.001109 -0.014648 0.000000 0.000025 0.000000
# 2 -0.001109 0.011312 -0.003952 0.000000 0.002112 0.000000
# 3 -0.014648 -0.003952 0.032689 0.000000 -0.003709 0.000000
# 4 0.000000 0.000000 0.000000 0.033103 0.000000 0.002657
# 5 0.000025 0.002112 -0.003709 0.000000 0.026636 0.000000
# 6 0.000000 0.000000 0.000000 0.002657 0.000000 0.030891
#
#
# Mechanical properties :
#
#
# Convention : Reuss Voigt Hill
#
# Bulk Modulus (GPa) = 44.85661 49.00122 46.92892
# Shear Modulus (GPa) = 25.10124 30.80347 27.95236
#
# Velocity S-wave (km/s) = 3.31891 3.67661 3.50233
# Velocity P-wave (km/s) = 5.86269 6.28700 6.07855
#
# Compressibility (1/GPa) = 0.02229326
#
# Stress axis : x y z
#
# Youngs Moduli (GPa) = 56.45913 88.40400 30.59154
#
# Poissons Ratio (x) = 0.09805 0.44810
# Poissons Ratio (y) = 0.06262 0.12091
# Poissons Ratio (z) = 0.82701 0.34941
#
# Static dielectric constant tensor:
#      x y z
#    x 4.137660 0.000000 0.001660 
#    y 0.000000 4.243140 0.000000 
#    z 0.001660 0.000000 3.950540 
# 
# 
# High freq. dielectric constant tensor:
#      x y z
#    x 1.898700 0.000000 0.003030 
#    y 0.000000 1.904310 0.000000 
#    z 0.003030 0.000000 1.881790 
# 
# From -- ./inp_files/18382.got.cif
#   From: 2010.03.12/outbox.cif.g09.slc.cpg/sg5_10_cif.got.tgz:18382.got - 2010.03.31 09:47:26.
