data_PCOD8049341
_publ_section_title
;
Structure prediction by ZEFSAII (Michael W. Deem and Ramdas Pophale) SiO2 
 PCOD8049341
Probable space group: C 2
;
_chemical_formula_sum "Si O2"
_cell_formula_units_Z 20
_cell_length_a 4.827614
_cell_length_b 21.755049
_cell_length_c 8.666635
_cell_angle_alpha 90.000000
_cell_angle_beta 89.919792
_cell_angle_gamma 90.000000
_cell_volume 910.212268
_symmetry_space_group_name_H-M "C 2"
_symmetry_group_IT_number 5
_symmetry_cell_setting 'monoclinic'
loop_
_space_group_symop_operation_xyz
x,y,z
-x,y,-z
1/2+x,1/2+y,z
1/2-x,1/2+y,-z
loop_
_atom_site_type_symbol
_atom_site_label
_atom_site_fract_x
_atom_site_fract_y
_atom_site_fract_z
Si Si1 0.534343 0.996200 0.824905
Si Si2 0.043892 0.055714 0.681162
Si Si3 0.488899 0.271249 0.680617
Si Si4 0.243728 0.371977 0.102678
Si Si5 0.519812 0.691607 0.319184
O O1 0.425748 0.926041 0.810823
O O2 0.850028 0.005972 0.769146
O O3 0.500000 0.018919 0.000000
O O4 0.359698 0.038068 0.709944
O O5 0.015467 0.124209 0.754393
O O6 0.000000 0.053449 0.500000
O O7 0.500000 0.289391 0.500000
O O8 0.603760 0.328555 0.775642
O O9 0.674158 0.212717 0.722791
O O10 0.187528 0.246813 0.733449
O O11 0.500000 0.398815 0.000000
O O12 0.000000 0.338787 0.000000
O O13 0.500000 0.682723 0.500000
#
# Coordination Sequence:
#
# PCOD8049341 Si02
#       5
#     4   4   4   4   4
#     4  11  23  41  61  86 125 167 201 248 313 364
#     4  11  22  40  65  92 121 158 208 254 299 365
#     4  10  20  38  63  88 117 156 202 249 300 363
#     4  11  23  41  61  85 124 167 204 249 309 366
#     4   9  19  36  60  89 121 154 191 250 315 356
#
# _framework density 21.972895000000001
#
# number of rings (size 3 to 8) (size 9 to 14) (size 15 to 20)
#    0.000    1.600    0.000    6.000    0.000    4.000 
#    0.000   18.000    0.000    0.000    0.000    0.000 
#    0.000    0.000    0.000    0.000    0.000    0.000 
#
# Total GULP energy -123914.720839 kJ/mol
# GULP energy per Si atom -12391.472084 kJ/mol
# Density = 2.192288 g / cm^3
# Si number density = 21.972895 Si / 1000 Ang^3
#
#
#
# Elastic Constant Matrix: (Units=GPa)
#
#
# Indices 1 2 3 4 5 6 
#
# 1 83.7671 15.6811 17.9443 0.0000 7.8540 0.0000
# 2 15.6811 116.6266 41.7188 0.0000 9.1844 0.0000
# 3 17.9443 41.7188 82.5884 0.0000 17.1908 0.0000
# 4 0.0000 0.0000 0.0000 -19.7470 0.0000 16.5601
# 5 7.8540 9.1844 17.1908 0.0000 40.8855 0.0000
# 6 0.0000 0.0000 0.0000 16.5601 0.0000 74.5254
#
#
#
# Elastic Compliance Matrix: (Units=1/GPa)
#
#
# Indices 1 2 3 4 5 6 
#
# 1 0.012664 -0.000870 -0.002024 0.000000 -0.001387 0.000000
# 2 -0.000870 0.010526 -0.005119 0.000000 -0.000045 0.000000
# 3 -0.002024 -0.005119 0.016234 0.000000 -0.005287 0.000000
# 4 0.000000 0.000000 0.000000 -0.042686 0.000000 0.009485
# 5 -0.001387 -0.000045 -0.005287 0.000000 0.026958 0.000000
# 6 0.000000 0.000000 0.000000 0.009485 0.000000 0.011311
#
#
# Mechanical properties :
#
#
# Convention : Reuss Voigt Hill
#
# Bulk Modulus (GPa) = 42.73487 48.18560 45.46023
# Shear Modulus (GPa) = 84.98951 32.97530 58.98241
#
# Velocity S-wave (km/s) = 6.22601 3.87812 5.18667
# Velocity P-wave (km/s) = 8.43655 6.48308 7.52349
#
# Compressibility (1/GPa) = 0.02340009
#
# Stress axis : x y z
#
# Youngs Moduli (GPa) = 78.96292 95.00392 61.59866
#
# Poissons Ratio (x) = 0.08262 0.12466
# Poissons Ratio (y) = 0.06867 0.31530
# Poissons Ratio (z) = 0.15980 0.48629
#
# Static dielectric constant tensor:
#      x y z
#    x 4.826240 0.000000 0.015580 
#    y 0.000000 3.893720 0.000000 
#    z 0.015580 0.000000 3.850120 
# 
# 
# High freq. dielectric constant tensor:
#      x y z
#    x 1.887160 0.000000 0.017630 
#    y 0.000000 1.860430 0.000000 
#    z 0.017630 0.000000 1.843280 
# 
# From -- ./inp_files/12531.got.cif
#   From: 2010.03.12/outbox.cif.g09.slc.cpg/sg5_7_cif.got.tgz:12531.got - 2010.03.31 09:47:26.
