data_PCOD8049840
_publ_section_title
;
Structure prediction by ZEFSAII (Michael W. Deem and Ramdas Pophale) SiO2 
 PCOD8049840
Probable space group: C 2
;
_chemical_formula_sum "Si O2"
_cell_formula_units_Z 26
_cell_length_a 10.431270
_cell_length_b 9.532141
_cell_length_c 17.534215
_cell_angle_alpha 90.000000
_cell_angle_beta 52.134966
_cell_angle_gamma 90.000000
_cell_volume 1376.396161
_symmetry_space_group_name_H-M "C 2"
_symmetry_group_IT_number 5
_symmetry_cell_setting 'monoclinic'
loop_
_space_group_symop_operation_xyz
x,y,z
-x,y,-z
1/2+x,1/2+y,z
1/2-x,1/2+y,-z
loop_
_atom_site_type_symbol
_atom_site_label
_atom_site_fract_x
_atom_site_fract_y
_atom_site_fract_z
Si Si1 0.373293 0.111130 0.112832
Si Si2 0.612904 0.121025 0.582730
Si Si3 0.873442 0.287016 0.113936
Si Si4 0.334786 0.819185 0.422062
Si Si5 0.446380 0.787485 0.798619
Si Si6 0.000000 0.798527 0.500000
Si Si7 0.050230 0.613687 0.200848
O O1 0.217096 0.200863 0.149261
O O2 0.457837 0.166333 0.159210
O O3 0.321621 0.949164 0.139355
O O4 0.500000 0.134076 0.000000
O O5 0.476114 0.200043 0.583534
O O6 0.577935 0.138468 0.684562
O O7 0.211693 0.193476 0.502436
O O8 0.596744 0.958092 0.562525
O O9 0.713446 0.199198 0.154694
O O10 0.954190 0.235606 0.163613
O O11 0.000000 0.261754 0.000000
O O12 0.451322 0.757157 0.315087
O O13 0.167971 0.883829 0.444060
O O14 0.401590 0.950787 0.823741
#
# Coordination Sequence:
#
# PCOD8049840 Si02
#       7
#     4   4   4   4   4   2   4
#     4  10  22  39  57  83 117 146 184 234 280 332
#     4   9  19  37  53  79 110 143 183 226 270 326
#     4  10  21  37  60  84 109 147 191 229 278 338
#     4   9  19  37  54  79 109 146 182 227 272 326
#     4  10  21  38  56  84 116 145 187 232 279 329
#     4   8  18  36  54  72 114 142 176 232 274 310
#     4  10  21  38  56  84 115 144 188 233 274 334
#
# _framework density 18.889911000000001
#
# number of rings (size 3 to 8) (size 9 to 14) (size 15 to 20)
#    0.923    1.538    0.000    1.846    0.000    3.077 
#   11.077    0.000    0.000    0.000    0.000    0.000 
#    0.000    0.000    0.000    0.000    0.000    0.000 
#
# Total GULP energy -161086.858480 kJ/mol
# GULP energy per Si atom -12391.296806 kJ/mol
# Density = 1.884692 g / cm^3
# Si number density = 18.889911 Si / 1000 Ang^3
#
#
#
# Elastic Constant Matrix: (Units=GPa)
#
#
# Indices 1 2 3 4 5 6 
#
# 1 109.3717 36.5385 32.2074 0.0000 4.9612 0.0000
# 2 36.5385 59.0574 37.6823 0.0000 3.7310 0.0000
# 3 32.2074 37.6823 87.0169 0.0000 10.4454 0.0000
# 4 0.0000 0.0000 0.0000 19.5763 0.0000 -7.1736
# 5 4.9612 3.7310 10.4454 0.0000 36.0775 0.0000
# 6 0.0000 0.0000 0.0000 -7.1736 0.0000 28.0200
#
#
#
# Elastic Compliance Matrix: (Units=1/GPa)
#
#
# Indices 1 2 3 4 5 6 
#
# 1 0.011704 -0.006196 -0.001588 0.000000 -0.000509 0.000000
# 2 -0.006196 0.026687 -0.009360 0.000000 0.000802 0.000000
# 3 -0.001588 -0.009360 0.016566 0.000000 -0.003610 0.000000
# 4 0.000000 0.000000 0.000000 0.056370 0.000000 0.014432
# 5 -0.000509 0.000802 -0.003610 0.000000 0.028750 0.000000
# 6 0.000000 0.000000 0.000000 0.014432 0.000000 0.039384
#
#
# Mechanical properties :
#
#
# Convention : Reuss Voigt Hill
#
# Bulk Modulus (GPa) = 48.37786 52.03359 50.20572
# Shear Modulus (GPa) = 22.66147 26.66928 24.66538
#
# Velocity S-wave (km/s) = 3.46737 3.76150 3.61743
# Velocity P-wave (km/s) = 6.45726 6.81694 6.63954
#
# Compressibility (1/GPa) = 0.02067061
#
# Stress axis : x y z
#
# Youngs Moduli (GPa) = 85.44370 37.47073 60.36357
#
# Poissons Ratio (x) = 0.23216 0.09584
# Poissons Ratio (y) = 0.52939 0.56500
# Poissons Ratio (z) = 0.13566 0.35072
#
# Static dielectric constant tensor:
#      x y z
#    x 3.414690 0.000000 0.169370 
#    y 0.000000 3.341290 0.000000 
#    z 0.169370 0.000000 3.596840 
# 
# 
# High freq. dielectric constant tensor:
#      x y z
#    x 1.730160 0.000000 0.007840 
#    y 0.000000 1.724040 0.000000 
#    z 0.007840 0.000000 1.743730 
# 
# From -- ./inp_files/64383.got.cif
#   From: 2010.03.12/outbox.cif.g09.slc.cpg/sg5_33_cif.got.tgz:64383.got - 2010.03.31 09:47:26.
