data_PCOD8049207
_publ_section_title
;
Structure prediction by ZEFSAII (Michael W. Deem and Ramdas Pophale) SiO2 
 PCOD8049207
Probable space group: C 2
;
_chemical_formula_sum "Si O2"
_cell_formula_units_Z 30
_cell_length_a 18.007065
_cell_length_b 13.349998
_cell_length_c 6.411685
_cell_angle_alpha 90.000000
_cell_angle_beta 65.942115
_cell_angle_gamma 90.000000
_cell_volume 1407.443140
_symmetry_space_group_name_H-M "C 2"
_symmetry_group_IT_number 5
_symmetry_cell_setting 'monoclinic'
loop_
_space_group_symop_operation_xyz
x,y,z
-x,y,-z
1/2+x,1/2+y,z
1/2-x,1/2+y,-z
loop_
_atom_site_type_symbol
_atom_site_label
_atom_site_fract_x
_atom_site_fract_y
_atom_site_fract_z
Si Si1 0.000000 0.925400 0.500000
Si Si2 0.716448 0.027415 0.645217
Si Si3 0.105351 0.040302 0.708896
Si Si4 0.177534 0.361008 0.997387
Si Si5 0.886883 0.265486 0.310217
Si Si6 0.266625 0.243417 0.229345
Si Si7 0.415199 0.949615 0.521461
Si Si8 0.577039 0.365089 0.019746
O O1 0.938580 0.990507 0.435632
O O2 0.939481 0.858587 0.713481
O O3 0.797147 0.035519 0.415491
O O4 0.728693 0.934314 0.787954
O O5 0.637267 0.014616 0.584924
O O6 0.706529 0.127719 0.795500
O O7 0.075295 0.155140 0.738627
O O8 0.081344 0.983433 0.949778
O O9 0.112515 0.303128 0.928896
O O10 0.230347 0.273472 0.045309
O O11 0.137568 0.433032 0.212620
O O12 0.795387 0.268181 0.512239
O O13 0.939742 0.342435 0.388756
O O14 0.345559 0.311303 0.164310
O O15 0.500000 0.001780 0.500000
O O16 0.500000 0.312654 0.000000
#
# Coordination Sequence:
#
# PCOD8049207 Si02
#       8
#     2   4   4   4   4   4   4   4
#     4  10  22  36  58  90 124 166 198 244 316 368
#     4  10  22  39  63  92 120 162 210 257 303 371
#     4  10  20  37  60  89 124 154 200 253 309 363
#     4  10  20  38  61  88 117 161 199 251 308 361
#     4   9  21  36  60  92 118 155 202 256 304 370
#     4  10  21  39  63  87 121 157 210 254 305 369
#     4  10  22  40  57  86 124 161 206 251 306 361
#     4  10  21  38  56  85 123 161 198 251 304 359
#
# _framework density 21.315248
#
# number of rings (size 3 to 8) (size 9 to 14) (size 15 to 20)
#    0.000    2.133    0.000    3.200    0.933    9.600 
#    7.200    0.000    1.467    0.000    0.000    0.000 
#    0.000    0.000    0.000    0.000    0.000    0.000 
#
# Total GULP energy -185887.874493 kJ/mol
# GULP energy per Si atom -12392.524966 kJ/mol
# Density = 2.126673 g / cm^3
# Si number density = 21.315248 Si / 1000 Ang^3
#
#
#
# Elastic Constant Matrix: (Units=GPa)
#
#
# Indices 1 2 3 4 5 6 
#
# 1 100.7970 14.4456 19.3944 0.0000 11.5338 0.0000
# 2 14.4456 74.9021 24.4683 0.0000 10.2330 0.0000
# 3 19.3944 24.4683 96.7350 0.0000 19.2452 0.0000
# 4 0.0000 0.0000 0.0000 27.2871 0.0000 0.8380
# 5 11.5338 10.2330 19.2452 0.0000 27.8492 0.0000
# 6 0.0000 0.0000 0.0000 0.8380 0.0000 10.7682
#
#
#
# Elastic Compliance Matrix: (Units=1/GPa)
#
#
# Indices 1 2 3 4 5 6 
#
# 1 0.010690 -0.001239 -0.001205 0.000000 -0.003139 0.000000
# 2 -0.001239 0.014955 -0.002949 0.000000 -0.002944 0.000000
# 3 -0.001205 -0.002949 0.012765 0.000000 -0.007239 0.000000
# 4 0.000000 0.000000 0.000000 0.036735 0.000000 -0.002859
# 5 -0.003139 -0.002944 -0.007239 0.000000 0.043292 0.000000
# 6 0.000000 0.000000 0.000000 -0.002859 0.000000 0.093089
#
#
# Mechanical properties :
#
#
# Convention : Reuss Voigt Hill
#
# Bulk Modulus (GPa) = 36.20024 43.22785 39.71405
# Shear Modulus (GPa) = 21.59645 27.45595 24.52620
#
# Velocity S-wave (km/s) = 3.18652 3.59289 3.39579
# Velocity P-wave (km/s) = 5.52799 6.12667 5.83501
#
# Compressibility (1/GPa) = 0.02762412
#
# Stress axis : x y z
#
# Youngs Moduli (GPa) = 93.54906 66.86636 78.33848
#
# Poissons Ratio (x) = 0.08285 0.09442
# Poissons Ratio (y) = 0.11591 0.23099
# Poissons Ratio (z) = 0.11275 0.19716
#
# Static dielectric constant tensor:
#      x y z
#    x 3.875870 0.000000 0.072560 
#    y 0.000000 3.855860 0.000000 
#    z 0.072560 0.000000 3.884100 
# 
# 
# High freq. dielectric constant tensor:
#      x y z
#    x 1.834470 0.000000 0.002430 
#    y 0.000000 1.818240 0.000000 
#    z 0.002430 0.000000 1.842270 
# 
# From -- ./inp_files/8646.got.cif
#   From: 2010.03.12/outbox.cif.g09.slc.cpg/sg5_5_cif.got.tgz:8646.got - 2010.03.31 09:47:26.
