data_PCOD8049538
_publ_section_title
;
Structure prediction by ZEFSAII (Michael W. Deem and Ramdas Pophale) SiO2 
 PCOD8049538
Probable space group: C 2
;
_chemical_formula_sum "Si O2"
_cell_formula_units_Z 32
_cell_length_a 29.157042
_cell_length_b 11.156926
_cell_length_c 8.872310
_cell_angle_alpha 90.000000
_cell_angle_beta 31.252525
_cell_angle_gamma 90.000000
_cell_volume 1497.386255
_symmetry_space_group_name_H-M "C 2"
_symmetry_group_IT_number 5
_symmetry_cell_setting 'monoclinic'
loop_
_space_group_symop_operation_xyz
x,y,z
-x,y,-z
1/2+x,1/2+y,z
1/2-x,1/2+y,-z
loop_
_atom_site_type_symbol
_atom_site_label
_atom_site_fract_x
_atom_site_fract_y
_atom_site_fract_z
Si Si1 0.106487 0.622500 0.520126
Si Si2 0.917990 0.353374 0.330467
Si Si3 0.657372 0.082459 0.055500
Si Si4 0.590638 0.447904 0.838056
Si Si5 0.731891 0.262974 0.366063
Si Si6 0.189526 0.176966 0.546464
Si Si7 0.462192 0.276481 0.762564
Si Si8 0.405831 0.822498 0.709142
O O1 0.073390 0.495298 0.674012
O O2 0.163200 0.666345 0.499985
O O3 0.027916 0.712609 0.696549
O O4 0.168244 0.615109 0.199959
O O5 0.834447 0.299188 0.475582
O O6 0.910638 0.299838 0.517921
O O7 0.000000 0.308155 0.000000
O O8 0.754431 0.085088 0.714052
O O9 0.604824 0.175322 0.101190
O O10 0.604546 0.957650 0.198623
O O11 0.677415 0.388114 0.515052
O O12 0.606547 0.590421 0.819912
O O13 0.500000 0.429990 0.000000
O O14 0.582380 0.386410 0.025403
O O15 0.757085 0.223032 0.461370
O O16 0.819631 0.257170 0.016886
O O17 0.500000 0.330566 0.500000
O O18 0.500000 0.771258 0.500000
#
# Coordination Sequence:
#
# PCOD8049538 Si02
#       8
#     4   4   4   4   4   4   4   4
#     4  10  23  40  68 101 128 175 231 284 343 408
#     4  11  25  43  68  97 136 181 230 281 344 410
#     4  10  20  40  66  99 134 171 223 286 341 407
#     4  12  25  45  68 100 141 183 224 280 353 412
#     4  12  25  41  69  99 133 179 230 284 342 412
#     4  12  26  42  66  98 144 179 231 282 349 414
#     4  10  21  41  68 101 136 175 229 288 344 409
#     4  11  23  44  69  99 136 178 226 283 350 415
#
# _framework density 21.370573
#
# number of rings (size 3 to 8) (size 9 to 14) (size 15 to 20)
#    0.000    1.000    3.750    3.750    3.500    1.000 
#    0.000    4.375    0.000    0.000    0.000    0.000 
#    0.000    0.000    0.000    0.000    0.000    0.000 
#
# Total GULP energy -198235.507473 kJ/mol
# GULP energy per Si atom -12389.719217 kJ/mol
# Density = 2.132193 g / cm^3
# Si number density = 21.370573 Si / 1000 Ang^3
#
#
#
# Elastic Constant Matrix: (Units=GPa)
#
#
# Indices 1 2 3 4 5 6 
#
# 1 142.7713 26.6807 35.3317 0.0000 -2.1844 0.0000
# 2 26.6807 48.0251 20.1302 0.0000 -0.8559 0.0000
# 3 35.3317 20.1302 113.3609 0.0000 7.5245 0.0000
# 4 0.0000 0.0000 0.0000 -118.3485 0.0000 92.0558
# 5 -2.1844 -0.8559 7.5245 0.0000 31.1442 0.0000
# 6 0.0000 0.0000 0.0000 92.0558 0.0000 -38.6003
#
#
#
# Elastic Compliance Matrix: (Units=1/GPa)
#
#
# Indices 1 2 3 4 5 6 
#
# 1 0.008198 -0.003717 -0.001958 0.000000 0.000946 0.000000
# 2 -0.003717 0.024262 -0.003229 0.000000 0.001186 0.000000
# 3 -0.001958 -0.003229 0.010183 0.000000 -0.002686 0.000000
# 4 0.000000 0.000000 0.000000 0.009882 0.000000 0.023568
# 5 0.000946 0.001186 -0.002686 0.000000 0.032857 0.000000
# 6 0.000000 0.000000 0.000000 0.023568 0.000000 0.030299
#
#
# Mechanical properties :
#
#
# Convention : Reuss Voigt Hill
#
# Bulk Modulus (GPa) = 40.26365 52.04916 46.15640
# Shear Modulus (GPa) = 35.26931 -10.35993 12.45469
#
# Velocity S-wave (km/s) = 4.06688 -2.20415 2.41674
# Velocity P-wave (km/s) = 6.39799 4.23447 5.42517
#
# Compressibility (1/GPa) = 0.02483630
#
# Stress axis : x y z
#
# Youngs Moduli (GPa) = 121.98443 41.21709 98.20088
#
# Poissons Ratio (x) = 0.15320 0.19226
# Poissons Ratio (y) = 0.45340 0.31705
# Poissons Ratio (z) = 0.23882 0.13307
#
# Static dielectric constant tensor:
#      x y z
#    x 4.772260 0.000000 1.071520 
#    y 0.000000 3.727070 0.000000 
#    z 1.071520 0.000000 5.190390 
# 
# 
# High freq. dielectric constant tensor:
#      x y z
#    x 1.844850 0.000000 0.004870 
#    y 0.000000 1.826370 0.000000 
#    z 0.004870 0.000000 1.850430 
# 
# From -- ./inp_files/32626.got.cif
#   From: 2010.03.12/outbox.cif.g09.slc.cpg/sg5_17_cif.got.tgz:32626.got - 2010.03.31 09:47:26.
