data_PCOD8049712
_publ_section_title
;
Structure prediction by ZEFSAII (Michael W. Deem and Ramdas Pophale) SiO2 
 PCOD8049712
Probable space group: C 2
;
_chemical_formula_sum "Si O2"
_cell_formula_units_Z 28
_cell_length_a 15.791123
_cell_length_b 8.220425
_cell_length_c 13.602623
_cell_angle_alpha 90.000000
_cell_angle_beta 49.823062
_cell_angle_gamma 90.000000
_cell_volume 1349.133755
_symmetry_space_group_name_H-M "C 2"
_symmetry_group_IT_number 5
_symmetry_cell_setting 'monoclinic'
loop_
_space_group_symop_operation_xyz
x,y,z
-x,y,-z
1/2+x,1/2+y,z
1/2-x,1/2+y,-z
loop_
_atom_site_type_symbol
_atom_site_label
_atom_site_fract_x
_atom_site_fract_y
_atom_site_fract_z
Si Si1 0.819653 0.240890 0.512435
Si Si2 0.955829 0.382801 0.902414
Si Si3 0.442576 0.887328 0.681227
Si Si4 0.334329 0.742119 0.161183
Si Si5 0.000000 0.665823 0.500000
Si Si6 0.000000 0.676560 0.000000
Si Si7 0.715221 0.367860 0.775879
Si Si8 0.805356 0.868414 0.574897
O O1 0.729865 0.332849 0.648749
O O2 0.781464 0.275484 0.430482
O O3 0.944877 0.300913 0.439340
O O4 0.820372 0.050292 0.528786
O O5 0.939984 0.401472 0.799615
O O6 0.053384 0.259055 0.859259
O O7 0.848253 0.308092 0.038863
O O8 0.982054 0.564818 0.918479
O O9 0.328621 0.793830 0.738871
O O10 0.434449 0.058828 0.629796
O O11 0.294377 0.557724 0.193724
O O12 0.244183 0.861453 0.278194
O O13 0.078329 0.775896 0.509572
O O14 0.892441 0.785456 0.097993
#
# Coordination Sequence:
#
# PCOD8049712 Si02
#       8
#     4   4   4   4   2   2   4   4
#     4  12  25  44  72 103 134 184 224 276 350 409
#     4  10  23  42  69  93 131 179 227 285 331 414
#     4  12  24  44  67 102 142 173 224 282 342 399
#     4  10  20  44  65  93 131 180 228 269 340 393
#     4  12  26  44  66 104 140 172 222 294 334 410
#     4  10  24  44  66  96 128 180 240 272 342 400
#     4  12  24  43  69  98 139 177 227 289 325 415
#     4  12  25  44  71  99 138 177 227 281 341 409
#
# _framework density 20.754059000000002
#
# number of rings (size 3 to 8) (size 9 to 14) (size 15 to 20)
#    0.000    0.857    4.286    4.286    4.000    1.143 
#    0.000    0.000    0.000    0.000    0.000    0.000 
#    0.000    0.000    0.000    0.000    0.000    0.000 
#
# Total GULP energy -173567.485641 kJ/mol
# GULP energy per Si atom -12397.677546 kJ/mol
# Density = 2.070682 g / cm^3
# Si number density = 20.754059 Si / 1000 Ang^3
#
#
#
# Elastic Constant Matrix: (Units=GPa)
#
#
# Indices 1 2 3 4 5 6 
#
# 1 84.4362 38.4669 43.7354 0.0000 -12.4286 0.0000
# 2 38.4669 129.2358 48.9395 0.0000 -6.6072 -0.0001
# 3 43.7354 48.9395 124.3762 0.0000 -7.5910 0.0000
# 4 0.0000 0.0000 0.0000 27.9675 0.0000 -7.9711
# 5 -12.4286 -6.6072 -7.5910 0.0000 47.7918 0.0000
# 6 0.0000 -0.0001 0.0000 -7.9711 0.0000 20.7524
#
#
#
# Elastic Compliance Matrix: (Units=1/GPa)
#
#
# Indices 1 2 3 4 5 6 
#
# 1 0.015820 -0.002958 -0.004214 0.000000 0.003036 0.000000
# 2 -0.002958 0.009669 -0.002756 0.000000 0.000130 0.000000
# 3 -0.004214 -0.002756 0.010619 0.000000 0.000210 0.000000
# 4 0.000000 0.000000 0.000000 0.040151 0.000000 0.015422
# 5 0.003036 0.000130 0.000210 0.000000 0.021765 0.000000
# 6 0.000000 0.000000 0.000000 0.015422 0.000000 0.054111
#
#
# Mechanical properties :
#
#
# Convention : Reuss Voigt Hill
#
# Bulk Modulus (GPa) = 61.53136 66.70353 64.11745
# Shear Modulus (GPa) = 28.18342 33.09608 30.63975
#
# Velocity S-wave (km/s) = 3.68906 3.99768 3.84647
# Velocity P-wave (km/s) = 6.91793 7.31562 7.11956
#
# Compressibility (1/GPa) = 0.01625188
#
# Stress axis : x y z
#
# Youngs Moduli (GPa) = 63.20973 103.42698 94.16859
#
# Poissons Ratio (x) = 0.30593 0.39681
# Poissons Ratio (y) = 0.18697 0.25956
# Poissons Ratio (z) = 0.26636 0.28508
#
# Static dielectric constant tensor:
#      x y z
#    x 3.896630 0.000000 -0.033600 
#    y 0.000000 3.656460 0.000000 
#    z -0.033600 0.000000 4.078450 
# 
# 
# High freq. dielectric constant tensor:
#      x y z
#    x 1.804340 0.000000 -0.003980 
#    y 0.000000 1.808270 0.000000 
#    z -0.003980 0.000000 1.833070 
# 
# From -- ./inp_files/54148.got.cif
#   From: 2010.03.12/outbox.cif.g09.slc.cpg/sg5_28_cif.got.tgz:54148.got - 2010.03.31 09:47:26.
