data_PCOD8049231
_publ_section_title
;
Structure prediction by ZEFSAII (Michael W. Deem and Ramdas Pophale) SiO2 
 PCOD8049231
Probable space group: C 2
;
_chemical_formula_sum "Si O2"
_cell_formula_units_Z 30
_cell_length_a 14.574247
_cell_length_b 16.825182
_cell_length_c 5.872452
_cell_angle_alpha 90.000000
_cell_angle_beta 99.537320
_cell_angle_gamma 90.000000
_cell_volume 1420.105575
_symmetry_space_group_name_H-M "C 2"
_symmetry_group_IT_number 5
_symmetry_cell_setting 'monoclinic'
loop_
_space_group_symop_operation_xyz
x,y,z
-x,y,-z
1/2+x,1/2+y,z
1/2-x,1/2+y,-z
loop_
_atom_site_type_symbol
_atom_site_label
_atom_site_fract_x
_atom_site_fract_y
_atom_site_fract_z
Si Si1 0.907424 0.409780 0.313803
Si Si2 0.772793 0.170501 0.256374
Si Si3 0.795781 0.536898 0.061104
Si Si4 0.152686 0.930431 0.745159
Si Si5 0.500000 0.492011 0.000000
Si Si6 0.770978 0.315462 0.549684
Si Si7 0.400363 0.761854 0.984018
Si Si8 0.848257 0.054569 0.630217
O O1 0.892047 0.494012 0.173670
O O2 0.814647 0.389328 0.424647
O O3 0.919871 0.340654 0.137131
O O4 0.000000 0.419396 0.500000
O O5 0.728465 0.246300 0.368494
O O6 0.831513 0.199420 0.067304
O O7 0.847629 0.125901 0.448326
O O8 0.694809 0.109573 0.119098
O O9 0.747767 0.566193 0.273305
O O10 0.733932 0.468090 0.926319
O O11 0.188156 0.842171 0.687984
O O12 0.058181 0.933288 0.855524
O O13 0.140368 0.972355 0.498452
O O14 0.434881 0.554047 0.838104
O O15 0.858734 0.281047 0.720990
O O16 0.500000 0.719400 0.000000
#
# Coordination Sequence:
#
# PCOD8049231 Si02
#       8
#     4   4   4   4   2   4   4   4
#     4  11  21  36  64  96 129 164 213 264 311 377
#     4  10  24  38  57  89 129 175 204 251 314 390
#     4  10  20  39  59  87 130 166 214 252 309 385
#     4  10  20  37  62  85 125 161 206 263 310 378
#     4  10  22  36  60  94 126 150 216 268 310 366
#     4  11  21  39  60  88 131 167 208 252 326 380
#     4  11  22  40  56  92 135 162 202 256 325 386
#     4  10  20  41  55  89 128 162 204 250 314 377
#
# _framework density 21.12519
#
# number of rings (size 3 to 8) (size 9 to 14) (size 15 to 20)
#    0.000    1.600    4.000    1.200    0.000    0.000 
#   28.800    0.000    0.000    0.000    0.000   18.667 
#    0.000    0.000    0.000    0.000    0.000    0.000 
#
# Total GULP energy -185892.420340 kJ/mol
# GULP energy per Si atom -12392.828023 kJ/mol
# Density = 2.107711 g / cm^3
# Si number density = 21.125190 Si / 1000 Ang^3
#
#
#
# Elastic Constant Matrix: (Units=GPa)
#
#
# Indices 1 2 3 4 5 6 
#
# 1 52.8963 33.6886 15.8326 0.0000 -5.8851 0.0000
# 2 33.6886 104.5633 39.8265 0.0000 4.9992 0.0000
# 3 15.8326 39.8265 95.7760 0.0000 3.3630 0.0000
# 4 0.0000 0.0000 0.0000 42.7774 0.0000 3.1078
# 5 -5.8851 4.9992 3.3630 0.0000 32.9546 0.0000
# 6 0.0000 0.0000 0.0000 3.1078 0.0000 15.4238
#
#
#
# Elastic Compliance Matrix: (Units=1/GPa)
#
#
# Indices 1 2 3 4 5 6 
#
# 1 0.024884 -0.007899 -0.001030 0.000000 0.005747 0.000000
# 2 -0.007899 0.013922 -0.004375 0.000000 -0.003076 0.000000
# 3 -0.001030 -0.004375 0.012459 0.000000 -0.000792 0.000000
# 4 0.000000 0.000000 0.000000 0.023724 0.000000 -0.004780
# 5 0.005747 -0.003076 -0.000792 0.000000 0.031919 0.000000
# 6 0.000000 0.000000 0.000000 -0.004780 0.000000 0.065798
#
#
# Mechanical properties :
#
#
# Convention : Reuss Voigt Hill
#
# Bulk Modulus (GPa) = 40.56145 47.99232 44.27689
# Shear Modulus (GPa) = 24.09245 29.15704 26.62474
#
# Velocity S-wave (km/s) = 3.38073 3.71914 3.55397
# Velocity P-wave (km/s) = 5.87208 6.41950 6.15188
#
# Compressibility (1/GPa) = 0.02465395
#
# Stress axis : x y z
#
# Youngs Moduli (GPa) = 40.18683 71.82744 80.26573
#
# Poissons Ratio (x) = 0.56740 0.08271
# Poissons Ratio (y) = 0.31745 0.35120
# Poissons Ratio (z) = 0.04141 0.31428
#
# Static dielectric constant tensor:
#      x y z
#    x 3.558290 0.000000 -0.187440 
#    y 0.000000 3.749160 0.000000 
#    z -0.187440 0.000000 4.156840 
# 
# 
# High freq. dielectric constant tensor:
#      x y z
#    x 1.782370 0.000000 -0.012830 
#    y 0.000000 1.813700 0.000000 
#    z -0.012830 0.000000 1.856390 
# 
# From -- ./inp_files/7215.got.cif
#   From: 2010.03.12/outbox.cif.g09.slc.cpg/sg5_4_cif.got.tgz:7215.got - 2010.03.31 09:47:26.
