data_PCOD8049542
_publ_section_title
;
Structure prediction by ZEFSAII (Michael W. Deem and Ramdas Pophale) SiO2 
 PCOD8049542
Probable space group: C 2
;
_chemical_formula_sum "Si O2"
_cell_formula_units_Z 30
_cell_length_a 14.868287
_cell_length_b 11.677299
_cell_length_c 8.689589
_cell_angle_alpha 90.000000
_cell_angle_beta 74.826839
_cell_angle_gamma 90.000000
_cell_volume 1456.104452
_symmetry_space_group_name_H-M "C 2"
_symmetry_group_IT_number 5
_symmetry_cell_setting 'monoclinic'
loop_
_space_group_symop_operation_xyz
x,y,z
-x,y,-z
1/2+x,1/2+y,z
1/2-x,1/2+y,-z
loop_
_atom_site_type_symbol
_atom_site_label
_atom_site_fract_x
_atom_site_fract_y
_atom_site_fract_z
Si Si1 0.651395 0.247020 0.372451
Si Si2 0.153144 0.267672 0.863339
Si Si3 0.442390 0.381283 0.839225
Si Si4 0.431522 0.962169 0.298219
Si Si5 0.500000 0.584935 0.000000
Si Si6 0.108748 0.717851 0.740881
Si Si7 0.238483 0.835553 0.891094
Si Si8 0.373835 0.988909 0.658175
O O1 0.761415 0.247701 0.291211
O O2 0.595646 0.350974 0.314445
O O3 0.628925 0.260346 0.560003
O O4 0.613681 0.125409 0.326937
O O5 0.096419 0.374639 0.822015
O O6 0.087095 0.158772 0.903882
O O7 0.187001 0.290100 0.021049
O O8 0.525047 0.294201 0.847460
O O9 0.479204 0.509638 0.854963
O O10 0.354619 0.376627 0.988863
O O11 0.420589 0.086966 0.229600
O O12 0.368412 0.954657 0.480441
O O13 0.537226 0.933421 0.298296
O O14 0.205860 0.734689 0.790056
O O15 0.280576 0.942640 0.778680
#
# Coordination Sequence:
#
# PCOD8049542 Si02
#       8
#     4   4   4   4   2   4   4   4
#     4  10  22  39  69  95 125 160 216 266 315 371
#     4  11  25  42  60  95 131 173 207 259 315 383
#     4  11  22  40  64  93 123 169 209 259 318 376
#     4  10  22  41  68  93 125 164 217 260 323 372
#     4  12  24  44  62  88 140 172 210 252 324 378
#     4  11  21  42  67  97 123 163 217 270 314 374
#     4  11  23  39  62  95 129 166 209 257 316 378
#     4  10  20  40  67  96 126 164 205 270 316 376
#
# _framework density 20.602919
#
# number of rings (size 3 to 8) (size 9 to 14) (size 15 to 20)
#    0.000    1.333    2.667    2.800    0.000    4.267 
#    4.800    0.000   14.667    0.000    0.000    0.000 
#    0.000    0.000    0.000    0.000    0.000    0.000 
#
# Total GULP energy -185955.445437 kJ/mol
# GULP energy per Si atom -12397.029696 kJ/mol
# Density = 2.055603 g / cm^3
# Si number density = 20.602919 Si / 1000 Ang^3
#
#
#
# Elastic Constant Matrix: (Units=GPa)
#
#
# Indices 1 2 3 4 5 6 
#
# 1 118.5671 67.2487 50.9011 0.0000 13.7613 0.0000
# 2 67.2487 130.2455 60.4522 0.0000 10.5597 0.0000
# 3 50.9011 60.4522 92.5944 0.0000 4.8746 0.0000
# 4 0.0000 0.0000 0.0000 35.8140 0.0000 0.7125
# 5 13.7613 10.5597 4.8746 0.0000 36.5222 0.0000
# 6 0.0000 0.0000 0.0000 0.7125 0.0000 39.8511
#
#
#
# Elastic Compliance Matrix: (Units=1/GPa)
#
#
# Indices 1 2 3 4 5 6 
#
# 1 0.013175 -0.004687 -0.004021 0.000000 -0.003072 0.000000
# 2 -0.004687 0.012869 -0.005762 0.000000 -0.001185 0.000000
# 3 -0.004021 -0.005762 0.016722 0.000000 0.000949 0.000000
# 4 0.000000 0.000000 0.000000 0.027932 0.000000 -0.000499
# 5 -0.003072 -0.001185 0.000949 0.000000 0.028754 0.000000
# 6 0.000000 0.000000 0.000000 -0.000499 0.000000 0.025102
#
#
# Mechanical properties :
#
#
# Convention : Reuss Voigt Hill
#
# Bulk Modulus (GPa) = 72.33213 77.62343 74.97778
# Shear Modulus (GPa) = 31.62464 33.29113 32.45788
#
# Velocity S-wave (km/s) = 3.92211 4.02412 3.97344
# Velocity P-wave (km/s) = 7.46287 7.70384 7.58431
#
# Compressibility (1/GPa) = 0.01382511
#
# Stress axis : x y z
#
# Youngs Moduli (GPa) = 75.89918 77.70780 59.80072
#
# Poissons Ratio (x) = 0.36425 0.24044
# Poissons Ratio (y) = 0.35577 0.34460
# Poissons Ratio (z) = 0.30517 0.44778
#
# Static dielectric constant tensor:
#      x y z
#    x 4.142900 0.000000 0.091920 
#    y 0.000000 3.606130 0.000000 
#    z 0.091920 0.000000 3.847220 
# 
# 
# High freq. dielectric constant tensor:
#      x y z
#    x 1.822350 0.000000 -0.003180 
#    y 0.000000 1.790280 0.000000 
#    z -0.003180 0.000000 1.812650 
# 
# From -- ./inp_files/23627.got.cif
#   From: 2010.03.12/outbox.cif.g09.slc.cpg/sg5_12_cif.got.tgz:23627.got - 2010.03.31 09:47:26.
