data_PCOD8049648
_publ_section_title
;
Structure prediction by ZEFSAII (Michael W. Deem and Ramdas Pophale) SiO2 
 PCOD8049648
Probable space group: C 2
;
_chemical_formula_sum "Si O2"
_cell_formula_units_Z 26
_cell_length_a 27.465786
_cell_length_b 5.189916
_cell_length_c 9.255670
_cell_angle_alpha 90.000000
_cell_angle_beta 69.152699
_cell_angle_gamma 90.000000
_cell_volume 1232.975625
_symmetry_space_group_name_H-M "C 2"
_symmetry_group_IT_number 5
_symmetry_cell_setting 'monoclinic'
loop_
_space_group_symop_operation_xyz
x,y,z
-x,y,-z
1/2+x,1/2+y,z
1/2-x,1/2+y,-z
loop_
_atom_site_type_symbol
_atom_site_label
_atom_site_fract_x
_atom_site_fract_y
_atom_site_fract_z
Si Si1 0.916514 0.657290 0.593058
Si Si2 0.953520 0.170853 0.715821
Si Si3 0.592440 0.647932 0.928272
Si Si4 0.043869 0.442312 0.731230
Si Si5 0.194227 0.110872 0.952846
Si Si6 0.189860 0.613773 0.150303
Si Si7 0.500000 0.266760 0.000000
O O1 0.947298 0.418611 0.623964
O O2 0.926258 0.630757 0.411045
O O3 0.854677 0.626291 0.681144
O O4 0.940396 0.916590 0.637170
O O5 0.015247 0.185202 0.696169
O O6 0.917173 0.211428 0.893187
O O7 0.583217 0.872157 0.820751
O O8 0.654481 0.587860 0.858635
O O9 0.553804 0.418626 0.929262
O O10 0.996231 0.598264 0.857853
O O11 0.253600 0.107727 0.831358
O O12 0.183114 0.368595 0.055121
O O13 0.183751 0.869123 0.064504
#
# Coordination Sequence:
#
# PCOD8049648 Si02
#       7
#     4   4   4   4   4   4   2
#     4  12  26  43  70  96 138 171 228 286 340 388
#     4  12  24  44  65  98 131 181 221 273 335 410
#     4  12  23  41  67  95 133 178 225 274 337 410
#     4  12  28  41  65 101 138 184 229 282 337 413
#     4  10  22  38  72  96 128 171 226 282 333 408
#     4  10  20  42  66 102 125 167 230 283 339 393
#     4  12  24  42  64  90 138 184 230 264 338 426
#
# _framework density 21.087195000000001
#
# number of rings (size 3 to 8) (size 9 to 14) (size 15 to 20)
#    0.000    0.615    6.154    1.385    4.308    2.462 
#    0.000    0.000    3.385    0.000    0.000    0.000 
#    0.000    0.000    0.000    0.000    0.000    0.000 
#
# Total GULP energy -161086.801060 kJ/mol
# GULP energy per Si atom -12391.292389 kJ/mol
# Density = 2.103920 g / cm^3
# Si number density = 21.087195 Si / 1000 Ang^3
#
#
#
# Elastic Constant Matrix: (Units=GPa)
#
#
# Indices 1 2 3 4 5 6 
#
# 1 170.7405 46.4553 53.9288 0.0000 2.3834 0.0000
# 2 46.4553 140.1113 47.4479 0.0000 9.3053 0.0000
# 3 53.9288 47.4479 136.4805 0.0000 -3.2461 0.0000
# 4 0.0000 0.0000 0.0000 62.7977 0.0000 16.2540
# 5 2.3834 9.3053 -3.2461 0.0000 29.2589 0.0000
# 6 0.0000 0.0000 0.0000 16.2540 0.0000 27.9324
#
#
#
# Elastic Compliance Matrix: (Units=1/GPa)
#
#
# Indices 1 2 3 4 5 6 
#
# 1 0.006985 -0.001538 -0.002233 0.000000 -0.000328 0.000000
# 2 -0.001538 0.008680 -0.002479 0.000000 -0.002910 0.000000
# 3 -0.002233 -0.002479 0.009119 0.000000 0.001982 0.000000
# 4 0.000000 0.000000 0.000000 0.018748 0.000000 -0.010909
# 5 -0.000328 -0.002910 0.001982 0.000000 0.035350 0.000000
# 6 0.000000 0.000000 0.000000 -0.010909 0.000000 0.042149
#
#
# Mechanical properties :
#
#
# Convention : Reuss Voigt Hill
#
# Bulk Modulus (GPa) = 81.41335 82.55515 81.98425
# Shear Modulus (GPa) = 36.33050 43.96448 40.14749
#
# Velocity S-wave (km/s) = 4.15525 4.57101 4.36808
# Velocity P-wave (km/s) = 7.85578 8.19105 8.02516
#
# Compressibility (1/GPa) = 0.01228300
#
# Stress axis : x y z
#
# Youngs Moduli (GPa) = 143.15877 115.20823 109.66704
#
# Poissons Ratio (x) = 0.17719 0.24491
# Poissons Ratio (y) = 0.22018 0.27188
# Poissons Ratio (z) = 0.31971 0.28561
#
# Static dielectric constant tensor:
#      x y z
#    x 3.936030 0.000000 0.362180 
#    y 0.000000 4.037220 0.000000 
#    z 0.362180 0.000000 3.367870 
# 
# 
# High freq. dielectric constant tensor:
#      x y z
#    x 1.827750 0.000000 -0.000830 
#    y 0.000000 1.842830 0.000000 
#    z -0.000830 0.000000 1.803590 
# 
# From -- ./inp_files/31371.got.cif
#   From: 2010.03.12/outbox.cif.g09.slc.cpg/sg5_16_cif.got.tgz:31371.got - 2010.03.31 09:47:26.
