data_PCOD8049296
_publ_section_title
;
Structure prediction by ZEFSAII (Michael W. Deem and Ramdas Pophale) SiO2 
 PCOD8049296
Probable space group: C 2
;
_chemical_formula_sum "Si O2"
_cell_formula_units_Z 28
_cell_length_a 8.134674
_cell_length_b 13.144117
_cell_length_c 12.272810
_cell_angle_alpha 90.000000
_cell_angle_beta 112.479131
_cell_angle_gamma 90.000000
_cell_volume 1212.540950
_symmetry_space_group_name_H-M "C 2"
_symmetry_group_IT_number 5
_symmetry_cell_setting 'monoclinic'
loop_
_space_group_symop_operation_xyz
x,y,z
-x,y,-z
1/2+x,1/2+y,z
1/2-x,1/2+y,-z
loop_
_atom_site_type_symbol
_atom_site_label
_atom_site_fract_x
_atom_site_fract_y
_atom_site_fract_z
Si Si1 0.568883 0.667680 0.805904
Si Si2 0.000000 0.043469 0.000000
Si Si3 0.421700 0.865698 0.857800
Si Si4 0.046774 0.712558 0.130382
Si Si5 0.000000 0.671540 0.500000
Si Si6 0.304669 0.537956 0.630359
Si Si7 0.484439 0.337281 0.307293
Si Si8 0.150020 0.530306 0.827956
O O1 0.517408 0.785020 0.803338
O O2 0.775734 0.646439 0.839835
O O3 0.466233 0.616988 0.679657
O O4 0.495685 0.613489 0.893838
O O5 0.184010 0.981275 0.059741
O O6 0.208609 0.865481 0.791092
O O7 0.473737 0.972402 0.817991
O O8 0.500000 0.854040 0.000000
O O9 0.090881 0.802511 0.226259
O O10 0.884167 0.646460 0.139791
O O11 0.000000 0.758236 0.000000
O O12 0.833832 0.595347 0.485544
O O13 0.966959 0.745475 0.388772
O O14 0.396448 0.431296 0.614309
O O15 0.187473 0.523682 0.709731
#
# Coordination Sequence:
#
# PCOD8049296 Si02
#       8
#     4   2   4   4   2   4   4   4
#     4  11  21  42  65  99 149 183 245 295 371 439
#     4  10  20  38  58  98 142 204 222 294 356 440
#     4  12  24  40  69 112 154 200 235 306 381 468
#     4  12  22  42  71 112 152 197 239 308 372 471
#     4  12  26  58  80 100 158 200 258 336 368 440
#     4  11  26  49  75 103 142 193 252 324 365 445
#     4  12  27  50  77 111 147 197 260 305 393 443
#     4  11  23  40  68 104 153 193 250 296 378 449
#
# _framework density 23.092003999999999
#
# number of rings (size 3 to 8) (size 9 to 14) (size 15 to 20)
#    0.000    0.571    5.000    3.857    4.000    1.143 
#    7.714    0.000    0.000    0.000    0.000    0.000 
#    0.000    0.000    0.000    0.000    0.000    0.000 
#
# Total GULP energy -173468.104497 kJ/mol
# GULP energy per Si atom -12390.578893 kJ/mol
# Density = 2.303945 g / cm^3
# Si number density = 23.092004 Si / 1000 Ang^3
#
#
#
# Elastic Constant Matrix: (Units=GPa)
#
#
# Indices 1 2 3 4 5 6 
#
# 1 95.5826 21.9685 32.0366 0.0000 20.2477 0.0000
# 2 21.9685 92.5154 28.2513 0.0000 8.0459 0.0000
# 3 32.0366 28.2513 88.4426 0.0000 23.9038 0.0000
# 4 0.0000 0.0000 0.0000 26.8153 0.0000 12.8761
# 5 20.2477 8.0459 23.9038 0.0000 37.1047 0.0000
# 6 0.0000 0.0000 0.0000 12.8761 0.0000 29.9839
#
#
#
# Elastic Compliance Matrix: (Units=1/GPa)
#
#
# Indices 1 2 3 4 5 6 
#
# 1 0.012822 -0.001779 -0.002772 0.000000 -0.004825 0.000000
# 2 -0.001779 0.012225 -0.003398 0.000000 0.000509 0.000000
# 3 -0.002772 -0.003398 0.015485 0.000000 -0.007726 0.000000
# 4 0.000000 0.000000 0.000000 0.046980 0.000000 -0.020175
# 5 -0.004825 0.000509 -0.007726 0.000000 0.034451 0.000000
# 6 0.000000 0.000000 0.000000 -0.020175 0.000000 0.042015
#
#
# Mechanical properties :
#
#
# Convention : Reuss Voigt Hill
#
# Bulk Modulus (GPa) = 40.59525 49.00592 44.80058
# Shear Modulus (GPa) = 26.58353 31.73306 29.15829
#
# Velocity S-wave (km/s) = 3.39662 3.71104 3.55731
# Velocity P-wave (km/s) = 5.74462 6.29528 6.02624
#
# Compressibility (1/GPa) = 0.02463343
#
# Stress axis : x y z
#
# Youngs Moduli (GPa) = 77.98905 81.80086 64.58016
#
# Poissons Ratio (x) = 0.14548 0.17904
# Poissons Ratio (y) = 0.13871 0.21946
# Poissons Ratio (z) = 0.21621 0.27798
#
# Static dielectric constant tensor:
#      x y z
#    x 4.257390 0.000000 0.486460 
#    y 0.000000 4.175190 0.000000 
#    z 0.486460 0.000000 4.486180 
# 
# 
# High freq. dielectric constant tensor:
#      x y z
#    x 1.923430 0.000000 0.017810 
#    y 0.000000 1.912650 0.000000 
#    z 0.017810 0.000000 1.894440 
# 
# From -- ./inp_files/50799.got.cif
#   From: 2010.03.12/outbox.cif.g09.slc.cpg/sg5_26_cif.got.tgz:50799.got - 2010.03.31 09:47:26.
