data_PCOD8049957
_publ_section_title
;
Structure prediction by ZEFSAII (Michael W. Deem and Ramdas Pophale) SiO2 
 PCOD8049957
Probable space group: C 2
;
_chemical_formula_sum "Si O2"
_cell_formula_units_Z 24
_cell_length_a 25.878077
_cell_length_b 5.008530
_cell_length_c 8.854468
_cell_angle_alpha 90.000000
_cell_angle_beta 97.601449
_cell_angle_gamma 90.000000
_cell_volume 1137.552344
_symmetry_space_group_name_H-M "C 2"
_symmetry_group_IT_number 5
_symmetry_cell_setting 'monoclinic'
loop_
_space_group_symop_operation_xyz
x,y,z
-x,y,-z
1/2+x,1/2+y,z
1/2-x,1/2+y,-z
loop_
_atom_site_type_symbol
_atom_site_label
_atom_site_fract_x
_atom_site_fract_y
_atom_site_fract_z
Si Si1 0.230332 0.712930 0.574574
Si Si2 0.380273 0.391101 0.382985
Si Si3 0.554987 0.880823 0.947927
Si Si4 0.267771 0.550694 0.918845
Si Si5 0.879952 0.881430 0.027211
Si Si6 0.054777 0.392846 0.594378
O O1 0.232934 0.453845 0.467933
O O2 0.171798 0.826051 0.545463
O O3 0.245160 0.625913 0.748328
O O4 0.367836 0.382821 0.200433
O O5 0.401477 0.679929 0.439340
O O6 0.424912 0.181730 0.447607
O O7 0.576355 0.593691 0.005411
O O8 0.545725 0.887016 0.767699
O O9 0.598114 0.096215 0.016181
O O10 0.500000 0.945218 0.000000
O O11 0.232566 0.312301 0.974393
O O12 0.326370 0.443784 0.920759
O O13 0.000000 0.322932 0.500000
#
# Coordination Sequence:
#
# PCOD8049957 Si02
#       6
#     4   4   4   4   4   4
#     4  12  26  44  64  99 139 170 209 277 341 370
#     4  10  21  41  65  86 125 170 209 258 317 385
#     4  10  21  39  61  89 127 154 202 273 325 357
#     4  12  24  42  72  96 125 173 232 264 305 412
#     4  10  21  39  66  91 116 169 217 255 309 386
#     4  10  21  39  64  89 116 166 217 251 308 395
#
# _framework density 21.097928
#
# number of rings (size 3 to 8) (size 9 to 14) (size 15 to 20)
#    0.000    1.333    1.667    4.000    4.667    0.000 
#    9.000    0.000    0.000    0.000    0.000    0.000 
#    0.000    0.000    0.000    0.000    0.000    0.000 
#
# Total GULP energy -148854.566365 kJ/mol
# GULP energy per Si atom -12404.547197 kJ/mol
# Density = 2.104991 g / cm^3
# Si number density = 21.097928 Si / 1000 Ang^3
#
#
#
# Elastic Constant Matrix: (Units=GPa)
#
#
# Indices 1 2 3 4 5 6 
#
# 1 123.4511 34.8663 47.8311 0.0000 6.1237 0.0000
# 2 34.8663 129.7908 40.2604 0.0000 -9.6251 0.0000
# 3 47.8311 40.2604 62.1424 0.0000 6.9492 0.0000
# 4 0.0000 0.0000 0.0000 28.3226 0.0000 -3.1282
# 5 6.1237 -9.6251 6.9492 0.0000 24.9562 0.0000
# 6 0.0000 0.0000 0.0000 -3.1282 0.0000 26.1753
#
#
#
# Elastic Compliance Matrix: (Units=1/GPa)
#
#
# Indices 1 2 3 4 5 6 
#
# 1 0.011572 -0.000525 -0.008491 0.000000 -0.000678 0.000000
# 2 -0.000525 0.010500 -0.007087 0.000000 0.006152 0.000000
# 3 -0.008491 -0.007087 0.028169 0.000000 -0.008493 0.000000
# 4 0.000000 0.000000 0.000000 0.035780 0.000000 0.004276
# 5 -0.000678 0.006152 -0.008493 0.000000 0.044974 0.000000
# 6 0.000000 0.000000 0.000000 0.004276 0.000000 0.038715
#
#
# Mechanical properties :
#
#
# Convention : Reuss Voigt Hill
#
# Bulk Modulus (GPa) = 55.44629 62.36665 58.90647
# Shear Modulus (GPa) = 24.04683 28.71925 26.38304
#
# Velocity S-wave (km/s) = 3.37971 3.69350 3.54008
# Velocity P-wave (km/s) = 6.44728 6.91476 6.68511
#
# Compressibility (1/GPa) = 0.01803547
#
# Stress axis : x y z
#
# Youngs Moduli (GPa) = 86.41412 95.23642 35.50025
#
# Poissons Ratio (x) = 0.05000 0.30144
# Poissons Ratio (y) = 0.04537 0.25158
# Poissons Ratio (z) = 0.73376 0.67490
#
# Static dielectric constant tensor:
#      x y z
#    x 3.824760 0.000000 -0.034680 
#    y 0.000000 4.262240 0.000000 
#    z -0.034680 0.000000 3.521950 
# 
# 
# High freq. dielectric constant tensor:
#      x y z
#    x 1.835680 0.000000 0.005160 
#    y 0.000000 1.850420 0.000000 
#    z 0.005160 0.000000 1.799230 
# 
# From -- ./inp_files/30329.got.cif
#   From: 2010.03.12/outbox.cif.g09.slc.cpg/sg5_16_cif.got.tgz:30329.got - 2010.03.31 09:47:26.
