data_PCOD8049550
_publ_section_title
;
Structure prediction by ZEFSAII (Michael W. Deem and Ramdas Pophale) SiO2 
 PCOD8049550
Probable space group: C 2
;
_chemical_formula_sum "Si O2"
_cell_formula_units_Z 22
_cell_length_a 18.149233
_cell_length_b 11.363682
_cell_length_c 15.056062
_cell_angle_alpha 90.000000
_cell_angle_beta 19.263472
_cell_angle_gamma 90.000000
_cell_volume 1024.442700
_symmetry_space_group_name_H-M "C 2"
_symmetry_group_IT_number 5
_symmetry_cell_setting 'monoclinic'
loop_
_space_group_symop_operation_xyz
x,y,z
-x,y,-z
1/2+x,1/2+y,z
1/2-x,1/2+y,-z
loop_
_atom_site_type_symbol
_atom_site_label
_atom_site_fract_x
_atom_site_fract_y
_atom_site_fract_z
Si Si1 0.629812 0.755720 0.263976
Si Si2 0.791009 0.336365 0.289465
Si Si3 0.876696 0.997917 0.784281
Si Si4 0.000000 0.116485 0.000000
Si Si5 0.568265 0.866144 0.678506
Si Si6 0.478563 0.459566 0.863455
O O1 0.500000 0.795618 0.500000
O O2 0.663532 0.615439 0.227432
O O3 0.489001 0.775651 0.334405
O O4 0.858695 0.831051 0.000711
O O5 0.571063 0.414686 0.521293
O O6 0.820992 0.310981 0.360232
O O7 0.000000 0.400022 0.000000
O O8 0.783266 0.201027 0.264177
O O9 0.927994 0.026583 0.828891
O O10 0.645385 0.931689 0.040992
O O11 0.900350 0.039198 0.033641
O O12 0.755754 0.951170 0.424134
#
# Coordination Sequence:
#
# PCOD8049550 Si02
#       6
#     4   4   4   2   4   4
#     4  11  24  39  62  94 128 169 211 257 319 380
#     4   9  22  39  65  94 122 162 217 260 317 363
#     4  10  23  41  64  92 130 166 214 261 315 381
#     4  10  20  40  68  90 124 166 212 266 310 376
#     4  10  22  42  61  89 128 165 210 261 313 381
#     4  10  22  42  62  91 126 169 212 259 321 372
#
# _framework density 21.475092
#
# number of rings (size 3 to 8) (size 9 to 14) (size 15 to 20)
#    0.545    1.455    0.000    2.182    2.545    7.273 
#    0.000    5.455    0.000    0.000    0.000    0.000 
#    0.000    0.000    0.000    0.000    0.000    0.000 
#
# Total GULP energy -136271.341257 kJ/mol
# GULP energy per Si atom -12388.303751 kJ/mol
# Density = 2.142621 g / cm^3
# Si number density = 21.475092 Si / 1000 Ang^3
#
#
#
# Elastic Constant Matrix: (Units=GPa)
#
#
# Indices 1 2 3 4 5 6 
#
# 1 57.8452 40.3199 33.9807 0.0076 12.9067 0.0001
# 2 40.3199 126.7496 53.2984 0.0172 -0.6065 -0.0047
# 3 33.9807 53.2984 134.6684 0.0305 -0.4129 -0.0069
# 4 0.0076 0.0172 0.0305 28.8762 -0.0148 12.9078
# 5 12.9067 -0.6065 -0.4129 -0.0148 32.3996 0.0015
# 6 0.0001 -0.0047 -0.0069 12.9078 0.0015 32.6979
#
#
#
# Elastic Compliance Matrix: (Units=1/GPa)
#
#
# Indices 1 2 3 4 5 6 
#
# 1 0.026939 -0.006897 -0.004101 -0.000004 -0.010913 0.000000
# 2 -0.006897 0.011231 -0.002696 -0.000001 0.002923 0.000001
# 3 -0.004101 -0.002696 0.009533 -0.000009 0.001705 0.000005
# 4 -0.000004 -0.000001 -0.000009 0.042051 0.000022 -0.016600
# 5 -0.010913 0.002923 0.001705 0.000022 0.035288 -0.000009
# 6 0.000000 0.000001 0.000005 -0.016600 -0.000009 0.037136
#
#
# Mechanical properties :
#
#
# Convention : Reuss Voigt Hill
#
# Bulk Modulus (GPa) = 49.22535 63.82903 56.52719
# Shear Modulus (GPa) = 25.46626 31.57234 28.51930
#
# Velocity S-wave (km/s) = 3.44735 3.83846 3.64815
# Velocity P-wave (km/s) = 6.23037 7.03078 6.64264
#
# Compressibility (1/GPa) = 0.02031474
#
# Stress axis : x y z
#
# Youngs Moduli (GPa) = 37.12050 89.03810 104.90283
#
# Poissons Ratio (x) = 0.61411 0.43024
# Poissons Ratio (y) = 0.25603 0.28278
# Poissons Ratio (z) = 0.15224 0.24002
#
# Static dielectric constant tensor:
#      x y z
#    x 3.924580 0.000000 0.165320 
#    y 0.000000 3.600930 -0.000020 
#    z 0.165320 -0.000020 3.985880 
# 
# 
# High freq. dielectric constant tensor:
#      x y z
#    x 1.852820 0.000000 0.019080 
#    y 0.000000 1.827300 0.000000 
#    z 0.019080 0.000000 1.842140 
# 
# From -- ./inp_files/55959.got.cif
#   From: 2010.03.12/outbox.cif.g09.slc.cpg/sg5_28_cif.got.tgz:55959.got - 2010.03.31 09:47:26.
