data_PCOD8049154
_publ_section_title
;
Structure prediction by ZEFSAII (Michael W. Deem and Ramdas Pophale) SiO2 
 PCOD8049154
Probable space group: C 2
;
_chemical_formula_sum "Si O2"
_cell_formula_units_Z 26
_cell_length_a 21.012440
_cell_length_b 5.286699
_cell_length_c 10.071806
_cell_angle_alpha 90.000000
_cell_angle_beta 67.855835
_cell_angle_gamma 90.000000
_cell_volume 1036.313564
_symmetry_space_group_name_H-M "C 2"
_symmetry_group_IT_number 5
_symmetry_cell_setting 'monoclinic'
loop_
_space_group_symop_operation_xyz
x,y,z
-x,y,-z
1/2+x,1/2+y,z
1/2-x,1/2+y,-z
loop_
_atom_site_type_symbol
_atom_site_label
_atom_site_fract_x
_atom_site_fract_y
_atom_site_fract_z
Si Si1 0.236773 0.528320 0.847358
Si Si2 0.000000 0.503442 0.000000
Si Si3 0.727832 0.303431 0.443105
Si Si4 0.118145 0.874542 0.895418
Si Si5 0.142511 0.247028 0.106902
Si Si6 0.497473 0.874831 0.285664
Si Si7 0.922502 0.887541 0.374257
O O1 0.236258 0.319671 0.729978
O O2 0.196791 0.776325 0.826619
O O3 0.316159 0.572404 0.822531
O O4 0.197692 0.449664 0.012299
O O5 0.065778 0.666643 0.996826
O O6 0.021776 0.339664 0.855397
O O7 0.740546 0.024783 0.489915
O O8 0.646856 0.350707 0.488382
O O9 0.095307 0.935465 0.765081
O O10 0.111913 0.110529 0.999843
O O11 0.079906 0.367503 0.239055
O O12 0.462335 0.640411 0.391454
O O13 0.470201 0.142630 0.361307
#
# Coordination Sequence:
#
# PCOD8049154 Si02
#       7
#     4   2   4   4   4   4   4
#     4  12  26  42  70 101 144 189 231 291 357 434
#     4  10  20  36  64  98 134 174 220 292 352 408
#     4  12  26  47  73 104 145 187 242 295 351 421
#     4  11  21  40  61 103 138 178 228 286 354 414
#     4  12  24  43  67 102 146 185 232 291 366 432
#     4  11  23  40  67  98 138 177 228 292 347 414
#     4  11  24  42  69 102 133 179 238 287 347 405
#
# _framework density 25.088932
#
# number of rings (size 3 to 8) (size 9 to 14) (size 15 to 20)
#    0.000    0.615    4.615    4.615    4.308    0.615 
#    0.000    0.769    0.000    3.692    0.000    0.000 
#    0.000    0.000    0.000    0.000    0.000    0.000 
#
# Total GULP energy -161212.141590 kJ/mol
# GULP energy per Si atom -12400.933968 kJ/mol
# Density = 2.503183 g / cm^3
# Si number density = 25.088932 Si / 1000 Ang^3
#
#
#
# Elastic Constant Matrix: (Units=GPa)
#
#
# Indices 1 2 3 4 5 6 
#
# 1 115.6210 21.7348 16.2842 0.0000 -30.4661 0.0000
# 2 21.7348 100.4155 1.8810 0.0000 -12.7136 0.0000
# 3 16.2842 1.8810 60.3704 0.0000 -22.5298 0.0000
# 4 0.0000 0.0000 0.0000 25.7663 0.0000 -17.2346
# 5 -30.4661 -12.7136 -22.5298 0.0000 42.2624 0.0000
# 6 0.0000 0.0000 0.0000 -17.2346 0.0000 39.4600
#
#
#
# Elastic Compliance Matrix: (Units=1/GPa)
#
#
# Indices 1 2 3 4 5 6 
#
# 1 0.010868 -0.001422 -0.000154 0.000000 0.007325 0.000000
# 2 -0.001422 0.010592 0.001074 0.000000 0.002734 0.000000
# 3 -0.000154 0.001074 0.020787 0.000000 0.011294 0.000000
# 4 0.000000 0.000000 0.000000 0.054828 0.000000 0.023947
# 5 0.007325 0.002734 0.011294 0.000000 0.035785 0.000000
# 6 0.000000 0.000000 0.000000 0.023947 0.000000 0.035801
#
#
# Mechanical properties :
#
#
# Convention : Reuss Voigt Hill
#
# Bulk Modulus (GPa) = 24.24615 39.57851 31.91233
# Shear Modulus (GPa) = 27.26089 37.26489 32.26289
#
# Velocity S-wave (km/s) = 3.29989 3.85816 3.58989
# Velocity P-wave (km/s) = 4.91977 5.97132 5.47087
#
# Compressibility (1/GPa) = 0.04124367
#
# Stress axis : x y z
#
# Youngs Moduli (GPa) = 92.01320 94.40698 48.10670
#
# Poissons Ratio (x) = 0.13425 0.00739
# Poissons Ratio (y) = 0.13085 -0.05166
# Poissons Ratio (z) = 0.01414 -0.10137
#
# Static dielectric constant tensor:
#      x y z
#    x 4.531750 0.000000 -0.330210 
#    y 0.000000 4.345440 0.000000 
#    z -0.330210 0.000000 4.408460 
# 
# 
# High freq. dielectric constant tensor:
#      x y z
#    x 2.002200 0.000000 -0.022250 
#    y 0.000000 1.995920 0.000000 
#    z -0.022250 0.000000 1.986620 
# 
# From -- ./inp_files/45593.got.cif
#   From: 2010.03.12/outbox.cif.g09.slc.cpg/sg5_23_cif.got.tgz:45593.got - 2010.03.31 09:47:26.
