data_PCOD8049544
_publ_section_title
;
Structure prediction by ZEFSAII (Michael W. Deem and Ramdas Pophale) SiO2 
 PCOD8049544
Probable space group: C 2
;
_chemical_formula_sum "Si O2"
_cell_formula_units_Z 28
_cell_length_a 15.878044
_cell_length_b 8.373284
_cell_length_c 14.020707
_cell_angle_alpha 90.000000
_cell_angle_beta 135.993699
_cell_angle_gamma 90.000000
_cell_volume 1295.040832
_symmetry_space_group_name_H-M "C 2"
_symmetry_group_IT_number 5
_symmetry_cell_setting 'monoclinic'
loop_
_space_group_symop_operation_xyz
x,y,z
-x,y,-z
1/2+x,1/2+y,z
1/2-x,1/2+y,-z
loop_
_atom_site_type_symbol
_atom_site_label
_atom_site_fract_x
_atom_site_fract_y
_atom_site_fract_z
Si Si1 0.029225 0.270110 0.716283
Si Si2 0.113827 0.508905 0.262548
Si Si3 0.618727 0.480619 0.459031
Si Si4 0.601630 0.377407 0.236484
Si Si5 0.500000 0.846505 0.000000
Si Si6 0.500000 0.235665 0.500000
Si Si7 0.807897 0.491939 0.260437
Si Si8 0.879692 0.098018 0.032735
O O1 0.103386 0.348297 0.691624
O O2 0.117849 0.165453 0.857164
O O3 0.955276 0.404925 0.714055
O O4 0.940402 0.155212 0.585199
O O5 0.256342 0.485616 0.383998
O O6 0.077082 0.692792 0.237384
O O7 0.084391 0.455101 0.132768
O O8 0.647463 0.450142 0.372279
O O9 0.534038 0.345408 0.437184
O O10 0.702085 0.423019 0.240697
O O11 0.474787 0.453453 0.099935
O O12 0.589123 0.741793 0.010808
O O13 0.383244 0.130700 0.374888
O O14 0.752662 0.544721 0.112034
#
# Coordination Sequence:
#
# PCOD8049544 Si02
#       8
#     4   4   4   4   2   2   4   4
#     4  10  26  44  69 101 138 179 233 284 354 404
#     4  11  24  42  71  99 136 181 229 286 340 427
#     4  11  26  47  67  99 139 186 228 285 347 421
#     4  11  25  43  76  96 136 183 237 277 356 414
#     4  10  20  40  68 100 126 174 232 270 346 402
#     4  12  30  42  70 104 140 186 232 284 350 418
#     4  12  26  45  69 103 142 178 233 295 340 408
#     4  10  22  47  68  96 138 182 224 285 343 413
#
# _framework density 21.620939
#
# number of rings (size 3 to 8) (size 9 to 14) (size 15 to 20)
#    0.000    1.143    1.429    2.571   14.000    3.429 
#    2.571    0.000    0.000    0.000    0.000    0.000 
#    0.000    0.000    0.000    0.000    0.000    0.000 
#
# Total GULP energy -173608.016381 kJ/mol
# GULP energy per Si atom -12400.572599 kJ/mol
# Density = 2.157173 g / cm^3
# Si number density = 21.620939 Si / 1000 Ang^3
#
#
#
# Elastic Constant Matrix: (Units=GPa)
#
#
# Indices 1 2 3 4 5 6 
#
# 1 78.3404 41.1310 27.6863 0.0000 -5.2940 0.0000
# 2 41.1310 140.3726 53.5552 0.0000 16.9331 0.0000
# 3 27.6863 53.5552 143.0760 0.0000 3.7942 0.0000
# 4 0.0000 0.0000 0.0000 137.2935 0.0000 41.6767
# 5 -5.2940 16.9331 3.7942 0.0000 14.6773 0.0000
# 6 0.0000 0.0000 0.0000 41.6767 0.0000 50.2051
#
#
#
# Elastic Compliance Matrix: (Units=1/GPa)
#
#
# Indices 1 2 3 4 5 6 
#
# 1 0.017491 -0.006265 -0.001408 0.000000 0.013900 0.000000
# 2 -0.006265 0.011876 -0.002829 0.000000 -0.015230 0.000000
# 3 -0.001408 -0.002829 0.008305 0.000000 0.000609 0.000000
# 4 0.000000 0.000000 0.000000 0.009737 0.000000 -0.008083
# 5 0.013900 -0.015230 0.000609 0.000000 0.090559 0.000000
# 6 0.000000 0.000000 0.000000 -0.008083 0.000000 0.026629
#
#
# Mechanical properties :
#
#
# Convention : Reuss Voigt Hill
#
# Bulk Modulus (GPa) = 59.99744 67.39265 63.69504
# Shear Modulus (GPa) = 26.15650 56.39628 41.27639
#
# Velocity S-wave (km/s) = 3.48196 5.11280 4.37406
# Velocity P-wave (km/s) = 6.63139 8.12970 7.41847
#
# Compressibility (1/GPa) = 0.01666738
#
# Stress axis : x y z
#
# Youngs Moduli (GPa) = 57.17239 84.20298 120.41396
#
# Poissons Ratio (x) = 0.52750 0.16958
# Poissons Ratio (y) = 0.35816 0.34068
# Poissons Ratio (z) = 0.08052 0.23823
#
# Static dielectric constant tensor:
#      x y z
#    x 3.531670 0.000000 -0.244070 
#    y 0.000000 4.166850 0.000000 
#    z -0.244070 0.000000 4.743150 
# 
# 
# High freq. dielectric constant tensor:
#      x y z
#    x 1.841080 0.000000 -0.010250 
#    y 0.000000 1.864770 0.000000 
#    z -0.010250 0.000000 1.865540 
# 
# From -- ./inp_files/54343.got.cif
#   From: 2010.03.12/outbox.cif.g09.slc.cpg/sg5_28_cif.got.tgz:54343.got - 2010.03.31 09:47:26.
