data_PCOD8049948
_publ_section_title
;
Structure prediction by ZEFSAII (Michael W. Deem and Ramdas Pophale) SiO2 
 PCOD8049948
Probable space group: C 2
;
_chemical_formula_sum "Si O2"
_cell_formula_units_Z 26
_cell_length_a 11.627744
_cell_length_b 7.896315
_cell_length_c 20.346353
_cell_angle_alpha 90.000000
_cell_angle_beta 43.102572
_cell_angle_gamma 90.000000
_cell_volume 1276.503721
_symmetry_space_group_name_H-M "C 2"
_symmetry_group_IT_number 5
_symmetry_cell_setting 'monoclinic'
loop_
_space_group_symop_operation_xyz
x,y,z
-x,y,-z
1/2+x,1/2+y,z
1/2-x,1/2+y,-z
loop_
_atom_site_type_symbol
_atom_site_label
_atom_site_fract_x
_atom_site_fract_y
_atom_site_fract_z
Si Si1 0.523586 0.878030 0.265279
Si Si2 0.323221 0.987238 0.594938
Si Si3 0.715063 0.580598 0.778609
Si Si4 0.674548 0.949952 0.781726
Si Si5 0.000000 0.172174 0.500000
Si Si6 0.050177 0.074334 0.615149
Si Si7 0.621417 0.264220 0.887977
O O1 0.396856 0.942283 0.262464
O O2 0.437232 0.761174 0.356905
O O3 0.683462 0.770636 0.168726
O O4 0.598663 0.045731 0.269594
O O5 0.500000 0.079196 0.500000
O O6 0.228718 0.081494 0.693553
O O7 0.198883 0.967617 0.585252
O O8 0.366795 0.791774 0.595748
O O9 0.647088 0.765869 0.827478
O O10 0.588254 0.432146 0.856493
O O11 0.871683 0.985744 0.699185
O O12 0.581061 0.095036 0.862738
O O13 0.910348 0.067720 0.479690
O O14 0.500000 0.268149 0.000000
#
# Coordination Sequence:
#
# PCOD8049948 Si02
#       7
#     4   4   4   4   2   4   4
#     4   9  20  42  62  93 123 160 216 259 305 395
#     4  10  21  39  60  89 129 169 213 267 302 369
#     4  10  21  42  67  89 127 171 208 263 319 365
#     4  11  22  40  68  91 123 172 209 257 326 374
#     4  10  22  40  54  90 126 162 206 270 320 348
#     4  11  22  39  63  88 127 164 220 264 306 384
#     4   9  22  45  62  97 133 157 210 266 316 391
#
# _framework density 20.368134999999999
#
# number of rings (size 3 to 8) (size 9 to 14) (size 15 to 20)
#    1.385    0.615    3.077    0.000    0.000    6.769 
#    4.154    0.000    0.000    0.000    0.000    0.000 
#    0.000    0.000    0.000    0.000    0.000    0.000 
#
# Total GULP energy -161047.027206 kJ/mol
# GULP energy per Si atom -12388.232862 kJ/mol
# Density = 2.032178 g / cm^3
# Si number density = 20.368135 Si / 1000 Ang^3
#
#
#
# Elastic Constant Matrix: (Units=GPa)
#
#
# Indices 1 2 3 4 5 6 
#
# 1 145.0045 29.6330 30.1282 0.0000 16.7911 0.0000
# 2 29.6330 125.4142 27.1381 0.0000 21.5470 0.0001
# 3 30.1282 27.1381 97.9363 0.0000 20.8084 0.0000
# 4 0.0000 0.0000 0.0000 15.8246 0.0000 10.5958
# 5 16.7911 21.5470 20.8084 0.0000 23.6318 0.0000
# 6 0.0000 0.0001 0.0000 10.5958 0.0000 26.5330
#
#
#
# Elastic Compliance Matrix: (Units=1/GPa)
#
#
# Indices 1 2 3 4 5 6 
#
# 1 0.007778 -0.000945 -0.001402 0.000000 -0.003430 0.000000
# 2 -0.000945 0.009645 -0.000807 0.000000 -0.007412 0.000000
# 3 -0.001402 -0.000807 0.012914 0.000000 -0.009639 0.000000
# 4 0.000000 0.000000 0.000000 0.086257 0.000000 -0.034446
# 5 -0.003430 -0.007412 -0.009639 0.000000 0.059998 0.000000
# 6 0.000000 0.000000 0.000000 -0.034446 0.000000 0.051445
#
#
# Mechanical properties :
#
#
# Convention : Reuss Voigt Hill
#
# Bulk Modulus (GPa) = 41.61784 60.23928 50.92856
# Shear Modulus (GPa) = 20.63091 31.96159 26.29625
#
# Velocity S-wave (km/s) = 3.18606 3.96561 3.59701
# Velocity P-wave (km/s) = 5.83197 7.11389 6.50459
#
# Compressibility (1/GPa) = 0.02402816
#
# Stress axis : x y z
#
# Youngs Moduli (GPa) = 128.56780 103.68127 77.43784
#
# Poissons Ratio (x) = 0.09799 0.10857
# Poissons Ratio (y) = 0.12150 0.06250
# Poissons Ratio (z) = 0.18026 0.08368
#
# Static dielectric constant tensor:
#      x y z
#    x 3.672100 0.000000 0.064730 
#    y 0.000000 3.683410 0.000000 
#    z 0.064730 0.000000 3.230420 
# 
# 
# High freq. dielectric constant tensor:
#      x y z
#    x 1.797740 0.000000 0.009220 
#    y 0.000000 1.792020 0.000000 
#    z 0.009220 0.000000 1.760490 
# 
# From -- ./inp_files/65022.got.cif
#   From: 2010.03.12/outbox.cif.g09.slc.cpg/sg5_33_cif.got.tgz:65022.got - 2010.03.31 09:47:26.
