data_PCOD8049622
_publ_section_title
;
Structure prediction by ZEFSAII (Michael W. Deem and Ramdas Pophale) SiO2 
 PCOD8049622
Probable space group: C 2
;
_chemical_formula_sum "Si O2"
_cell_formula_units_Z 24
_cell_length_a 9.134246
_cell_length_b 17.585144
_cell_length_c 9.455721
_cell_angle_alpha 90.000000
_cell_angle_beta 45.879674
_cell_angle_gamma 90.000000
_cell_volume 1090.347061
_symmetry_space_group_name_H-M "C 2"
_symmetry_group_IT_number 5
_symmetry_cell_setting 'monoclinic'
loop_
_space_group_symop_operation_xyz
x,y,z
-x,y,-z
1/2+x,1/2+y,z
1/2-x,1/2+y,-z
loop_
_atom_site_type_symbol
_atom_site_label
_atom_site_fract_x
_atom_site_fract_y
_atom_site_fract_z
Si Si1 0.065706 0.210590 0.807903
Si Si2 0.865948 0.594187 0.719693
Si Si3 0.788543 0.857049 0.558026
Si Si4 0.459879 0.373942 0.872402
Si Si5 0.572963 0.965160 0.098558
Si Si6 0.376410 0.199086 0.954079
O O1 0.166027 0.129077 0.779466
O O2 0.207813 0.269941 0.627319
O O3 0.864908 0.185607 0.856053
O O4 0.000000 0.251438 0.000000
O O5 0.839991 0.525216 0.846693
O O6 0.000000 0.565605 0.500000
O O7 0.958694 0.663021 0.751757
O O8 0.614148 0.916149 0.716468
O O9 0.000000 0.866349 0.500000
O O10 0.839573 0.878176 0.360768
O O11 0.500000 0.410987 0.000000
O O12 0.264598 0.412280 0.930849
O O13 0.406299 0.287383 0.927751
O O14 0.500000 0.003836 0.000000
O O15 0.500000 0.161761 0.000000
#
# Coordination Sequence:
#
# PCOD8049622 Si02
#       6
#     4   4   4   4   4   4
#     4  10  20  41  75 105 138 189 242 296 350 424
#     4  11  25  43  68 101 145 189 240 291 362 430
#     4  12  22  42  75 103 137 191 251 286 352 434
#     4  11  25  42  71 105 147 183 241 298 355 418
#     4  12  26  47  69 103 147 190 236 299 363 422
#     4  10  21  44  69 106 140 188 239 298 351 417
#
# _framework density 22.011341000000002
#
# number of rings (size 3 to 8) (size 9 to 14) (size 15 to 20)
#    0.000    1.000    3.333    4.500    2.333    2.000 
#    0.000    2.500    0.000    0.000    0.000    0.000 
#    0.000    0.000    0.000    0.000    0.000    0.000 
#
# Total GULP energy -148690.145006 kJ/mol
# GULP energy per Si atom -12390.845417 kJ/mol
# Density = 2.196124 g / cm^3
# Si number density = 22.011341 Si / 1000 Ang^3
#
#
#
# Elastic Constant Matrix: (Units=GPa)
#
#
# Indices 1 2 3 4 5 6 
#
# 1 122.8823 40.3830 54.6370 0.0000 -3.9982 0.0000
# 2 40.3830 89.1022 41.4883 0.0000 -8.0822 0.0000
# 3 54.6370 41.4883 145.8043 0.0000 1.8107 0.0000
# 4 0.0000 0.0000 0.0000 16.9206 0.0000 -6.6053
# 5 -3.9982 -8.0822 1.8107 0.0000 34.1683 0.0000
# 6 0.0000 0.0000 0.0000 -6.6053 0.0000 24.2435
#
#
#
# Elastic Compliance Matrix: (Units=1/GPa)
#
#
# Indices 1 2 3 4 5 6 
#
# 1 0.010602 -0.003339 -0.003031 0.000000 0.000612 0.000000
# 2 -0.003339 0.014361 -0.002875 0.000000 0.003159 0.000000
# 3 -0.003031 -0.002875 0.008831 0.000000 -0.001503 0.000000
# 4 0.000000 0.000000 0.000000 0.066133 0.000000 0.018019
# 5 0.000612 0.003159 -0.001503 0.000000 0.030165 0.000000
# 6 0.000000 0.000000 0.000000 0.018019 0.000000 0.046157
#
#
# Mechanical properties :
#
#
# Convention : Reuss Voigt Hill
#
# Bulk Modulus (GPa) = 65.33080 70.08948 67.71014
# Shear Modulus (GPa) = 25.01995 29.81851 27.41923
#
# Velocity S-wave (km/s) = 3.37513 3.68460 3.53326
# Velocity P-wave (km/s) = 6.70326 7.07201 6.89010
#
# Compressibility (1/GPa) = 0.01530672
#
# Stress axis : x y z
#
# Youngs Moduli (GPa) = 94.31778 69.63200 113.24011
#
# Poissons Ratio (x) = 0.23248 0.34319
# Poissons Ratio (y) = 0.31489 0.32552
# Poissons Ratio (z) = 0.28584 0.20016
#
# Static dielectric constant tensor:
#      x y z
#    x 5.210440 0.000000 0.294650 
#    y 0.000000 3.806300 0.000000 
#    z 0.294650 0.000000 4.317400 
# 
# 
# High freq. dielectric constant tensor:
#      x y z
#    x 1.874220 0.000000 0.002090 
#    y 0.000000 1.856970 0.000000 
#    z 0.002090 0.000000 1.863120 
# 
# From -- ./inp_files/16700.got.cif
#   From: 2010.03.12/outbox.cif.g09.slc.cpg/sg5_9_cif.got.tgz:16700.got - 2010.03.31 09:47:26.
