data_PCOD8049897
_publ_section_title
;
Structure prediction by ZEFSAII (Michael W. Deem and Ramdas Pophale) SiO2 
 PCOD8049897
Probable space group: C 2
;
_chemical_formula_sum "Si O2"
_cell_formula_units_Z 32
_cell_length_a 9.126285
_cell_length_b 5.130242
_cell_length_c 25.620333
_cell_angle_alpha 90.000000
_cell_angle_beta 88.293449
_cell_angle_gamma 90.000000
_cell_volume 1199.013243
_symmetry_space_group_name_H-M "C 2"
_symmetry_group_IT_number 5
_symmetry_cell_setting 'monoclinic'
loop_
_space_group_symop_operation_xyz
x,y,z
-x,y,-z
1/2+x,1/2+y,z
1/2-x,1/2+y,-z
loop_
_atom_site_type_symbol
_atom_site_label
_atom_site_fract_x
_atom_site_fract_y
_atom_site_fract_z
Si Si1 0.104610 0.376240 0.712410
Si Si2 0.639207 0.744644 0.139838
Si Si3 0.839398 0.512520 0.482317
Si Si4 0.464930 0.238348 0.176880
Si Si5 0.164973 0.280288 0.018842
Si Si6 0.314040 0.669971 0.390471
Si Si7 0.406888 0.456069 0.730772
Si Si8 0.512127 0.250010 0.373079
O O1 0.166672 0.147180 0.672531
O O2 0.236342 0.449264 0.751411
O O3 0.974231 0.237765 0.746887
O O4 0.066066 0.578966 0.668802
O O5 0.528104 0.986613 0.147476
O O6 0.797269 0.796124 0.164563
O O7 0.567067 0.485383 0.163323
O O8 0.664223 0.697545 0.078769
O O9 0.723376 0.742119 0.493329
O O10 0.862920 0.444012 0.419121
O O11 0.000000 0.586080 0.500000
O O12 0.494257 0.223637 0.240659
O O13 0.249991 0.554018 0.013119
O O14 0.000000 0.311180 0.000000
O O15 0.407105 0.423314 0.412065
O O16 0.142030 0.620682 0.406747
O O17 0.399453 0.446928 0.667734
#
# Coordination Sequence:
#
# PCOD8049897 Si02
#       8
#     4   4   4   4   4   4   4   4
#     4  10  21  38  62  88 122 160 223 264 324 382
#     4  12  26  45  68 103 134 185 228 276 349 404
#     4  12  28  47  73 102 138 177 223 272 341 417
#     4  12  26  44  69  96 145 180 226 278 333 415
#     4  12  24  44  72 100 136 175 229 292 341 402
#     4  10  23  39  61  93 120 167 209 275 325 382
#     4  10  23  37  58  93 121 173 215 267 323 384
#     4  10  21  38  64  87 124 159 221 266 322 384
#
# _framework density 26.688611999999999
#
# number of rings (size 3 to 8) (size 9 to 14) (size 15 to 20)
#    0.000    1.000    0.000    6.000    7.000    0.000 
#    0.000    0.000    0.000    0.000    0.000    0.000 
#    0.000    0.000    0.000    0.000    0.000    0.000 
#
# Total GULP energy -198309.261895 kJ/mol
# GULP energy per Si atom -12394.328868 kJ/mol
# Density = 2.662787 g / cm^3
# Si number density = 26.688612 Si / 1000 Ang^3
#
#
#
# Elastic Constant Matrix: (Units=GPa)
#
#
# Indices 1 2 3 4 5 6 
#
# 1 185.1546 52.2417 -5.5224 0.0000 35.5450 0.0000
# 2 52.2417 107.2926 -21.5591 0.0000 -10.9197 0.0000
# 3 -5.5224 -21.5591 73.7833 0.0000 -1.4218 0.0000
# 4 0.0000 0.0000 0.0000 20.5716 0.0000 -5.5849
# 5 35.5450 -10.9197 -1.4218 0.0000 30.0662 0.0000
# 6 0.0000 0.0000 0.0000 -5.5849 0.0000 54.8659
#
#
#
# Elastic Compliance Matrix: (Units=1/GPa)
#
#
# Indices 1 2 3 4 5 6 
#
# 1 0.009942 -0.006579 -0.001452 0.000000 -0.014212 0.000000
# 2 -0.006579 0.014693 0.004057 0.000000 0.013306 0.000000
# 3 -0.001452 0.004057 0.014705 0.000000 0.003886 0.000000
# 4 0.000000 0.000000 0.000000 0.049992 0.000000 0.005089
# 5 -0.014212 0.013306 0.003886 0.000000 0.055078 0.000000
# 6 0.000000 0.000000 0.000000 0.005089 0.000000 0.018744
#
#
# Mechanical properties :
#
#
# Convention : Reuss Voigt Hill
#
# Bulk Modulus (GPa) = 31.85486 46.28344 39.06915
# Shear Modulus (GPa) = 27.53795 43.83877 35.68836
#
# Velocity S-wave (km/s) = 3.21569 4.05730 3.66076
# Velocity P-wave (km/s) = 5.07437 6.27125 5.70429
#
# Compressibility (1/GPa) = 0.03139238
#
# Stress axis : x y z
#
# Youngs Moduli (GPa) = 100.58031 68.05814 68.00445
#
# Poissons Ratio (x) = 0.44777 0.09875
# Poissons Ratio (y) = 0.66174 -0.27591
# Poissons Ratio (z) = 0.14606 -0.27613
#
# Static dielectric constant tensor:
#      x y z
#    x 5.737550 0.000000 -0.858500 
#    y 0.000000 5.063820 0.000000 
#    z -0.858500 0.000000 7.390620 
# 
# 
# High freq. dielectric constant tensor:
#      x y z
#    x 2.099450 0.000000 -0.011140 
#    y 0.000000 2.089420 0.000000 
#    z -0.011140 0.000000 2.083630 
# 
# From -- ./inp_files/71518.got.cif
#   From: 2010.03.12/outbox.cif.g09.slc.cpg/sg5_36_cif.got.tgz:71518.got - 2010.03.31 09:47:26.
