data_PCOD8049867
_publ_section_title
;
Structure prediction by ZEFSAII (Michael W. Deem and Ramdas Pophale) SiO2 
 PCOD8049867
Probable space group: C 2
;
_chemical_formula_sum "Si O2"
_cell_formula_units_Z 32
_cell_length_a 9.960655
_cell_length_b 9.887455
_cell_length_c 25.478333
_cell_angle_alpha 90.000000
_cell_angle_beta 142.018490
_cell_angle_gamma 90.000000
_cell_volume 1544.208577
_symmetry_space_group_name_H-M "C 2"
_symmetry_group_IT_number 5
_symmetry_cell_setting 'monoclinic'
loop_
_space_group_symop_operation_xyz
x,y,z
-x,y,-z
1/2+x,1/2+y,z
1/2-x,1/2+y,-z
loop_
_atom_site_type_symbol
_atom_site_label
_atom_site_fract_x
_atom_site_fract_y
_atom_site_fract_z
Si Si1 0.917446 0.745350 0.340243
Si Si2 0.911717 0.221759 0.848581
Si Si3 0.680854 0.414878 0.189946
Si Si4 0.428727 0.962772 0.367976
Si Si5 0.410409 0.193569 0.163544
Si Si6 0.250957 0.203778 0.642660
Si Si7 0.933902 0.967769 0.536164
Si Si8 0.250396 0.411520 0.907611
O O1 0.745871 0.788911 0.243332
O O2 0.835168 0.614709 0.348195
O O3 0.138625 0.688853 0.380356
O O4 0.953565 0.873346 0.386773
O O5 0.808389 0.248155 0.874405
O O6 0.140769 0.298302 0.911290
O O7 0.938006 0.060627 0.848606
O O8 0.499589 0.306730 0.151745
O O9 0.774599 0.374341 0.161881
O O10 0.884861 0.418653 0.293562
O O11 0.297787 0.862381 0.365197
O O12 0.676997 0.960006 0.462588
O O13 0.585388 0.151794 0.261995
O O14 0.356383 0.058359 0.114009
O O15 0.027617 0.118461 0.574773
O O16 0.000000 0.911520 0.500000
O O17 0.500000 0.417465 0.000000
#
# Coordination Sequence:
#
# PCOD8049867 Si02
#       8
#     4   4   4   4   4   4   4   4
#     4  10  21  40  57  81 112 153 194 242 284 339
#     4   9  20  38  63  84 116 153 195 237 291 347
#     4   9  21  40  60  84 118 154 195 243 287 344
#     4  10  21  38  58  81 113 152 196 241 285 333
#     4   9  20  41  65  86 115 157 198 238 287 348
#     4  10  21  42  60  81 115 154 198 242 285 332
#     4  12  23  34  56  84 118 154 192 237 291 332
#     4  11  23  38  61  93 121 148 187 238 295 357
#
# _framework density 20.722588999999999
#
# number of rings (size 3 to 8) (size 9 to 14) (size 15 to 20)
#    0.000    2.000    1.250    2.250    1.750    3.000 
#    4.500    3.125    0.000    0.000    0.000    0.000 
#    0.000    0.000    0.000    0.000    0.000    0.000 
#
# Total GULP energy -198383.767351 kJ/mol
# GULP energy per Si atom -12398.985459 kJ/mol
# Density = 2.067542 g / cm^3
# Si number density = 20.722589 Si / 1000 Ang^3
#
#
#
# Elastic Constant Matrix: (Units=GPa)
#
#
# Indices 1 2 3 4 5 6 
#
# 1 63.8875 36.5579 4.4255 0.0000 7.0760 0.0000
# 2 36.5579 98.5790 12.6834 0.0000 9.7843 0.0000
# 3 4.4255 12.6834 52.8408 0.0000 13.4321 0.0000
# 4 0.0000 0.0000 0.0000 23.8193 0.0000 10.9153
# 5 7.0760 9.7843 13.4321 0.0000 27.8460 0.0000
# 6 0.0000 0.0000 0.0000 10.9153 0.0000 31.3868
#
#
#
# Elastic Compliance Matrix: (Units=1/GPa)
#
#
# Indices 1 2 3 4 5 6 
#
# 1 0.020075 -0.007257 0.000808 0.000000 -0.002941 0.000000
# 2 -0.007257 0.013287 -0.002124 0.000000 -0.001800 0.000000
# 3 0.000808 -0.002124 0.021917 0.000000 -0.010031 0.000000
# 4 0.000000 0.000000 0.000000 0.049942 0.000000 -0.017368
# 5 -0.002941 -0.001800 -0.010031 0.000000 0.042131 0.000000
# 6 0.000000 0.000000 0.000000 -0.017368 0.000000 0.037901
#
#
# Mechanical properties :
#
#
# Convention : Reuss Voigt Hill
#
# Bulk Modulus (GPa) = 26.22342 35.84896 31.03619
# Shear Modulus (GPa) = 23.24412 27.38644 25.31528
#
# Velocity S-wave (km/s) = 3.35278 3.63929 3.49897
# Velocity P-wave (km/s) = 5.26025 5.91576 5.59761
#
# Compressibility (1/GPa) = 0.03813385
#
# Stress axis : x y z
#
# Youngs Moduli (GPa) = 49.81373 75.26008 45.62711
#
# Poissons Ratio (x) = 0.54614 -0.03688
# Poissons Ratio (y) = 0.36149 0.09691
# Poissons Ratio (z) = -0.04026 0.15985
#
# Static dielectric constant tensor:
#      x y z
#    x 3.703410 0.000000 -0.043970 
#    y 0.000000 3.752260 0.000000 
#    z -0.043970 0.000000 3.724830 
# 
# 
# High freq. dielectric constant tensor:
#      x y z
#    x 1.792100 0.000000 -0.001940 
#    y 0.000000 1.812170 0.000000 
#    z -0.001940 0.000000 1.810340 
# 
# From -- ./inp_files/71763.got.cif
#   From: 2010.03.12/outbox.cif.g09.slc.cpg/sg5_36_cif.got.tgz:71763.got - 2010.03.31 09:47:26.
