data_PCOD8049962
_publ_section_title
;
Structure prediction by ZEFSAII (Michael W. Deem and Ramdas Pophale) SiO2 
 PCOD8049962
Probable space group: C 2
;
_chemical_formula_sum "Si O2"
_cell_formula_units_Z 28
_cell_length_a 4.932160
_cell_length_b 31.515739
_cell_length_c 9.475667
_cell_angle_alpha 90.000000
_cell_angle_beta 115.814711
_cell_angle_gamma 90.000000
_cell_volume 1325.918483
_symmetry_space_group_name_H-M "C 2"
_symmetry_group_IT_number 5
_symmetry_cell_setting 'monoclinic'
loop_
_space_group_symop_operation_xyz
x,y,z
-x,y,-z
1/2+x,1/2+y,z
1/2-x,1/2+y,-z
loop_
_atom_site_type_symbol
_atom_site_label
_atom_site_fract_x
_atom_site_fract_y
_atom_site_fract_z
Si Si1 0.177090 0.148360 0.184188
Si Si2 0.116848 0.777376 0.175585
Si Si3 0.839918 0.564691 0.105444
Si Si4 0.613344 0.834003 0.178189
Si Si5 0.707300 0.690242 0.678053
Si Si6 0.169813 0.409917 0.394129
Si Si7 0.851430 0.471226 0.110957
O O1 0.335625 0.101528 0.224648
O O2 0.439836 0.182247 0.269455
O O3 0.917089 0.156254 0.238380
O O4 0.000000 0.154972 0.000000
O O5 0.327007 0.817554 0.198683
O O6 0.310963 0.739703 0.287602
O O7 0.846561 0.794914 0.211893
O O8 0.000000 0.759108 0.000000
O O9 0.973945 0.518906 0.179875
O O10 0.500000 0.552759 0.000000
O O11 0.000000 0.582534 0.000000
O O12 0.745191 0.870734 0.306570
O O13 0.500000 0.851394 0.000000
O O14 0.500000 0.681470 0.500000
O O15 0.500000 0.430006 0.500000
O O16 0.000000 0.396429 0.500000
O O17 0.952000 0.442683 0.264957
O O18 0.500000 0.467078 0.000000
O O19 0.000000 0.455592 0.000000
#
# Coordination Sequence:
#
# PCOD8049962 Si02
#       7
#     4   4   4   4   4   4   4
#     4  11  21  39  64  87 117 159 206 250 295 356
#     4  10  21  39  62  87 113 151 204 252 297 354
#     4   9  18  35  62  93 116 152 211 262 296 344
#     4  10  22  40  63  86 113 154 204 251 296 355
#     4  12  25  39  58  90 126 158 194 245 310 367
#     4  12  25  40  60  93 130 161 199 248 311 370
#     4  10  21  40  66  90 120 163 211 254 298 358
#
# _framework density 21.117435
#
# number of rings (size 3 to 8) (size 9 to 14) (size 15 to 20)
#    0.000    1.429    0.000    6.429    0.000    4.571 
#    0.000    2.143    0.000    0.000    0.000    0.000 
#    0.000    0.000    0.000    0.000    0.000    0.000 
#
# Total GULP energy -173520.543627 kJ/mol
# GULP energy per Si atom -12394.324545 kJ/mol
# Density = 2.106937 g / cm^3
# Si number density = 21.117435 Si / 1000 Ang^3
#
#
#
# Elastic Constant Matrix: (Units=GPa)
#
#
# Indices 1 2 3 4 5 6 
#
# 1 104.2967 15.5527 29.8307 0.0000 2.2522 0.0000
# 2 15.5527 99.0298 45.9075 0.0000 -6.3946 0.0000
# 3 29.8307 45.9075 108.9596 0.0000 5.3040 0.0000
# 4 0.0000 0.0000 0.0000 5.6128 0.0000 -0.7643
# 5 2.2522 -6.3946 5.3040 0.0000 34.5442 0.0000
# 6 0.0000 0.0000 0.0000 -0.7643 0.0000 27.3199
#
#
#
# Elastic Compliance Matrix: (Units=1/GPa)
#
#
# Indices 1 2 3 4 5 6 
#
# 1 0.010419 -0.000428 -0.002655 0.000000 -0.000351 0.000000
# 2 -0.000428 0.012918 -0.005484 0.000000 0.003261 0.000000
# 3 -0.002655 -0.005484 0.012349 0.000000 -0.002738 0.000000
# 4 0.000000 0.000000 0.000000 0.178846 0.000000 0.005004
# 5 -0.000351 0.003261 -0.002738 0.000000 0.029995 0.000000
# 6 0.000000 0.000000 0.000000 0.005004 0.000000 0.036743
#
#
# Mechanical properties :
#
#
# Convention : Reuss Voigt Hill
#
# Bulk Modulus (GPa) = 53.90634 54.98531 54.44582
# Shear Modulus (GPa) = 16.41558 28.22839 22.32198
#
# Velocity S-wave (km/s) = 2.79112 3.66010 3.25474
# Velocity P-wave (km/s) = 5.99746 6.62995 6.32162
#
# Compressibility (1/GPa) = 0.01855070
#
# Stress axis : x y z
#
# Youngs Moduli (GPa) = 95.98017 77.41031 80.98121
#
# Poissons Ratio (x) = 0.03314 0.21500
# Poissons Ratio (y) = 0.04110 0.44412
# Poissons Ratio (z) = 0.25482 0.42454
#
# Static dielectric constant tensor:
#      x y z
#    x 3.750170 0.000000 0.078910 
#    y 0.000000 3.851200 0.000000 
#    z 0.078910 0.000000 3.585680 
# 
# 
# High freq. dielectric constant tensor:
#      x y z
#    x 1.849310 0.000000 0.000390 
#    y 0.000000 1.828330 0.000000 
#    z 0.000390 0.000000 1.802790 
# 
# From -- ./inp_files/13281.got.cif
#   From: 2010.03.12/outbox.cif.g09.slc.cpg/sg5_7_cif.got.tgz:13281.got - 2010.03.31 09:47:26.
