data_PCOD8049736
_publ_section_title
;
Structure prediction by ZEFSAII (Michael W. Deem and Ramdas Pophale) SiO2 
 PCOD8049736
Probable space group: C 2
;
_chemical_formula_sum "Si O2"
_cell_formula_units_Z 24
_cell_length_a 8.725489
_cell_length_b 20.872222
_cell_length_c 8.387778
_cell_angle_alpha 90.000000
_cell_angle_beta 131.404417
_cell_angle_gamma 90.000000
_cell_volume 1145.780544
_symmetry_space_group_name_H-M "C 2"
_symmetry_group_IT_number 5
_symmetry_cell_setting 'monoclinic'
loop_
_space_group_symop_operation_xyz
x,y,z
-x,y,-z
1/2+x,1/2+y,z
1/2-x,1/2+y,-z
loop_
_atom_site_type_symbol
_atom_site_label
_atom_site_fract_x
_atom_site_fract_y
_atom_site_fract_z
Si Si1 0.587295 0.334980 0.236073
Si Si2 0.351785 0.997622 0.644422
Si Si3 0.378495 0.106951 0.060414
Si Si4 0.500000 0.904478 0.500000
Si Si5 0.911268 0.704760 0.599349
Si Si6 0.430974 0.606037 0.633316
Si Si7 0.500000 0.409995 0.500000
O O1 0.815262 0.356806 0.375475
O O2 0.590139 0.258952 0.266712
O O3 0.489000 0.369905 0.325185
O O4 0.500000 0.350792 0.000000
O O5 0.498656 0.950607 0.650166
O O6 0.199479 0.955172 0.647063
O O7 0.509608 0.038204 0.857757
O O8 0.216873 0.044950 0.436428
O O9 0.425528 0.148979 0.247809
O O10 0.500000 0.142854 0.000000
O O11 0.134202 0.101555 0.880238
O O12 0.687121 0.673158 0.419762
O O13 0.000000 0.736562 0.500000
O O14 0.500000 0.602195 0.500000
#
# Coordination Sequence:
#
# PCOD8049736 Si02
#       7
#     4   4   4   2   4   4   2
#     4  11  25  45  69  95 128 179 226 271 334 382
#     4  10  21  40  66  93 137 168 212 267 335 385
#     4  11  21  38  67  98 125 171 211 258 335 397
#     4  10  26  42  62 100 132 170 220 280 314 396
#     4  11  25  43  65  94 131 167 222 282 325 388
#     4  11  22  40  66  98 129 173 210 267 336 395
#     4  10  20  46  68  94 136 174 224 274 320 392
#
# _framework density 20.946418999999999
#
# number of rings (size 3 to 8) (size 9 to 14) (size 15 to 20)
#    0.000    1.333    5.000    0.500    5.833    4.667 
#    0.000    2.500    0.000    0.000    0.000    0.000 
#    0.000    0.000    0.000    0.000    0.000    0.000 
#
# Total GULP energy -148674.782116 kJ/mol
# GULP energy per Si atom -12389.565176 kJ/mol
# Density = 2.089874 g / cm^3
# Si number density = 20.946419 Si / 1000 Ang^3
#
#
#
# Elastic Constant Matrix: (Units=GPa)
#
#
# Indices 1 2 3 4 5 6 
#
# 1 76.9313 36.6806 40.3830 0.0000 -9.9342 0.0000
# 2 36.6806 109.0927 47.3659 0.0000 0.7831 0.0000
# 3 40.3830 47.3659 128.9461 0.0000 10.0049 0.0000
# 4 0.0000 0.0000 0.0000 27.4777 0.0000 -51.0379
# 5 -9.9342 0.7831 10.0049 0.0000 36.9378 0.0000
# 6 0.0000 0.0000 0.0000 -51.0379 0.0000 369.9468
#
#
#
# Elastic Compliance Matrix: (Units=1/GPa)
#
#
# Indices 1 2 3 4 5 6 
#
# 1 0.018238 -0.004148 -0.004674 0.000000 0.006259 0.000000
# 2 -0.004148 0.011877 -0.003021 0.000000 -0.000549 0.000000
# 3 -0.004674 -0.003021 0.010645 0.000000 -0.004076 0.000000
# 4 0.000000 0.000000 0.000000 0.048932 0.000000 0.006751
# 5 0.006259 -0.000549 -0.004076 0.000000 0.029872 0.000000
# 6 0.000000 0.000000 0.000000 0.006751 0.000000 0.003634
#
#
# Mechanical properties :
#
#
# Convention : Reuss Voigt Hill
#
# Bulk Modulus (GPa) = 58.56776 62.64770 60.60773
# Shear Modulus (GPa) = 32.77094 99.57516 66.17305
#
# Velocity S-wave (km/s) = 3.95968 6.90226 5.62674
# Velocity P-wave (km/s) = 6.99478 9.66929 8.43866
#
# Compressibility (1/GPa) = 0.01707424
#
# Stress axis : x y z
#
# Youngs Moduli (GPa) = 54.83108 84.19768 93.94199
#
# Poissons Ratio (x) = 0.34924 0.43905
# Poissons Ratio (y) = 0.22743 0.28381
# Poissons Ratio (z) = 0.25626 0.25437
#
# Static dielectric constant tensor:
#      x y z
#    x 4.198320 0.000000 0.329590 
#    y 0.000000 3.825650 0.000000 
#    z 0.329590 0.000000 3.872870 
# 
# 
# High freq. dielectric constant tensor:
#      x y z
#    x 1.829460 0.000000 0.001070 
#    y 0.000000 1.826260 0.000000 
#    z 0.001070 0.000000 1.807190 
# 
# From -- ./inp_files/16881.got.cif
#   From: 2010.03.12/outbox.cif.g09.slc.cpg/sg5_9_cif.got.tgz:16881.got - 2010.03.31 09:47:26.
