data_PCOD8049726
_publ_section_title
;
Structure prediction by ZEFSAII (Michael W. Deem and Ramdas Pophale) SiO2 
 PCOD8049726
Probable space group: C 2
;
_chemical_formula_sum "Si O2"
_cell_formula_units_Z 20
_cell_length_a 10.028115
_cell_length_b 10.189028
_cell_length_c 8.178294
_cell_angle_alpha 90.000000
_cell_angle_beta 95.684336
_cell_angle_gamma 90.000000
_cell_volume 831.522394
_symmetry_space_group_name_H-M "C 2"
_symmetry_group_IT_number 5
_symmetry_cell_setting 'monoclinic'
loop_
_space_group_symop_operation_xyz
x,y,z
-x,y,-z
1/2+x,1/2+y,z
1/2-x,1/2+y,-z
loop_
_atom_site_type_symbol
_atom_site_label
_atom_site_fract_x
_atom_site_fract_y
_atom_site_fract_z
Si Si1 0.633754 0.227540 0.607148
Si Si2 0.947677 0.466610 0.311103
Si Si3 0.358142 0.589079 0.043387
Si Si4 0.806939 0.367601 0.868653
Si Si5 0.639716 0.703051 0.613640
O O1 0.500000 0.278240 0.500000
O O2 0.698262 0.349987 0.710455
O O3 0.736980 0.168534 0.487209
O O4 0.611389 0.110404 0.738896
O O5 0.839516 0.349711 0.309556
O O6 0.000000 0.493652 0.500000
O O7 0.055622 0.421793 0.189731
O O8 0.246469 0.473509 0.003137
O O9 0.361855 0.601372 0.239353
O O10 0.500000 0.533051 0.000000
O O11 0.329247 0.726106 0.951895
O O12 0.500000 0.697883 0.500000
#
# Coordination Sequence:
#
# PCOD8049726 Si02
#       5
#     4   4   4   4   4
#     4  11  24  44  75 110 137 186 238 300 353 422
#     4  10  20  44  74 100 142 183 233 287 365 409
#     4  12  27  45  70 104 143 192 235 291 356 424
#     4  12  27  48  69 107 146 189 238 292 356 424
#     4  11  22  46  74 102 140 185 238 293 352 422
#
# _framework density 24.052268000000002
#
# number of rings (size 3 to 8) (size 9 to 14) (size 15 to 20)
#    0.000    0.800    6.000    2.400    2.800    4.000 
#    0.000    0.000    0.000    0.000    0.000    0.000 
#    0.000    0.000    0.000    0.000    0.000    0.000 
#
# Total GULP energy -123966.620418 kJ/mol
# GULP energy per Si atom -12396.662042 kJ/mol
# Density = 2.399752 g / cm^3
# Si number density = 24.052268 Si / 1000 Ang^3
#
#
#
# Elastic Constant Matrix: (Units=GPa)
#
#
# Indices 1 2 3 4 5 6 
#
# 1 148.7423 52.9955 31.6032 0.0000 -33.9356 0.0000
# 2 52.9955 118.1516 12.4753 0.0000 -31.1106 0.0000
# 3 31.6032 12.4753 66.7309 0.0000 -25.9247 0.0000
# 4 0.0000 0.0000 0.0000 22.1832 0.0000 -17.4117
# 5 -33.9356 -31.1106 -25.9247 0.0000 33.5878 0.0000
# 6 0.0000 0.0000 0.0000 -17.4117 0.0000 35.2730
#
#
#
# Elastic Compliance Matrix: (Units=1/GPa)
#
#
# Indices 1 2 3 4 5 6 
#
# 1 0.009279 -0.002457 -0.001681 0.000000 0.005802 0.000000
# 2 -0.002457 0.012213 0.003300 0.000000 0.011377 0.000000
# 3 -0.001681 0.003300 0.022413 0.000000 0.018658 0.000000
# 4 0.000000 0.000000 0.000000 0.073592 0.000000 0.036327
# 5 0.005802 0.011377 0.018658 0.000000 0.060575 0.000000
# 6 0.000000 0.000000 0.000000 0.036327 0.000000 0.046282
#
#
# Mechanical properties :
#
#
# Convention : Reuss Voigt Hill
#
# Bulk Modulus (GPa) = 23.67958 58.64142 41.16050
# Shear Modulus (GPa) = 20.82403 33.97886 27.40144
#
# Velocity S-wave (km/s) = 2.94561 3.76268 3.37893
# Velocity P-wave (km/s) = 4.62982 6.58109 5.68973
#
# Compressibility (1/GPa) = 0.04223049
#
# Stress axis : x y z
#
# Youngs Moduli (GPa) = 107.76597 81.87982 44.61617
#
# Poissons Ratio (x) = 0.20117 0.07501
# Poissons Ratio (y) = 0.26477 -0.14725
# Poissons Ratio (z) = 0.18118 -0.27024
#
# Static dielectric constant tensor:
#      x y z
#    x 4.426010 0.000000 -0.006560 
#    y 0.000000 4.712150 0.000000 
#    z -0.006560 0.000000 4.378900 
# 
# 
# High freq. dielectric constant tensor:
#      x y z
#    x 1.949350 0.000000 -0.005510 
#    y 0.000000 1.966050 0.000000 
#    z -0.005510 0.000000 1.958370 
# 
# From -- ./inp_files/14282.got.cif
#   From: 2010.03.12/outbox.cif.g09.slc.cpg/sg5_8_cif.got.tgz:14282.got - 2010.03.31 09:47:26.
