data_PCOD8049560
_publ_section_title
;
Structure prediction by ZEFSAII (Michael W. Deem and Ramdas Pophale) SiO2 
 PCOD8049560
Probable space group: C 2
;
_chemical_formula_sum "Si O2"
_cell_formula_units_Z 20
_cell_length_a 11.937225
_cell_length_b 14.522576
_cell_length_c 6.632498
_cell_angle_alpha 90.000000
_cell_angle_beta 55.115061
_cell_angle_gamma 90.000000
_cell_volume 943.187562
_symmetry_space_group_name_H-M "C 2"
_symmetry_group_IT_number 5
_symmetry_cell_setting 'monoclinic'
loop_
_space_group_symop_operation_xyz
x,y,z
-x,y,-z
1/2+x,1/2+y,z
1/2-x,1/2+y,-z
loop_
_atom_site_type_symbol
_atom_site_label
_atom_site_fract_x
_atom_site_fract_y
_atom_site_fract_z
Si Si1 0.159802 0.642000 0.664783
Si Si2 0.500000 0.033022 0.500000
Si Si3 0.344236 0.684449 0.139287
Si Si4 0.229029 0.529817 0.980080
Si Si5 0.862520 0.848368 0.762207
Si Si6 0.000000 0.800678 0.000000
O O1 0.306435 0.652605 0.405818
O O2 0.100379 0.742841 0.756117
O O3 0.061321 0.596265 0.607007
O O4 0.157734 0.589801 0.879441
O O5 0.620355 0.981103 0.250683
O O6 0.328836 0.598363 0.001155
O O7 0.248687 0.768589 0.162832
O O8 0.500000 0.717626 0.000000
O O9 0.302683 0.449403 0.777833
O O10 0.000000 0.828475 0.500000
O O11 0.901789 0.859573 0.957434
#
# Coordination Sequence:
#
# PCOD8049560 Si02
#       6
#     4   2   4   4   4   2
#     4  11  20  42  73  96 135 184 228 277 344 405
#     4  10  20  40  70 100 132 178 234 272 332 420
#     4  11  26  46  67 103 145 180 231 287 343 410
#     4  11  25  42  70 104 138 184 228 287 346 403
#     4  12  27  45  71 104 137 181 235 284 341 416
#     4  12  20  44  72  98 126 188 232 276 338 414
#
# _framework density 21.204688000000001
#
# number of rings (size 3 to 8) (size 9 to 14) (size 15 to 20)
#    0.000    0.800    6.000    1.200    5.600    3.200 
#    3.600    0.000    0.000    0.000    0.000    0.000 
#    0.000    0.000    0.000    0.000    0.000    0.000 
#
# Total GULP energy -123885.744032 kJ/mol
# GULP energy per Si atom -12388.574403 kJ/mol
# Density = 2.115643 g / cm^3
# Si number density = 21.204688 Si / 1000 Ang^3
#
#
#
# Elastic Constant Matrix: (Units=GPa)
#
#
# Indices 1 2 3 4 5 6 
#
# 1 111.6353 20.0570 52.2151 0.0000 -13.3484 0.0000
# 2 20.0570 79.2866 17.0802 0.0000 -15.6252 0.0000
# 3 52.2151 17.0802 107.4306 0.0000 1.5740 0.0000
# 4 0.0000 0.0000 0.0000 27.6874 0.0000 -8.2491
# 5 -13.3484 -15.6252 1.5740 0.0000 36.3001 0.0000
# 6 0.0000 0.0000 0.0000 -8.2491 0.0000 17.9395
#
#
#
# Elastic Compliance Matrix: (Units=1/GPa)
#
#
# Indices 1 2 3 4 5 6 
#
# 1 0.012450 -0.000998 -0.005957 0.000000 0.004407 0.000000
# 2 -0.000998 0.014443 -0.001898 0.000000 0.005932 0.000000
# 3 -0.005957 -0.001898 0.012558 0.000000 -0.003552 0.000000
# 4 0.000000 0.000000 0.000000 0.041851 0.000000 0.019244
# 5 0.004407 0.005932 -0.003552 0.000000 0.031876 0.000000
# 6 0.000000 0.000000 0.000000 0.019244 0.000000 0.064592
#
#
# Mechanical properties :
#
#
# Convention : Reuss Voigt Hill
#
# Bulk Modulus (GPa) = 45.98875 53.00635 49.49755
# Shear Modulus (GPa) = 24.66397 30.31875 27.49136
#
# Velocity S-wave (km/s) = 3.41418 3.78539 3.60457
# Velocity P-wave (km/s) = 6.10551 6.64510 6.38101
#
# Compressibility (1/GPa) = 0.02174445
#
# Stress axis : x y z
#
# Youngs Moduli (GPa) = 80.31904 69.23830 79.63291
#
# Poissons Ratio (x) = 0.06908 0.47439
# Poissons Ratio (y) = 0.08013 0.15116
# Poissons Ratio (z) = 0.47848 0.13143
#
# Static dielectric constant tensor:
#      x y z
#    x 3.861450 0.000000 0.030740 
#    y 0.000000 3.503610 0.000000 
#    z 0.030740 0.000000 4.488070 
# 
# 
# High freq. dielectric constant tensor:
#      x y z
#    x 1.835750 0.000000 0.006810 
#    y 0.000000 1.806100 0.000000 
#    z 0.006810 0.000000 1.853340 
# 
# From -- ./inp_files/5011.got.cif
#   From: 2010.03.12/outbox.cif.g09.slc.cpg/sg5_3_cif.got.tgz:5011.got - 2010.03.31 09:47:26.
