data_PCOD8049820
_publ_section_title
;
Structure prediction by ZEFSAII (Michael W. Deem and Ramdas Pophale) SiO2 
 PCOD8049820
Probable space group: C 2
;
_chemical_formula_sum "Si O2"
_cell_formula_units_Z 22
_cell_length_a 24.593057
_cell_length_b 8.807016
_cell_length_c 15.266973
_cell_angle_alpha 90.000000
_cell_angle_beta 161.353547
_cell_angle_gamma 90.000000
_cell_volume 1057.241951
_symmetry_space_group_name_H-M "C 2"
_symmetry_group_IT_number 5
_symmetry_cell_setting 'monoclinic'
loop_
_space_group_symop_operation_xyz
x,y,z
-x,y,-z
1/2+x,1/2+y,z
1/2-x,1/2+y,-z
loop_
_atom_site_type_symbol
_atom_site_label
_atom_site_fract_x
_atom_site_fract_y
_atom_site_fract_z
Si Si1 0.813920 0.207550 0.189193
Si Si2 0.617149 0.220257 0.061184
Si Si3 0.296804 0.068754 0.633413
Si Si4 0.316342 0.063863 0.187943
Si Si5 0.000000 0.295343 0.000000
Si Si6 0.088290 0.064560 0.001980
O O1 0.825964 0.385047 0.189355
O O2 0.000000 0.143795 0.500000
O O3 0.684223 0.168630 0.069203
O O4 0.739790 0.131893 0.989642
O O5 0.416436 0.183275 0.760693
O O6 0.652582 0.399249 0.130504
O O7 0.717693 0.127125 0.288715
O O8 0.114182 0.061675 0.313146
O O9 0.378882 0.900786 0.755594
O O10 0.500000 0.126448 0.500000
O O11 0.177198 0.112512 0.047481
O O12 0.874419 0.191325 0.867790
#
# Coordination Sequence:
#
# PCOD8049820 Si02
#       6
#     4   4   4   4   2   4
#     4  10  21  40  61  83 113 153 190 230 281 336
#     4   9  20  37  57  81 113 145 183 229 279 331
#     4  10  21  37  55  84 113 141 183 232 277 330
#     4  10  24  39  57  86 116 147 192 236 278 333
#     4  10  22  34  56  86 108 140 188 226 274 336
#     4  11  21  37  58  80 111 149 182 226 282 332
#
# _framework density 20.808861
#
# number of rings (size 3 to 8) (size 9 to 14) (size 15 to 20)
#    0.000    2.182    0.000    3.273    0.000    8.000 
#    0.000    3.636    0.000    0.000    0.000    0.000 
#    0.000    0.000    0.000    0.000    0.000    0.000 
#
# Total GULP energy -136401.647439 kJ/mol
# GULP energy per Si atom -12400.149767 kJ/mol
# Density = 2.076150 g / cm^3
# Si number density = 20.808861 Si / 1000 Ang^3
#
#
#
# Elastic Constant Matrix: (Units=GPa)
#
#
# Indices 1 2 3 4 5 6 
#
# 1 159.6236 56.4375 33.3910 0.0000 3.9994 0.0000
# 2 56.4375 80.4972 9.4811 0.0000 -0.5795 0.0000
# 3 33.3910 9.4811 95.4193 0.0000 -1.9166 0.0000
# 4 0.0000 0.0000 0.0000 21.0726 0.0000 -3.0904
# 5 3.9994 -0.5795 -1.9166 0.0000 29.2176 0.0000
# 6 0.0000 0.0000 0.0000 -3.0904 0.0000 38.2968
#
#
#
# Elastic Compliance Matrix: (Units=1/GPa)
#
#
# Indices 1 2 3 4 5 6 
#
# 1 0.008958 -0.005988 -0.002570 0.000000 -0.001514 0.000000
# 2 -0.005988 0.016574 0.000472 0.000000 0.001179 0.000000
# 3 -0.002570 0.000472 0.011355 0.000000 0.001106 0.000000
# 4 0.000000 0.000000 0.000000 0.048023 0.000000 0.003875
# 5 -0.001514 0.001179 0.001106 0.000000 0.034529 0.000000
# 6 0.000000 0.000000 0.000000 0.003875 0.000000 0.026425
#
#
# Mechanical properties :
#
#
# Convention : Reuss Voigt Hill
#
# Bulk Modulus (GPa) = 48.27548 59.35104 53.81326
# Shear Modulus (GPa) = 29.59625 33.46609 31.53117
#
# Velocity S-wave (km/s) = 3.77542 4.01466 3.89688
# Velocity P-wave (km/s) = 6.50038 7.07630 6.79444
#
# Compressibility (1/GPa) = 0.02071445
#
# Stress axis : x y z
#
# Youngs Moduli (GPa) = 111.63730 60.33466 88.06947
#
# Poissons Ratio (x) = 0.36131 0.22634
# Poissons Ratio (y) = 0.66854 -0.04161
# Poissons Ratio (z) = 0.28691 -0.02850
#
# Static dielectric constant tensor:
#      x y z
#    x 3.845480 0.000000 0.177230 
#    y 0.000000 3.858470 0.000000 
#    z 0.177230 0.000000 3.748250 
# 
# 
# High freq. dielectric constant tensor:
#      x y z
#    x 1.822810 0.000000 0.004630 
#    y 0.000000 1.816510 0.000000 
#    z 0.004630 0.000000 1.807260 
# 
# From -- ./inp_files/52062.got.cif
#   From: 2010.03.12/outbox.cif.g09.slc.cpg/sg5_27_cif.got.tgz:52062.got - 2010.03.31 09:47:26.
