data_PCOD8049327
_publ_section_title
;
Structure prediction by ZEFSAII (Michael W. Deem and Ramdas Pophale) SiO2 
 PCOD8049327
Probable space group: C 2
;
_chemical_formula_sum "Si O2"
_cell_formula_units_Z 28
_cell_length_a 30.223201
_cell_length_b 9.798125
_cell_length_c 9.428923
_cell_angle_alpha 90.000000
_cell_angle_beta 148.419925
_cell_angle_gamma 90.000000
_cell_volume 1462.242964
_symmetry_space_group_name_H-M "C 2"
_symmetry_group_IT_number 5
_symmetry_cell_setting 'monoclinic'
loop_
_space_group_symop_operation_xyz
x,y,z
-x,y,-z
1/2+x,1/2+y,z
1/2-x,1/2+y,-z
loop_
_atom_site_type_symbol
_atom_site_label
_atom_site_fract_x
_atom_site_fract_y
_atom_site_fract_z
Si Si1 0.265275 0.926660 0.825417
Si Si2 0.190990 0.823315 0.896802
Si Si3 0.546906 0.806142 0.390403
Si Si4 0.083213 0.574100 0.637437
Si Si5 0.592392 0.576049 0.734451
Si Si6 0.676392 0.690435 0.539193
Si Si7 0.855064 0.239673 0.867340
O O1 0.250112 0.829042 0.919582
O O2 0.282189 0.836068 0.733315
O O3 0.185354 0.028211 0.592275
O O4 0.347739 0.019247 0.065293
O O5 0.115528 0.716628 0.659714
O O6 0.153744 0.973422 0.820991
O O7 0.247967 0.777624 0.184796
O O8 0.580215 0.717980 0.615447
O O9 0.587484 0.744717 0.358120
O O10 0.572223 0.964009 0.481626
O O11 0.446386 0.809194 0.102541
O O12 0.000000 0.601731 0.500000
O O13 0.500000 0.507121 0.500000
O O14 0.633463 0.608017 0.999691
O O15 0.680261 0.702461 0.381618
#
# Coordination Sequence:
#
# PCOD8049327 Si02
#       7
#     4   4   4   4   4   4   4
#     4  11  22  40  60  90 121 156 200 253 293 359
#     4  11  23  37  63  90 120 156 201 251 302 352
#     4  11  19  41  63  86 114 164 206 239 284 368
#     4  11  20  38  63  91 116 151 205 249 288 349
#     4  10  20  38  62  86 116 160 206 239 290 363
#     4  11  24  37  61  90 122 154 201 252 307 351
#     4  11  23  37  63  88 122 160 197 251 303 358
#
# _framework density 19.148662999999999
#
# number of rings (size 3 to 8) (size 9 to 14) (size 15 to 20)
#    0.000    1.143    5.714    1.286    4.000    0.000 
#    0.000    0.000    0.000    0.000    0.000    0.000 
#    0.000    0.000    0.000    0.000    0.000    0.000 
#
# Total GULP energy -173591.492951 kJ/mol
# GULP energy per Si atom -12399.392354 kJ/mol
# Density = 1.910508 g / cm^3
# Si number density = 19.148663 Si / 1000 Ang^3
#
#
#
# Elastic Constant Matrix: (Units=GPa)
#
#
# Indices 1 2 3 4 5 6 
#
# 1 131.7735 45.5212 47.4953 0.0000 -0.8198 0.0000
# 2 45.5212 93.6373 40.5685 0.0000 1.6723 0.0000
# 3 47.4953 40.5685 66.2928 0.0000 -10.1214 0.0000
# 4 0.0000 0.0000 0.0000 20.6670 0.0000 4.2665
# 5 -0.8198 1.6723 -10.1214 0.0000 38.9954 0.0000
# 6 0.0000 0.0000 0.0000 4.2665 0.0000 31.6199
#
#
#
# Elastic Compliance Matrix: (Units=1/GPa)
#
#
# Indices 1 2 3 4 5 6 
#
# 1 0.010725 -0.002412 -0.006411 0.000000 -0.001335 0.000000
# 2 -0.002412 0.015433 -0.008148 0.000000 -0.002827 0.000000
# 3 -0.006411 -0.008148 0.025716 0.000000 0.006889 0.000000
# 4 0.000000 0.000000 0.000000 0.049773 0.000000 -0.006716
# 5 -0.001335 -0.002827 0.006889 0.000000 0.027525 0.000000
# 6 0.000000 0.000000 0.000000 -0.006716 0.000000 0.032532
#
#
# Mechanical properties :
#
#
# Convention : Reuss Voigt Hill
#
# Bulk Modulus (GPa) = 55.76979 62.09706 58.93343
# Shear Modulus (GPa) = 24.79889 28.79771 26.79830
#
# Velocity S-wave (km/s) = 3.60261 3.88222 3.74503
# Velocity P-wave (km/s) = 6.81858 7.25223 7.03874
#
# Compressibility (1/GPa) = 0.01793085
#
# Stress axis : x y z
#
# Youngs Moduli (GPa) = 93.24374 64.79787 38.88663
#
# Poissons Ratio (x) = 0.15630 0.24931
# Poissons Ratio (y) = 0.22492 0.31683
# Poissons Ratio (z) = 0.59781 0.52795
#
# Static dielectric constant tensor:
#      x y z
#    x 3.581110 0.000000 0.189680 
#    y 0.000000 3.518160 0.000000 
#    z 0.189680 0.000000 3.375710 
# 
# 
# High freq. dielectric constant tensor:
#      x y z
#    x 1.754630 0.000000 0.017570 
#    y 0.000000 1.740500 0.000000 
#    z 0.017570 0.000000 1.725900 
# 
# From -- ./inp_files/31735.got.cif
#   From: 2010.03.12/outbox.cif.g09.slc.cpg/sg5_16_cif.got.tgz:31735.got - 2010.03.31 09:47:26.
