data_PCOD8049110
_publ_section_title
;
Structure prediction by ZEFSAII (Michael W. Deem and Ramdas Pophale) SiO2 
 PCOD8049110
Probable space group: C 2
;
_chemical_formula_sum "Si O2"
_cell_formula_units_Z 30
_cell_length_a 26.304171
_cell_length_b 13.388102
_cell_length_c 9.119317
_cell_angle_alpha 90.000000
_cell_angle_beta 151.232075
_cell_angle_gamma 90.000000
_cell_volume 1545.569166
_symmetry_space_group_name_H-M "C 2"
_symmetry_group_IT_number 5
_symmetry_cell_setting 'monoclinic'
loop_
_space_group_symop_operation_xyz
x,y,z
-x,y,-z
1/2+x,1/2+y,z
1/2-x,1/2+y,-z
loop_
_atom_site_type_symbol
_atom_site_label
_atom_site_fract_x
_atom_site_fract_y
_atom_site_fract_z
Si Si1 0.759231 0.545900 0.367729
Si Si2 0.054799 0.440322 0.290448
Si Si3 0.716845 0.774090 0.721591
Si Si4 0.172774 0.235065 0.282288
Si Si5 0.339033 0.948510 0.857447
Si Si6 0.820602 0.049752 0.343177
Si Si7 0.122005 0.934084 0.802228
Si Si8 0.500000 0.614223 0.000000
O O1 0.862011 0.530387 0.524131
O O2 0.746888 0.661301 0.376170
O O3 0.773306 0.484428 0.551688
O O4 0.656133 0.502627 0.025933
O O5 0.115237 0.342672 0.504039
O O6 0.000000 0.406293 0.000000
O O7 0.963172 0.480728 0.167471
O O8 0.729943 0.764370 0.578791
O O9 0.704865 0.664784 0.761674
O O10 0.819573 0.827311 0.047507
O O11 0.158862 0.328405 0.139330
O O12 0.060021 0.183659 0.033141
O O13 0.284287 0.994356 0.862074
O O14 0.914987 0.045105 0.701450
O O15 0.854099 0.993371 0.284153
O O16 0.000000 0.909349 0.500000
#
# Coordination Sequence:
#
# PCOD8049110 Si02
#       8
#     4   4   4   4   4   4   4   2
#     4  10  20  36  59  87 117 154 203 239 290 362
#     4   9  17  33  61  88 113 153 193 246 302 342
#     4  10  20  39  60  86 121 160 199 239 310 356
#     4  11  18  33  63  88 116 147 201 256 284 352
#     4  11  19  35  62  93 112 148 204 255 289 344
#     4  11  24  37  64  90 122 151 209 253 294 350
#     4  11  24  42  60  84 129 169 187 240 317 367
#     4  10  20  36  62  94 114 160 200 252 304 348
#
# _framework density 19.410326000000001
#
# number of rings (size 3 to 8) (size 9 to 14) (size 15 to 20)
#    0.000    1.600    6.667    2.400    0.933    1.067 
#    0.000    6.667    4.400    0.000    0.000    0.000 
#    0.000    0.000    0.000    0.000    0.000    0.000 
#
# Total GULP energy -185958.528293 kJ/mol
# GULP energy per Si atom -12397.235220 kJ/mol
# Density = 1.936615 g / cm^3
# Si number density = 19.410326 Si / 1000 Ang^3
#
#
#
# Elastic Constant Matrix: (Units=GPa)
#
#
# Indices 1 2 3 4 5 6 
#
# 1 74.3118 46.8427 36.4819 0.0000 24.6411 0.0000
# 2 46.8427 91.3124 36.5204 0.0000 20.0196 0.0000
# 3 36.4819 36.5204 115.0001 0.0000 21.5639 0.0000
# 4 0.0000 0.0000 0.0000 21.4657 0.0000 2.5106
# 5 24.6411 20.0196 21.5639 0.0000 26.5236 0.0000
# 6 0.0000 0.0000 0.0000 2.5106 0.0000 27.5236
#
#
#
# Elastic Compliance Matrix: (Units=1/GPa)
#
#
# Indices 1 2 3 4 5 6 
#
# 1 0.024949 -0.008603 -0.002423 0.000000 -0.014714 0.000000
# 2 -0.008603 0.016856 -0.002049 0.000000 -0.003064 0.000000
# 3 -0.002423 -0.002049 0.011094 0.000000 -0.005222 0.000000
# 4 0.000000 0.000000 0.000000 0.047088 0.000000 -0.004295
# 5 -0.014714 -0.003064 -0.005222 0.000000 0.057930 0.000000
# 6 0.000000 0.000000 0.000000 -0.004295 0.000000 0.036724
#
#
# Mechanical properties :
#
#
# Convention : Reuss Voigt Hill
#
# Bulk Modulus (GPa) = 37.38668 57.81269 47.59969
# Shear Modulus (GPa) = 21.76661 25.82119 23.79390
#
# Velocity S-wave (km/s) = 3.35235 3.65126 3.50499
# Velocity P-wave (km/s) = 5.85555 6.90107 6.39969
#
# Compressibility (1/GPa) = 0.02674749
#
# Stress axis : x y z
#
# Youngs Moduli (GPa) = 40.08219 59.32522 90.13632
#
# Poissons Ratio (x) = 0.51040 0.21843
# Poissons Ratio (y) = 0.34484 0.18470
# Poissons Ratio (z) = 0.09713 0.12157
#
# Static dielectric constant tensor:
#      x y z
#    x 3.591040 0.000000 0.317240 
#    y 0.000000 3.675230 0.000000 
#    z 0.317240 0.000000 3.706130 
# 
# 
# High freq. dielectric constant tensor:
#      x y z
#    x 1.735010 0.000000 0.014550 
#    y 0.000000 1.751260 0.000000 
#    z 0.014550 0.000000 1.752940 
# 
# From -- ./inp_files/31022.got.cif
#   From: 2010.03.12/outbox.cif.g09.slc.cpg/sg5_16_cif.got.tgz:31022.got - 2010.03.31 09:47:26.
