data_PCOD8049728
_publ_section_title
;
Structure prediction by ZEFSAII (Michael W. Deem and Ramdas Pophale) SiO2 
 PCOD8049728
Probable space group: C 2
;
_chemical_formula_sum "Si O2"
_cell_formula_units_Z 22
_cell_length_a 13.381527
_cell_length_b 7.691353
_cell_length_c 22.127285
_cell_angle_alpha 90.000000
_cell_angle_beta 23.693729
_cell_angle_gamma 90.000000
_cell_volume 915.161790
_symmetry_space_group_name_H-M "C 2"
_symmetry_group_IT_number 5
_symmetry_cell_setting 'monoclinic'
loop_
_space_group_symop_operation_xyz
x,y,z
-x,y,-z
1/2+x,1/2+y,z
1/2-x,1/2+y,-z
loop_
_atom_site_type_symbol
_atom_site_label
_atom_site_fract_x
_atom_site_fract_y
_atom_site_fract_z
Si Si1 0.026578 0.732140 0.878460
Si Si2 0.649596 0.298756 0.362840
Si Si3 0.500000 0.968742 0.000000
Si Si4 0.967821 0.183193 0.449363
Si Si5 0.410264 0.202472 0.733212
Si Si6 0.132695 0.484704 0.132742
O O1 0.928665 0.663814 0.867848
O O2 0.953581 0.586662 0.967455
O O3 0.321834 0.767025 0.710362
O O4 0.901268 0.914211 0.964878
O O5 0.500000 0.203024 0.500000
O O6 0.499290 0.474247 0.428937
O O7 0.664823 0.175822 0.295468
O O8 0.927584 0.339324 0.231344
O O9 0.746136 0.855141 0.853417
O O10 0.702526 0.248535 0.572743
O O11 0.000000 0.247931 0.500000
O O12 0.362860 0.027121 0.798160
#
# Coordination Sequence:
#
# PCOD8049728 Si02
#       6
#     4   4   2   4   4   4
#     4  11  24  46  71 108 152 195 251 311 370 443
#     4  10  21  45  71 108 149 191 245 310 364 445
#     4  12  26  44  70 110 150 200 252 310 366 442
#     4  10  20  44  74 102 147 194 243 304 370 436
#     4  12  23  44  81 103 146 203 248 306 377 436
#     4  11  23  45  76 104 150 195 251 307 372 443
#
# _framework density 24.039463000000001
#
# number of rings (size 3 to 8) (size 9 to 14) (size 15 to 20)
#    0.000    1.091    9.091    1.091    0.000    2.182 
#    3.273    0.000    0.000    0.000    0.000    0.000 
#    0.000    0.000    0.000    0.000    0.000    0.000 
#
# Total GULP energy -136413.851438 kJ/mol
# GULP energy per Si atom -12401.259222 kJ/mol
# Density = 2.398475 g / cm^3
# Si number density = 24.039463 Si / 1000 Ang^3
#
#
#
# Elastic Constant Matrix: (Units=GPa)
#
#
# Indices 1 2 3 4 5 6 
#
# 1 132.8171 32.9036 51.9278 -0.0152 29.4581 0.0030
# 2 32.9036 38.3286 45.3692 -0.0049 -2.6328 -0.0013
# 3 51.9278 45.3692 197.7080 -0.0889 9.3135 0.0001
# 4 -0.0152 -0.0049 -0.0889 31.2094 0.0055 8.0892
# 5 29.4581 -2.6328 9.3135 0.0055 43.7924 0.0002
# 6 0.0030 -0.0013 0.0001 8.0892 0.0002 39.4377
#
#
#
# Elastic Compliance Matrix: (Units=1/GPa)
#
#
# Indices 1 2 3 4 5 6 
#
# 1 0.012286 -0.010746 -0.000345 0.000005 -0.008837 -0.000002
# 2 -0.010746 0.045906 -0.008265 -0.000026 0.011746 0.000007
# 3 -0.000345 -0.008265 0.007129 0.000020 -0.001781 -0.000004
# 4 0.000005 -0.000026 0.000020 0.033841 -0.000014 -0.006941
# 5 -0.008837 0.011746 -0.001781 -0.000014 0.029865 0.000004
# 6 -0.000002 0.000007 -0.000004 -0.006941 0.000004 0.026780
#
#
# Mechanical properties :
#
#
# Convention : Reuss Voigt Hill
#
# Bulk Modulus (GPa) = 37.58152 69.91722 53.74937
# Shear Modulus (GPa) = 24.58348 38.79810 31.69079
#
# Velocity S-wave (km/s) = 3.20133 4.02174 3.63475
# Velocity P-wave (km/s) = 5.41589 7.12133 6.32634
#
# Compressibility (1/GPa) = 0.02660883
#
# Stress axis : x y z
#
# Youngs Moduli (GPa) = 81.39172 21.78376 140.27140
#
# Poissons Ratio (x) = 0.23410 0.04834
# Poissons Ratio (y) = 0.87467 1.15936
# Poissons Ratio (z) = 0.02805 0.18004
#
# Static dielectric constant tensor:
#      x y z
#    x 4.408650 0.000000 0.275540 
#    y 0.000000 3.763850 0.000010 
#    z 0.275540 0.000010 4.832210 
# 
# 
# High freq. dielectric constant tensor:
#      x y z
#    x 1.955520 0.000000 0.010370 
#    y 0.000000 1.909250 0.000000 
#    z 0.010370 0.000000 1.980750 
# 
# From -- ./inp_files/44242.got.cif
#   From: 2010.03.12/outbox.cif.g09.slc.cpg/sg5_23_cif.got.tgz:44242.got - 2010.03.31 09:47:26.
