data_PCOD8049687
_publ_section_title
;
Structure prediction by ZEFSAII (Michael W. Deem and Ramdas Pophale) SiO2 
 PCOD8049687
Probable space group: C 2
;
_chemical_formula_sum "Si O2"
_cell_formula_units_Z 20
_cell_length_a 7.470730
_cell_length_b 16.535913
_cell_length_c 8.986657
_cell_angle_alpha 90.000000
_cell_angle_beta 63.979949
_cell_angle_gamma 90.000000
_cell_volume 997.643580
_symmetry_space_group_name_H-M "C 2"
_symmetry_group_IT_number 5
_symmetry_cell_setting 'monoclinic'
loop_
_space_group_symop_operation_xyz
x,y,z
-x,y,-z
1/2+x,1/2+y,z
1/2-x,1/2+y,-z
loop_
_atom_site_type_symbol
_atom_site_label
_atom_site_fract_x
_atom_site_fract_y
_atom_site_fract_z
Si Si1 0.346305 0.193820 0.863126
Si Si2 0.998012 0.214703 0.218143
Si Si3 0.000000 0.106727 0.500000
Si Si4 0.921103 0.393883 0.859666
Si Si5 0.570560 0.049868 0.642094
Si Si6 0.500000 0.330988 0.000000
O O1 0.229582 0.205206 0.752026
O O2 0.488305 0.116705 0.788634
O O3 0.482071 0.270985 0.862113
O O4 0.171239 0.180809 0.047383
O O5 0.027199 0.166185 0.354857
O O6 0.016319 0.309871 0.236816
O O7 0.809376 0.049283 0.554912
O O8 0.002010 0.463588 0.725625
O O9 0.682022 0.393663 0.937024
O O10 0.000000 0.401560 0.000000
O O11 0.500000 0.065320 0.500000
#
# Coordination Sequence:
#
# PCOD8049687 Si02
#       6
#     4   4   2   4   4   2
#     4  10  20  44  70  96 122 171 227 260 316 396
#     4  10  21  44  72  96 124 171 224 263 322 389
#     4  12  26  44  68  94 136 174 214 276 322 380
#     4  11  24  42  66  97 132 169 220 267 324 387
#     4  12  27  43  61  99 137 170 216 270 328 380
#     4  10  20  42  74  96 120 172 226 264 318 384
#
# _framework density 20.047239000000001
#
# number of rings (size 3 to 8) (size 9 to 14) (size 15 to 20)
#    0.000    1.200    6.000    2.400    5.600    3.200 
#    0.000    0.000    0.000    0.000    0.000    0.000 
#    0.000    0.000    0.000    0.000    0.000    0.000 
#
# Total GULP energy -123936.044678 kJ/mol
# GULP energy per Si atom -12393.604468 kJ/mol
# Density = 2.000161 g / cm^3
# Si number density = 20.047239 Si / 1000 Ang^3
#
#
#
# Elastic Constant Matrix: (Units=GPa)
#
#
# Indices 1 2 3 4 5 6 
#
# 1 158.3642 41.7782 47.9031 0.0000 -12.7691 0.0000
# 2 41.7782 108.5735 64.8849 0.0000 -17.7199 0.0000
# 3 47.9031 64.8849 76.8436 0.0000 -4.1915 0.0000
# 4 0.0000 0.0000 0.0000 38.9871 0.0000 1.2601
# 5 -12.7691 -17.7199 -4.1915 0.0000 36.3021 0.0000
# 6 0.0000 0.0000 0.0000 1.2601 0.0000 24.0530
#
#
#
# Elastic Compliance Matrix: (Units=1/GPa)
#
#
# Indices 1 2 3 4 5 6 
#
# 1 0.007968 0.000440 -0.005207 0.000000 0.002416 0.000000
# 2 0.000440 0.020766 -0.017357 0.000000 0.008287 0.000000
# 3 -0.005207 -0.017357 0.030545 0.000000 -0.006777 0.000000
# 4 0.000000 0.000000 0.000000 0.025693 0.000000 -0.001346
# 5 0.002416 0.008287 -0.006777 0.000000 0.031659 0.000000
# 6 0.000000 0.000000 0.000000 -0.001346 0.000000 0.041645
#
#
# Mechanical properties :
#
#
# Convention : Reuss Voigt Hill
#
# Bulk Modulus (GPa) = 66.52314 72.54596 69.53455
# Shear Modulus (GPa) = 24.09217 32.48277 28.28747
#
# Velocity S-wave (km/s) = 3.47042 4.02968 3.76046
# Velocity P-wave (km/s) = 7.02237 7.61033 7.32225
#
# Compressibility (1/GPa) = 0.01503236
#
# Stress axis : x y z
#
# Youngs Moduli (GPa) = 125.49572 48.15526 32.73806
#
# Poissons Ratio (x) = -0.02119 0.17047
# Poissons Ratio (y) = -0.05522 0.56823
# Poissons Ratio (z) = 0.65347 0.83582
#
# Static dielectric constant tensor:
#      x y z
#    x 4.158670 0.000000 -0.055280 
#    y 0.000000 3.512030 0.000000 
#    z -0.055280 0.000000 3.545780 
# 
# 
# High freq. dielectric constant tensor:
#      x y z
#    x 1.814840 0.000000 0.000030 
#    y 0.000000 1.773470 0.000000 
#    z 0.000030 0.000000 1.767650 
# 
# From -- ./inp_files/15581.got.cif
#   From: 2010.03.12/outbox.cif.g09.slc.cpg/sg5_8_cif.got.tgz:15581.got - 2010.03.31 09:47:26.
