data_PCOD8049902
_publ_section_title
;
Structure prediction by ZEFSAII (Michael W. Deem and Ramdas Pophale) SiO2 
 PCOD8049902
Probable space group: C 2
;
_chemical_formula_sum "Si O2"
_cell_formula_units_Z 22
_cell_length_a 6.297181
_cell_length_b 8.669544
_cell_length_c 15.411006
_cell_angle_alpha 90.000000
_cell_angle_beta 83.025586
_cell_angle_gamma 90.000000
_cell_volume 835.118106
_symmetry_space_group_name_H-M "C 2"
_symmetry_group_IT_number 5
_symmetry_cell_setting 'monoclinic'
loop_
_space_group_symop_operation_xyz
x,y,z
-x,y,-z
1/2+x,1/2+y,z
1/2-x,1/2+y,-z
loop_
_atom_site_type_symbol
_atom_site_label
_atom_site_fract_x
_atom_site_fract_y
_atom_site_fract_z
Si Si1 0.172774 0.549660 0.426072
Si Si2 0.462197 0.969340 0.261249
Si Si3 0.657457 0.279292 0.781371
Si Si4 0.050694 0.856688 0.378521
Si Si5 0.871735 0.946789 0.925766
Si Si6 0.500000 0.746536 0.000000
O O1 0.126023 0.527568 0.326599
O O2 0.156460 0.735259 0.440821
O O3 0.410508 0.486952 0.436343
O O4 0.000000 0.471028 0.500000
O O5 0.594908 0.827574 0.210363
O O6 0.239119 0.928113 0.313880
O O7 0.402003 0.100220 0.190499
O O8 0.617373 0.275742 0.679152
O O9 0.498901 0.403437 0.832375
O O10 0.644512 0.860258 0.934465
O O11 0.863270 0.134098 0.941155
O O12 0.000000 0.872138 0.000000
#
# Coordination Sequence:
#
# PCOD8049902 Si02
#       6
#     4   4   4   4   4   2
#     4  10  23  38  58  90 124 158 214 255 313 374
#     4  10  21  38  63  89 121 166 201 260 312 376
#     4  10  21  40  61  91 124 157 213 252 315 372
#     4  10  22  40  60  91 122 164 207 254 319 371
#     4  10  24  40  64  96 130 171 213 268 316 383
#     4  10  24  40  64  92 134 160 224 252 330 368
#
# _framework density 26.343578000000001
#
# number of rings (size 3 to 8) (size 9 to 14) (size 15 to 20)
#    0.545    1.455    0.000    2.182    3.818    2.909 
#    0.000    0.000    0.000    0.000    0.000    0.000 
#    0.000    0.000    0.000    0.000    0.000    0.000 
#
# Total GULP energy -136283.130097 kJ/mol
# GULP energy per Si atom -12389.375463 kJ/mol
# Density = 2.628362 g / cm^3
# Si number density = 26.343578 Si / 1000 Ang^3
#
#
#
# Elastic Constant Matrix: (Units=GPa)
#
#
# Indices 1 2 3 4 5 6 
#
# 1 129.5715 81.5670 29.1187 0.0000 -47.9963 0.0000
# 2 81.5670 172.2935 20.2572 0.0000 -34.4065 0.0000
# 3 29.1187 20.2572 66.2669 0.0000 -34.2559 0.0000
# 4 0.0000 0.0000 0.0000 16.9310 0.0000 -38.4468
# 5 -47.9963 -34.4065 -34.2559 0.0000 61.6957 0.0000
# 6 0.0000 0.0000 0.0000 -38.4468 0.0000 23.1557
#
#
#
# Elastic Compliance Matrix: (Units=1/GPa)
#
#
# Indices 1 2 3 4 5 6 
#
# 1 0.013788 -0.004930 -0.000600 0.000000 0.007643 0.000000
# 2 -0.004930 0.008296 0.000055 0.000000 0.000821 0.000000
# 3 -0.000600 0.000055 0.021196 0.000000 0.011332 0.000000
# 4 0.000000 0.000000 0.000000 -0.021320 0.000000 -0.035399
# 5 0.007643 0.000821 0.011332 0.000000 0.028905 0.000000
# 6 0.000000 0.000000 0.000000 -0.035399 0.000000 -0.015589
#
#
# Mechanical properties :
#
#
# Convention : Reuss Voigt Hill
#
# Bulk Modulus (GPa) = 30.93294 70.00197 50.46745
# Shear Modulus (GPa) = 87.71589 36.16908 61.94249
#
# Velocity S-wave (km/s) = 5.77660 3.70939 4.85431
# Velocity P-wave (km/s) = 7.50065 6.70645 7.11464
#
# Compressibility (1/GPa) = 0.03232799
#
# Stress axis : x y z
#
# Youngs Moduli (GPa) = 72.52871 120.54366 47.17973
#
# Poissons Ratio (x) = 0.59433 0.02832
# Poissons Ratio (y) = 0.35760 -0.00260
# Poissons Ratio (z) = 0.04353 -0.00665
#
# Static dielectric constant tensor:
#      x y z
#    x 4.809490 0.000000 0.101290 
#    y 0.000000 5.040440 0.000000 
#    z 0.101290 0.000000 4.577550 
# 
# 
# High freq. dielectric constant tensor:
#      x y z
#    x 2.051630 0.000000 0.001140 
#    y 0.000000 2.056630 0.000000 
#    z 0.001140 0.000000 2.051380 
# 
# From -- ./inp_files/63853.got.cif
#   From: 2010.03.12/outbox.cif.g09.slc.cpg/sg5_32_cif.got.tgz:63853.got - 2010.03.31 09:47:26.
