data_PCOD8049643
_publ_section_title
;
Structure prediction by ZEFSAII (Michael W. Deem and Ramdas Pophale) SiO2 
 PCOD8049643
Probable space group: C 2
;
_chemical_formula_sum "Si O2"
_cell_formula_units_Z 22
_cell_length_a 9.219495
_cell_length_b 10.861469
_cell_length_c 11.756731
_cell_angle_alpha 90.000000
_cell_angle_beta 71.099583
_cell_angle_gamma 90.000000
_cell_volume 1113.811047
_symmetry_space_group_name_H-M "C 2"
_symmetry_group_IT_number 5
_symmetry_cell_setting 'monoclinic'
loop_
_space_group_symop_operation_xyz
x,y,z
-x,y,-z
1/2+x,1/2+y,z
1/2-x,1/2+y,-z
loop_
_atom_site_type_symbol
_atom_site_label
_atom_site_fract_x
_atom_site_fract_y
_atom_site_fract_z
Si Si1 0.178384 0.171050 0.964326
Si Si2 0.501135 0.459774 0.671052
Si Si3 0.000000 0.539542 0.500000
Si Si4 0.769828 0.159628 0.307090
Si Si5 0.760908 0.905351 0.562366
Si Si6 0.367541 0.408701 0.941522
O O1 0.244957 0.148139 0.823211
O O2 0.254939 0.294238 0.998328
O O3 0.000000 0.200604 0.000000
O O4 0.211290 0.045572 0.029264
O O5 0.585171 0.584435 0.684396
O O6 0.359868 0.493283 0.622232
O O7 0.626469 0.373029 0.573411
O O8 0.438171 0.389491 0.798014
O O9 0.894503 0.621291 0.605739
O O10 0.895923 0.461677 0.441507
O O11 0.797327 0.294779 0.345927
O O12 0.500000 0.404939 0.000000
#
# Coordination Sequence:
#
# PCOD8049643 Si02
#       6
#     4   4   2   4   4   4
#     4  11  24  43  68  95 136 175 222 273 326 394
#     4  10  20  42  65  90 134 171 213 266 332 387
#     4  10  24  38  62 100 122 166 216 268 320 394
#     4  11  21  42  65  91 135 168 213 271 327 389
#     4  10  22  39  66  94 124 169 212 272 328 381
#     4  11  23  45  65  99 130 182 218 272 330 390
#
# _framework density 19.752003999999999
#
# number of rings (size 3 to 8) (size 9 to 14) (size 15 to 20)
#    0.000    1.455    5.455    1.091    0.000    5.091 
#    3.273    1.818    0.000    0.000    0.000    0.000 
#    0.000    0.000    0.000    0.000    0.000    0.000 
#
# Total GULP energy -136316.210013 kJ/mol
# GULP energy per Si atom -12392.382728 kJ/mol
# Density = 1.970705 g / cm^3
# Si number density = 19.752004 Si / 1000 Ang^3
#
#
#
# Elastic Constant Matrix: (Units=GPa)
#
#
# Indices 1 2 3 4 5 6 
#
# 1 111.4427 38.9936 10.0108 0.0000 4.3271 0.0000
# 2 38.9936 97.3841 11.6525 0.0000 -8.0424 0.0000
# 3 10.0108 11.6525 96.4444 0.0000 0.0447 0.0000
# 4 0.0000 0.0000 0.0000 31.6274 0.0000 7.1235
# 5 4.3271 -8.0424 0.0447 0.0000 27.0322 0.0000
# 6 0.0000 0.0000 0.0000 7.1235 0.0000 39.2218
#
#
#
# Elastic Compliance Matrix: (Units=1/GPa)
#
#
# Indices 1 2 3 4 5 6 
#
# 1 0.010707 -0.004470 -0.000570 0.000000 -0.003043 0.000000
# 2 -0.004470 0.012552 -0.001055 0.000000 0.004452 0.000000
# 3 -0.000570 -0.001055 0.010555 0.000000 -0.000240 0.000000
# 4 0.000000 0.000000 0.000000 0.032967 0.000000 -0.005987
# 5 -0.003043 0.004452 -0.000240 0.000000 0.038805 0.000000
# 6 0.000000 0.000000 0.000000 -0.005987 0.000000 0.026583
#
#
# Mechanical properties :
#
#
# Convention : Reuss Voigt Hill
#
# Bulk Modulus (GPa) = 46.24265 47.39834 46.82049
# Shear Modulus (GPa) = 32.98870 35.88390 34.43630
#
# Velocity S-wave (km/s) = 4.09117 4.26693 4.17997
# Velocity P-wave (km/s) = 6.76605 6.95157 6.85944
#
# Compressibility (1/GPa) = 0.02162506
#
# Stress axis : x y z
#
# Youngs Moduli (GPa) = 93.39985 79.66632 94.73862
#
# Poissons Ratio (x) = 0.35612 0.05399
# Poissons Ratio (y) = 0.41751 0.09992
# Poissons Ratio (z) = 0.05322 0.08402
#
# Static dielectric constant tensor:
#      x y z
#    x 3.685040 0.000000 -0.048640 
#    y 0.000000 3.774340 0.000000 
#    z -0.048640 0.000000 3.771590 
# 
# 
# High freq. dielectric constant tensor:
#      x y z
#    x 1.770680 0.000000 -0.001120 
#    y 0.000000 1.757810 0.000000 
#    z -0.001120 0.000000 1.786470 
# 
# From -- ./inp_files/35165.got.cif
#   From: 2010.03.12/outbox.cif.g09.slc.cpg/sg5_18_cif.got.tgz:35165.got - 2010.03.31 09:47:26.
