data_PCOD8049895
_publ_section_title
;
Structure prediction by ZEFSAII (Michael W. Deem and Ramdas Pophale) SiO2 
 PCOD8049895
Probable space group: C 2
;
_chemical_formula_sum "Si O2"
_cell_formula_units_Z 22
_cell_length_a 24.334600
_cell_length_b 7.852536
_cell_length_c 5.212249
_cell_angle_alpha 90.000000
_cell_angle_beta 84.050273
_cell_angle_gamma 90.000000
_cell_volume 990.634694
_symmetry_space_group_name_H-M "C 2"
_symmetry_group_IT_number 5
_symmetry_cell_setting 'monoclinic'
loop_
_space_group_symop_operation_xyz
x,y,z
-x,y,-z
1/2+x,1/2+y,z
1/2-x,1/2+y,-z
loop_
_atom_site_type_symbol
_atom_site_label
_atom_site_fract_x
_atom_site_fract_y
_atom_site_fract_z
Si Si1 0.500000 0.630800 0.000000
Si Si2 0.703340 0.126294 0.539450
Si Si3 0.974656 0.458153 0.766825
Si Si4 0.642995 0.082424 0.072097
Si Si5 0.615009 0.478202 0.050034
Si Si6 0.175284 0.018759 0.523834
O O1 0.503329 0.761321 0.241451
O O2 0.552200 0.507524 0.995562
O O3 0.687635 0.043933 0.273668
O O4 0.686791 0.320397 0.533826
O O5 0.768489 0.119261 0.557649
O O6 0.670487 0.031124 0.786663
O O7 0.908640 0.464068 0.825665
O O8 0.000000 0.545864 0.500000
O O9 0.000000 0.558622 0.000000
O O10 0.623727 0.276993 0.067184
O O11 0.632405 0.561072 0.314230
O O12 0.650889 0.570932 0.811451
#
# Coordination Sequence:
#
# PCOD8049895 Si02
#       6
#     2   4   4   4   4   4
#     4  10  26  38  62  86 126 154 200 244 302 338
#     4  10  21  38  62  87 118 152 195 242 297 346
#     4  10  23  39  58  88 123 149 203 240 292 351
#     4  10  21  40  61  88 116 157 199 240 289 358
#     4  10  23  39  60  86 120 156 200 240 292 349
#     4  10  22  39  59  89 117 153 198 241 292 353
#
# _framework density 22.207985999999998
#
# number of rings (size 3 to 8) (size 9 to 14) (size 15 to 20)
#    0.545    1.455    0.000    2.182    3.818    2.909 
#    0.000    0.000    0.000    0.000    0.000    0.000 
#    0.000    0.000    0.000    0.000    0.000    0.000 
#
# Total GULP energy -136312.685816 kJ/mol
# GULP energy per Si atom -12392.062347 kJ/mol
# Density = 2.215744 g / cm^3
# Si number density = 22.207986 Si / 1000 Ang^3
#
#
#
# Elastic Constant Matrix: (Units=GPa)
#
#
# Indices 1 2 3 4 5 6 
#
# 1 164.7256 21.3727 60.9974 0.0000 1.6620 0.0000
# 2 21.3727 13.9762 21.2385 0.0000 7.4602 0.0000
# 3 60.9974 21.2385 182.9773 0.0000 6.3177 0.0000
# 4 0.0000 0.0000 0.0000 7.7268 0.0000 0.6834
# 5 1.6620 7.4602 6.3177 0.0000 36.3999 0.0000
# 6 0.0000 0.0000 0.0000 0.6834 0.0000 26.4801
#
#
#
# Elastic Compliance Matrix: (Units=1/GPa)
#
#
# Indices 1 2 3 4 5 6 
#
# 1 0.008049 -0.011276 -0.001450 0.000000 0.002195 0.000000
# 2 -0.011276 0.113261 -0.008655 0.000000 -0.021196 0.000000
# 3 -0.001450 -0.008655 0.006931 0.000000 0.000637 0.000000
# 4 0.000000 0.000000 0.000000 0.129715 0.000000 -0.003348
# 5 0.002195 -0.021196 0.000637 0.000000 0.031606 0.000000
# 6 0.000000 0.000000 0.000000 -0.003348 0.000000 0.037851
#
#
# Mechanical properties :
#
#
# Convention : Reuss Voigt Hill
#
# Bulk Modulus (GPa) = 11.69901 63.21071 37.45486
# Shear Modulus (GPa) = 12.54173 31.32608 21.93391
#
# Velocity S-wave (km/s) = 2.37900 3.75984 3.14611
# Velocity P-wave (km/s) = 3.58128 6.88283 5.48630
#
# Compressibility (1/GPa) = 0.08547735
#
# Stress axis : x y z
#
# Youngs Moduli (GPa) = 124.24575 8.82913 144.27539
#
# Poissons Ratio (x) = 0.09956 0.20920
# Poissons Ratio (y) = 1.40105 1.24877
# Poissons Ratio (z) = 0.18016 0.07642
#
# Static dielectric constant tensor:
#      x y z
#    x 4.121700 0.000000 0.249980 
#    y 0.000000 3.573050 0.000000 
#    z 0.249980 0.000000 4.397320 
# 
# 
# High freq. dielectric constant tensor:
#      x y z
#    x 1.882580 0.000000 0.011550 
#    y 0.000000 1.842680 0.000000 
#    z 0.011550 0.000000 1.883860 
# 
# From -- ./inp_files/9233.got.cif
#   From: 2010.03.12/outbox.cif.g09.slc.cpg/sg5_5_cif.got.tgz:9233.got - 2010.03.31 09:47:26.
