data_PCOD8049958
_publ_section_title
;
Structure prediction by ZEFSAII (Michael W. Deem and Ramdas Pophale) SiO2 
 PCOD8049958
Probable space group: C 2
;
_chemical_formula_sum "Si O2"
_cell_formula_units_Z 32
_cell_length_a 16.935673
_cell_length_b 16.152363
_cell_length_c 12.133995
_cell_angle_alpha 90.000000
_cell_angle_beta 27.494923
_cell_angle_gamma 90.000000
_cell_volume 1532.406566
_symmetry_space_group_name_H-M "C 2"
_symmetry_group_IT_number 5
_symmetry_cell_setting 'monoclinic'
loop_
_space_group_symop_operation_xyz
x,y,z
-x,y,-z
1/2+x,1/2+y,z
1/2-x,1/2+y,-z
loop_
_atom_site_type_symbol
_atom_site_label
_atom_site_fract_x
_atom_site_fract_y
_atom_site_fract_z
Si Si1 0.119190 0.372620 0.952945
Si Si2 0.976479 0.109086 0.900057
Si Si3 0.851461 0.360873 0.597238
Si Si4 0.892310 0.647934 0.734725
Si Si5 0.614777 0.435725 0.049071
Si Si6 0.421873 0.313514 0.434963
Si Si7 0.930978 0.487215 0.790348
Si Si8 0.143932 0.256417 0.610923
O O1 0.307211 0.342180 0.681270
O O2 0.135625 0.453436 0.010102
O O3 0.000000 0.400631 0.000000
O O4 0.031159 0.297549 0.126983
O O5 0.803057 0.145005 0.062084
O O6 0.003367 0.011311 0.846645
O O7 0.000000 0.130649 0.000000
O O8 0.125727 0.157600 0.649380
O O9 0.666721 0.375573 0.883355
O O10 0.829786 0.279309 0.549042
O O11 0.000000 0.340461 0.500000
O O12 0.896253 0.439494 0.461980
O O13 0.943256 0.587690 0.775375
O O14 0.000000 0.612516 0.500000
O O15 0.945975 0.741740 0.695978
O O16 0.795176 0.472200 0.862162
O O17 0.529522 0.391051 0.258101
O O18 0.306068 0.286349 0.477458
#
# Coordination Sequence:
#
# PCOD8049958 Si02
#       8
#     4   4   4   4   4   4   4   4
#     4   9  19  38  61  88 125 166 202 248 315 374
#     4  11  23  40  63  91 125 161 209 260 311 368
#     4   9  19  36  64  88 123 166 205 248 312 377
#     4  11  22  37  64  94 122 156 214 264 302 360
#     4  10  23  38  61  92 123 165 205 257 310 366
#     4  11  24  38  62  96 123 162 210 260 307 366
#     4   9  19  38  60  91 120 160 207 251 313 365
#     4  10  21  39  61  91 122 160 208 255 314 363
#
# _framework density 20.882186999999998
#
# number of rings (size 3 to 8) (size 9 to 14) (size 15 to 20)
#    0.000    2.000    0.000    4.500    8.750    0.000 
#    6.750    1.250    0.000    0.000    0.000    0.000 
#    0.000    0.000    0.000    0.000    0.000    0.000 
#
# Total GULP energy -198350.063425 kJ/mol
# GULP energy per Si atom -12396.878964 kJ/mol
# Density = 2.083466 g / cm^3
# Si number density = 20.882187 Si / 1000 Ang^3
#
#
#
# Elastic Constant Matrix: (Units=GPa)
#
#
# Indices 1 2 3 4 5 6 
#
# 1 70.3680 45.0131 13.9907 -0.0041 21.0260 0.0022
# 2 45.0131 116.4740 35.4610 -0.0038 16.9583 0.0022
# 3 13.9907 35.4610 74.0072 -0.0062 16.1094 0.0042
# 4 -0.0041 -0.0038 -0.0062 29.8542 0.0037 7.9210
# 5 21.0260 16.9583 16.1094 0.0037 28.9874 -0.0025
# 6 0.0022 0.0022 0.0042 7.9210 -0.0025 27.3529
#
#
#
# Elastic Compliance Matrix: (Units=1/GPa)
#
#
# Indices 1 2 3 4 5 6 
#
# 1 0.022460 -0.007427 0.002177 0.000005 -0.013156 -0.000004
# 2 -0.007427 0.012858 -0.004883 -0.000001 0.000579 0.000001
# 3 0.002177 -0.004883 0.017249 0.000006 -0.008308 -0.000005
# 4 0.000005 -0.000001 0.000006 0.036284 -0.000012 -0.010507
# 5 -0.013156 0.000579 -0.008308 -0.000012 0.048319 0.000010
# 6 -0.000004 0.000001 -0.000005 -0.010507 0.000010 0.039602
#
#
# Mechanical properties :
#
#
# Convention : Reuss Voigt Hill
#
# Bulk Modulus (GPa) = 30.95963 49.97540 40.46752
# Shear Modulus (GPa) = 24.06077 28.33118 26.19597
#
# Velocity S-wave (km/s) = 3.39811 3.68736 3.54569
# Velocity P-wave (km/s) = 5.50039 6.48944 6.01528
#
# Compressibility (1/GPa) = 0.03230013
#
# Stress axis : x y z
#
# Youngs Moduli (GPa) = 44.52268 77.77004 57.97476
#
# Poissons Ratio (x) = 0.57762 -0.12618
# Poissons Ratio (y) = 0.33068 0.28309
# Poissons Ratio (z) = -0.09691 0.37975
#
# Static dielectric constant tensor:
#      x y z
#    x 3.784830 0.000000 -0.007050 
#    y 0.000000 3.798810 0.000000 
#    z -0.007050 0.000000 3.717850 
# 
# 
# High freq. dielectric constant tensor:
#      x y z
#    x 1.821030 0.000000 -0.005260 
#    y 0.000000 1.806490 0.000000 
#    z -0.005260 0.000000 1.802030 
# 
# From -- ./inp_files/44971.got.cif
#   From: 2010.03.12/outbox.cif.g09.slc.cpg/sg5_23_cif.got.tgz:44971.got - 2010.03.31 09:47:26.
