data_PCOD8049630
_publ_section_title
;
Structure prediction by ZEFSAII (Michael W. Deem and Ramdas Pophale) SiO2 
 PCOD8049630
Probable space group: C 2
;
_chemical_formula_sum "Si O2"
_cell_formula_units_Z 22
_cell_length_a 11.508915
_cell_length_b 8.005064
_cell_length_c 17.744969
_cell_angle_alpha 90.000000
_cell_angle_beta 142.773194
_cell_angle_gamma 90.000000
_cell_volume 989.030081
_symmetry_space_group_name_H-M "C 2"
_symmetry_group_IT_number 5
_symmetry_cell_setting 'monoclinic'
loop_
_space_group_symop_operation_xyz
x,y,z
-x,y,-z
1/2+x,1/2+y,z
1/2-x,1/2+y,-z
loop_
_atom_site_type_symbol
_atom_site_label
_atom_site_fract_x
_atom_site_fract_y
_atom_site_fract_z
Si Si1 0.860029 0.595900 0.280059
Si Si2 0.986341 0.277059 0.101038
Si Si3 0.706137 0.092193 0.046590
Si Si4 0.305527 0.229187 0.804411
Si Si5 0.656379 0.003037 0.310808
Si Si6 0.000000 0.776721 0.500000
O O1 0.683690 0.716551 0.163406
O O2 0.774654 0.413092 0.246152
O O3 0.942422 0.658545 0.401571
O O4 0.030652 0.601685 0.307536
O O5 0.016945 0.380213 0.193510
O O6 0.866001 0.113382 0.064005
O O7 0.868471 0.401291 0.985724
O O8 0.790622 0.137922 0.172691
O O9 0.535183 0.220876 0.935905
O O10 0.247746 0.133163 0.698090
O O11 0.824548 0.894919 0.436229
#
# Coordination Sequence:
#
# PCOD8049630 Si02
#       6
#     4   4   4   4   4   2
#     4  11  23  46  69  97 129 176 225 283 326 400
#     4  10  21  42  66  98 141 173 223 263 329 389
#     4  10  20  42  63 101 142 180 214 268 317 408
#     4  10  22  41  65  98 137 172 224 261 329 389
#     4  10  23  46  63  98 130 172 224 283 328 398
#     4  10  26  44  66  98 128 170 232 282 346 380
#
# _framework density 22.244014
#
# number of rings (size 3 to 8) (size 9 to 14) (size 15 to 20)
#    0.000    1.818    1.818    1.091    0.000    3.636 
#   45.818    0.000    0.000    0.000    0.000    0.000 
#    0.000    0.000    0.000    0.000    0.000    0.000 
#
# Total GULP energy -136357.950561 kJ/mol
# GULP energy per Si atom -12396.177324 kJ/mol
# Density = 2.219339 g / cm^3
# Si number density = 22.244014 Si / 1000 Ang^3
#
#
#
# Elastic Constant Matrix: (Units=GPa)
#
#
# Indices 1 2 3 4 5 6 
#
# 1 148.2549 67.8310 46.4932 0.0000 -0.7384 0.0000
# 2 67.8310 142.3584 62.7842 0.0000 -11.1586 0.0000
# 3 46.4932 62.7842 67.4313 0.0001 -4.6176 0.0000
# 4 0.0000 0.0000 0.0001 43.8663 0.0000 5.1710
# 5 -0.7384 -11.1586 -4.6176 0.0000 20.1498 0.0000
# 6 0.0000 0.0000 0.0000 5.1710 0.0000 42.3228
#
#
#
# Elastic Compliance Matrix: (Units=1/GPa)
#
#
# Indices 1 2 3 4 5 6 
#
# 1 0.009260 -0.002884 -0.003846 0.000000 -0.002139 0.000000
# 2 -0.002884 0.013164 -0.009932 0.000000 0.004908 0.000000
# 3 -0.003846 -0.009932 0.026763 0.000000 0.000492 0.000000
# 4 0.000000 0.000000 0.000000 0.023130 0.000000 -0.002826
# 5 -0.002139 0.004908 0.000492 0.000000 0.052380 0.000000
# 6 0.000000 0.000000 0.000000 -0.002826 0.000000 0.023973
#
#
# Mechanical properties :
#
#
# Convention : Reuss Voigt Hill
#
# Bulk Modulus (GPa) = 63.04048 79.14014 71.09031
# Shear Modulus (GPa) = 26.69775 33.33019 30.01397
#
# Velocity S-wave (km/s) = 3.46818 3.87510 3.67727
# Velocity P-wave (km/s) = 6.66631 7.46172 7.07520
#
# Compressibility (1/GPa) = 0.01586282
#
# Stress axis : x y z
#
# Youngs Moduli (GPa) = 107.99126 75.96751 37.36469
#
# Poissons Ratio (x) = 0.21905 0.14372
# Poissons Ratio (y) = 0.31139 0.37111
# Poissons Ratio (z) = 0.41537 0.75452
#
# Static dielectric constant tensor:
#      x y z
#    x 4.067750 0.000000 0.001770 
#    y 0.000000 3.995330 0.000000 
#    z 0.001770 0.000000 3.905900 
# 
# 
# High freq. dielectric constant tensor:
#      x y z
#    x 1.881990 0.000000 -0.004990 
#    y 0.000000 1.878610 0.000000 
#    z -0.004990 0.000000 1.856110 
# 
# From -- ./inp_files/52176.got.cif
#   From: 2010.03.12/outbox.cif.g09.slc.cpg/sg5_27_cif.got.tgz:52176.got - 2010.03.31 09:47:26.
