data_PCOD8049574
_publ_section_title
;
Structure prediction by ZEFSAII (Michael W. Deem and Ramdas Pophale) SiO2 
 PCOD8049574
Probable space group: C 2
;
_chemical_formula_sum "Si O2"
_cell_formula_units_Z 24
_cell_length_a 11.591457
_cell_length_b 8.239769
_cell_length_c 23.294021
_cell_angle_alpha 90.000000
_cell_angle_beta 150.783831
_cell_angle_gamma 90.000000
_cell_volume 1085.954568
_symmetry_space_group_name_H-M "C 2"
_symmetry_group_IT_number 5
_symmetry_cell_setting 'monoclinic'
loop_
_space_group_symop_operation_xyz
x,y,z
-x,y,-z
1/2+x,1/2+y,z
1/2-x,1/2+y,-z
loop_
_atom_site_type_symbol
_atom_site_label
_atom_site_fract_x
_atom_site_fract_y
_atom_site_fract_z
Si Si1 0.000000 0.391701 0.500000
Si Si2 0.516798 0.891046 0.208407
Si Si3 0.959101 0.105434 0.698015
Si Si4 0.783961 0.210312 0.304609
Si Si5 0.976723 0.206320 0.085379
Si Si6 0.868406 0.939419 0.120310
Si Si7 0.500000 0.486130 0.000000
O O1 0.221987 0.506086 0.583817
O O2 0.031722 0.274172 0.568313
O O3 0.601833 0.775582 0.296910
O O4 0.620413 0.819610 0.192407
O O5 0.227826 0.885752 0.076729
O O6 0.620850 0.069994 0.262169
O O7 0.078548 0.139970 0.689615
O O8 0.134978 0.998955 0.814800
O O9 0.623998 0.362611 0.216056
O O10 0.814678 0.090878 0.055446
O O11 0.826294 0.304707 0.973641
O O12 0.120599 0.088461 0.105093
#
# Coordination Sequence:
#
# PCOD8049574 Si02
#       7
#     2   4   4   4   4   4   2
#     4  10  26  46  68  96 124 158 226 280 332 382
#     4  11  25  40  63  98 132 170 217 253 314 385
#     4  10  25  43  69  93 128 168 215 276 324 379
#     4  11  23  45  68  94 127 168 216 274 326 383
#     4  11  21  37  59  90 135 171 211 248 302 379
#     4  10  20  41  58  94 131 168 214 257 305 382
#     4  12  22  36  62  90 136 174 202 250 304 376
#
# _framework density 22.100370000000002
#
# number of rings (size 3 to 8) (size 9 to 14) (size 15 to 20)
#    0.000    1.333    3.333    1.000    2.333    3.333 
#    0.000    0.000    0.000    0.000    0.000    0.000 
#    0.000    0.000    0.000    0.000    0.000    0.000 
#
# Total GULP energy -148721.832959 kJ/mol
# GULP energy per Si atom -12393.486080 kJ/mol
# Density = 2.205007 g / cm^3
# Si number density = 22.100370 Si / 1000 Ang^3
#
#
#
# Elastic Constant Matrix: (Units=GPa)
#
#
# Indices 1 2 3 4 5 6 
#
# 1 115.3910 47.6019 35.2898 0.0001 -13.4596 -0.0001
# 2 47.6019 124.2234 53.2285 -0.0001 -12.1648 0.0000
# 3 35.2898 53.2285 73.4300 -0.0003 -13.1826 0.0000
# 4 0.0001 -0.0001 -0.0003 43.2390 0.0000 -12.7091
# 5 -13.4596 -12.1648 -13.1826 0.0000 20.7758 0.0000
# 6 -0.0001 0.0000 0.0000 -12.7091 0.0000 30.3971
#
#
#
# Elastic Compliance Matrix: (Units=1/GPa)
#
#
# Indices 1 2 3 4 5 6 
#
# 1 0.011050 -0.002723 -0.002638 0.000000 0.003890 0.000000
# 2 -0.002723 0.012399 -0.007553 0.000000 0.000703 0.000000
# 3 -0.002638 -0.007553 0.021737 0.000000 0.007661 0.000000
# 4 0.000000 0.000000 0.000000 0.026368 0.000000 0.011024
# 5 0.003890 0.000703 0.007661 0.000000 0.055926 0.000000
# 6 0.000000 0.000000 0.000000 0.011024 0.000000 0.037507
#
#
# Mechanical properties :
#
#
# Convention : Reuss Voigt Hill
#
# Bulk Modulus (GPa) = 51.66004 65.03165 58.34585
# Shear Modulus (GPa) = 25.34644 30.67733 28.01189
#
# Velocity S-wave (km/s) = 3.39023 3.72975 3.56404
# Velocity P-wave (km/s) = 6.22502 6.93091 6.58743
#
# Compressibility (1/GPa) = 0.01935732
#
# Stress axis : x y z
#
# Youngs Moduli (GPa) = 90.49671 80.65468 46.00548
#
# Poissons Ratio (x) = 0.21961 0.12138
# Poissons Ratio (y) = 0.24641 0.34747
# Poissons Ratio (z) = 0.23876 0.60916
#
# Static dielectric constant tensor:
#      x y z
#    x 3.837630 0.000000 -0.325720 
#    y 0.000000 4.335360 0.000000 
#    z -0.325720 0.000000 3.753200 
# 
# 
# High freq. dielectric constant tensor:
#      x y z
#    x 1.872150 0.000000 -0.026160 
#    y 0.000000 1.896020 0.000000 
#    z -0.026160 0.000000 1.835340 
# 
# From -- ./inp_files/38307.got.cif
#   From: 2010.03.12/outbox.cif.g09.slc.cpg/sg5_20_cif.got.tgz:38307.got - 2010.03.31 09:47:26.
