data_PCOD8049937
_publ_section_title
;
Structure prediction by ZEFSAII (Michael W. Deem and Ramdas Pophale) SiO2 
 PCOD8049937
Probable space group: C 2
;
_chemical_formula_sum "Si O2"
_cell_formula_units_Z 32
_cell_length_a 11.765949
_cell_length_b 14.775063
_cell_length_c 17.871222
_cell_angle_alpha 90.000000
_cell_angle_beta 151.138819
_cell_angle_gamma 90.000000
_cell_volume 1499.609109
_symmetry_space_group_name_H-M "C 2"
_symmetry_group_IT_number 5
_symmetry_cell_setting 'monoclinic'
loop_
_space_group_symop_operation_xyz
x,y,z
-x,y,-z
1/2+x,1/2+y,z
1/2-x,1/2+y,-z
loop_
_atom_site_type_symbol
_atom_site_label
_atom_site_fract_x
_atom_site_fract_y
_atom_site_fract_z
Si Si1 0.595321 0.120110 0.318738
Si Si2 0.151529 0.122058 0.160496
Si Si3 0.765873 0.433654 0.631125
Si Si4 0.492265 0.749323 0.794844
Si Si5 0.519775 0.713876 0.378570
Si Si6 0.985334 0.748529 0.860193
Si Si7 0.836184 0.409901 0.502475
Si Si8 0.349605 0.447550 0.755741
O O1 0.416544 0.106961 0.284771
O O2 0.511843 0.205119 0.220823
O O3 0.854267 0.133047 0.504571
O O4 0.620128 0.030618 0.280479
O O5 0.147511 0.205500 0.216386
O O6 0.036944 0.035993 0.139178
O O7 0.000000 0.144340 0.000000
O O8 0.500000 0.415990 0.500000
O O9 0.936259 0.356666 0.763106
O O10 0.748280 0.437628 0.531999
O O11 0.405352 0.710168 0.665264
O O12 0.768853 0.726602 0.958568
O O13 0.236897 0.708021 0.222789
O O14 0.623160 0.802305 0.479659
O O15 0.975660 0.857184 0.856388
O O16 0.643437 0.445257 0.330919
O O17 0.082570 0.456126 0.627789
#
# Coordination Sequence:
#
# PCOD8049937 Si02
#       8
#     4   4   4   4   4   4   4   4
#     4  12  24  45  71 101 138 182 235 286 343 414
#     4  12  27  44  66 100 141 183 235 286 346 418
#     4  11  25  43  67  99 142 184 232 280 349 411
#     4  11  27  42  66 105 140 182 224 289 352 412
#     4  10  22  40  70  99 134 175 226 286 337 407
#     4  11  22  43  70 100 139 179 228 283 352 408
#     4   9  19  38  60 105 124 167 231 281 332 403
#     4  10  21  38  69  93 134 176 229 286 338 403
#
# _framework density 21.338895000000001
#
# number of rings (size 3 to 8) (size 9 to 14) (size 15 to 20)
#    0.000    1.250    3.750    1.500    7.000    0.000 
#    0.000    0.000    0.000    0.000    0.000    0.000 
#    0.000    0.000    0.000    0.000    0.000    0.000 
#
# Total GULP energy -198336.434540 kJ/mol
# GULP energy per Si atom -12396.027159 kJ/mol
# Density = 2.129033 g / cm^3
# Si number density = 21.338895 Si / 1000 Ang^3
#
#
#
# Elastic Constant Matrix: (Units=GPa)
#
#
# Indices 1 2 3 4 5 6 
#
# 1 91.0244 34.0777 30.9135 0.0016 -17.6125 -0.0005
# 2 34.0777 109.2955 33.1768 0.0049 -9.8551 -0.0002
# 3 30.9135 33.1768 84.7067 0.0064 -1.9496 -0.0007
# 4 0.0016 0.0049 0.0064 24.0826 0.0009 -3.3317
# 5 -17.6125 -9.8551 -1.9496 0.0009 34.2283 -0.0006
# 6 -0.0005 -0.0002 -0.0007 -3.3317 -0.0006 37.0574
#
#
#
# Elastic Compliance Matrix: (Units=1/GPa)
#
#
# Indices 1 2 3 4 5 6 
#
# 1 0.014677 -0.002732 -0.004136 0.000000 0.006530 0.000000
# 2 -0.002732 0.011160 -0.003337 -0.000001 0.001617 0.000000
# 3 -0.004136 -0.003337 0.014570 -0.000003 -0.002259 0.000000
# 4 0.000000 -0.000001 -0.000003 0.042047 -0.000001 0.003780
# 5 0.006530 0.001617 -0.002259 -0.000001 0.032913 0.000000
# 6 0.000000 0.000000 0.000000 0.003780 0.000000 0.027325
#
#
# Mechanical properties :
#
#
# Convention : Reuss Voigt Hill
#
# Bulk Modulus (GPa) = 50.00661 53.48475 51.74568
# Shear Modulus (GPa) = 29.45221 31.53091 30.49156
#
# Velocity S-wave (km/s) = 3.71915 3.84816 3.78421
# Velocity P-wave (km/s) = 6.47519 6.69801 6.58754
#
# Compressibility (1/GPa) = 0.01999736
#
# Stress axis : x y z
#
# Youngs Moduli (GPa) = 68.13372 89.60555 68.63515
#
# Poissons Ratio (x) = 0.24479 0.28388
# Poissons Ratio (y) = 0.18613 0.22902
# Poissons Ratio (z) = 0.28180 0.29899
#
# Static dielectric constant tensor:
#      x y z
#    x 4.073700 0.000000 -0.110190 
#    y 0.000000 4.034990 -0.000010 
#    z -0.110190 -0.000010 3.652260 
# 
# 
# High freq. dielectric constant tensor:
#      x y z
#    x 1.837930 0.000000 -0.006010 
#    y 0.000000 1.837760 0.000000 
#    z -0.006010 0.000000 1.823280 
# 
# From -- ./inp_files/44968.got.cif
#   From: 2010.03.12/outbox.cif.g09.slc.cpg/sg5_23_cif.got.tgz:44968.got - 2010.03.31 09:47:26.
