data_PCOD8049424
_publ_section_title
;
Structure prediction by ZEFSAII (Michael W. Deem and Ramdas Pophale) SiO2 
 PCOD8049424
Probable space group: C 2
;
_chemical_formula_sum "Si O2"
_cell_formula_units_Z 24
_cell_length_a 9.072679
_cell_length_b 27.502173
_cell_length_c 8.140950
_cell_angle_alpha 90.000000
_cell_angle_beta 33.326734
_cell_angle_gamma 90.000000
_cell_volume 1116.031289
_symmetry_space_group_name_H-M "C 2"
_symmetry_group_IT_number 5
_symmetry_cell_setting 'monoclinic'
loop_
_space_group_symop_operation_xyz
x,y,z
-x,y,-z
1/2+x,1/2+y,z
1/2-x,1/2+y,-z
loop_
_atom_site_type_symbol
_atom_site_label
_atom_site_fract_x
_atom_site_fract_y
_atom_site_fract_z
Si Si1 0.540185 0.301620 0.155388
Si Si2 0.908208 0.693132 0.899860
Si Si3 0.602261 0.644523 0.726849
Si Si4 0.959596 0.360919 0.344131
Si Si5 0.275032 0.957316 0.336220
Si Si6 0.717910 0.534827 0.671401
O O1 0.614958 0.247934 0.150098
O O2 0.264719 0.320728 0.489728
O O3 0.500000 0.299536 0.000000
O O4 0.770308 0.340161 0.988552
O O5 0.106275 0.664595 0.592947
O O6 0.622987 0.666324 0.182803
O O7 0.000000 0.694342 0.000000
O O8 0.612155 0.586521 0.705722
O O9 0.500000 0.662073 0.000000
O O10 0.885236 0.411228 0.330745
O O11 0.000000 0.370087 0.500000
O O12 0.000000 0.944477 0.500000
O O13 0.231250 0.000764 0.502600
O O14 0.500000 0.975124 0.000000
O O15 0.000000 0.540547 0.500000
O O16 0.500000 0.512432 0.000000
#
# Coordination Sequence:
#
# PCOD8049424 Si02
#       6
#     4   4   4   4   4   4
#     4   9  19  36  61  90 118 159 212 251 283 353
#     4  11  22  39  64  93 125 162 207 254 302 356
#     4  11  23  41  62  91 126 161 203 254 306 362
#     4  10  20  39  64  86 118 166 210 243 292 365
#     4  12  26  42  63  96 130 153 195 263 321 360
#     4  11  24  45  68  88 119 167 213 245 294 376
#
# _framework density 21.504771999999999
#
# number of rings (size 3 to 8) (size 9 to 14) (size 15 to 20)
#    0.000    1.333    0.000    6.500    0.000    6.667 
#    0.000    8.333    0.000    0.000    0.000    0.000 
#    0.000    0.000    0.000    0.000    0.000    0.000 
#
# Total GULP energy -148825.303652 kJ/mol
# GULP energy per Si atom -12402.108638 kJ/mol
# Density = 2.145583 g / cm^3
# Si number density = 21.504772 Si / 1000 Ang^3
#
#
#
# Elastic Constant Matrix: (Units=GPa)
#
#
# Indices 1 2 3 4 5 6 
#
# 1 83.1814 60.3635 36.0902 0.0000 -15.0496 0.0000
# 2 60.3635 135.8650 45.2774 0.0000 -0.3239 0.0000
# 3 36.0902 45.2774 129.3994 0.0000 -6.7617 0.0000
# 4 0.0000 0.0000 0.0000 30.2261 0.0000 -2.4317
# 5 -15.0496 -0.3239 -6.7617 0.0000 43.5647 0.0000
# 6 0.0000 0.0000 0.0000 -2.4317 0.0000 17.1216
#
#
#
# Elastic Compliance Matrix: (Units=1/GPa)
#
#
# Indices 1 2 3 4 5 6 
#
# 1 0.020159 -0.008129 -0.002437 0.000000 0.006525 0.000000
# 2 -0.008129 0.011616 -0.001956 0.000000 -0.003025 0.000000
# 3 -0.002437 -0.001956 0.009121 0.000000 0.000559 0.000000
# 4 0.000000 0.000000 0.000000 0.033466 0.000000 0.004753
# 5 0.006525 -0.003025 0.000559 0.000000 0.025273 0.000000
# 6 0.000000 0.000000 0.000000 0.004753 0.000000 0.059081
#
#
# Mechanical properties :
#
#
# Convention : Reuss Voigt Hill
#
# Bulk Modulus (GPa) = 63.07740 70.21202 66.64471
# Shear Modulus (GPa) = 26.44897 31.96346 29.20622
#
# Velocity S-wave (km/s) = 3.51081 3.85949 3.68928
# Velocity P-wave (km/s) = 6.76978 7.25130 7.01467
#
# Compressibility (1/GPa) = 0.01585354
#
# Stress axis : x y z
#
# Youngs Moduli (GPa) = 49.60636 86.08695 109.63442
#
# Poissons Ratio (x) = 0.69976 0.26720
# Poissons Ratio (y) = 0.40323 0.21439
# Poissons Ratio (z) = 0.12090 0.16834
#
# Static dielectric constant tensor:
#      x y z
#    x 3.867800 0.000000 -0.201650 
#    y 0.000000 3.956700 0.000000 
#    z -0.201650 0.000000 4.724740 
# 
# 
# High freq. dielectric constant tensor:
#      x y z
#    x 1.839050 0.000000 -0.010140 
#    y 0.000000 1.851740 0.000000 
#    z -0.010140 0.000000 1.861830 
# 
# From -- ./inp_files/17607.got.cif
#   From: 2010.03.12/outbox.cif.g09.slc.cpg/sg5_9_cif.got.tgz:17607.got - 2010.03.31 09:47:26.
