data_PCOD8049695
_publ_section_title
;
Structure prediction by ZEFSAII (Michael W. Deem and Ramdas Pophale) SiO2 
 PCOD8049695
Probable space group: C 2
;
_chemical_formula_sum "Si O2"
_cell_formula_units_Z 30
_cell_length_a 11.936870
_cell_length_b 8.154217
_cell_length_c 14.173045
_cell_angle_alpha 90.000000
_cell_angle_beta 78.823813
_cell_angle_gamma 90.000000
_cell_volume 1353.383102
_symmetry_space_group_name_H-M "C 2"
_symmetry_group_IT_number 5
_symmetry_cell_setting 'monoclinic'
loop_
_space_group_symop_operation_xyz
x,y,z
-x,y,-z
1/2+x,1/2+y,z
1/2-x,1/2+y,-z
loop_
_atom_site_type_symbol
_atom_site_label
_atom_site_fract_x
_atom_site_fract_y
_atom_site_fract_z
Si Si1 0.500000 0.849140 0.000000
Si Si2 0.954862 0.845727 0.239789
Si Si3 0.153517 0.551863 0.841487
Si Si4 0.125510 0.141396 0.510163
Si Si5 0.073526 0.357490 0.687392
Si Si6 0.460750 0.150719 0.607670
Si Si7 0.243272 0.428634 0.393573
Si Si8 0.088992 0.158644 0.161170
O O1 0.567333 0.735760 0.062666
O O2 0.400681 0.961572 0.060146
O O3 0.032810 0.795136 0.316722
O O4 0.935750 0.695103 0.171727
O O5 0.018573 0.989925 0.175230
O O6 0.831461 0.902297 0.295271
O O7 0.277342 0.624212 0.845379
O O8 0.160560 0.420994 0.753946
O O9 0.175814 0.259243 0.421528
O O10 0.198546 0.975745 0.514359
O O11 0.000000 0.090838 0.500000
O O12 0.130341 0.217932 0.614703
O O13 0.047794 0.505692 0.620476
O O14 0.956614 0.286492 0.752718
O O15 0.500000 0.219628 0.500000
O O16 0.334892 0.078226 0.626335
#
# Coordination Sequence:
#
# PCOD8049695 Si02
#       8
#     2   4   4   4   4   4   4   4
#     4  10  26  48  72 102 124 162 212 266 348 426
#     4  11  26  40  63 102 129 170 226 265 315 391
#     4  10  25  44  73  97 131 166 207 271 345 402
#     4  12  25  39  61  92 136 183 235 272 308 373
#     4  10  20  43  63  94 134 175 220 266 322 380
#     4  11  21  41  58  87 135 179 224 267 306 365
#     4  12  24  38  61  88 131 183 222 270 315 356
#     4  11  24  46  70  99 133 163 213 276 333 405
#
# _framework density 22.166671999999998
#
# number of rings (size 3 to 8) (size 9 to 14) (size 15 to 20)
#    0.000    1.067    4.000    1.600    3.733    4.267 
#    0.000    0.000    0.000    0.000    0.000    0.000 
#    0.000    0.000    0.000    0.000    0.000    0.000 
#
# Total GULP energy -186036.905466 kJ/mol
# GULP energy per Si atom -12402.460364 kJ/mol
# Density = 2.211622 g / cm^3
# Si number density = 22.166672 Si / 1000 Ang^3
#
#
#
# Elastic Constant Matrix: (Units=GPa)
#
#
# Indices 1 2 3 4 5 6 
#
# 1 121.4787 33.2352 33.6645 0.0000 3.6179 0.0000
# 2 33.2352 75.9687 38.8823 0.0000 4.3321 0.0000
# 3 33.6645 38.8823 103.7204 0.0000 11.0916 0.0000
# 4 0.0000 0.0000 0.0000 37.1747 0.0000 4.5817
# 5 3.6179 4.3321 11.0916 0.0000 24.4449 0.0000
# 6 0.0000 0.0000 0.0000 4.5817 0.0000 27.4297
#
#
#
# Elastic Compliance Matrix: (Units=1/GPa)
#
#
# Indices 1 2 3 4 5 6 
#
# 1 0.009650 -0.003240 -0.001919 0.000000 0.000017 0.000000
# 2 -0.003240 0.017377 -0.005449 0.000000 -0.000128 0.000000
# 3 -0.001919 -0.005449 0.012794 0.000000 -0.004555 0.000000
# 4 0.000000 0.000000 0.000000 0.027465 0.000000 -0.004588
# 5 0.000017 -0.000128 -0.004555 0.000000 0.042995 0.000000
# 6 0.000000 0.000000 0.000000 -0.004588 0.000000 0.037223
#
#
# Mechanical properties :
#
#
# Convention : Reuss Voigt Hill
#
# Bulk Modulus (GPa) = 53.75144 56.97018 55.36081
# Shear Modulus (GPa) = 28.58403 30.83557 29.70980
#
# Velocity S-wave (km/s) = 3.59486 3.73376 3.66497
# Velocity P-wave (km/s) = 6.44454 6.65917 6.55274
#
# Compressibility (1/GPa) = 0.01860415
#
# Stress axis : x y z
#
# Youngs Moduli (GPa) = 103.62977 57.54724 78.16178
#
# Poissons Ratio (x) = 0.18647 0.15000
# Poissons Ratio (y) = 0.33580 0.42589
# Poissons Ratio (z) = 0.19887 0.31357
#
# Static dielectric constant tensor:
#      x y z
#    x 3.960090 0.000000 0.103150 
#    y 0.000000 4.186680 0.000000 
#    z 0.103150 0.000000 3.881930 
# 
# 
# High freq. dielectric constant tensor:
#      x y z
#    x 1.877250 0.000000 0.004670 
#    y 0.000000 1.885550 0.000000 
#    z 0.004670 0.000000 1.857720 
# 
# From -- ./inp_files/52415.got.cif
#   From: 2010.03.12/outbox.cif.g09.slc.cpg/sg5_27_cif.got.tgz:52415.got - 2010.03.31 09:47:26.
