data_PCOD8049021
_publ_section_title
;
Structure prediction by ZEFSAII (Michael W. Deem and Ramdas Pophale) SiO2 
 PCOD8049021
Probable space group: C 2
;
_chemical_formula_sum "Si O2"
_cell_formula_units_Z 30
_cell_length_a 13.737902
_cell_length_b 17.514579
_cell_length_c 12.008402
_cell_angle_alpha 90.000000
_cell_angle_beta 31.319637
_cell_angle_gamma 90.000000
_cell_volume 1501.936521
_symmetry_space_group_name_H-M "C 2"
_symmetry_group_IT_number 5
_symmetry_cell_setting 'monoclinic'
loop_
_space_group_symop_operation_xyz
x,y,z
-x,y,-z
1/2+x,1/2+y,z
1/2-x,1/2+y,-z
loop_
_atom_site_type_symbol
_atom_site_label
_atom_site_fract_x
_atom_site_fract_y
_atom_site_fract_z
Si Si1 0.885576 0.239870 0.884717
Si Si2 0.682749 0.240291 0.502054
Si Si3 0.238543 0.907133 0.371216
Si Si4 0.557849 0.283096 0.066265
Si Si5 0.000000 0.630442 0.500000
Si Si6 0.027348 0.946861 0.183915
Si Si7 0.139273 0.095324 0.955688
Si Si8 0.830434 0.395936 0.039750
O O1 0.779675 0.265827 0.873424
O O2 0.107878 0.232114 0.653850
O O3 0.816231 0.157575 0.993255
O O4 0.827168 0.303428 0.034372
O O5 0.661333 0.323025 0.468959
O O6 0.619453 0.180077 0.471352
O O7 0.548820 0.231236 0.739263
O O8 0.214033 0.922209 0.263142
O O9 0.124250 0.960738 0.568569
O O10 0.456836 0.922090 0.177223
O O11 0.500000 0.255954 0.000000
O O12 0.490177 0.371187 0.146592
O O13 0.154829 0.575124 0.293212
O O14 0.233574 0.937694 0.032369
O O15 0.029048 0.021093 0.105764
O O16 0.000000 0.132462 0.000000
#
# Coordination Sequence:
#
# PCOD8049021 Si02
#       8
#     4   4   4   4   2   4   4   4
#     4  10  20  37  61  92 119 150 203 259 301 348
#     4  10  20  34  62  95 116 149 201 260 307 341
#     4   9  18  32  60  88 118 151 198 256 298 346
#     4  10  21  39  62  87 121 162 206 244 298 364
#     4  12  22  36  62  94 118 152 198 258 310 352
#     4  10  22  36  55  86 126 165 197 235 303 373
#     4  12  24  38  59  88 126 157 194 250 312 366
#     4   9  18  34  60  90 117 151 205 259 296 339
#
# _framework density 19.974214
#
# number of rings (size 3 to 8) (size 9 to 14) (size 15 to 20)
#    0.000    1.867    2.667    1.600    5.600    1.600 
#    0.000    2.667    8.800    0.000    0.000    0.000 
#    0.000    0.000    0.000    0.000    0.000    0.000 
#
# Total GULP energy -185882.807066 kJ/mol
# GULP energy per Si atom -12392.187138 kJ/mol
# Density = 1.992875 g / cm^3
# Si number density = 19.974214 Si / 1000 Ang^3
#
#
#
# Elastic Constant Matrix: (Units=GPa)
#
#
# Indices 1 2 3 4 5 6 
#
# 1 112.2644 17.0722 32.9865 -0.0392 1.0392 0.0208
# 2 17.0722 61.3658 28.8797 -0.0414 3.5055 0.0703
# 3 32.9865 28.8797 102.9066 -0.0330 -1.7787 0.0530
# 4 -0.0392 -0.0414 -0.0330 25.9917 0.0077 -2.0414
# 5 1.0392 3.5055 -1.7787 0.0077 26.1050 -0.0461
# 6 0.0208 0.0703 0.0530 -2.0414 -0.0461 13.3311
#
#
#
# Elastic Compliance Matrix: (Units=1/GPa)
#
#
# Indices 1 2 3 4 5 6 
#
# 1 0.009950 -0.001430 -0.002795 0.000010 -0.000394 0.000003
# 2 -0.001430 0.019201 -0.004979 0.000016 -0.002861 -0.000087
# 3 -0.002795 -0.004979 0.012039 0.000002 0.001600 -0.000011
# 4 0.000010 0.000016 0.000002 0.038942 -0.000003 0.005963
# 5 -0.000394 -0.002861 0.001600 -0.000003 0.038816 0.000143
# 6 0.000003 -0.000087 -0.000011 0.005963 0.000143 0.075927
#
#
# Mechanical properties :
#
#
# Convention : Reuss Voigt Hill
#
# Bulk Modulus (GPa) = 43.89818 48.26817 46.08317
# Shear Modulus (GPa) = 22.63713 26.25879 24.44796
#
# Velocity S-wave (km/s) = 3.37013 3.62972 3.50233
# Velocity P-wave (km/s) = 6.09663 6.46407 6.28303
#
# Compressibility (1/GPa) = 0.02277999
#
# Stress axis : x y z
#
# Youngs Moduli (GPa) = 100.50348 52.08188 83.06672
#
# Poissons Ratio (x) = 0.07449 0.23216
# Poissons Ratio (y) = 0.14375 0.41362
# Poissons Ratio (z) = 0.28089 0.25934
#
# Static dielectric constant tensor:
#      x y z
#    x 3.648540 -0.000160 -0.163800 
#    y -0.000160 3.187930 0.000170 
#    z -0.163800 0.000170 3.841760 
# 
# 
# High freq. dielectric constant tensor:
#      x y z
#    x 1.781630 -0.000010 -0.017390 
#    y -0.000010 1.735630 0.000010 
#    z -0.017390 0.000010 1.786780 
# 
# From -- ./inp_files/43291.got.cif
#   From: 2010.03.12/outbox.cif.g09.slc.cpg/sg5_22_cif.got.tgz:43291.got - 2010.03.31 09:47:26.
