data_PCOD8049862
_publ_section_title
;
Structure prediction by ZEFSAII (Michael W. Deem and Ramdas Pophale) SiO2 
 PCOD8049862
Probable space group: C 2
;
_chemical_formula_sum "Si O2"
_cell_formula_units_Z 30
_cell_length_a 11.477895
_cell_length_b 15.302663
_cell_length_c 17.282258
_cell_angle_alpha 90.000000
_cell_angle_beta 150.030357
_cell_angle_gamma 90.000000
_cell_volume 1516.355245
_symmetry_space_group_name_H-M "C 2"
_symmetry_group_IT_number 5
_symmetry_cell_setting 'monoclinic'
loop_
_space_group_symop_operation_xyz
x,y,z
-x,y,-z
1/2+x,1/2+y,z
1/2-x,1/2+y,-z
loop_
_atom_site_type_symbol
_atom_site_label
_atom_site_fract_x
_atom_site_fract_y
_atom_site_fract_z
Si Si1 0.148738 0.509150 0.157587
Si Si2 0.552086 0.533177 0.143789
Si Si3 0.639514 0.897889 0.906468
Si Si4 0.903953 0.784146 0.162571
Si Si5 0.000000 0.185545 0.000000
Si Si6 0.278254 0.123298 0.658725
Si Si7 0.009754 0.478298 0.324908
Si Si8 0.599228 0.465999 0.333139
O O1 0.118486 0.581056 0.205326
O O2 0.419655 0.502291 0.292945
O O3 0.041941 0.417779 0.127953
O O4 0.000000 0.542659 0.000000
O O5 0.507551 0.629872 0.084150
O O6 0.629595 0.534139 0.278935
O O7 0.748361 0.491036 0.203102
O O8 0.316169 0.478938 0.999774
O O9 0.497698 0.899314 0.743260
O O10 0.768061 0.806355 0.002552
O O11 0.728687 0.745545 0.125624
O O12 0.125107 0.721428 0.282531
O O13 0.999861 0.876452 0.244116
O O14 0.000000 0.125583 0.500000
O O15 0.377610 0.068027 0.643350
O O16 0.158014 0.448360 0.484307
#
# Coordination Sequence:
#
# PCOD8049862 Si02
#       8
#     4   4   4   4   2   4   4   4
#     4  11  19  39  64  90 121 164 218 251 288 393
#     4  11  20  38  67  92 117 170 215 247 301 384
#     4  10  21  37  65  93 119 164 214 251 312 364
#     4  11  23  38  61  98 124 160 200 268 319 361
#     4  12  20  40  66  90 132 158 212 262 310 364
#     4  11  23  40  63  91 127 164 204 262 331 355
#     4  11  21  42  65  91 123 168 214 259 299 393
#     4  11  24  39  66  94 124 166 218 251 313 373
#
# _framework density 19.784281
#
# number of rings (size 3 to 8) (size 9 to 14) (size 15 to 20)
#    0.000    1.067    6.667    2.000    0.000    2.133 
#    0.000    5.333    0.000    0.000    0.000    0.000 
#    0.000    0.000    0.000    0.000    0.000    0.000 
#
# Total GULP energy -185942.328002 kJ/mol
# GULP energy per Si atom -12396.155200 kJ/mol
# Density = 1.973925 g / cm^3
# Si number density = 19.784281 Si / 1000 Ang^3
#
#
#
# Elastic Constant Matrix: (Units=GPa)
#
#
# Indices 1 2 3 4 5 6 
#
# 1 98.6625 21.4101 22.7641 0.0040 -3.6005 0.0015
# 2 21.4101 69.8286 17.7604 0.0186 -4.9424 0.0038
# 3 22.7641 17.7604 83.4565 0.0303 -22.3303 0.0083
# 4 0.0040 0.0186 0.0303 27.4549 0.0046 1.7441
# 5 -3.6005 -4.9424 -22.3303 0.0046 36.7330 0.0001
# 6 0.0015 0.0038 0.0083 1.7441 0.0001 26.2863
#
#
#
# Elastic Compliance Matrix: (Units=1/GPa)
#
#
# Indices 1 2 3 4 5 6 
#
# 1 0.011352 -0.002850 -0.002741 0.000003 -0.000937 0.000000
# 2 -0.002850 0.015856 -0.002509 -0.000008 0.000329 -0.000001
# 3 -0.002741 -0.002509 0.015647 -0.000016 0.008905 -0.000003
# 4 0.000003 -0.000008 -0.000016 0.036578 -0.000015 -0.002427
# 5 -0.000937 0.000329 0.008905 -0.000015 0.032590 -0.000002
# 6 0.000000 -0.000001 -0.000003 -0.002427 -0.000002 0.038204
#
#
# Mechanical properties :
#
#
# Convention : Reuss Voigt Hill
#
# Bulk Modulus (GPa) = 37.51544 41.75743 39.63643
# Shear Modulus (GPa) = 28.52093 30.76237 29.64165
#
# Velocity S-wave (km/s) = 3.80095 3.94749 3.87491
# Velocity P-wave (km/s) = 6.18598 6.47527 6.33228
#
# Compressibility (1/GPa) = 0.02665569
#
# Stress axis : x y z
#
# Youngs Moduli (GPa) = 88.08892 63.06760 63.91166
#
# Poissons Ratio (x) = 0.17974 0.17516
# Poissons Ratio (y) = 0.25105 0.16035
# Poissons Ratio (z) = 0.24142 0.15823
#
# Static dielectric constant tensor:
#      x y z
#    x 3.905750 0.000000 -0.039050 
#    y 0.000000 3.382370 -0.000010 
#    z -0.039050 -0.000010 3.844530 
# 
# 
# High freq. dielectric constant tensor:
#      x y z
#    x 1.785870 0.000000 0.007360 
#    y 0.000000 1.738050 0.000000 
#    z 0.007360 0.000000 1.780870 
# 
# From -- ./inp_files/20433.got.cif
#   From: 2010.03.12/outbox.cif.g09.slc.cpg/sg5_11_cif.got.tgz:20433.got - 2010.03.31 09:47:26.
