data_PCOD8049380
_publ_section_title
;
Structure prediction by ZEFSAII (Michael W. Deem and Ramdas Pophale) SiO2 
 PCOD8049380
Probable space group: C 2
;
_chemical_formula_sum "Si O2"
_cell_formula_units_Z 26
_cell_length_a 12.600390
_cell_length_b 8.013073
_cell_length_c 20.843649
_cell_angle_alpha 90.000000
_cell_angle_beta 142.172879
_cell_angle_gamma 90.000000
_cell_volume 1290.673376
_symmetry_space_group_name_H-M "C 2"
_symmetry_group_IT_number 5
_symmetry_cell_setting 'monoclinic'
loop_
_space_group_symop_operation_xyz
x,y,z
-x,y,-z
1/2+x,1/2+y,z
1/2-x,1/2+y,-z
loop_
_atom_site_type_symbol
_atom_site_label
_atom_site_fract_x
_atom_site_fract_y
_atom_site_fract_z
Si Si1 0.191936 0.824470 0.765590
Si Si2 0.355790 0.980820 0.286964
Si Si3 0.758221 0.666566 0.953348
Si Si4 0.162820 0.706101 0.615974
Si Si5 0.981739 0.168124 0.277162
Si Si6 0.500000 0.909359 0.000000
Si Si7 0.973532 0.990756 0.061061
O O1 0.092256 0.646401 0.731689
O O2 0.223133 0.830752 0.702773
O O3 0.078503 0.983856 0.730581
O O4 0.376932 0.808060 0.891235
O O5 0.449524 0.809039 0.315515
O O6 0.148987 0.967749 0.183638
O O7 0.395396 0.028161 0.380111
O O8 0.624522 0.725890 0.835347
O O9 0.653158 0.626754 0.967819
O O10 0.889436 0.811883 0.030049
O O11 0.871066 0.512480 0.983061
O O12 0.315402 0.670631 0.638798
O O13 0.000000 0.783368 0.500000
O O14 0.000000 0.041912 0.000000
#
# Coordination Sequence:
#
# PCOD8049380 Si02
#       7
#     4   4   4   4   4   2   4
#     4   9  23  40  65  99 125 169 211 262 318 386
#     4  10  23  42  64  94 125 171 214 261 320 381
#     4  11  23  37  62  93 133 174 207 268 318 392
#     4  10  24  46  65  95 130 164 223 273 317 385
#     4  11  21  46  64  92 134 163 216 271 319 382
#     4  10  20  38  66  94 136 168 216 258 320 398
#     4  12  23  39  58  94 134 170 211 257 324 389
#
# _framework density 20.144524000000001
#
# number of rings (size 3 to 8) (size 9 to 14) (size 15 to 20)
#    0.923    0.615    3.846    0.923    5.385    2.462 
#    2.769    0.769    0.000    0.000    0.000    0.000 
#    0.000    0.000    0.000    0.000    0.000    0.000 
#
# Total GULP energy -161058.054166 kJ/mol
# GULP energy per Si atom -12389.081090 kJ/mol
# Density = 2.009867 g / cm^3
# Si number density = 20.144524 Si / 1000 Ang^3
#
#
#
# Elastic Constant Matrix: (Units=GPa)
#
#
# Indices 1 2 3 4 5 6 
#
# 1 113.7287 27.6156 34.5588 0.0000 2.9940 0.0000
# 2 27.6156 91.9691 29.6259 0.0000 4.0798 0.0000
# 3 34.5588 29.6259 98.6653 0.0000 0.1080 -0.0001
# 4 0.0000 0.0000 0.0000 27.1227 0.0000 12.0230
# 5 2.9940 4.0798 0.1080 0.0000 24.6979 0.0000
# 6 0.0000 0.0000 -0.0001 12.0230 0.0000 65.4975
#
#
#
# Elastic Compliance Matrix: (Units=1/GPa)
#
#
# Indices 1 2 3 4 5 6 
#
# 1 0.010218 -0.002077 -0.002954 0.000000 -0.000883 0.000000
# 2 -0.002077 0.012557 -0.003041 0.000000 -0.001809 0.000000
# 3 -0.002954 -0.003041 0.012082 0.000000 0.000808 0.000000
# 4 0.000000 0.000000 0.000000 0.040135 0.000000 -0.007367
# 5 -0.000883 -0.001809 0.000808 0.000000 0.040892 0.000000
# 6 0.000000 0.000000 0.000000 -0.007367 0.000000 0.016620
#
#
# Mechanical properties :
#
#
# Convention : Reuss Voigt Hill
#
# Bulk Modulus (GPa) = 53.44094 54.21819 53.82956
# Shear Modulus (GPa) = 32.28166 37.63448 34.95807
#
# Velocity S-wave (km/s) = 4.00747 4.32698 4.17029
# Velocity P-wave (km/s) = 6.92816 7.20672 7.06881
#
# Compressibility (1/GPa) = 0.01871225
#
# Stress axis : x y z
#
# Youngs Moduli (GPa) = 97.86397 79.63831 82.76620
#
# Poissons Ratio (x) = 0.16544 0.24452
# Poissons Ratio (y) = 0.20330 0.25167
# Poissons Ratio (z) = 0.28912 0.24216
#
# Static dielectric constant tensor:
#      x y z
#    x -1.544500 0.000000 1.597810 
#    y 0.000000 3.736710 0.000000 
#    z 1.597810 0.000000 3.014830 
# 
# 
# High freq. dielectric constant tensor:
#      x y z
#    x 1.779900 0.000000 -0.000990 
#    y 0.000000 1.788960 0.000000 
#    z -0.000990 0.000000 1.772650 
# 
# From -- ./inp_files/65167.got.cif
#   From: 2010.03.12/outbox.cif.g09.slc.cpg/sg5_33_cif.got.tgz:65167.got - 2010.03.31 09:47:26.
