data_PCOD8049673
_publ_section_title
;
Structure prediction by ZEFSAII (Michael W. Deem and Ramdas Pophale) SiO2 
 PCOD8049673
Probable space group: C 2
;
_chemical_formula_sum "Si O2"
_cell_formula_units_Z 24
_cell_length_a 9.130694
_cell_length_b 17.664175
_cell_length_c 8.707828
_cell_angle_alpha 90.000000
_cell_angle_beta 49.888189
_cell_angle_gamma 90.000000
_cell_volume 1074.109103
_symmetry_space_group_name_H-M "C 2"
_symmetry_group_IT_number 5
_symmetry_cell_setting 'monoclinic'
loop_
_space_group_symop_operation_xyz
x,y,z
-x,y,-z
1/2+x,1/2+y,z
1/2-x,1/2+y,-z
loop_
_atom_site_type_symbol
_atom_site_label
_atom_site_fract_x
_atom_site_fract_y
_atom_site_fract_z
Si Si1 0.381150 0.645980 0.934057
Si Si2 0.155060 0.016932 0.279716
Si Si3 0.450722 0.905421 0.200022
Si Si4 0.626105 0.406229 0.051010
Si Si5 0.623401 0.761622 0.567423
Si Si6 0.522627 0.233376 0.156170
O O1 0.301740 0.579466 0.878067
O O2 0.512381 0.703973 0.751022
O O3 0.500000 0.614698 0.000000
O O4 0.191075 0.687314 0.127129
O O5 0.337305 0.985205 0.253124
O O6 0.065902 0.944671 0.251963
O O7 0.000000 0.051856 0.500000
O O8 0.338324 0.842022 0.373730
O O9 0.500000 0.869677 0.000000
O O10 0.653518 0.924282 0.143093
O O11 0.592576 0.318382 0.093302
O O12 0.500000 0.440842 0.000000
O O13 0.500000 0.778590 0.500000
O O14 0.827205 0.725582 0.383819
O O15 0.500000 0.199357 0.000000
#
# Coordination Sequence:
#
# PCOD8049673 Si02
#       6
#     4   4   4   4   4   4
#     4  12  27  48  70 104 151 193 245 301 370 427
#     4  11  25  44  68 100 144 197 240 297 364 437
#     4  10  22  42  70 106 142 192 238 300 356 431
#     4  10  20  42  69 104 141 186 239 301 361 420
#     4  12  22  43  75 111 145 184 246 308 359 432
#     4  11  23  41  74 106 143 190 242 298 362 431
#
# _framework density 22.344097999999999
#
# number of rings (size 3 to 8) (size 9 to 14) (size 15 to 20)
#    0.000    1.000    3.333    3.500    2.333    2.667 
#    0.000    0.000    3.667    0.000    0.000    0.000 
#    0.000    0.000    0.000    0.000    0.000    0.000 
#
# Total GULP energy -148765.260971 kJ/mol
# GULP energy per Si atom -12397.105081 kJ/mol
# Density = 2.229324 g / cm^3
# Si number density = 22.344098 Si / 1000 Ang^3
#
#
#
# Elastic Constant Matrix: (Units=GPa)
#
#
# Indices 1 2 3 4 5 6 
#
# 1 135.7239 43.0429 47.1578 0.0000 -21.8312 0.0000
# 2 43.0429 86.4499 31.3136 0.0000 -7.5396 0.0000
# 3 47.1578 31.3136 124.4656 0.0000 -23.0059 0.0000
# 4 0.0000 0.0000 0.0000 19.0271 0.0000 1.8424
# 5 -21.8312 -7.5396 -23.0059 0.0000 36.1485 0.0000
# 6 0.0000 0.0000 0.0000 1.8424 0.0000 40.2442
#
#
#
# Elastic Compliance Matrix: (Units=1/GPa)
#
#
# Indices 1 2 3 4 5 6 
#
# 1 0.009936 -0.003856 -0.002078 0.000000 0.003874 0.000000
# 2 -0.003856 0.014240 -0.002270 0.000000 -0.000804 0.000000
# 3 -0.002078 -0.002270 0.010283 0.000000 0.004816 0.000000
# 4 0.000000 0.000000 0.000000 0.052791 0.000000 -0.002417
# 5 0.003874 -0.000804 0.004816 0.000000 0.032900 0.000000
# 6 0.000000 0.000000 0.000000 -0.002417 0.000000 0.024959
#
#
# Mechanical properties :
#
#
# Convention : Reuss Voigt Hill
#
# Bulk Modulus (GPa) = 55.40388 65.51866 60.46127
# Shear Modulus (GPa) = 29.84458 34.09230 31.96844
#
# Velocity S-wave (km/s) = 3.65866 3.91037 3.78661
# Velocity P-wave (km/s) = 6.53432 7.05508 6.79969
#
# Compressibility (1/GPa) = 0.01804928
#
# Stress axis : x y z
#
# Youngs Moduli (GPa) = 100.64255 70.22670 97.24777
#
# Poissons Ratio (x) = 0.27083 0.20212
# Poissons Ratio (y) = 0.38813 0.22074
# Poissons Ratio (z) = 0.20918 0.15940
#
# Static dielectric constant tensor:
#      x y z
#    x 4.554030 0.000000 0.059160 
#    y 0.000000 3.945640 0.000000 
#    z 0.059160 0.000000 4.176330 
# 
# 
# High freq. dielectric constant tensor:
#      x y z
#    x 1.891680 0.000000 -0.004630 
#    y 0.000000 1.872070 0.000000 
#    z -0.004630 0.000000 1.870650 
# 
# From -- ./inp_files/16673.got.cif
#   From: 2010.03.12/outbox.cif.g09.slc.cpg/sg5_9_cif.got.tgz:16673.got - 2010.03.31 09:47:26.
