data_PCOD8049263
_publ_section_title
;
Structure prediction by ZEFSAII (Michael W. Deem and Ramdas Pophale) SiO2 
 PCOD8049263
Probable space group: C 2
;
_chemical_formula_sum "Si O2"
_cell_formula_units_Z 28
_cell_length_a 15.128433
_cell_length_b 13.631279
_cell_length_c 9.249986
_cell_angle_alpha 90.000000
_cell_angle_beta 132.949223
_cell_angle_gamma 90.000000
_cell_volume 1396.232307
_symmetry_space_group_name_H-M "C 2"
_symmetry_group_IT_number 5
_symmetry_cell_setting 'monoclinic'
loop_
_space_group_symop_operation_xyz
x,y,z
-x,y,-z
1/2+x,1/2+y,z
1/2-x,1/2+y,-z
loop_
_atom_site_type_symbol
_atom_site_label
_atom_site_fract_x
_atom_site_fract_y
_atom_site_fract_z
Si Si1 0.358288 0.151690 0.996460
Si Si2 0.626964 0.435744 0.580738
Si Si3 0.692364 0.073226 0.358384
Si Si4 0.896632 0.764287 0.663669
Si Si5 0.241878 0.833108 0.237542
Si Si6 0.209787 0.453830 0.967011
Si Si7 0.042827 0.434132 0.396447
O O1 0.381268 0.092133 0.872695
O O2 0.253324 0.231804 0.848726
O O3 0.475438 0.209177 0.183529
O O4 0.310836 0.071953 0.059490
O O5 0.500000 0.475587 0.500000
O O6 0.681263 0.517688 0.532147
O O7 0.608144 0.331142 0.483031
O O8 0.717455 0.416712 0.813502
O O9 0.708762 0.179821 0.454403
O O10 0.608742 0.010698 0.368885
O O11 0.871367 0.831147 0.777625
O O12 0.220401 0.923670 0.102675
O O13 0.367367 0.844252 0.466196
O O14 0.078995 0.398558 0.820998
O O15 0.000000 0.484657 0.500000
#
# Coordination Sequence:
#
# PCOD8049263 Si02
#       7
#     4   4   4   4   4   4   4
#     4  10  21  37  69  91 126 174 222 255 317 394
#     4  11  24  40  62  99 132 165 209 273 325 376
#     4  10  20  39  63  95 123 168 214 263 315 381
#     4  11  21  39  65  97 125 171 219 264 312 389
#     4  10  20  38  58  98 126 163 203 277 319 368
#     4  10  22  41  63  97 126 168 220 266 316 385
#     4  10  20  37  64  96 126 161 214 274 314 371
#
# _framework density 20.05397
#
# number of rings (size 3 to 8) (size 9 to 14) (size 15 to 20)
#    0.000    1.714    2.857    2.571    2.000    0.571 
#    5.143   19.286    0.000    0.000   22.286    0.000 
#    0.000    0.000    0.000    0.000    0.000    0.000 
#
# Total GULP energy -173440.584807 kJ/mol
# GULP energy per Si atom -12388.613201 kJ/mol
# Density = 2.000833 g / cm^3
# Si number density = 20.053970 Si / 1000 Ang^3
#
#
#
# Elastic Constant Matrix: (Units=GPa)
#
#
# Indices 1 2 3 4 5 6 
#
# 1 124.0293 63.2019 45.0282 0.0000 -3.1328 0.0000
# 2 63.2019 117.4003 70.4866 0.0000 4.3090 0.0000
# 3 45.0282 70.4866 117.3599 0.0000 11.2839 0.0000
# 4 0.0000 0.0000 0.0000 43.8189 0.0000 -2.9785
# 5 -3.1328 4.3090 11.2839 0.0000 20.6130 0.0000
# 6 0.0000 0.0000 0.0000 -2.9785 0.0000 37.5283
#
#
#
# Elastic Compliance Matrix: (Units=1/GPa)
#
#
# Indices 1 2 3 4 5 6 
#
# 1 0.011453 -0.005395 -0.001509 0.000000 0.003695 0.000000
# 2 -0.005395 0.015919 -0.007486 0.000000 -0.000050 0.000000
# 3 -0.001509 -0.007486 0.014216 0.000000 -0.006446 0.000000
# 4 0.000000 0.000000 0.000000 0.022945 0.000000 0.001821
# 5 0.003695 -0.000050 -0.006446 0.000000 0.052614 0.000000
# 6 0.000000 0.000000 0.000000 0.001821 0.000000 0.026791
#
#
# Mechanical properties :
#
#
# Convention : Reuss Voigt Hill
#
# Bulk Modulus (GPa) = 78.08351 79.58032 78.83191
# Shear Modulus (GPa) = 28.25062 32.39689 30.32376
#
# Velocity S-wave (km/s) = 3.75738 4.02367 3.89280
# Velocity P-wave (km/s) = 7.60559 7.83299 7.72013
#
# Compressibility (1/GPa) = 0.01280680
#
# Stress axis : x y z
#
# Youngs Moduli (GPa) = 87.31284 62.81880 70.34449
#
# Poissons Ratio (x) = 0.33892 0.10616
# Poissons Ratio (y) = 0.47107 0.52660
# Poissons Ratio (z) = 0.13176 0.47027
#
# Static dielectric constant tensor:
#      x y z
#    x 3.835470 0.000000 -0.009720 
#    y 0.000000 3.881100 0.000000 
#    z -0.009720 0.000000 3.777050 
# 
# 
# High freq. dielectric constant tensor:
#      x y z
#    x 1.781710 0.000000 -0.006170 
#    y 0.000000 1.769940 0.000000 
#    z -0.006170 0.000000 1.774740 
# 
# From -- ./inp_files/24683.got.cif
#   From: 2010.03.12/outbox.cif.g09.slc.cpg/sg5_13_cif.got.tgz:24683.got - 2010.03.31 09:47:26.
