data_PCOD8049022
_publ_section_title
;
Structure prediction by ZEFSAII (Michael W. Deem and Ramdas Pophale) SiO2 
 PCOD8049022
Probable space group: C 2
;
_chemical_formula_sum "Si O2"
_cell_formula_units_Z 22
_cell_length_a 15.661985
_cell_length_b 16.030896
_cell_length_c 5.122174
_cell_angle_alpha 90.000000
_cell_angle_beta 125.647508
_cell_angle_gamma 90.000000
_cell_volume 1045.069709
_symmetry_space_group_name_H-M "C 2"
_symmetry_group_IT_number 5
_symmetry_cell_setting 'monoclinic'
loop_
_space_group_symop_operation_xyz
x,y,z
-x,y,-z
1/2+x,1/2+y,z
1/2-x,1/2+y,-z
loop_
_atom_site_type_symbol
_atom_site_label
_atom_site_fract_x
_atom_site_fract_y
_atom_site_fract_z
Si Si1 0.880743 0.522630 0.280359
Si Si2 0.906659 0.969058 0.482049
Si Si3 0.500000 0.331249 0.000000
Si Si4 0.239269 0.578246 0.425653
Si Si5 0.223358 0.364812 0.007740
Si Si6 0.225004 0.766780 0.386770
O O1 0.828402 0.535909 0.469029
O O2 0.000000 0.553606 0.500000
O O3 0.822104 0.577273 0.957809
O O4 0.878833 0.423982 0.200500
O O5 0.850355 0.029031 0.593668
O O6 0.000000 0.020163 0.500000
O O7 0.819296 0.930710 0.129716
O O8 0.968445 0.890050 0.706548
O O9 0.599336 0.271453 0.118216
O O10 0.261169 0.674536 0.531107
O O11 0.232878 0.328605 0.315048
O O12 0.220386 0.292559 0.787478
#
# Coordination Sequence:
#
# PCOD8049022 Si02
#       6
#     4   4   2   4   4   4
#     4  11  23  42  65  88 124 174 210 250 308 395
#     4  10  20  38  63  90 118 169 210 255 302 392
#     4  10  20  34  64  86 122 158 220 244 318 368
#     4  11  25  39  62  96 134 157 208 268 323 360
#     4  10  21  40  62  87 120 163 215 251 307 373
#     4  11  22  38  59  93 129 154 202 276 312 360
#
# _framework density 21.051224999999999
#
# number of rings (size 3 to 8) (size 9 to 14) (size 15 to 20)
#    0.000    1.455    1.818    4.909    5.091    0.000 
#    0.000    0.909    0.000    0.000    0.000    0.000 
#    0.000    0.000    0.000    0.000    0.000    0.000 
#
# Total GULP energy -136367.716474 kJ/mol
# GULP energy per Si atom -12397.065134 kJ/mol
# Density = 2.100331 g / cm^3
# Si number density = 21.051225 Si / 1000 Ang^3
#
#
#
# Elastic Constant Matrix: (Units=GPa)
#
#
# Indices 1 2 3 4 5 6 
#
# 1 115.3848 26.7248 23.6891 0.0000 -8.3131 0.0000
# 2 26.7248 104.3735 10.1389 0.0000 0.9262 0.0000
# 3 23.6891 10.1389 64.1845 0.0000 -14.8143 0.0000
# 4 0.0000 0.0000 0.0000 24.9288 0.0000 -6.8323
# 5 -8.3131 0.9262 -14.8143 0.0000 25.5658 0.0000
# 6 0.0000 0.0000 0.0000 -6.8323 0.0000 25.2876
#
#
#
# Elastic Compliance Matrix: (Units=1/GPa)
#
#
# Indices 1 2 3 4 5 6 
#
# 1 0.009909 -0.002267 -0.002928 0.000000 0.001607 0.000000
# 2 -0.002267 0.010295 -0.001207 0.000000 -0.001810 0.000000
# 3 -0.002928 -0.001207 0.019211 0.000000 0.010224 0.000000
# 4 0.000000 0.000000 0.000000 0.043322 0.000000 0.011705
# 5 0.001607 -0.001810 0.010224 0.000000 0.045627 0.000000
# 6 0.000000 0.000000 0.000000 0.011705 0.000000 0.042707
#
#
# Mechanical properties :
#
#
# Convention : Reuss Voigt Hill
#
# Bulk Modulus (GPa) = 37.57940 45.00538 41.29239
# Shear Modulus (GPa) = 25.94090 30.04911 27.99501
#
# Velocity S-wave (km/s) = 3.51419 3.78223 3.65067
# Velocity P-wave (km/s) = 5.86141 6.36389 6.11781
#
# Compressibility (1/GPa) = 0.02661033
#
# Stress axis : x y z
#
# Youngs Moduli (GPa) = 100.92198 97.13693 52.05314
#
# Poissons Ratio (x) = 0.22020 0.15241
# Poissons Ratio (y) = 0.22878 0.06284
# Poissons Ratio (z) = 0.29550 0.11726
#
# Static dielectric constant tensor:
#      x y z
#    x 3.959300 0.000000 0.175400 
#    y 0.000000 3.656180 0.000000 
#    z 0.175400 0.000000 3.891150 
# 
# 
# High freq. dielectric constant tensor:
#      x y z
#    x 1.817940 0.000000 -0.011800 
#    y 0.000000 1.810360 0.000000 
#    z -0.011800 0.000000 1.825230 
# 
# From -- ./inp_files/6914.got.cif
#   From: 2010.03.12/outbox.cif.g09.slc.cpg/sg5_4_cif.got.tgz:6914.got - 2010.03.31 09:47:26.
