data_PCOD8049929
_publ_section_title
;
Structure prediction by ZEFSAII (Michael W. Deem and Ramdas Pophale) SiO2 
 PCOD8049929
Probable space group: C 2
;
_chemical_formula_sum "Si O2"
_cell_formula_units_Z 32
_cell_length_a 15.286229
_cell_length_b 11.143171
_cell_length_c 13.658139
_cell_angle_alpha 90.000000
_cell_angle_beta 40.755374
_cell_angle_gamma 90.000000
_cell_volume 1518.802571
_symmetry_space_group_name_H-M "C 2"
_symmetry_group_IT_number 5
_symmetry_cell_setting 'monoclinic'
loop_
_space_group_symop_operation_xyz
x,y,z
-x,y,-z
1/2+x,1/2+y,z
1/2-x,1/2+y,-z
loop_
_atom_site_type_symbol
_atom_site_label
_atom_site_fract_x
_atom_site_fract_y
_atom_site_fract_z
Si Si1 0.888157 0.835440 0.660071
Si Si2 0.976972 0.584063 0.411321
Si Si3 0.545225 0.627368 0.688140
Si Si4 0.277429 0.570355 0.830631
Si Si5 0.737818 0.192810 0.655852
Si Si6 0.725228 0.439580 0.589707
Si Si7 0.161467 0.329961 0.702108
Si Si8 0.011015 0.545962 0.174253
O O1 0.968822 0.721663 0.637674
O O2 0.764658 0.789377 0.698522
O O3 0.000000 0.904912 0.500000
O O4 0.827105 0.931537 0.786854
O O5 0.047526 0.516766 0.258465
O O6 0.000000 0.527412 0.500000
O O7 0.818347 0.557975 0.529124
O O8 0.391492 0.644480 0.789254
O O9 0.639645 0.649956 0.514598
O O10 0.576140 0.493806 0.704269
O O11 0.567249 0.718856 0.757811
O O12 0.255222 0.628416 0.744362
O O13 0.142239 0.583309 0.005615
O O14 0.736209 0.338740 0.665596
O O15 0.593834 0.156518 0.732689
O O16 0.758662 0.372896 0.460618
O O17 0.061820 0.436558 0.820645
#
# Coordination Sequence:
#
# PCOD8049929 Si02
#       8
#     4   4   4   4   4   4   4   4
#     4  11  21  36  68  99 127 167 231 279 313 385
#     4  10  22  40  69  98 127 169 224 271 329 385
#     4  11  21  38  64  99 127 168 223 279 316 381
#     4  12  25  39  63 100 134 173 222 265 328 395
#     4  11  22  40  68  93 135 174 221 264 325 393
#     4  10  21  38  66  96 129 171 210 272 329 384
#     4  10  21  39  63  92 133 169 214 270 329 375
#     4  11  24  44  62  95 137 177 212 270 335 393
#
# _framework density 21.069230000000001
#
# number of rings (size 3 to 8) (size 9 to 14) (size 15 to 20)
#    0.000    1.250    3.750    3.750    5.250    4.000 
#    0.000    0.000    2.750    1.500    0.000    0.000 
#    0.000    0.000    0.000    0.000    0.000    0.000 
#
# Total GULP energy -198230.106502 kJ/mol
# GULP energy per Si atom -12389.381656 kJ/mol
# Density = 2.102128 g / cm^3
# Si number density = 21.069230 Si / 1000 Ang^3
#
#
#
# Elastic Constant Matrix: (Units=GPa)
#
#
# Indices 1 2 3 4 5 6 
#
# 1 98.9025 37.4991 31.7886 0.0000 -13.6070 0.0000
# 2 37.4991 108.6013 28.7673 0.0000 -8.5552 0.0000
# 3 31.7886 28.7673 100.9971 0.0000 -26.0087 0.0000
# 4 0.0000 0.0000 0.0000 9.4700 0.0000 -0.6528
# 5 -13.6070 -8.5552 -26.0087 0.0000 25.4340 0.0000
# 6 0.0000 0.0000 0.0000 -0.6528 0.0000 34.7044
#
#
#
# Elastic Compliance Matrix: (Units=1/GPa)
#
#
# Indices 1 2 3 4 5 6 
#
# 1 0.012586 -0.003526 -0.002075 0.000000 0.003426 0.000000
# 2 -0.003526 0.010954 -0.002100 0.000000 -0.000350 0.000000
# 3 -0.002075 -0.002100 0.014504 0.000000 0.013016 0.000000
# 4 0.000000 0.000000 0.000000 0.105734 0.000000 0.001989
# 5 0.003426 -0.000350 0.013016 0.000000 0.054342 0.000000
# 6 0.000000 0.000000 0.000000 0.001989 0.000000 0.028852
#
#
# Mechanical properties :
#
#
# Convention : Reuss Voigt Hill
#
# Bulk Modulus (GPa) = 44.16621 56.06790 50.11706
# Shear Modulus (GPa) = 20.00610 27.95141 23.97875
#
# Velocity S-wave (km/s) = 3.08481 3.64627 3.37722
# Velocity P-wave (km/s) = 5.80482 6.66304 6.24868
#
# Compressibility (1/GPa) = 0.02264174
#
# Stress axis : x y z
#
# Youngs Moduli (GPa) = 79.45203 91.28718 68.94498
#
# Poissons Ratio (x) = 0.32192 0.14305
# Poissons Ratio (y) = 0.28018 0.14480
# Poissons Ratio (z) = 0.16485 0.19173
#
# Static dielectric constant tensor:
#      x y z
#    x 4.006050 0.000000 -0.101700 
#    y 0.000000 3.986740 0.000000 
#    z -0.101700 0.000000 3.531920 
# 
# 
# High freq. dielectric constant tensor:
#      x y z
#    x 1.837120 0.000000 -0.013730 
#    y 0.000000 1.822140 0.000000 
#    z -0.013730 0.000000 1.788190 
# 
# From -- ./inp_files/54562.got.cif
#   From: 2010.03.12/outbox.cif.g09.slc.cpg/sg5_28_cif.got.tgz:54562.got - 2010.03.31 09:47:26.
