data_PCOD8049821
_publ_section_title
;
Structure prediction by ZEFSAII (Michael W. Deem and Ramdas Pophale) SiO2 
 PCOD8049821
Probable space group: C 2
;
_chemical_formula_sum "Si O2"
_cell_formula_units_Z 32
_cell_length_a 12.906200
_cell_length_b 12.955084
_cell_length_c 16.468930
_cell_angle_alpha 90.000000
_cell_angle_beta 141.324784
_cell_angle_gamma 90.000000
_cell_volume 1720.750943
_symmetry_space_group_name_H-M "C 2"
_symmetry_group_IT_number 5
_symmetry_cell_setting 'monoclinic'
loop_
_space_group_symop_operation_xyz
x,y,z
-x,y,-z
1/2+x,1/2+y,z
1/2-x,1/2+y,-z
loop_
_atom_site_type_symbol
_atom_site_label
_atom_site_fract_x
_atom_site_fract_y
_atom_site_fract_z
Si Si1 0.154918 0.305810 0.641201
Si Si2 0.694231 0.472824 0.857575
Si Si3 0.471825 0.967164 0.146506
Si Si4 0.472404 0.978394 0.631665
Si Si5 0.631725 0.799656 0.141020
Si Si6 0.859510 0.877232 0.619142
Si Si7 0.851427 0.636657 0.853038
Si Si8 0.533354 0.207904 0.613394
O O1 0.292884 0.328334 0.659811
O O2 0.243131 0.230910 0.756813
O O3 0.000000 0.252072 0.500000
O O4 0.089303 0.408053 0.646712
O O5 0.789435 0.388626 0.864086
O O6 0.499102 0.454266 0.738597
O O7 0.720040 0.581101 0.830093
O O8 0.780724 0.474439 0.999165
O O9 0.463271 0.976261 0.237500
O O10 0.548842 0.855905 0.168289
O O11 0.579607 0.061930 0.175762
O O12 0.282395 0.939991 0.514979
O O13 0.475163 0.093562 0.598878
O O14 0.768697 0.716833 0.251654
O O15 0.500000 0.743358 0.000000
O O16 0.932861 0.789793 0.605586
O O17 0.000000 0.678833 0.000000
O O18 0.500000 0.234525 0.500000
#
# Coordination Sequence:
#
# PCOD8049821 Si02
#       8
#     4   4   4   4   4   4   4   4
#     4  10  22  38  51  73 108 144 177 212 259 313
#     4   8  17  33  57  83 105 130 175 225 262 302
#     4   9  17  35  58  81 105 136 173 217 263 309
#     4  11  23  37  52  77 111 143 175 215 259 311
#     4   8  16  34  58  81 105 133 173 222 263 305
#     4  10  21  37  56  77 104 141 177 215 262 310
#     4   9  18  34  57  82 106 134 173 219 263 309
#     4  11  21  36  56  80 106 137 175 217 262 313
#
# _framework density 18.596533000000001
#
# number of rings (size 3 to 8) (size 9 to 14) (size 15 to 20)
#    0.000    2.500    0.000    4.125    0.000    4.000 
#    0.000    9.375    0.000    0.000    0.000    0.000 
#    0.000    0.000    0.000    0.000    0.000    0.000 
#
# Total GULP energy -198325.661947 kJ/mol
# GULP energy per Si atom -12395.353872 kJ/mol
# Density = 1.855421 g / cm^3
# Si number density = 18.596533 Si / 1000 Ang^3
#
#
#
# Elastic Constant Matrix: (Units=GPa)
#
#
# Indices 1 2 3 4 5 6 
#
# 1 97.9099 35.4251 67.0021 0.0002 0.5765 0.0002
# 2 35.4251 96.1507 66.3089 0.0002 11.2809 0.0003
# 3 67.0021 66.3089 155.2892 0.0005 2.5591 0.0005
# 4 0.0002 0.0002 0.0005 25.5448 0.0002 -3.5144
# 5 0.5765 11.2809 2.5591 0.0002 24.6630 0.0002
# 6 0.0002 0.0003 0.0005 -3.5144 0.0002 8.8793
#
#
#
# Elastic Compliance Matrix: (Units=1/GPa)
#
#
# Indices 1 2 3 4 5 6 
#
# 1 0.014660 -0.001621 -0.005650 0.000000 0.000985 0.000000
# 2 -0.001621 0.015897 -0.005980 0.000000 -0.006613 0.000000
# 3 -0.005650 -0.005980 0.011403 0.000000 0.001684 0.000000
# 4 0.000000 0.000000 0.000000 0.041401 0.000000 0.016387
# 5 0.000985 -0.006613 0.001684 0.000000 0.043374 -0.000001
# 6 0.000000 0.000000 0.000000 0.016387 -0.000001 0.119107
#
#
# Mechanical properties :
#
#
# Convention : Reuss Voigt Hill
#
# Bulk Modulus (GPa) = 64.68313 76.31358 70.49835
# Shear Modulus (GPa) = 18.01828 23.85834 20.93831
#
# Velocity S-wave (km/s) = 3.11610 3.58571 3.35912
# Velocity P-wave (km/s) = 6.91409 7.63339 7.28263
#
# Compressibility (1/GPa) = 0.01545998
#
# Stress axis : x y z
#
# Youngs Moduli (GPa) = 68.21187 62.90372 87.69701
#
# Poissons Ratio (x) = 0.10195 0.49545
# Poissons Ratio (y) = 0.11055 0.52442
# Poissons Ratio (z) = 0.38537 0.37616
#
# Static dielectric constant tensor:
#      x y z
#    x 3.452470 0.000000 0.184280 
#    y 0.000000 3.280250 0.000000 
#    z 0.184280 0.000000 3.874660 
# 
# 
# High freq. dielectric constant tensor:
#      x y z
#    x 1.716810 0.000000 -0.001010 
#    y 0.000000 1.705530 0.000000 
#    z -0.001010 0.000000 1.740440 
# 
# From -- ./inp_files/29856.got.cif
#   From: 2010.03.12/outbox.cif.g09.slc.cpg/sg5_15_cif.got.tgz:29856.got - 2010.03.31 09:47:26.
