data_PCOD8049810
_publ_section_title
;
Structure prediction by ZEFSAII (Michael W. Deem and Ramdas Pophale) SiO2 
 PCOD8049810
Probable space group: C 2
;
_chemical_formula_sum "Si O2"
_cell_formula_units_Z 18
_cell_length_a 17.957283
_cell_length_b 5.069574
_cell_length_c 17.550125
_cell_angle_alpha 90.000000
_cell_angle_beta 28.313067
_cell_angle_gamma 90.000000
_cell_volume 757.766428
_symmetry_space_group_name_H-M "C 2"
_symmetry_group_IT_number 5
_symmetry_cell_setting 'monoclinic'
loop_
_space_group_symop_operation_xyz
x,y,z
-x,y,-z
1/2+x,1/2+y,z
1/2-x,1/2+y,-z
loop_
_atom_site_type_symbol
_atom_site_label
_atom_site_fract_x
_atom_site_fract_y
_atom_site_fract_z
Si Si1 0.782433 0.320950 0.681109
Si Si2 0.500000 0.568793 0.000000
Si Si3 0.690481 0.303184 0.250695
Si Si4 0.703535 0.367515 0.586904
Si Si5 0.151400 0.855384 0.113751
O O1 0.595510 0.378006 0.857050
O O2 0.877003 0.551763 0.641306
O O3 0.810186 0.313056 0.565718
O O4 0.839174 0.052262 0.668446
O O5 0.622944 0.757099 0.933978
O O6 0.612236 0.336057 0.239107
O O7 0.738570 0.664240 0.529019
O O8 0.518686 0.338288 0.772446
O O9 0.264040 0.629137 0.980720
#
# Coordination Sequence:
#
# PCOD8049810 Si02
#       5
#     4   2   4   4   4
#     4  10  21  38  64  92 124 179 221 266 324 409
#     4   8  20  32  68  94 124 164 226 274 328 382
#     4  10  21  36  62  97 123 166 222 282 319 385
#     4  12  27  47  67  98 145 187 216 272 356 415
#     4  12  26  43  70 105 137 172 233 290 330 388
#
# _framework density 23.754019
#
# number of rings (size 3 to 8) (size 9 to 14) (size 15 to 20)
#    1.333    0.000    0.000    6.000    6.222    0.000 
#    0.000    6.667    0.000    0.000    0.000    0.000 
#    0.000    0.000    0.000    0.000    0.000    0.000 
#
# Total GULP energy -111546.018539 kJ/mol
# GULP energy per Si atom -12394.002060 kJ/mol
# Density = 2.369995 g / cm^3
# Si number density = 23.754019 Si / 1000 Ang^3
#
#
#
# Elastic Constant Matrix: (Units=GPa)
#
#
# Indices 1 2 3 4 5 6 
#
# 1 98.4610 -6.6284 15.9475 -0.0268 11.0042 -0.0714
# 2 -6.6284 101.2898 2.9160 -0.0343 -3.4497 -0.1026
# 3 15.9475 2.9160 65.2252 -0.0785 -4.5805 0.0287
# 4 -0.0268 -0.0343 -0.0785 -10.5044 0.0332 30.2962
# 5 11.0042 -3.4497 -4.5805 0.0332 30.8517 -0.0395
# 6 -0.0714 -0.1026 0.0287 30.2962 -0.0395 32.3605
#
#
#
# Elastic Compliance Matrix: (Units=1/GPa)
#
#
# Indices 1 2 3 4 5 6 
#
# 1 0.011188 0.000672 -0.003072 0.000013 -0.004371 0.000012
# 2 0.000672 0.009960 -0.000554 0.000019 0.000792 0.000016
# 3 -0.003072 -0.000554 0.016350 -0.000042 0.003462 0.000021
# 4 0.000013 0.000019 -0.000042 -0.025728 0.000050 0.024087
# 5 -0.004371 0.000792 0.003462 0.000050 0.034575 -0.000015
# 6 0.000012 0.000016 0.000021 0.024087 -0.000015 0.008352
#
#
# Mechanical properties :
#
#
# Convention : Reuss Voigt Hill
#
# Bulk Modulus (GPa) = 31.65692 32.16068 31.90880
# Shear Modulus (GPa) = 70.28894 27.39095 48.83995
#
# Velocity S-wave (km/s) = 5.44560 3.39943 4.53931
# Velocity P-wave (km/s) = 7.27292 5.38299 6.39812
#
# Compressibility (1/GPa) = 0.03158867
#
# Stress axis : x y z
#
# Youngs Moduli (GPa) = 89.38361 100.40613 61.16023
#
# Poissons Ratio (x) = -0.06744 0.18791
# Poissons Ratio (y) = -0.06004 0.03387
# Poissons Ratio (z) = 0.27462 0.05561
#
# Static dielectric constant tensor:
#      x y z
#    x 4.167770 0.000020 -0.090510 
#    y 0.000020 4.150520 0.000030 
#    z -0.090510 0.000030 3.970410 
# 
# 
# High freq. dielectric constant tensor:
#      x y z
#    x 1.941920 0.000000 -0.003090 
#    y 0.000000 1.945040 0.000010 
#    z -0.003090 0.000010 1.939820 
# 
# From -- ./inp_files/28130.got.cif
#   From: 2010.03.12/outbox.cif.g09.slc.cpg/sg5_15_cif.got.tgz:28130.got - 2010.03.31 09:47:26.
