data_PCOD8049844
_publ_section_title
;
Structure prediction by ZEFSAII (Michael W. Deem and Ramdas Pophale) SiO2 
 PCOD8049844
Probable space group: C 2
;
_chemical_formula_sum "Si O2"
_cell_formula_units_Z 32
_cell_length_a 12.270165
_cell_length_b 13.764736
_cell_length_c 9.056479
_cell_angle_alpha 90.000000
_cell_angle_beta 84.473392
_cell_angle_gamma 90.000000
_cell_volume 1522.489072
_symmetry_space_group_name_H-M "C 2"
_symmetry_group_IT_number 5
_symmetry_cell_setting 'monoclinic'
loop_
_space_group_symop_operation_xyz
x,y,z
-x,y,-z
1/2+x,1/2+y,z
1/2-x,1/2+y,-z
loop_
_atom_site_type_symbol
_atom_site_label
_atom_site_fract_x
_atom_site_fract_y
_atom_site_fract_z
Si Si1 0.057707 0.738300 0.145906
Si Si2 0.457790 0.398210 0.343802
Si Si3 0.257357 0.964881 0.502788
Si Si4 0.432142 0.066095 0.643566
Si Si5 0.233248 0.364486 0.935603
Si Si6 0.066656 0.377141 0.698213
Si Si7 0.078218 0.239449 0.131400
Si Si8 0.356123 0.527730 0.786114
O O1 0.077527 0.635824 0.217596
O O2 0.176368 0.787625 0.128979
O O3 0.970617 0.802074 0.246471
O O4 0.000000 0.718083 0.000000
O O5 0.500000 0.375554 0.500000
O O6 0.330248 0.420091 0.374629
O O7 0.521392 0.487252 0.256864
O O8 0.348307 0.881280 0.450720
O O9 0.210266 0.011413 0.357934
O O10 0.311755 0.048447 0.593605
O O11 0.500000 0.113349 0.500000
O O12 0.487723 0.968885 0.696745
O O13 0.134560 0.381230 0.837951
O O14 0.297448 0.468816 0.930437
O O15 0.173710 0.320790 0.088545
O O16 0.992988 0.279297 0.719806
O O17 0.137600 0.140066 0.170970
O O18 0.000000 0.220402 0.000000
#
# Coordination Sequence:
#
# PCOD8049844 Si02
#       8
#     4   4   4   4   4   4   4   4
#     4  11  24  39  60  92 123 157 204 252 305 372
#     4   9  19  40  64  87 119 161 205 255 306 359
#     4   9  19  39  64  86 117 159 203 259 313 357
#     4  10  22  40  60  87 122 161 201 252 307 365
#     4   9  21  39  58  82 121 166 199 243 305 363
#     4   9  20  39  58  85 118 153 205 253 298 359
#     4  10  21  37  60  90 125 166 203 252 314 367
#     4   9  19  37  60  91 122 155 212 262 300 366
#
# _framework density 21.018212999999999
#
# number of rings (size 3 to 8) (size 9 to 14) (size 15 to 20)
#    0.000    2.500    0.000    1.125    0.000   10.500 
#    0.000   14.375    0.000    0.000    0.000    0.000 
#    0.000    0.000    0.000    0.000    0.000    0.000 
#
# Total GULP energy -198231.193073 kJ/mol
# GULP energy per Si atom -12389.449567 kJ/mol
# Density = 2.097037 g / cm^3
# Si number density = 21.018213 Si / 1000 Ang^3
#
#
#
# Elastic Constant Matrix: (Units=GPa)
#
#
# Indices 1 2 3 4 5 6 
#
# 1 121.3495 62.3918 39.5140 0.0000 -24.0034 0.0000
# 2 62.3918 111.3556 47.2138 0.0000 -11.8697 0.0000
# 3 39.5140 47.2138 77.5312 0.0000 -11.9878 0.0000
# 4 0.0000 0.0000 0.0000 28.9443 0.0000 0.1876
# 5 -24.0034 -11.8697 -11.9878 0.0000 28.6181 0.0000
# 6 0.0000 0.0000 0.0000 0.1876 0.0000 -14.9392
#
#
#
# Elastic Compliance Matrix: (Units=1/GPa)
#
#
# Indices 1 2 3 4 5 6 
#
# 1 0.013506 -0.005822 -0.002095 0.000000 0.008036 0.000000
# 2 -0.005822 0.014731 -0.006216 0.000000 -0.001378 0.000000
# 3 -0.002095 -0.006216 0.018264 0.000000 0.003315 0.000000
# 4 0.000000 0.000000 0.000000 0.034546 0.000000 0.000434
# 5 0.008036 -0.001378 0.003315 0.000000 0.042500 0.000000
# 6 0.000000 0.000000 0.000000 0.000434 0.000000 -0.066932
#
#
# Mechanical properties :
#
#
# Convention : Reuss Voigt Hill
#
# Bulk Modulus (GPa) = 54.84531 67.60838 61.22685
# Shear Modulus (GPa) = 54.96843 19.26574 37.11708
#
# Velocity S-wave (km/s) = 5.11952 3.03086 4.20688
# Velocity P-wave (km/s) = 7.81645 6.66967 7.26572
#
# Compressibility (1/GPa) = 0.01823310
#
# Stress axis : x y z
#
# Youngs Moduli (GPa) = 74.04127 67.88219 54.75232
#
# Poissons Ratio (x) = 0.39524 0.11472
# Poissons Ratio (y) = 0.43110 0.34037
# Poissons Ratio (z) = 0.15514 0.42199
#
# Static dielectric constant tensor:
#      x y z
#    x 4.293590 0.000000 -0.259200 
#    y 0.000000 3.651650 0.000000 
#    z -0.259200 0.000000 3.944440 
# 
# 
# High freq. dielectric constant tensor:
#      x y z
#    x 1.842310 0.000000 -0.004610 
#    y 0.000000 1.805430 0.000000 
#    z -0.004610 0.000000 1.814620 
# 
# From -- ./inp_files/20657.got.cif
#   From: 2010.03.12/outbox.cif.g09.slc.cpg/sg5_11_cif.got.tgz:20657.got - 2010.03.31 09:47:26.
