data_PCOD8049124
_publ_section_title
;
Structure prediction by ZEFSAII (Michael W. Deem and Ramdas Pophale) SiO2 
 PCOD8049124
Probable space group: C 2
;
_chemical_formula_sum "Si O2"
_cell_formula_units_Z 18
_cell_length_a 9.794690
_cell_length_b 8.866675
_cell_length_c 10.986779
_cell_angle_alpha 90.000000
_cell_angle_beta 61.749253
_cell_angle_gamma 90.000000
_cell_volume 840.506111
_symmetry_space_group_name_H-M "C 2"
_symmetry_group_IT_number 5
_symmetry_cell_setting 'monoclinic'
loop_
_space_group_symop_operation_xyz
x,y,z
-x,y,-z
1/2+x,1/2+y,z
1/2-x,1/2+y,-z
loop_
_atom_site_type_symbol
_atom_site_label
_atom_site_fract_x
_atom_site_fract_y
_atom_site_fract_z
Si Si1 0.000000 0.714710 0.500000
Si Si2 0.443385 0.447670 0.724062
Si Si3 0.207714 0.680158 0.792244
Si Si4 0.148180 0.683406 0.095169
Si Si5 0.740301 0.518704 0.722415
O O1 0.028297 0.822897 0.603559
O O2 0.855149 0.604561 0.582588
O O3 0.328191 0.553415 0.693734
O O4 0.340129 0.356896 0.866107
O O5 0.569017 0.549907 0.741654
O O6 0.264358 0.838578 0.713577
O O7 0.033857 0.636588 0.826852
O O8 0.223929 0.677420 0.931436
O O9 0.244343 0.577685 0.146197
#
# Coordination Sequence:
#
# PCOD8049124 Si02
#       5
#     2   4   4   4   4
#     4  10  24  40  54  82 120 150 194 244 276 324
#     4  10  22  38  59  84 114 152 193 235 281 334
#     4  10  20  36  61  87 116 151 185 228 289 345
#     4   9  20  38  57  88 122 144 181 236 286 343
#     4  10  22  39  60  83 114 153 192 235 282 333
#
# _framework density 21.415669000000001
#
# number of rings (size 3 to 8) (size 9 to 14) (size 15 to 20)
#    0.000    2.222    0.000    1.333    0.000   14.222 
#    0.000    0.000    0.000    0.000    0.000    0.000 
#    0.000    0.000    0.000    0.000    0.000    0.000 
#
# Total GULP energy -111570.066731 kJ/mol
# GULP energy per Si atom -12396.674081 kJ/mol
# Density = 2.136693 g / cm^3
# Si number density = 21.415669 Si / 1000 Ang^3
#
#
#
# Elastic Constant Matrix: (Units=GPa)
#
#
# Indices 1 2 3 4 5 6 
#
# 1 109.8681 56.1174 10.2847 0.0000 -1.1787 0.0000
# 2 56.1174 97.6846 27.5920 0.0000 -17.2829 0.0000
# 3 10.2847 27.5920 63.1693 0.0000 1.0769 0.0000
# 4 0.0000 0.0000 0.0000 31.9613 0.0000 2.9886
# 5 -1.1787 -17.2829 1.0769 0.0000 22.4542 0.0000
# 6 0.0000 0.0000 0.0000 2.9886 0.0000 40.7067
#
#
#
# Elastic Compliance Matrix: (Units=1/GPa)
#
#
# Indices 1 2 3 4 5 6 
#
# 1 0.013810 -0.009753 0.002129 0.000000 -0.006884 0.000000
# 2 -0.009753 0.020857 -0.007794 0.000000 0.015915 0.000000
# 3 0.002129 -0.007794 0.019004 0.000000 -0.006798 0.000000
# 4 0.000000 0.000000 0.000000 0.031504 0.000000 -0.002313
# 5 -0.006884 0.015915 -0.006798 0.000000 0.056750 0.000000
# 6 0.000000 0.000000 0.000000 -0.002313 0.000000 0.024736
#
#
# Mechanical properties :
#
#
# Convention : Reuss Voigt Hill
#
# Bulk Modulus (GPa) = 43.79070 50.96781 47.37925
# Shear Modulus (GPa) = 24.37737 30.80631 27.59184
#
# Velocity S-wave (km/s) = 3.37752 3.79686 3.59332
# Velocity P-wave (km/s) = 5.97516 6.56297 6.27595
#
# Compressibility (1/GPa) = 0.02283590
#
# Stress axis : x y z
#
# Youngs Moduli (GPa) = 72.41036 47.94537 52.62047
#
# Poissons Ratio (x) = 0.46761 -0.11202
# Poissons Ratio (y) = 0.70621 0.41011
# Poissons Ratio (z) = -0.15415 0.37367
#
# Static dielectric constant tensor:
#      x y z
#    x 3.837160 0.000000 0.173630 
#    y 0.000000 3.885650 0.000000 
#    z 0.173630 0.000000 3.767050 
# 
# 
# High freq. dielectric constant tensor:
#      x y z
#    x 1.841000 0.000000 0.012860 
#    y 0.000000 1.842430 0.000000 
#    z 0.012860 0.000000 1.829480 
# 
# From -- ./inp_files/26862.got.cif
#   From: 2010.03.12/outbox.cif.g09.slc.cpg/sg5_14_cif.got.tgz:26862.got - 2010.03.31 09:47:26.
