data_PCOD8049567
_publ_section_title
;
Structure prediction by ZEFSAII (Michael W. Deem and Ramdas Pophale) SiO2 
 PCOD8049567
Probable space group: C 2
;
_chemical_formula_sum "Si O2"
_cell_formula_units_Z 24
_cell_length_a 12.984450
_cell_length_b 8.324654
_cell_length_c 14.288383
_cell_angle_alpha 90.000000
_cell_angle_beta 40.205056
_cell_angle_gamma 90.000000
_cell_volume 996.978877
_symmetry_space_group_name_H-M "C 2"
_symmetry_group_IT_number 5
_symmetry_cell_setting 'monoclinic'
loop_
_space_group_symop_operation_xyz
x,y,z
-x,y,-z
1/2+x,1/2+y,z
1/2-x,1/2+y,-z
loop_
_atom_site_type_symbol
_atom_site_label
_atom_site_fract_x
_atom_site_fract_y
_atom_site_fract_z
Si Si1 0.000000 0.957551 0.000000
Si Si2 0.000000 0.791114 0.500000
Si Si3 0.182514 0.885938 0.053563
Si Si4 0.461187 0.506010 0.355511
Si Si5 0.051691 0.572664 0.211364
Si Si6 0.761479 0.263694 0.583752
Si Si7 0.307812 0.024339 0.695470
O O1 0.909121 0.855904 0.982221
O O2 0.133700 0.065101 0.856820
O O3 0.036388 0.903175 0.387010
O O4 0.848348 0.669061 0.595093
O O5 0.175612 0.721349 0.115577
O O6 0.087873 0.020093 0.182391
O O7 0.367881 0.934317 0.908903
O O8 0.304667 0.408220 0.432861
O O9 0.410575 0.681628 0.427561
O O10 0.056317 0.522450 0.317420
O O11 0.874724 0.626604 0.302307
O O12 0.814864 0.346366 0.644162
#
# Coordination Sequence:
#
# PCOD8049567 Si02
#       7
#     2   2   4   4   4   4   4
#     4  10  20  40  72  94 128 188 226 284 352 412
#     4  12  24  46  66 100 142 184 240 292 354 430
#     4  10  21  43  66 100 140 179 235 293 345 421
#     4  11  24  44  66 102 144 181 241 290 353 427
#     4  10  22  43  70 101 137 184 235 291 351 423
#     4  11  23  45  69 103 138 187 231 297 351 424
#     4  11  22  43  73  97 135 187 234 291 363 411
#
# _framework density 24.072725999999999
#
# number of rings (size 3 to 8) (size 9 to 14) (size 15 to 20)
#    0.000    1.333    6.667    1.000    0.000    2.000 
#   12.000    0.000    0.000    0.000    0.000    0.000 
#    0.000    0.000    0.000    0.000    0.000    0.000 
#
# Total GULP energy -148686.386721 kJ/mol
# GULP energy per Si atom -12390.532227 kJ/mol
# Density = 2.401794 g / cm^3
# Si number density = 24.072726 Si / 1000 Ang^3
#
#
#
# Elastic Constant Matrix: (Units=GPa)
#
#
# Indices 1 2 3 4 5 6 
#
# 1 89.0963 28.1114 16.9825 0.0000 21.1390 0.0000
# 2 28.1114 53.8297 14.2615 0.0000 11.0076 0.0000
# 3 16.9825 14.2615 93.6665 0.0000 20.6887 0.0000
# 4 0.0000 0.0000 0.0000 32.8688 0.0000 2.5144
# 5 21.1390 11.0076 20.6887 0.0000 29.0581 0.0000
# 6 0.0000 0.0000 0.0000 2.5144 0.0000 41.9990
#
#
#
# Elastic Compliance Matrix: (Units=1/GPa)
#
#
# Indices 1 2 3 4 5 6 
#
# 1 0.015250 -0.006190 0.000131 0.000000 -0.008842 0.000000
# 2 -0.006190 0.022864 -0.001709 0.000000 -0.002941 0.000000
# 3 0.000131 -0.001709 0.012804 0.000000 -0.008564 0.000000
# 4 0.000000 0.000000 0.000000 0.030564 0.000000 -0.001830
# 5 -0.008842 -0.002941 -0.008564 0.000000 0.048057 0.000000
# 6 0.000000 0.000000 0.000000 -0.001830 0.000000 0.023920
#
#
# Mechanical properties :
#
#
# Convention : Reuss Voigt Hill
#
# Bulk Modulus (GPa) = 28.26456 39.47815 33.87135
# Shear Modulus (GPa) = 27.65622 32.60098 30.12860
#
# Velocity S-wave (km/s) = 3.39316 3.68403 3.54159
# Velocity P-wave (km/s) = 5.20752 5.87633 5.55200
#
# Compressibility (1/GPa) = 0.03538000
#
# Stress axis : x y z
#
# Youngs Moduli (GPa) = 65.57397 43.73651 78.09872
#
# Poissons Ratio (x) = 0.27075 -0.01020
# Poissons Ratio (y) = 0.40593 0.13350
# Poissons Ratio (z) = -0.00856 0.07476
#
# Static dielectric constant tensor:
#      x y z
#    x 4.282320 0.000000 0.297030 
#    y 0.000000 4.184020 0.000000 
#    z 0.297030 0.000000 4.759750 
# 
# 
# High freq. dielectric constant tensor:
#      x y z
#    x 1.930670 0.000000 0.011190 
#    y 0.000000 1.932270 0.000000 
#    z 0.011190 0.000000 1.979070 
# 
# From -- ./inp_files/54103.got.cif
#   From: 2010.03.12/outbox.cif.g09.slc.cpg/sg5_28_cif.got.tgz:54103.got - 2010.03.31 09:47:26.
