data_PCOD8049763
_publ_section_title
;
Structure prediction by ZEFSAII (Michael W. Deem and Ramdas Pophale) SiO2 
 PCOD8049763
Probable space group: C 2
;
_chemical_formula_sum "Si O2"
_cell_formula_units_Z 24
_cell_length_a 10.542103
_cell_length_b 9.585638
_cell_length_c 11.377511
_cell_angle_alpha 90.000000
_cell_angle_beta 108.593073
_cell_angle_gamma 90.000000
_cell_volume 1089.721298
_symmetry_space_group_name_H-M "C 2"
_symmetry_group_IT_number 5
_symmetry_cell_setting 'monoclinic'
loop_
_space_group_symop_operation_xyz
x,y,z
-x,y,-z
1/2+x,1/2+y,z
1/2-x,1/2+y,-z
loop_
_atom_site_type_symbol
_atom_site_label
_atom_site_fract_x
_atom_site_fract_y
_atom_site_fract_z
Si Si1 0.632094 0.577290 0.114166
Si Si2 0.118410 0.571399 0.243608
Si Si3 0.990817 0.299816 0.191003
Si Si4 0.710062 0.948933 0.026697
Si Si5 0.587604 0.587014 0.635294
Si Si6 0.512389 0.365853 0.783970
O O1 0.628467 0.726293 0.182189
O O2 0.615116 0.446631 0.198253
O O3 0.500000 0.575282 0.000000
O O4 0.764153 0.557695 0.073801
O O5 0.142597 0.536095 0.112386
O O6 0.256842 0.584281 0.355777
O O7 0.034959 0.440634 0.270613
O O8 0.027229 0.705317 0.237726
O O9 0.919578 0.195058 0.258961
O O10 0.889211 0.329811 0.052315
O O11 0.851249 0.878615 0.100766
O O12 0.500000 0.638342 0.500000
O O13 0.539284 0.434180 0.663612
#
# Coordination Sequence:
#
# PCOD8049763 Si02
#       6
#     4   4   4   4   4   4
#     4   9  18  33  52  79 119 160 191 228 285 354
#     4  11  23  37  59  90 120 156 200 249 301 356
#     4  11  23  37  58  90 121 154 198 247 300 359
#     4  10  21  35  58  89 128 160 189 237 303 370
#     4  10  24  46  64  82 117 164 211 255 297 345
#     4   9  21  38  59  88 120 158 200 246 298 356
#
# _framework density 22.023980999999999
#
# number of rings (size 3 to 8) (size 9 to 14) (size 15 to 20)
#    0.000    2.000    0.000    3.500    0.000   16.000 
#    0.000    0.833    0.000    0.000    0.000    0.000 
#    0.000    0.000    0.000    0.000    0.000    0.000 
#
# Total GULP energy -148742.336467 kJ/mol
# GULP energy per Si atom -12395.194706 kJ/mol
# Density = 2.197385 g / cm^3
# Si number density = 22.023981 Si / 1000 Ang^3
#
#
#
# Elastic Constant Matrix: (Units=GPa)
#
#
# Indices 1 2 3 4 5 6 
#
# 1 64.2245 34.7021 14.5539 0.0000 8.8142 0.0000
# 2 34.7021 150.4029 16.4710 0.0000 4.7470 0.0000
# 3 14.5539 16.4710 72.0406 0.0000 20.1902 0.0000
# 4 0.0000 0.0000 0.0000 17.5134 0.0000 -1.2795
# 5 8.8142 4.7470 20.1902 0.0000 26.8337 0.0000
# 6 0.0000 0.0000 0.0000 -1.2795 0.0000 29.0715
#
#
#
# Elastic Compliance Matrix: (Units=1/GPa)
#
#
# Indices 1 2 3 4 5 6 
#
# 1 0.018683 -0.003994 -0.001697 0.000000 -0.004153 0.000000
# 2 -0.003994 0.007673 -0.001185 0.000000 0.000846 0.000000
# 3 -0.001697 -0.001185 0.018096 0.000000 -0.012849 0.000000
# 4 0.000000 0.000000 0.000000 0.057283 0.000000 0.002521
# 5 -0.004153 0.000846 -0.012849 0.000000 0.048149 0.000000
# 6 0.000000 0.000000 0.000000 0.002521 0.000000 0.034509
#
#
# Mechanical properties :
#
#
# Convention : Reuss Voigt Hill
#
# Bulk Modulus (GPa) = 32.57238 46.45797 39.51518
# Shear Modulus (GPa) = 23.99491 29.41313 26.70402
#
# Velocity S-wave (km/s) = 3.30432 3.65842 3.48587
# Velocity P-wave (km/s) = 5.42030 6.24383 5.84659
#
# Compressibility (1/GPa) = 0.03070085
#
# Stress axis : x y z
#
# Youngs Moduli (GPa) = 53.52483 130.32203 55.26161
#
# Poissons Ratio (x) = 0.52047 0.09379
# Poissons Ratio (y) = 0.21376 0.06546
# Poissons Ratio (z) = 0.09085 0.15438
#
# Static dielectric constant tensor:
#      x y z
#    x 4.556620 0.000000 -0.262270 
#    y 0.000000 4.282410 0.000000 
#    z -0.262270 0.000000 3.561040 
# 
# 
# High freq. dielectric constant tensor:
#      x y z
#    x 1.871720 0.000000 -0.000440 
#    y 0.000000 1.882270 0.000000 
#    z -0.000440 0.000000 1.807940 
# 
# From -- ./inp_files/38436.got.cif
#   From: 2010.03.12/outbox.cif.g09.slc.cpg/sg5_20_cif.got.tgz:38436.got - 2010.03.31 09:47:26.
