data_PCOD8049198
_publ_section_title
;
Structure prediction by ZEFSAII (Michael W. Deem and Ramdas Pophale) SiO2 
 PCOD8049198
Probable space group: C 2
;
_chemical_formula_sum "Si O2"
_cell_formula_units_Z 24
_cell_length_a 8.656512
_cell_length_b 27.933542
_cell_length_c 8.068172
_cell_angle_alpha 90.000000
_cell_angle_beta 145.527708
_cell_angle_gamma 90.000000
_cell_volume 1104.247373
_symmetry_space_group_name_H-M "C 2"
_symmetry_group_IT_number 5
_symmetry_cell_setting 'monoclinic'
loop_
_space_group_symop_operation_xyz
x,y,z
-x,y,-z
1/2+x,1/2+y,z
1/2-x,1/2+y,-z
loop_
_atom_site_type_symbol
_atom_site_label
_atom_site_fract_x
_atom_site_fract_y
_atom_site_fract_z
Si Si1 0.553981 0.365200 0.352527
Si Si2 0.706382 0.031874 0.319237
Si Si3 0.545704 0.808489 0.846577
Si Si4 0.213508 0.213446 0.325783
Si Si5 0.293795 0.140012 0.681131
Si Si6 0.214829 0.958964 0.322636
O O1 0.500000 0.371237 0.500000
O O2 0.541854 0.416982 0.258309
O O3 0.853955 0.345388 0.581272
O O4 0.352822 0.326607 0.084907
O O5 0.618289 0.085987 0.288725
O O6 0.000000 0.030963 0.500000
O O7 0.697793 0.000675 0.475870
O O8 0.500000 0.010278 0.000000
O O9 0.453153 0.754337 0.717423
O O10 0.500000 0.811836 0.000000
O O11 0.500000 0.233925 0.500000
O O12 0.304774 0.170776 0.524633
O O13 0.000000 0.193635 0.000000
O O14 0.000000 0.141379 0.500000
O O15 0.500000 0.161578 0.000000
O O16 0.500000 0.939784 0.500000
O O17 0.000000 0.980448 0.000000
#
# Coordination Sequence:
#
# PCOD8049198 Si02
#       6
#     4   4   4   4   4   4
#     4  10  20  37  60  80 110 158 204 239 285 355
#     4  10  22  42  65  87 118 165 211 242 287 368
#     4   9  18  34  57  84 110 149 204 247 278 341
#     4  11  21  36  62  93 122 157 204 252 300 352
#     4  10  22  40  61  90 126 161 201 248 299 360
#     4  12  25  39  59  92 126 152 194 258 317 356
#
# _framework density 21.734259000000002
#
# number of rings (size 3 to 8) (size 9 to 14) (size 15 to 20)
#    0.000    1.667    0.000    6.000    0.000    3.333 
#    0.000    3.333    0.000    0.000    0.000    0.000 
#    0.000    0.000    0.000    0.000    0.000    0.000 
#
# Total GULP energy -148744.057904 kJ/mol
# GULP energy per Si atom -12395.338159 kJ/mol
# Density = 2.168479 g / cm^3
# Si number density = 21.734259 Si / 1000 Ang^3
#
#
#
# Elastic Constant Matrix: (Units=GPa)
#
#
# Indices 1 2 3 4 5 6 
#
# 1 56.1822 39.2937 36.4873 0.0000 -4.2533 0.0000
# 2 39.2937 110.7319 44.4269 0.0000 -20.2918 0.0000
# 3 36.4873 44.4269 161.9707 0.0000 -13.2755 0.0000
# 4 0.0000 0.0000 0.0000 38.5416 0.0000 0.4319
# 5 -4.2533 -20.2918 -13.2755 0.0000 36.4112 0.0000
# 6 0.0000 0.0000 0.0000 0.4319 0.0000 24.8401
#
#
#
# Elastic Compliance Matrix: (Units=1/GPa)
#
#
# Indices 1 2 3 4 5 6 
#
# 1 0.025745 -0.008144 -0.003805 0.000000 -0.002919 0.000000
# 2 -0.008144 0.013602 -0.001395 0.000000 0.006120 0.000000
# 3 -0.003805 -0.001395 0.007539 0.000000 0.001527 0.000000
# 4 0.000000 0.000000 0.000000 0.025951 0.000000 -0.000451
# 5 -0.002919 0.006120 0.001527 0.000000 0.031091 0.000000
# 6 0.000000 0.000000 0.000000 -0.000451 0.000000 0.040265
#
#
# Mechanical properties :
#
#
# Convention : Reuss Voigt Hill
#
# Bulk Modulus (GPa) = 49.50828 63.25561 56.38194
# Shear Modulus (GPa) = 28.15101 33.87037 31.01069
#
# Velocity S-wave (km/s) = 3.60284 3.95192 3.78141
# Velocity P-wave (km/s) = 6.33527 7.07042 6.71292
#
# Compressibility (1/GPa) = 0.02019864
#
# Stress axis : x y z
#
# Youngs Moduli (GPa) = 38.84192 73.51927 132.64702
#
# Poissons Ratio (x) = 0.59874 0.50473
# Poissons Ratio (y) = 0.31633 0.18499
# Poissons Ratio (z) = 0.14780 0.10253
#
# Static dielectric constant tensor:
#      x y z
#    x 3.588860 0.000000 0.121860 
#    y 0.000000 4.155700 0.000000 
#    z 0.121860 0.000000 4.383040 
# 
# 
# High freq. dielectric constant tensor:
#      x y z
#    x 1.823650 0.000000 0.006040 
#    y 0.000000 1.848860 0.000000 
#    z 0.006040 0.000000 1.883850 
# 
# From -- ./inp_files/17648.got.cif
#   From: 2010.03.12/outbox.cif.g09.slc.cpg/sg5_9_cif.got.tgz:17648.got - 2010.03.31 09:47:26.
