data_PCOD8049620
_publ_section_title
;
Structure prediction by ZEFSAII (Michael W. Deem and Ramdas Pophale) SiO2 
 PCOD8049620
Probable space group: C 2
;
_chemical_formula_sum "Si O2"
_cell_formula_units_Z 20
_cell_length_a 15.509412
_cell_length_b 6.653453
_cell_length_c 9.947921
_cell_angle_alpha 90.000000
_cell_angle_beta 58.296522
_cell_angle_gamma 90.000000
_cell_volume 873.356633
_symmetry_space_group_name_H-M "C 2"
_symmetry_group_IT_number 5
_symmetry_cell_setting 'monoclinic'
loop_
_space_group_symop_operation_xyz
x,y,z
-x,y,-z
1/2+x,1/2+y,z
1/2-x,1/2+y,-z
loop_
_atom_site_type_symbol
_atom_site_label
_atom_site_fract_x
_atom_site_fract_y
_atom_site_fract_z
Si Si1 0.420398 0.763190 0.675152
Si Si2 0.239693 0.493277 0.819763
Si Si3 0.462650 0.006654 0.887618
Si Si4 0.146262 0.747798 0.670904
Si Si5 0.276230 0.092252 0.665631
O O1 0.500000 0.683476 0.500000
O O2 0.348314 0.578709 0.776802
O O3 0.480190 0.839931 0.757967
O O4 0.356686 0.945286 0.666184
O O5 0.211623 0.583168 0.697531
O O6 0.241384 0.251855 0.806567
O O7 0.156747 0.559059 0.000002
O O8 0.526902 0.207910 0.798711
O O9 0.500000 0.916292 0.000000
O O10 0.178043 0.971386 0.691396
O O11 0.168387 0.717633 0.496317
#
# Coordination Sequence:
#
# PCOD8049620 Si02
#       5
#     4   4   4   4   4
#     4  11  24  43  68 100 141 182 228 282 343 413
#     4  10  24  41  66 100 142 178 225 284 344 405
#     4  10  23  46  67  98 141 178 227 286 340 411
#     4  10  20  41  71  97 135 180 232 279 334 409
#     4  11  21  40  72 102 137 182 229 285 340 408
#
# _framework density 22.900153
#
# number of rings (size 3 to 8) (size 9 to 14) (size 15 to 20)
#    0.000    1.600    4.000    0.000    2.800    0.800 
#    0.000   15.000    0.000    0.000    0.000    0.000 
#    0.000    0.000    0.000    0.000    0.000    0.000 
#
# Total GULP energy -124010.233913 kJ/mol
# GULP energy per Si atom -12401.023391 kJ/mol
# Density = 2.284803 g / cm^3
# Si number density = 22.900153 Si / 1000 Ang^3
#
#
#
# Elastic Constant Matrix: (Units=GPa)
#
#
# Indices 1 2 3 4 5 6 
#
# 1 77.7051 40.1758 52.8556 0.0000 -12.3436 0.0000
# 2 40.1758 124.9120 42.0942 0.0000 -20.3749 0.0001
# 3 52.8556 42.0942 142.6215 0.0000 -24.9360 0.0000
# 4 0.0000 0.0000 0.0000 18.3324 0.0000 -7.3552
# 5 -12.3436 -20.3749 -24.9360 0.0000 44.9516 0.0000
# 6 0.0000 0.0001 0.0000 -7.3552 0.0000 36.7206
#
#
#
# Elastic Compliance Matrix: (Units=1/GPa)
#
#
# Indices 1 2 3 4 5 6 
#
# 1 0.018959 -0.004127 -0.005786 0.000000 0.000126 0.000000
# 2 -0.004127 0.010131 -0.000948 0.000000 0.002933 0.000000
# 3 -0.005786 -0.000948 0.010058 0.000000 0.003561 0.000000
# 4 0.000000 0.000000 0.000000 0.059315 0.000000 0.011881
# 5 0.000126 0.002933 0.003561 0.000000 0.025586 0.000000
# 6 0.000000 0.000000 0.000000 0.011881 0.000000 0.029612
#
#
# Mechanical properties :
#
#
# Convention : Reuss Voigt Hill
#
# Bulk Modulus (GPa) = 57.38662 68.38775 62.88719
# Shear Modulus (GPa) = 27.59507 34.00844 30.80175
#
# Velocity S-wave (km/s) = 3.47510 3.85785 3.67147
# Velocity P-wave (km/s) = 6.41994 7.05495 6.74492
#
# Compressibility (1/GPa) = 0.01742566
#
# Stress axis : x y z
#
# Youngs Moduli (GPa) = 52.74600 98.70779 99.42136
#
# Poissons Ratio (x) = 0.40741 0.57525
# Poissons Ratio (y) = 0.21771 0.09422
# Poissons Ratio (z) = 0.30519 0.09354
#
# Static dielectric constant tensor:
#      x y z
#    x 4.145060 0.000000 -0.079320 
#    y 0.000000 3.851270 0.000000 
#    z -0.079320 0.000000 4.206080 
# 
# 
# High freq. dielectric constant tensor:
#      x y z
#    x 1.898410 0.000000 -0.001060 
#    y 0.000000 1.879350 0.000000 
#    z -0.001060 0.000000 1.913670 
# 
# From -- ./inp_files/43698.got.cif
#   From: 2010.03.12/outbox.cif.g09.slc.cpg/sg5_22_cif.got.tgz:43698.got - 2010.03.31 09:47:26.
