data_PCOD8049018
_publ_section_title
;
Structure prediction by ZEFSAII (Michael W. Deem and Ramdas Pophale) SiO2 
 PCOD8049018
Probable space group: C 2
;
_chemical_formula_sum "Si O2"
_cell_formula_units_Z 28
_cell_length_a 15.072718
_cell_length_b 8.937481
_cell_length_c 14.605935
_cell_angle_alpha 90.000000
_cell_angle_beta 136.913933
_cell_angle_gamma 90.000000
_cell_volume 1344.057768
_symmetry_space_group_name_H-M "C 2"
_symmetry_group_IT_number 5
_symmetry_cell_setting 'monoclinic'
loop_
_space_group_symop_operation_xyz
x,y,z
-x,y,-z
1/2+x,1/2+y,z
1/2-x,1/2+y,-z
loop_
_atom_site_type_symbol
_atom_site_label
_atom_site_fract_x
_atom_site_fract_y
_atom_site_fract_z
Si Si1 0.174139 0.251640 0.735310
Si Si2 0.000000 0.021940 0.500000
Si Si3 0.064034 0.555564 0.642481
Si Si4 0.585016 0.173953 0.982491
Si Si5 0.140429 0.793797 0.474577
Si Si6 0.819714 0.170520 0.752175
Si Si7 0.119871 0.853535 0.256438
Si Si8 0.500000 0.887601 0.000000
O O1 0.095158 0.396140 0.713104
O O2 0.264609 0.280413 0.715222
O O3 0.078794 0.119318 0.633477
O O4 0.262527 0.208031 0.889936
O O5 0.906744 0.917961 0.489329
O O6 0.196922 0.643623 0.725182
O O7 0.000000 0.506283 0.500000
O O8 0.965123 0.661553 0.622272
O O9 0.515183 0.255582 0.843749
O O10 0.570058 0.993583 0.976646
O O11 0.500000 0.249865 0.000000
O O12 0.273063 0.729421 0.617777
O O13 0.171523 0.863598 0.399493
O O14 0.902162 0.290417 0.868376
O O15 0.904882 0.021403 0.799251
#
# Coordination Sequence:
#
# PCOD8049018 Si02
#       8
#     4   2   4   4   4   4   4   2
#     4  10  20  38  63  82 113 161 203 237 291 362
#     4  12  22  36  60  86 122 160 196 238 302 364
#     4   9  18  37  57  84 109 157 194 232 295 357
#     4   8  19  36  57  88 112 154 199 243 287 341
#     4  11  23  39  58  92 124 150 197 253 296 348
#     4  10  21  36  61  88 116 159 195 240 298 352
#     4  10  23  38  62  88 121 150 204 252 292 341
#     4  10  20  34  62  88 118 154 204 238 288 358
#
# _framework density 20.832436999999999
#
# number of rings (size 3 to 8) (size 9 to 14) (size 15 to 20)
#    0.429    1.714    2.857    0.857    7.000    0.000 
#    0.000    2.857    0.000    0.000    0.000    0.000 
#    0.000    0.000    0.000    0.000    0.000    0.000 
#
# Total GULP energy -173469.013092 kJ/mol
# GULP energy per Si atom -12390.643792 kJ/mol
# Density = 2.078502 g / cm^3
# Si number density = 20.832437 Si / 1000 Ang^3
#
#
#
# Elastic Constant Matrix: (Units=GPa)
#
#
# Indices 1 2 3 4 5 6 
#
# 1 23.2436 16.8802 21.5856 0.0000 2.5116 0.0000
# 2 16.8802 146.5447 70.1735 0.0000 19.2847 0.0000
# 3 21.5856 70.1735 120.3204 0.0000 18.1040 0.0000
# 4 0.0000 0.0000 0.0000 42.2770 0.0000 0.8710
# 5 2.5116 19.2847 18.1040 0.0000 29.0160 0.0000
# 6 0.0000 0.0000 0.0000 0.8710 0.0000 -0.6611
#
#
#
# Elastic Compliance Matrix: (Units=1/GPa)
#
#
# Indices 1 2 3 4 5 6 
#
# 1 0.052219 -0.002306 -0.008359 0.000000 0.002228 0.000000
# 2 -0.002306 0.009837 -0.004822 0.000000 -0.003329 0.000000
# 3 -0.008359 -0.004822 0.013279 0.000000 -0.004356 0.000000
# 4 0.000000 0.000000 0.000000 0.023028 0.000000 0.030341
# 5 0.002228 -0.003329 -0.004356 0.000000 0.039202 0.000000
# 6 0.000000 0.000000 0.000000 0.030341 0.000000 -1.472657
#
#
# Mechanical properties :
#
#
# Convention : Reuss Voigt Hill
#
# Bulk Modulus (GPa) = 22.54233 56.37637 39.45935
# Shear Modulus (GPa) = -3.87798 26.22433 11.17317
#
# Velocity S-wave (km/s) = -1.36585 3.55184 2.31840
# Velocity P-wave (km/s) = 2.89083 6.62882 5.11362
#
# Compressibility (1/GPa) = 0.04436098
#
# Stress axis : x y z
#
# Youngs Moduli (GPa) = 19.15023 101.65880 75.30826
#
# Poissons Ratio (x) = 0.23438 0.62947
# Poissons Ratio (y) = 0.04415 0.36317
# Poissons Ratio (z) = 0.16007 0.49025
#
# Static dielectric constant tensor:
#      x y z
#    x 3.612320 0.000000 0.346970 
#    y 0.000000 3.908700 0.000000 
#    z 0.346970 0.000000 3.951620 
# 
# 
# High freq. dielectric constant tensor:
#      x y z
#    x 1.763590 0.000000 0.018100 
#    y 0.000000 1.830210 0.000000 
#    z 0.018100 0.000000 1.820850 
# 
# From -- ./inp_files/56943.got.cif
#   From: 2010.03.12/outbox.cif.g09.slc.cpg/sg5_29_cif.got.tgz:56943.got - 2010.03.31 09:47:26.
