data_PCOD8049271
_publ_section_title
;
Structure prediction by ZEFSAII (Michael W. Deem and Ramdas Pophale) SiO2 
 PCOD8049271
Probable space group: C 2
;
_chemical_formula_sum "Si O2"
_cell_formula_units_Z 26
_cell_length_a 17.111468
_cell_length_b 11.943364
_cell_length_c 15.817857
_cell_angle_alpha 90.000000
_cell_angle_beta 157.728222
_cell_angle_gamma 90.000000
_cell_volume 1225.183770
_symmetry_space_group_name_H-M "C 2"
_symmetry_group_IT_number 5
_symmetry_cell_setting 'monoclinic'
loop_
_space_group_symop_operation_xyz
x,y,z
-x,y,-z
1/2+x,1/2+y,z
1/2-x,1/2+y,-z
loop_
_atom_site_type_symbol
_atom_site_label
_atom_site_fract_x
_atom_site_fract_y
_atom_site_fract_z
Si Si1 0.363733 0.519300 0.280586
Si Si2 0.282040 0.133436 0.472215
Si Si3 0.500000 0.128300 0.000000
Si Si4 0.472692 0.941439 0.372722
Si Si5 0.431798 0.280335 0.338984
Si Si6 0.392872 0.582202 0.983364
Si Si7 0.832960 0.201332 0.463546
O O1 0.500000 0.510444 0.500000
O O2 0.353940 0.399302 0.222468
O O3 0.480851 0.612859 0.343996
O O4 0.125995 0.551774 0.060413
O O5 0.366133 0.241522 0.507951
O O6 0.301481 0.172205 0.588778
O O7 0.410424 0.024616 0.573855
O O8 0.048654 0.107453 0.214343
O O9 0.326058 0.200017 0.775216
O O10 0.500000 0.968371 0.500000
O O11 0.547427 0.819167 0.420797
O O12 0.228618 0.966701 0.115205
O O13 0.500000 0.309649 0.500000
O O14 0.258349 0.186979 0.167930
O O15 0.500000 0.567974 0.000000
#
# Coordination Sequence:
#
# PCOD8049271 Si02
#       7
#     4   4   2   4   4   4   4
#     4   9  21  39  63  98 127 170 222 267 325 412
#     4  11  24  41  65  99 136 172 221 288 332 395
#     4  10  22  46  72  88 132 188 222 268 350 398
#     4  11  23  44  69  99 131 179 234 276 332 413
#     4  10  20  37  65  96 132 167 223 269 326 407
#     4  11  20  40  68  96 127 179 225 271 339 396
#     4  11  26  44  67 100 137 175 232 284 333 406
#
# _framework density 21.221305999999998
#
# number of rings (size 3 to 8) (size 9 to 14) (size 15 to 20)
#    0.000    1.538    3.077    2.308    3.231    6.154 
#    4.154    0.000    0.000    0.000    0.000    0.000 
#    0.000    0.000    0.000    0.000    0.000    0.000 
#
# Total GULP energy -161060.049559 kJ/mol
# GULP energy per Si atom -12389.234581 kJ/mol
# Density = 2.117301 g / cm^3
# Si number density = 21.221306 Si / 1000 Ang^3
#
#
#
# Elastic Constant Matrix: (Units=GPa)
#
#
# Indices 1 2 3 4 5 6 
#
# 1 110.5724 55.8991 30.7476 0.0101 14.8843 0.0030
# 2 55.8991 168.8467 51.6314 0.0286 24.3081 0.0168
# 3 30.7476 51.6314 111.7724 0.0268 22.2143 0.0160
# 4 0.0101 0.0286 0.0268 31.8123 0.0158 14.3599
# 5 14.8843 24.3081 22.2143 0.0158 31.6696 0.0087
# 6 0.0030 0.0168 0.0160 14.3599 0.0087 30.3922
#
#
#
# Elastic Compliance Matrix: (Units=1/GPa)
#
#
# Indices 1 2 3 4 5 6 
#
# 1 0.011203 -0.003023 -0.001278 0.000001 -0.002048 0.000002
# 2 -0.003023 0.008075 -0.002265 -0.000002 -0.003189 -0.000001
# 3 -0.001278 -0.002265 0.011480 -0.000004 -0.005714 -0.000001
# 4 0.000001 -0.000002 -0.000004 0.039956 -0.000010 -0.018879
# 5 -0.002048 -0.003189 -0.005714 -0.000010 0.038994 -0.000001
# 6 0.000002 -0.000001 -0.000001 -0.018879 -0.000001 0.041823
#
#
# Mechanical properties :
#
#
# Convention : Reuss Voigt Hill
#
# Bulk Modulus (GPa) = 56.73478 74.19418 65.46448
# Shear Modulus (GPa) = 29.31870 35.63570 32.47720
#
# Velocity S-wave (km/s) = 3.72098 4.10230 3.91628
# Velocity P-wave (km/s) = 6.72709 7.58133 7.16695
#
# Compressibility (1/GPa) = 0.01762587
#
# Stress axis : x y z
#
# Youngs Moduli (GPa) = 89.25826 123.83908 87.10727
#
# Poissons Ratio (x) = 0.37440 0.11135
# Poissons Ratio (y) = 0.26985 0.19727
# Poissons Ratio (z) = 0.11410 0.28046
#
# Static dielectric constant tensor:
#      x y z
#    x 3.799430 -0.000010 0.292290 
#    y -0.000010 4.202360 -0.000040 
#    z 0.292290 -0.000040 4.003770 
# 
# 
# High freq. dielectric constant tensor:
#      x y z
#    x 1.824430 0.000000 0.023870 
#    y 0.000000 1.839530 0.000000 
#    z 0.023870 0.000000 1.830190 
# 
# From -- ./inp_files/62423.got.cif
#   From: 2010.03.12/outbox.cif.g09.slc.cpg/sg5_32_cif.got.tgz:62423.got - 2010.03.31 09:47:26.
