data_PCOD8049397
_publ_section_title
;
Structure prediction by ZEFSAII (Michael W. Deem and Ramdas Pophale) SiO2 
 PCOD8049397
Probable space group: C 2
;
_chemical_formula_sum "Si O2"
_cell_formula_units_Z 26
_cell_length_a 9.386783
_cell_length_b 15.199462
_cell_length_c 14.779232
_cell_angle_alpha 90.000000
_cell_angle_beta 143.848633
_cell_angle_gamma 90.000000
_cell_volume 1243.913985
_symmetry_space_group_name_H-M "C 2"
_symmetry_group_IT_number 5
_symmetry_cell_setting 'monoclinic'
loop_
_space_group_symop_operation_xyz
x,y,z
-x,y,-z
1/2+x,1/2+y,z
1/2-x,1/2+y,-z
loop_
_atom_site_type_symbol
_atom_site_label
_atom_site_fract_x
_atom_site_fract_y
_atom_site_fract_z
Si Si1 0.028729 0.347400 0.856541
Si Si2 0.821155 0.128988 0.181481
Si Si3 0.063116 0.755740 0.696268
Si Si4 0.710854 0.410863 0.539078
Si Si5 0.500000 0.976351 0.000000
Si Si6 0.932094 0.722928 0.089030
Si Si7 0.160282 0.584608 0.502777
O O1 0.828690 0.280804 0.796575
O O2 0.944030 0.381127 0.715279
O O3 0.087968 0.421079 0.960090
O O4 0.288706 0.304420 0.970539
O O5 0.697719 0.203630 0.183590
O O6 0.104964 0.134170 0.338475
O O7 0.724572 0.031823 0.155797
O O8 0.737802 0.142021 0.033622
O O9 0.059804 0.739292 0.801032
O O10 0.874097 0.833797 0.573589
O O11 0.992956 0.661524 0.621210
O O12 0.500000 0.432477 0.500000
O O13 0.772495 0.503284 0.525208
O O14 0.000000 0.543380 0.500000
#
# Coordination Sequence:
#
# PCOD8049397 Si02
#       7
#     4   4   4   4   2   4   4
#     4  11  20  41  67  98 127 174 220 264 335 394
#     4  10  24  42  62  95 131 175 219 274 336 392
#     4  11  22  40  69  95 133 179 217 272 331 397
#     4  10  24  42  68  99 135 179 223 266 333 402
#     4  10  20  38  70  92 132 166 216 272 328 400
#     4  10  21  38  66  95 123 171 222 269 318 398
#     4  12  26  45  66  96 138 173 223 279 331 393
#
# _framework density 20.901765999999999
#
# number of rings (size 3 to 8) (size 9 to 14) (size 15 to 20)
#    0.000    1.538    1.538    5.077    6.462    0.000 
#    8.308    0.000    0.000    0.000    0.000    0.000 
#    0.000    0.000    0.000    0.000    0.000    0.000 
#
# Total GULP energy -161049.667710 kJ/mol
# GULP energy per Si atom -12388.435978 kJ/mol
# Density = 2.085419 g / cm^3
# Si number density = 20.901766 Si / 1000 Ang^3
#
#
#
# Elastic Constant Matrix: (Units=GPa)
#
#
# Indices 1 2 3 4 5 6 
#
# 1 94.7096 53.6466 66.3527 0.0012 -6.8215 0.0007
# 2 53.6466 122.3359 30.4521 -0.0011 -3.4224 -0.0003
# 3 66.3527 30.4521 104.9926 -0.0034 -8.1074 -0.0010
# 4 0.0012 -0.0011 -0.0034 26.7919 -0.0017 -11.3568
# 5 -6.8215 -3.4224 -8.1074 -0.0017 33.1396 -0.0006
# 6 0.0007 -0.0003 -0.0010 -11.3568 -0.0006 28.8014
#
#
#
# Elastic Compliance Matrix: (Units=1/GPa)
#
#
# Indices 1 2 3 4 5 6 
#
# 1 0.023645 -0.007157 -0.012790 -0.000004 0.000999 -0.000003
# 2 -0.007157 0.010979 0.001338 0.000001 -0.000012 0.000001
# 3 -0.012790 0.001338 0.017355 0.000004 0.001751 0.000003
# 4 -0.000004 0.000001 0.000004 0.044815 0.000003 0.017671
# 5 0.000999 -0.000012 0.001751 0.000003 0.030808 0.000002
# 6 -0.000003 0.000001 0.000003 0.017671 0.000002 0.041688
#
#
# Mechanical properties :
#
#
# Convention : Reuss Voigt Hill
#
# Bulk Modulus (GPa) = 67.74970 69.21566 68.48268
# Shear Modulus (GPa) = 23.64836 29.18569 26.41703
#
# Velocity S-wave (km/s) = 3.36729 3.74080 3.55895
# Velocity P-wave (km/s) = 6.89941 7.20033 7.05148
#
# Compressibility (1/GPa) = 0.01476021
#
# Stress axis : x y z
#
# Youngs Moduli (GPa) = 42.29157 91.07923 57.62084
#
# Poissons Ratio (x) = 0.65187 0.73699
# Poissons Ratio (y) = 0.30269 -0.07708
# Poissons Ratio (z) = 0.54092 -0.12184
#
# Static dielectric constant tensor:
#      x y z
#    x 3.750350 -0.000010 -0.065360 
#    y -0.000010 3.970120 0.000000 
#    z -0.065360 0.000000 4.032490 
# 
# 
# High freq. dielectric constant tensor:
#      x y z
#    x 1.804720 0.000000 -0.006260 
#    y 0.000000 1.825670 0.000000 
#    z -0.006260 0.000000 1.832830 
# 
# From -- ./inp_files/51046.got.cif
#   From: 2010.03.12/outbox.cif.g09.slc.cpg/sg5_26_cif.got.tgz:51046.got - 2010.03.31 09:47:26.
