data_PCOD8049603
_publ_section_title
;
Structure prediction by ZEFSAII (Michael W. Deem and Ramdas Pophale) SiO2 
 PCOD8049603
Probable space group: C 2
;
_chemical_formula_sum "Si O2"
_cell_formula_units_Z 32
_cell_length_a 13.415662
_cell_length_b 27.178658
_cell_length_c 7.671780
_cell_angle_alpha 90.000000
_cell_angle_beta 32.182133
_cell_angle_gamma 90.000000
_cell_volume 1489.867031
_symmetry_space_group_name_H-M "C 2"
_symmetry_group_IT_number 5
_symmetry_cell_setting 'monoclinic'
loop_
_space_group_symop_operation_xyz
x,y,z
-x,y,-z
1/2+x,1/2+y,z
1/2-x,1/2+y,-z
loop_
_atom_site_type_symbol
_atom_site_label
_atom_site_fract_x
_atom_site_fract_y
_atom_site_fract_z
Si Si1 0.490948 0.596050 0.805986
Si Si2 0.295142 0.445652 0.318341
Si Si3 0.460022 0.861113 0.370072
Si Si4 0.795879 0.515162 0.857240
Si Si5 0.524931 0.705831 0.167950
Si Si6 0.715618 0.292987 0.240012
Si Si7 0.210033 0.522622 0.737180
Si Si8 0.712359 0.276032 0.649130
O O1 0.453134 0.651103 0.788565
O O2 0.678974 0.573999 0.442099
O O3 0.500000 0.594915 0.000000
O O4 0.320089 0.564252 0.994098
O O5 0.130366 0.406447 0.604470
O O6 0.268497 0.470833 0.169886
O O7 0.300009 0.484482 0.468200
O O8 0.500000 0.420081 0.000000
O O9 0.500000 0.883247 0.500000
O O10 0.297098 0.820451 0.636752
O O11 0.651546 0.839195 0.006753
O O12 0.000000 0.531756 0.500000
O O13 0.781156 0.499084 0.082128
O O14 0.331566 0.728277 0.527298
O O15 0.500000 0.702671 0.000000
O O16 0.699849 0.741613 0.961527
O O17 0.500000 0.300272 0.500000
O O18 0.735085 0.291667 0.416822
O O19 0.000000 0.535572 0.000000
O O20 0.500000 0.263889 0.000000
#
# Coordination Sequence:
#
# PCOD8049603 Si02
#       8
#     4   4   4   4   4   4   4   4
#     4  11  20  41  66  97 137 178 224 276 337 398
#     4  12  25  46  68  96 128 172 225 283 335 399
#     4  11  24  42  66  96 127 170 219 274 335 397
#     4  12  23  43  65  93 130 174 225 277 333 390
#     4   8  19  36  64  98 134 176 218 268 330 398
#     4  10  21  42  68  98 138 171 217 271 334 398
#     4  12  24  41  67  93 130 179 221 284 336 386
#     4  10  20  41  66  96 135 174 211 275 333 393
#
# _framework density 21.478427
#
# number of rings (size 3 to 8) (size 9 to 14) (size 15 to 20)
#    0.000    1.250    3.750    3.000    0.000    2.000 
#    0.000   10.000    2.750    0.000    0.000    0.000 
#    0.000    0.000    0.000    0.000    0.000    0.000 
#
# Total GULP energy -198336.707324 kJ/mol
# GULP energy per Si atom -12396.044208 kJ/mol
# Density = 2.142954 g / cm^3
# Si number density = 21.478427 Si / 1000 Ang^3
#
#
#
# Elastic Constant Matrix: (Units=GPa)
#
#
# Indices 1 2 3 4 5 6 
#
# 1 92.8298 34.8357 43.4724 0.0000 -2.7351 0.0000
# 2 34.8357 132.4393 55.3030 0.0000 -17.5878 0.0000
# 3 43.4724 55.3030 152.7346 0.0000 -28.4159 0.0000
# 4 0.0000 0.0000 0.0000 18.7201 0.0000 5.2719
# 5 -2.7351 -17.5878 -28.4159 0.0000 52.7614 0.0000
# 6 0.0000 0.0000 0.0000 5.2719 0.0000 7.8600
#
#
#
# Elastic Compliance Matrix: (Units=1/GPa)
#
#
# Indices 1 2 3 4 5 6 
#
# 1 0.013108 -0.002346 -0.003224 0.000000 -0.001839 0.000000
# 2 -0.002346 0.009405 -0.002420 0.000000 0.001710 0.000000
# 3 -0.003224 -0.002420 0.009068 0.000000 0.003910 0.000000
# 4 0.000000 0.000000 0.000000 0.065858 0.000000 -0.044173
# 5 -0.001839 0.001710 0.003910 0.000000 0.021534 0.000000
# 6 0.000000 0.000000 0.000000 -0.044173 0.000000 0.156854
#
#
# Mechanical properties :
#
#
# Convention : Reuss Voigt Hill
#
# Bulk Modulus (GPa) = 64.08760 71.69177 67.88968
# Shear Modulus (GPa) = 16.83458 32.16114 24.49786
#
# Velocity S-wave (km/s) = 2.80266 3.87378 3.38091
# Velocity P-wave (km/s) = 6.35422 7.31158 6.84965
#
# Compressibility (1/GPa) = 0.01560364
#
# Stress axis : x y z
#
# Youngs Moduli (GPa) = 76.28820 106.32457 110.27293
#
# Poissons Ratio (x) = 0.24943 0.35547
# Poissons Ratio (y) = 0.17897 0.26681
# Poissons Ratio (z) = 0.24592 0.25725
#
# Static dielectric constant tensor:
#      x y z
#    x 4.456270 0.000000 -2.132760 
#    y 0.000000 4.011410 0.000000 
#    z -2.132760 0.000000 12.970080 
# 
# 
# High freq. dielectric constant tensor:
#      x y z
#    x 1.849870 0.000000 -0.006830 
#    y 0.000000 1.833790 0.000000 
#    z -0.006830 0.000000 1.850560 
# 
# From -- ./inp_files/25703.got.cif
#   From: 2010.03.12/outbox.cif.g09.slc.cpg/sg5_13_cif.got.tgz:25703.got - 2010.03.31 09:47:26.
