data_PCOD8049245
_publ_section_title
;
Structure prediction by ZEFSAII (Michael W. Deem and Ramdas Pophale) SiO2 
 PCOD8049245
Probable space group: C 2
;
_chemical_formula_sum "Si O2"
_cell_formula_units_Z 26
_cell_length_a 21.861079
_cell_length_b 12.677683
_cell_length_c 5.071598
_cell_angle_alpha 90.000000
_cell_angle_beta 120.828909
_cell_angle_gamma 90.000000
_cell_volume 1206.975602
_symmetry_space_group_name_H-M "C 2"
_symmetry_group_IT_number 5
_symmetry_cell_setting 'monoclinic'
loop_
_space_group_symop_operation_xyz
x,y,z
-x,y,-z
1/2+x,1/2+y,z
1/2-x,1/2+y,-z
loop_
_atom_site_type_symbol
_atom_site_label
_atom_site_fract_x
_atom_site_fract_y
_atom_site_fract_z
Si Si1 0.000000 0.760260 0.500000
Si Si2 0.546063 0.895623 0.355208
Si Si3 0.452498 0.665108 0.638453
Si Si4 0.808706 0.654717 0.791344
Si Si5 0.671113 0.508710 0.517650
Si Si6 0.106952 0.610507 0.521761
Si Si7 0.146917 0.872448 0.957377
O O1 0.964856 0.682734 0.644691
O O2 0.935862 0.832587 0.241040
O O3 0.500000 0.935211 0.500000
O O4 0.581627 0.781706 0.494619
O O5 0.599822 0.989809 0.410658
O O6 0.500000 0.874752 0.000000
O O7 0.500000 0.628870 0.500000
O O8 0.391375 0.581582 0.522050
O O9 0.500000 0.664190 0.000000
O O10 0.739388 0.583158 0.652365
O O11 0.836261 0.659885 0.552298
O O12 0.866453 0.606205 0.118515
O O13 0.798735 0.776873 0.854171
O O14 0.676781 0.416205 0.746161
O O15 0.653060 0.461698 0.192663
#
# Coordination Sequence:
#
# PCOD8049245 Si02
#       7
#     2   4   4   4   4   4   4
#     4  10  24  42  70 108 138 174 226 298 338 408
#     4  10  20  37  62  95 126 160 212 262 334 389
#     4  10  23  41  62  94 128 167 221 277 329 400
#     4  11  26  45  63  98 135 176 230 268 333 417
#     4  12  26  45  68  94 137 182 224 280 339 414
#     4  11  22  41  70  99 136 173 215 285 342 392
#     4  11  26  44  70 102 133 181 230 280 349 401
#
# _framework density 21.541447000000002
#
# number of rings (size 3 to 8) (size 9 to 14) (size 15 to 20)
#    0.000    1.231    0.769    4.615    5.385    4.923 
#    0.000    0.000    0.000    0.000    0.000    0.000 
#    0.000    0.000    0.000    0.000    0.000    0.000 
#
# Total GULP energy -161138.461249 kJ/mol
# GULP energy per Si atom -12395.266250 kJ/mol
# Density = 2.149242 g / cm^3
# Si number density = 21.541447 Si / 1000 Ang^3
#
#
#
# Elastic Constant Matrix: (Units=GPa)
#
#
# Indices 1 2 3 4 5 6 
#
# 1 117.8904 51.0527 40.5792 0.0000 -4.0341 0.0000
# 2 51.0527 130.3356 30.7628 0.0000 14.2167 0.0000
# 3 40.5792 30.7628 82.6159 0.0000 -9.0924 0.0000
# 4 0.0000 0.0000 0.0000 42.9714 0.0000 4.9795
# 5 -4.0341 14.2167 -9.0924 0.0000 34.9958 0.0000
# 6 0.0000 0.0000 0.0000 4.9795 0.0000 44.2113
#
#
#
# Elastic Compliance Matrix: (Units=1/GPa)
#
#
# Indices 1 2 3 4 5 6 
#
# 1 0.011583 -0.003769 -0.004087 0.000000 0.001805 0.000000
# 2 -0.003769 0.010337 -0.002581 0.000000 -0.005304 0.000000
# 3 -0.004087 -0.002581 0.015582 0.000000 0.004626 0.000000
# 4 0.000000 0.000000 0.000000 0.023579 0.000000 -0.002656
# 5 0.001805 -0.005304 0.004626 0.000000 0.032140 0.000000
# 6 0.000000 0.000000 0.000000 -0.002656 0.000000 0.022918
#
#
# Mechanical properties :
#
#
# Convention : Reuss Voigt Hill
#
# Bulk Modulus (GPa) = 60.14600 63.95902 62.05251
# Shear Modulus (GPa) = 35.07365 38.33219 36.70292
#
# Velocity S-wave (km/s) = 4.03947 4.22294 4.13222
# Velocity P-wave (km/s) = 7.05252 7.31664 7.18580
#
# Compressibility (1/GPa) = 0.01662621
#
# Stress axis : x y z
#
# Youngs Moduli (GPa) = 86.32999 96.74134 64.17597
#
# Poissons Ratio (x) = 0.36465 0.26231
# Poissons Ratio (y) = 0.32541 0.16566
# Poissons Ratio (z) = 0.35286 0.24973
#
# Static dielectric constant tensor:
#      x y z
#    x 3.853870 0.000000 -0.098110 
#    y 0.000000 4.375040 0.000000 
#    z -0.098110 0.000000 3.929060 
# 
# 
# High freq. dielectric constant tensor:
#      x y z
#    x 1.833500 0.000000 -0.023970 
#    y 0.000000 1.872130 0.000000 
#    z -0.023970 0.000000 1.842590 
# 
# From -- ./inp_files/9635.got.cif
#   From: 2010.03.12/outbox.cif.g09.slc.cpg/sg5_5_cif.got.tgz:9635.got - 2010.03.31 09:47:26.
