data_PCOD8049803
_publ_section_title
;
Structure prediction by ZEFSAII (Michael W. Deem and Ramdas Pophale) SiO2 
 PCOD8049803
Probable space group: C 2
;
_chemical_formula_sum "Si O2"
_cell_formula_units_Z 32
_cell_length_a 13.107963
_cell_length_b 8.922672
_cell_length_c 13.151380
_cell_angle_alpha 90.000000
_cell_angle_beta 84.176298
_cell_angle_gamma 90.000000
_cell_volume 1530.221097
_symmetry_space_group_name_H-M "C 2"
_symmetry_group_IT_number 5
_symmetry_cell_setting 'monoclinic'
loop_
_space_group_symop_operation_xyz
x,y,z
-x,y,-z
1/2+x,1/2+y,z
1/2-x,1/2+y,-z
loop_
_atom_site_type_symbol
_atom_site_label
_atom_site_fract_x
_atom_site_fract_y
_atom_site_fract_z
Si Si1 0.262866 0.037380 0.611085
Si Si2 0.373018 0.325490 0.518215
Si Si3 0.892032 0.347755 0.741501
Si Si4 0.792786 0.809970 0.095702
Si Si5 0.607254 0.517395 0.296407
Si Si6 0.548803 0.809124 0.885110
Si Si7 0.594304 0.515855 0.776908
Si Si8 0.753170 0.478549 0.094559
O O1 0.314563 0.164302 0.534419
O O2 0.187982 0.098687 0.707681
O O3 0.188447 0.913605 0.564460
O O4 0.360784 0.967349 0.659742
O O5 0.500000 0.312265 0.500000
O O6 0.342968 0.423253 0.618833
O O7 0.818239 0.331334 0.845313
O O8 0.897872 0.193615 0.676933
O O9 0.996216 0.390237 0.791985
O O10 0.809267 0.636552 0.064426
O O11 0.874620 0.862210 0.170827
O O12 0.804779 0.917204 0.998032
O O13 0.491252 0.460675 0.293610
O O14 0.668967 0.494055 0.188121
O O15 0.546238 0.631442 0.863106
O O16 0.665012 0.859980 0.875366
O O17 0.500000 0.843516 0.000000
#
# Coordination Sequence:
#
# PCOD8049803 Si02
#       8
#     4   4   4   4   4   4   4   4
#     4  11  24  47  70  97 133 171 216 284 338 398
#     4  12  25  47  71 103 133 170 228 282 343 403
#     4   9  21  42  64  91 129 170 216 264 331 391
#     4  10  21  36  60  87 125 165 214 267 313 392
#     4  10  22  42  66  92 126 173 216 273 332 400
#     4  11  21  39  61  93 132 176 217 264 322 396
#     4  10  22  40  66  90 126 174 215 265 331 398
#     4  11  22  38  58  91 127 172 219 265 329 385
#
# _framework density 20.912011
#
# number of rings (size 3 to 8) (size 9 to 14) (size 15 to 20)
#    0.000    1.500    2.500    2.250    3.500    2.000 
#   11.250    0.000    0.000    0.000    0.000    0.000 
#    0.000    0.000    0.000    0.000    0.000    0.000 
#
# Total GULP energy -198241.681743 kJ/mol
# GULP energy per Si atom -12390.105109 kJ/mol
# Density = 2.086441 g / cm^3
# Si number density = 20.912011 Si / 1000 Ang^3
#
#
#
# Elastic Constant Matrix: (Units=GPa)
#
#
# Indices 1 2 3 4 5 6 
#
# 1 82.0718 19.4255 24.8040 0.0000 8.2822 0.0000
# 2 19.4255 65.2513 37.0602 0.0000 -0.2673 0.0000
# 3 24.8040 37.0602 81.1076 0.0000 9.3873 0.0000
# 4 0.0000 0.0000 0.0000 30.0630 0.0000 3.7218
# 5 8.2822 -0.2673 9.3873 0.0000 24.2262 0.0000
# 6 0.0000 0.0000 0.0000 3.7218 0.0000 30.6068
#
#
#
# Elastic Compliance Matrix: (Units=1/GPa)
#
#
# Indices 1 2 3 4 5 6 
#
# 1 0.013995 -0.002703 -0.002605 0.000000 -0.003805 0.000000
# 2 -0.002703 0.021610 -0.009613 0.000000 0.004887 0.000000
# 3 -0.002605 -0.009613 0.018246 0.000000 -0.006286 0.000000
# 4 0.000000 0.000000 0.000000 0.033772 0.000000 -0.004107
# 5 -0.003805 0.004887 -0.006286 0.000000 0.045068 0.000000
# 6 0.000000 0.000000 0.000000 -0.004107 0.000000 0.033172
#
#
# Mechanical properties :
#
#
# Convention : Reuss Voigt Hill
#
# Bulk Modulus (GPa) = 41.64948 43.44557 42.54752
# Shear Modulus (GPa) = 24.54499 26.78861 25.66680
#
# Velocity S-wave (km/s) = 3.42969 3.58301 3.50719
# Velocity P-wave (km/s) = 5.97021 6.15937 6.06553
#
# Compressibility (1/GPa) = 0.02400991
#
# Stress axis : x y z
#
# Youngs Moduli (GPa) = 71.45242 46.27496 54.80678
#
# Poissons Ratio (x) = 0.12507 0.14275
# Poissons Ratio (y) = 0.19311 0.52687
# Poissons Ratio (z) = 0.18611 0.44486
#
# Static dielectric constant tensor:
#      x y z
#    x 3.952350 0.000000 0.132090 
#    y 0.000000 3.746810 0.000000 
#    z 0.132090 0.000000 3.705040 
# 
# 
# High freq. dielectric constant tensor:
#      x y z
#    x 1.824950 0.000000 0.013020 
#    y 0.000000 1.806980 0.000000 
#    z 0.013020 0.000000 1.821940 
# 
# From -- ./inp_files/41982.got.cif
#   From: 2010.03.12/outbox.cif.g09.slc.cpg/sg5_21_cif.got.tgz:41982.got - 2010.03.31 09:47:26.
