data_PCOD8049774
_publ_section_title
;
Structure prediction by ZEFSAII (Michael W. Deem and Ramdas Pophale) SiO2 
 PCOD8049774
Probable space group: C 2
;
_chemical_formula_sum "Si O2"
_cell_formula_units_Z 24
_cell_length_a 23.054838
_cell_length_b 8.396172
_cell_length_c 9.471059
_cell_angle_alpha 90.000000
_cell_angle_beta 43.695346
_cell_angle_gamma 90.000000
_cell_volume 1266.511571
_symmetry_space_group_name_H-M "C 2"
_symmetry_group_IT_number 5
_symmetry_cell_setting 'monoclinic'
loop_
_space_group_symop_operation_xyz
x,y,z
-x,y,-z
1/2+x,1/2+y,z
1/2-x,1/2+y,-z
loop_
_atom_site_type_symbol
_atom_site_label
_atom_site_fract_x
_atom_site_fract_y
_atom_site_fract_z
Si Si1 0.423302 0.201570 0.372106
Si Si2 0.683358 0.897898 0.490967
Si Si3 0.321179 0.946413 0.813877
Si Si4 0.500000 0.415412 0.000000
Si Si5 0.762911 0.765150 0.797000
Si Si6 0.664568 0.611629 0.731010
Si Si7 0.500000 0.050212 0.500000
O O1 0.477205 0.299861 0.167651
O O2 0.343106 0.312242 0.558417
O O3 0.389894 0.031896 0.369163
O O4 0.484419 0.165427 0.394694
O O5 0.700250 0.854965 0.295597
O O6 0.658969 0.734707 0.610556
O O7 0.766051 0.974228 0.418142
O O8 0.420735 0.934592 0.669347
O O9 0.296965 0.128439 0.838246
O O10 0.268334 0.899851 0.043533
O O11 0.424110 0.528476 0.088521
O O12 0.685747 0.709000 0.835603
#
# Coordination Sequence:
#
# PCOD8049774 Si02
#       7
#     4   4   4   2   4   4   2
#     4   9  21  39  56  77 110 146 181 223 273 323
#     4   9  20  39  57  79 111 146 180 220 272 334
#     4   9  19  35  57  81 107 139 178 220 269 322
#     4  12  24  36  54  84 112 142 186 234 272 312
#     4   9  20  37  55  78 108 144 179 216 269 331
#     4  10  21  36  55  81 111 144 183 223 270 325
#     4   8  18  36  58  82 106 136 180 224 270 318
#
# _framework density 18.949687000000001
#
# number of rings (size 3 to 8) (size 9 to 14) (size 15 to 20)
#    0.000    3.333    0.000    2.000    0.000   12.667 
#    0.000    0.000    0.000    0.000    0.000    0.000 
#    0.000    0.000    0.000    0.000    0.000    0.000 
#
# Total GULP energy -148709.100205 kJ/mol
# GULP energy per Si atom -12392.425017 kJ/mol
# Density = 1.890656 g / cm^3
# Si number density = 18.949687 Si / 1000 Ang^3
#
#
#
# Elastic Constant Matrix: (Units=GPa)
#
#
# Indices 1 2 3 4 5 6 
#
# 1 114.3942 36.3170 50.7656 0.0000 -11.1927 0.0000
# 2 36.3170 51.1761 61.2658 0.0000 1.5591 0.0000
# 3 50.7656 61.2658 133.0950 0.0000 3.9454 0.0000
# 4 0.0000 0.0000 0.0000 42.9264 0.0000 1.4955
# 5 -11.1927 1.5591 3.9454 0.0000 23.5523 0.0000
# 6 0.0000 0.0000 0.0000 1.4955 0.0000 20.5316
#
#
#
# Elastic Compliance Matrix: (Units=1/GPa)
#
#
# Indices 1 2 3 4 5 6 
#
# 1 0.012344 -0.006884 -0.001736 0.000000 0.006613 0.000000
# 2 -0.006884 0.047370 -0.019085 0.000000 -0.003210 0.000000
# 3 -0.001736 -0.019085 0.017032 0.000000 -0.002415 0.000000
# 4 0.000000 0.000000 0.000000 0.023355 0.000000 -0.001701
# 5 0.006613 -0.003210 -0.002415 0.000000 0.046218 0.000000
# 6 0.000000 0.000000 0.000000 -0.001701 0.000000 0.048829
#
#
# Mechanical properties :
#
#
# Convention : Reuss Voigt Hill
#
# Bulk Modulus (GPa) = 46.86312 66.15134 56.50723
# Shear Modulus (GPa) = 19.40465 27.42318 23.41391
#
# Velocity S-wave (km/s) = 3.20349 3.80828 3.51890
# Velocity P-wave (km/s) = 6.20218 7.37035 6.81135
#
# Compressibility (1/GPa) = 0.02133874
#
# Stress axis : x y z
#
# Youngs Moduli (GPa) = 81.00837 21.11028 58.71277
#
# Poissons Ratio (x) = 0.14531 0.10192
# Poissons Ratio (y) = 0.55762 1.12051
# Poissons Ratio (z) = 0.14062 0.40288
#
# Static dielectric constant tensor:
#      x y z
#    x 3.607270 0.000000 -0.081130 
#    y 0.000000 3.210620 0.000000 
#    z -0.081130 0.000000 3.589720 
# 
# 
# High freq. dielectric constant tensor:
#      x y z
#    x 1.750850 0.000000 0.000900 
#    y 0.000000 1.714940 0.000000 
#    z 0.000900 0.000000 1.731310 
# 
# From -- ./inp_files/26578.got.cif
#   From: 2010.03.12/outbox.cif.g09.slc.cpg/sg5_14_cif.got.tgz:26578.got - 2010.03.31 09:47:26.
