data_PCOD8049894
_publ_section_title
;
Structure prediction by ZEFSAII (Michael W. Deem and Ramdas Pophale) SiO2 
 PCOD8049894
Probable space group: C 2
;
_chemical_formula_sum "Si O2"
_cell_formula_units_Z 20
_cell_length_a 5.012402
_cell_length_b 23.772488
_cell_length_c 8.511755
_cell_angle_alpha 90.000000
_cell_angle_beta 92.247030
_cell_angle_gamma 90.000000
_cell_volume 1013.457580
_symmetry_space_group_name_H-M "C 2"
_symmetry_group_IT_number 5
_symmetry_cell_setting 'monoclinic'
loop_
_space_group_symop_operation_xyz
x,y,z
-x,y,-z
1/2+x,1/2+y,z
1/2-x,1/2+y,-z
loop_
_atom_site_type_symbol
_atom_site_label
_atom_site_fract_x
_atom_site_fract_y
_atom_site_fract_z
Si Si1 0.410720 0.068690 0.172290
Si Si2 0.235090 0.693400 0.892579
Si Si3 0.259750 0.902343 0.605135
Si Si4 0.089615 0.016366 0.682049
Si Si5 0.264509 0.778227 0.608833
O O1 0.331918 0.133543 0.186331
O O2 0.334749 0.059219 0.709575
O O3 0.500000 0.051744 0.000000
O O4 0.158183 0.030382 0.211634
O O5 0.265846 0.737929 0.756679
O O6 0.500000 0.687263 0.000000
O O7 0.000000 0.714348 0.000000
O O8 0.500000 0.923478 0.500000
O O9 0.195826 0.952946 0.725754
O O10 0.323601 0.841153 0.681054
O O11 0.000000 0.890101 0.500000
O O12 0.000000 0.019448 0.500000
O O13 0.500000 0.759298 0.500000
O O14 0.000000 0.772972 0.500000
#
# Coordination Sequence:
#
# PCOD8049894 Si02
#       5
#     4   4   4   4   4
#     4  11  23  39  56  81 118 155 185 228 289 335
#     4  11  23  41  59  80 117 155 185 229 290 337
#     4   9  18  35  57  84 116 145 177 231 292 327
#     4  11  21  37  61  86 111 148 194 232 273 335
#     4  10  21  38  62  87 111 145 192 236 275 332
#
# _framework density 19.734423
#
# number of rings (size 3 to 8) (size 9 to 14) (size 15 to 20)
#    0.000    1.600    0.000    7.200    0.000    2.400 
#    0.000    3.000    0.000    0.000    0.000    0.000 
#    0.000    0.000    0.000    0.000    0.000    0.000 
#
# Total GULP energy -123974.230901 kJ/mol
# GULP energy per Si atom -12397.423090 kJ/mol
# Density = 1.968951 g / cm^3
# Si number density = 19.734423 Si / 1000 Ang^3
#
#
#
# Elastic Constant Matrix: (Units=GPa)
#
#
# Indices 1 2 3 4 5 6 
#
# 1 154.4668 62.1361 47.8305 0.0000 -15.6978 0.0000
# 2 62.1361 153.0820 89.0433 0.0000 -18.2627 0.0000
# 3 47.8305 89.0433 85.3937 0.0000 -13.4560 0.0000
# 4 0.0000 0.0000 0.0000 -2.6009 0.0000 -19.6720
# 5 -15.6978 -18.2627 -13.4560 0.0000 47.1269 0.0000
# 6 0.0000 0.0000 0.0000 -19.6720 0.0000 30.9710
#
#
#
# Elastic Compliance Matrix: (Units=1/GPa)
#
#
# Indices 1 2 3 4 5 6 
#
# 1 0.008065 -0.001549 -0.002695 0.000000 0.001317 0.000000
# 2 -0.001549 0.017010 -0.016662 0.000000 0.001318 0.000000
# 3 -0.002695 -0.016662 0.030821 0.000000 0.001446 0.000000
# 4 0.000000 0.000000 0.000000 -0.066243 0.000000 -0.042076
# 5 0.001317 0.001318 0.001446 0.000000 0.022582 0.000000
# 6 0.000000 0.000000 0.000000 -0.042076 0.000000 0.005563
#
#
# Mechanical properties :
#
#
# Convention : Reuss Voigt Hill
#
# Bulk Modulus (GPa) = 70.99305 87.88471 79.43888
# Shear Modulus (GPa) = 77.75440 28.02823 52.89132
#
# Velocity S-wave (km/s) = 6.28378 3.77274 5.18264
# Velocity P-wave (km/s) = 9.41808 7.97549 8.72665
#
# Compressibility (1/GPa) = 0.01408589
#
# Stress axis : x y z
#
# Youngs Moduli (GPa) = 123.98832 58.78831 32.44507
#
# Poissons Ratio (x) = 0.09108 0.08742
# Poissons Ratio (y) = 0.19209 0.54059
# Poissons Ratio (z) = 0.33409 0.97951
#
# Static dielectric constant tensor:
#      x y z
#    x 3.917040 0.000000 -0.056830 
#    y 0.000000 3.966980 0.000000 
#    z -0.056830 0.000000 3.350690 
# 
# 
# High freq. dielectric constant tensor:
#      x y z
#    x 1.800950 0.000000 -0.006810 
#    y 0.000000 1.780860 0.000000 
#    z -0.006810 0.000000 1.738180 
# 
# From -- ./inp_files/1133.got.cif
#   From: 2010.03.12/outbox.cif.g09.slc.cpg/sg5_1_cif.got.tgz:1133.got - 2010.03.31 09:47:26.
