data_PCOD8049683
_publ_section_title
;
Structure prediction by ZEFSAII (Michael W. Deem and Ramdas Pophale) SiO2 
 PCOD8049683
Probable space group: C 2
;
_chemical_formula_sum "Si O2"
_cell_formula_units_Z 24
_cell_length_a 8.021850
_cell_length_b 26.943280
_cell_length_c 5.805872
_cell_angle_alpha 90.000000
_cell_angle_beta 61.053032
_cell_angle_gamma 90.000000
_cell_volume 1098.080786
_symmetry_space_group_name_H-M "C 2"
_symmetry_group_IT_number 5
_symmetry_cell_setting 'monoclinic'
loop_
_space_group_symop_operation_xyz
x,y,z
-x,y,-z
1/2+x,1/2+y,z
1/2-x,1/2+y,-z
loop_
_atom_site_type_symbol
_atom_site_label
_atom_site_fract_x
_atom_site_fract_y
_atom_site_fract_z
Si Si1 0.500000 0.085330 0.500000
Si Si2 0.806332 0.722716 0.013540
Si Si3 0.802781 0.533150 0.257896
Si Si4 0.318332 0.618919 0.976283
Si Si5 0.000000 0.950010 0.500000
Si Si6 0.215721 0.319694 0.324257
Si Si7 0.000000 0.894521 0.000000
Si Si8 0.000000 0.781528 0.500000
O O1 0.343807 0.049723 0.489690
O O2 0.615942 0.119258 0.245337
O O3 0.660722 0.676260 0.113746
O O4 0.857380 0.745562 0.732817
O O5 0.701899 0.765258 0.226671
O O6 0.000000 0.704280 0.000000
O O7 0.686003 0.482989 0.339839
O O8 0.687771 0.579009 0.223188
O O9 0.000000 0.521627 0.000000
O O10 0.500000 0.603012 0.000000
O O11 0.020938 0.922647 0.736854
O O12 0.357444 0.316986 0.450442
O O13 0.000000 0.338589 0.500000
O O14 0.313576 0.359768 0.089851
#
# Coordination Sequence:
#
# PCOD8049683 Si02
#       8
#     2   4   4   4   2   4   2   2
#     4  10  21  42  67  92 144 187 230 298 357 428
#     4  10  21  40  65  98 143 186 242 293 361 436
#     4  10  24  44  71 101 144 187 239 305 362 442
#     4  11  23  38  64 105 142 191 240 286 365 440
#     4  12  29  48  81 106 148 189 250 315 380 438
#     4  11  25  46  71 100 145 188 246 311 373 443
#     4  12  28  52  76 112 144 194 252 320 384 438
#     4  10  20  42  70  98 148 190 238 313 359 436
#
# _framework density 21.856316
#
# number of rings (size 3 to 8) (size 9 to 14) (size 15 to 20)
#    0.000    1.333    2.500    3.500    8.167    2.667 
#    1.500    0.000    0.000    0.000    0.000    0.000 
#    0.000    0.000    0.000    0.000    0.000    0.000 
#
# Total GULP energy -148703.957191 kJ/mol
# GULP energy per Si atom -12391.996433 kJ/mol
# Density = 2.180657 g / cm^3
# Si number density = 21.856316 Si / 1000 Ang^3
#
#
#
# Elastic Constant Matrix: (Units=GPa)
#
#
# Indices 1 2 3 4 5 6 
#
# 1 123.9762 57.2048 42.4543 0.0000 -2.1329 0.0000
# 2 57.2048 126.8957 45.3421 0.0000 0.7974 0.0000
# 3 42.4543 45.3421 95.3881 0.0000 9.6477 0.0000
# 4 0.0000 0.0000 0.0000 23.1516 0.0000 -4.8716
# 5 -2.1329 0.7974 9.6477 0.0000 40.3731 0.0000
# 6 0.0000 0.0000 0.0000 -4.8716 0.0000 22.1349
#
#
#
# Elastic Compliance Matrix: (Units=1/GPa)
#
#
# Indices 1 2 3 4 5 6 
#
# 1 0.010940 -0.003794 -0.003209 0.000000 0.001420 0.000000
# 2 -0.003794 0.010842 -0.003508 0.000000 0.000424 0.000000
# 3 -0.003209 -0.003508 0.013926 0.000000 -0.003428 0.000000
# 4 0.000000 0.000000 0.000000 0.045291 0.000000 0.009968
# 5 0.001420 0.000424 -0.003428 0.000000 0.025655 0.000000
# 6 0.000000 0.000000 0.000000 0.009968 0.000000 0.047371
#
#
# Mechanical properties :
#
#
# Convention : Reuss Voigt Hill
#
# Bulk Modulus (GPa) = 68.09381 70.69581 69.39481
# Shear Modulus (GPa) = 27.78675 30.54917 29.16796
#
# Velocity S-wave (km/s) = 3.56945 3.74267 3.65709
# Velocity P-wave (km/s) = 6.94340 7.14792 7.04640
#
# Compressibility (1/GPa) = 0.01468562
#
# Stress axis : x y z
#
# Youngs Moduli (GPa) = 91.40699 92.23791 71.80868
#
# Poissons Ratio (x) = 0.34995 0.23045
# Poissons Ratio (y) = 0.34680 0.25188
# Poissons Ratio (z) = 0.29335 0.32354
#
# Static dielectric constant tensor:
#      x y z
#    x 3.743370 0.000000 0.259810 
#    y 0.000000 3.882090 0.000000 
#    z 0.259810 0.000000 4.061750 
# 
# 
# High freq. dielectric constant tensor:
#      x y z
#    x 1.862190 0.000000 0.002050 
#    y 0.000000 1.858520 0.000000 
#    z 0.002050 0.000000 1.863540 
# 
# From -- ./inp_files/3375.got.cif
#   From: 2010.03.12/outbox.cif.g09.slc.cpg/sg5_2_cif.got.tgz:3375.got - 2010.03.31 09:47:26.
