data_PCOD8049247
_publ_section_title
;
Structure prediction by ZEFSAII (Michael W. Deem and Ramdas Pophale) SiO2 
 PCOD8049247
Probable space group: C 2
;
_chemical_formula_sum "Si O2"
_cell_formula_units_Z 32
_cell_length_a 15.222560
_cell_length_b 11.552777
_cell_length_c 9.556361
_cell_angle_alpha 90.000000
_cell_angle_beta 90.831122
_cell_angle_gamma 90.000000
_cell_volume 1680.431983
_symmetry_space_group_name_H-M "C 2"
_symmetry_group_IT_number 5
_symmetry_cell_setting 'monoclinic'
loop_
_space_group_symop_operation_xyz
x,y,z
-x,y,-z
1/2+x,1/2+y,z
1/2-x,1/2+y,-z
loop_
_atom_site_type_symbol
_atom_site_label
_atom_site_fract_x
_atom_site_fract_y
_atom_site_fract_z
Si Si1 0.673638 0.875000 0.839347
Si Si2 0.575532 0.587513 0.388217
Si Si3 0.141654 0.410822 0.158135
Si Si4 0.232052 0.260441 0.386665
Si Si5 0.080256 0.611873 0.332475
Si Si6 0.383914 0.081399 0.357960
Si Si7 0.491065 0.731142 0.153644
Si Si8 0.675175 0.348736 0.347909
O O1 0.609488 0.765229 0.816843
O O2 0.771819 0.840262 0.796806
O O3 0.647205 0.973700 0.731102
O O4 0.674970 0.917340 0.999668
O O5 0.500000 0.572887 0.500000
O O6 0.648851 0.682223 0.431983
O O7 0.524512 0.628397 0.250084
O O8 0.621598 0.466645 0.358603
O O9 0.211274 0.342152 0.254492
O O10 0.129875 0.542119 0.211291
O O11 0.047447 0.348813 0.168015
O O12 0.313037 0.182497 0.338317
O O13 0.258220 0.339201 0.519398
O O14 0.103679 0.546664 0.478597
O O15 0.108207 0.743868 0.344593
O O16 0.977162 0.620857 0.298823
O O17 0.500000 0.678672 0.000000
#
# Coordination Sequence:
#
# PCOD8049247 Si02
#       8
#     4   4   4   4   4   4   4   4
#     4  11  20  39  62  88 116 157 195 249 280 352
#     4  11  23  39  61  89 118 153 195 244 293 351
#     4  10  21  37  63  89 118 149 204 240 293 343
#     4  10  22  40  61  89 116 156 196 247 288 353
#     4  10  22  38  59  92 116 157 189 246 290 359
#     4  10  20  37  63  85 120 151 194 238 298 336
#     4   9  20  40  63  85 115 156 199 241 289 346
#     4  11  24  39  60  88 124 151 198 238 303 347
#
# _framework density 19.042722999999999
#
# number of rings (size 3 to 8) (size 9 to 14) (size 15 to 20)
#    0.000    1.750    2.500    1.500    5.250    2.000 
#    2.250    0.000    2.750    0.000    0.000    0.000 
#    0.000    0.000    0.000    0.000    0.000    0.000 
#
# Total GULP energy -198403.832804 kJ/mol
# GULP energy per Si atom -12400.239550 kJ/mol
# Density = 1.899938 g / cm^3
# Si number density = 19.042723 Si / 1000 Ang^3
#
#
#
# Elastic Constant Matrix: (Units=GPa)
#
#
# Indices 1 2 3 4 5 6 
#
# 1 83.8980 34.8903 36.1815 0.0000 -8.8117 0.0000
# 2 34.8903 92.4781 52.1996 0.0000 -3.6372 0.0000
# 3 36.1815 52.1996 107.4820 0.0000 -9.6828 0.0000
# 4 0.0000 0.0000 0.0000 37.1434 0.0000 66.2262
# 5 -8.8117 -3.6372 -9.6828 0.0000 25.7040 0.0000
# 6 0.0000 0.0000 0.0000 66.2262 0.0000 172.2788
#
#
#
# Elastic Compliance Matrix: (Units=1/GPa)
#
#
# Indices 1 2 3 4 5 6 
#
# 1 0.015179 -0.003973 -0.002859 0.000000 0.003564 0.000000
# 2 -0.003973 0.015947 -0.006549 0.000000 -0.001572 0.000000
# 3 -0.002859 -0.006549 0.013742 0.000000 0.003270 0.000000
# 4 0.000000 0.000000 0.000000 0.085579 0.000000 -0.032898
# 5 0.003564 -0.001572 0.003270 0.000000 0.041135 0.000000
# 6 0.000000 0.000000 0.000000 -0.032898 0.000000 0.018451
#
#
# Mechanical properties :
#
#
# Convention : Reuss Voigt Hill
#
# Bulk Modulus (GPa) = 55.23206 58.93342 57.08274
# Shear Modulus (GPa) = 22.43873 57.73103 40.08488
#
# Velocity S-wave (km/s) = 3.43641 5.51202 4.59300
# Velocity P-wave (km/s) = 6.69421 8.45725 7.62685
#
# Compressibility (1/GPa) = 0.01810543
#
# Stress axis : x y z
#
# Youngs Moduli (GPa) = 65.88185 62.70767 72.77190
#
# Poissons Ratio (x) = 0.24911 0.20807
# Poissons Ratio (y) = 0.26172 0.47660
# Poissons Ratio (z) = 0.18837 0.41068
#
# Static dielectric constant tensor:
#      x y z
#    x 3.713190 0.000000 -1.304580 
#    y 0.000000 3.312730 0.000000 
#    z -1.304580 0.000000 -13.808760 
# 
# 
# High freq. dielectric constant tensor:
#      x y z
#    x 1.750720 0.000000 -0.000100 
#    y 0.000000 1.731440 0.000000 
#    z -0.000100 0.000000 1.740590 
# 
# From -- ./inp_files/23881.got.cif
#   From: 2010.03.12/outbox.cif.g09.slc.cpg/sg5_12_cif.got.tgz:23881.got - 2010.03.31 09:47:26.
