data_PCOD8049819
_publ_section_title
;
Structure prediction by ZEFSAII (Michael W. Deem and Ramdas Pophale) SiO2 
 PCOD8049819
Probable space group: C 2
;
_chemical_formula_sum "Si O2"
_cell_formula_units_Z 30
_cell_length_a 29.807004
_cell_length_b 11.216216
_cell_length_c 17.312983
_cell_angle_alpha 90.000000
_cell_angle_beta 15.975225
_cell_angle_gamma 90.000000
_cell_volume 1593.012659
_symmetry_space_group_name_H-M "C 2"
_symmetry_group_IT_number 5
_symmetry_cell_setting 'monoclinic'
loop_
_space_group_symop_operation_xyz
x,y,z
-x,y,-z
1/2+x,1/2+y,z
1/2-x,1/2+y,-z
loop_
_atom_site_type_symbol
_atom_site_label
_atom_site_fract_x
_atom_site_fract_y
_atom_site_fract_z
Si Si1 0.528596 0.627710 0.687284
Si Si2 0.147491 0.357242 0.983328
Si Si3 0.611531 0.213684 0.891454
Si Si4 0.618596 0.547734 0.373445
Si Si5 0.500000 0.595163 0.000000
Si Si6 0.538659 0.103387 0.165401
Si Si7 0.238475 0.770220 0.365440
Si Si8 0.026173 0.939042 0.814699
O O1 0.403822 0.737911 0.888364
O O2 0.702920 0.673076 0.431746
O O3 0.528826 0.569027 0.602994
O O4 0.456299 0.529311 0.865631
O O5 0.008865 0.460634 0.225037
O O6 0.318809 0.409661 0.733401
O O7 0.169717 0.336018 0.855353
O O8 0.500000 0.211752 0.000000
O O9 0.528978 0.125029 0.089320
O O10 0.612703 0.345604 0.928464
O O11 0.500000 0.578621 0.500000
O O12 0.778010 0.634188 0.106850
O O13 0.645171 0.677090 0.787060
O O14 0.578299 0.514260 0.803200
O O15 0.412215 0.189963 0.418194
O O16 0.181341 0.868767 0.522315
#
# Coordination Sequence:
#
# PCOD8049819 Si02
#       8
#     4   4   4   4   2   4   4   4
#     4  11  22  40  61  87 122 154 198 246 300 349
#     4  10  21  39  61  86 112 159 184 250 304 345
#     4  10  21  37  55  82 121 166 198 237 286 337
#     4   9  20  45  62  88 117 148 200 248 307 363
#     4  12  26  32  56  92 116 174 204 238 282 352
#     4   8  21  37  58  84 115 157 191 247 291 345
#     4  11  22  41  55  85 125 158 204 243 291 338
#     4  11  23  38  54  84 120 162 203 247 280 340
#
# _framework density 18.832242000000001
#
# number of rings (size 3 to 8) (size 9 to 14) (size 15 to 20)
#    0.800    1.067    3.333    0.000    5.600    1.067 
#    4.800    0.000    0.000    0.000    0.000    0.933 
#    0.000    0.000    0.000    0.000    0.000    0.000 
#
# Total GULP energy -185849.781321 kJ/mol
# GULP energy per Si atom -12389.985421 kJ/mol
# Density = 1.878938 g / cm^3
# Si number density = 18.832242 Si / 1000 Ang^3
#
#
#
# Elastic Constant Matrix: (Units=GPa)
#
#
# Indices 1 2 3 4 5 6 
#
# 1 105.6398 31.9728 28.5113 -0.0003 -7.4434 0.0000
# 2 31.9728 98.8193 25.7362 0.0000 -5.0066 -0.0003
# 3 28.5113 25.7362 48.7917 -0.0003 -2.9018 -0.0004
# 4 -0.0003 0.0000 -0.0003 -16.9803 0.0004 15.2102
# 5 -7.4434 -5.0066 -2.9018 0.0004 19.1981 0.0004
# 6 0.0000 -0.0003 -0.0004 15.2102 0.0004 10.1538
#
#
#
# Elastic Compliance Matrix: (Units=1/GPa)
#
#
# Indices 1 2 3 4 5 6 
#
# 1 0.011868 -0.002228 -0.005571 0.000000 0.003178 0.000000
# 2 -0.002228 0.012237 -0.005060 0.000000 0.001563 0.000000
# 3 -0.005571 -0.005060 0.026450 0.000000 0.000519 0.000001
# 4 0.000000 0.000000 0.000000 -0.025148 0.000000 0.037671
# 5 0.003178 0.001563 0.000519 0.000000 0.053807 -0.000002
# 6 0.000000 0.000000 0.000001 0.037671 -0.000002 0.042055
#
#
# Mechanical properties :
#
#
# Convention : Reuss Voigt Hill
#
# Bulk Modulus (GPa) = 40.26061 47.29904 43.77982
# Shear Modulus (GPa) = 32.20274 13.60968 22.90621
#
# Velocity S-wave (km/s) = 4.13968 2.69119 3.49138
# Velocity P-wave (km/s) = 6.65388 5.90145 6.28893
#
# Compressibility (1/GPa) = 0.02483817
#
# Stress axis : x y z
#
# Youngs Moduli (GPa) = 84.26094 81.71725 37.80661
#
# Poissons Ratio (x) = 0.18206 0.21061
# Poissons Ratio (y) = 0.18773 0.19130
# Poissons Ratio (z) = 0.46940 0.41349
#
# Static dielectric constant tensor:
#      x y z
#    x 3.087400 0.000000 0.067410 
#    y 0.000000 3.736090 0.000000 
#    z 0.067410 0.000000 3.954570 
# 
# 
# High freq. dielectric constant tensor:
#      x y z
#    x 1.695680 0.000000 0.017350 
#    y 0.000000 1.746260 0.000000 
#    z 0.017350 0.000000 1.722890 
# 
# From -- ./inp_files/58183.got.cif
#   From: 2010.03.12/outbox.cif.g09.slc.cpg/sg5_30_cif.got.tgz:58183.got - 2010.03.31 09:47:26.
