data_PCOD8049580
_publ_section_title
;
Structure prediction by ZEFSAII (Michael W. Deem and Ramdas Pophale) SiO2 
 PCOD8049580
Probable space group: C 2
;
_chemical_formula_sum "Si O2"
_cell_formula_units_Z 22
_cell_length_a 21.928199
_cell_length_b 8.589422
_cell_length_c 8.619317
_cell_angle_alpha 90.000000
_cell_angle_beta 137.128713
_cell_angle_gamma 90.000000
_cell_volume 1104.522317
_symmetry_space_group_name_H-M "C 2"
_symmetry_group_IT_number 5
_symmetry_cell_setting 'monoclinic'
loop_
_space_group_symop_operation_xyz
x,y,z
-x,y,-z
1/2+x,1/2+y,z
1/2-x,1/2+y,-z
loop_
_atom_site_type_symbol
_atom_site_label
_atom_site_fract_x
_atom_site_fract_y
_atom_site_fract_z
Si Si1 0.162267 0.278150 0.910729
Si Si2 0.167313 0.601781 0.768029
Si Si3 0.363715 0.553416 0.699672
Si Si4 0.000000 0.809014 0.500000
Si Si5 0.729594 0.257291 0.600597
Si Si6 0.976371 0.065115 0.209737
O O1 0.149433 0.421915 0.771273
O O2 0.066467 0.191422 0.751757
O O3 0.237266 0.159068 0.979674
O O4 0.197918 0.336458 0.146090
O O5 0.087264 0.704017 0.687459
O O6 0.172123 0.628233 0.590255
O O7 0.335855 0.385051 0.588355
O O8 0.280331 0.671550 0.553882
O O9 0.435850 0.629569 0.716125
O O10 0.401839 0.522830 0.942915
O O11 0.992600 0.913341 0.639598
#
# Coordination Sequence:
#
# PCOD8049580 Si02
#       6
#     4   4   4   2   4   4
#     4   9  20  39  61  89 121 156 204 248 307 350
#     4  10  21  39  59  91 121 158 204 254 298 361
#     4  10  20  41  62  87 123 160 206 242 312 360
#     4  12  22  38  60  94 122 156 214 248 308 350
#     4   9  21  39  61  90 118 160 204 246 302 367
#     4  10  21  39  63  87 119 166 196 257 301 365
#
# _framework density 19.918111
#
# number of rings (size 3 to 8) (size 9 to 14) (size 15 to 20)
#    1.091    1.091    1.818    1.091    0.000    2.182 
#    6.545    0.000    0.000    0.000    0.000    0.000 
#    0.000    0.000    0.000    0.000    0.000    0.000 
#
# Total GULP energy -136331.816689 kJ/mol
# GULP energy per Si atom -12393.801517 kJ/mol
# Density = 1.987278 g / cm^3
# Si number density = 19.918111 Si / 1000 Ang^3
#
#
#
# Elastic Constant Matrix: (Units=GPa)
#
#
# Indices 1 2 3 4 5 6 
#
# 1 130.5491 63.7460 27.0595 0.0000 25.6483 0.0000
# 2 63.7460 113.6908 35.3701 0.0000 16.9064 0.0000
# 3 27.0595 35.3701 41.3544 0.0000 8.3075 0.0000
# 4 0.0000 0.0000 0.0000 34.7914 0.0000 -0.6513
# 5 25.6483 16.9064 8.3075 0.0000 8.9560 0.0000
# 6 0.0000 0.0000 0.0000 -0.6513 0.0000 41.3684
#
#
#
# Elastic Compliance Matrix: (Units=1/GPa)
#
#
# Indices 1 2 3 4 5 6 
#
# 1 0.018444 -0.003522 0.000269 0.000000 -0.046421 0.000000
# 2 -0.003522 0.014906 -0.008380 0.000000 -0.010278 0.000000
# 3 0.000269 -0.008380 0.034596 0.000000 -0.017044 0.000000
# 4 0.000000 0.000000 0.000000 0.028751 0.000000 0.000453
# 5 -0.046421 -0.010278 -0.017044 0.000000 0.279810 0.000000
# 6 0.000000 0.000000 0.000000 0.000453 0.000000 0.024180
#
#
# Mechanical properties :
#
#
# Convention : Reuss Voigt Hill
#
# Bulk Modulus (GPa) = 22.38080 59.77170 41.07625
# Shear Modulus (GPa) = 11.39351 27.65107 19.52229
#
# Velocity S-wave (km/s) = 2.39428 3.72995 3.13410
# Velocity P-wave (km/s) = 4.34790 6.97308 5.81069
#
# Compressibility (1/GPa) = 0.04468116
#
# Stress axis : x y z
#
# Youngs Moduli (GPa) = 54.21769 67.08649 28.90520
#
# Poissons Ratio (x) = 0.23630 -0.00779
# Poissons Ratio (y) = 0.19097 0.24221
# Poissons Ratio (z) = -0.01461 0.56215
#
# Static dielectric constant tensor:
#      x y z
#    x 3.814580 0.000000 0.144310 
#    y 0.000000 3.247100 0.000000 
#    z 0.144310 0.000000 3.418540 
# 
# 
# High freq. dielectric constant tensor:
#      x y z
#    x 1.790260 0.000000 0.012280 
#    y 0.000000 1.752410 0.000000 
#    z 0.012280 0.000000 1.761630 
# 
# From -- ./inp_files/26271.got.cif
#   From: 2010.03.12/outbox.cif.g09.slc.cpg/sg5_14_cif.got.tgz:26271.got - 2010.03.31 09:47:26.
