data_PCOD8049725
_publ_section_title
;
Structure prediction by ZEFSAII (Michael W. Deem and Ramdas Pophale) SiO2 
 PCOD8049725
Probable space group: C 2
;
_chemical_formula_sum "Si O2"
_cell_formula_units_Z 28
_cell_length_a 14.485391
_cell_length_b 8.270930
_cell_length_c 20.545197
_cell_angle_alpha 90.000000
_cell_angle_beta 148.582840
_cell_angle_gamma 90.000000
_cell_volume 1283.079741
_symmetry_space_group_name_H-M "C 2"
_symmetry_group_IT_number 5
_symmetry_cell_setting 'monoclinic'
loop_
_space_group_symop_operation_xyz
x,y,z
-x,y,-z
1/2+x,1/2+y,z
1/2-x,1/2+y,-z
loop_
_atom_site_type_symbol
_atom_site_label
_atom_site_fract_x
_atom_site_fract_y
_atom_site_fract_z
Si Si1 0.500000 0.769181 0.500000
Si Si2 0.000000 0.515999 0.000000
Si Si3 0.132198 0.087238 0.462445
Si Si4 0.510578 0.234142 0.358083
Si Si5 0.276385 0.005610 0.281095
Si Si6 0.821046 0.248954 0.200839
Si Si7 0.737192 0.307573 0.910542
Si Si8 0.411735 0.613369 0.119229
O O1 0.607436 0.647707 0.519953
O O2 0.346778 0.873369 0.373885
O O3 0.162034 0.625550 0.123390
O O4 0.075666 0.399126 0.989406
O O5 0.337169 0.111033 0.570912
O O6 0.006172 0.191270 0.340826
O O7 0.093817 0.899934 0.431312
O O8 0.360600 0.252414 0.213107
O O9 0.418532 0.148916 0.363606
O O10 0.261480 0.919228 0.199318
O O11 0.107217 0.103026 0.206268
O O12 0.865841 0.244423 0.149699
O O13 0.610437 0.431285 0.870801
O O14 0.776161 0.154244 0.979471
#
# Coordination Sequence:
#
# PCOD8049725 Si02
#       8
#     2   2   4   4   4   4   4   4
#     4  10  24  46  68 108 136 186 242 300 368 444
#     4  10  20  44  70  94 150 174 242 286 366 428
#     4  11  23  48  70 100 144 185 238 304 361 437
#     4  12  25  47  72 101 145 192 242 298 370 436
#     4  11  26  44  73 104 146 188 251 300 372 448
#     4  10  24  44  71 103 141 195 227 307 366 429
#     4  11  25  44  68 108 139 189 237 300 360 451
#     4  11  25  44  71 104 145 182 247 297 370 442
#
# _framework density 21.822493999999999
#
# number of rings (size 3 to 8) (size 9 to 14) (size 15 to 20)
#    0.000    1.143    2.857    3.429    8.000    0.571 
#    2.571    0.000    0.000    0.000    0.000    0.000 
#    0.000    0.000    0.000    0.000    0.000    0.000 
#
# Total GULP energy -173481.545788 kJ/mol
# GULP energy per Si atom -12391.538985 kJ/mol
# Density = 2.177283 g / cm^3
# Si number density = 21.822494 Si / 1000 Ang^3
#
#
#
# Elastic Constant Matrix: (Units=GPa)
#
#
# Indices 1 2 3 4 5 6 
#
# 1 135.4690 49.2515 60.4451 0.0000 15.9652 0.0000
# 2 49.2515 83.0830 32.7050 0.0001 -12.4386 0.0000
# 3 60.4451 32.7050 89.6574 0.0000 6.3908 -0.0002
# 4 0.0000 0.0001 0.0000 41.0740 0.0001 -4.9445
# 5 15.9652 -12.4386 6.3908 0.0001 36.3628 0.0000
# 6 0.0000 0.0000 -0.0002 -4.9445 0.0000 26.2266
#
#
#
# Elastic Compliance Matrix: (Units=1/GPa)
#
#
# Indices 1 2 3 4 5 6 
#
# 1 0.013298 -0.006538 -0.006081 0.000000 -0.007006 0.000000
# 2 -0.006538 0.018581 -0.003066 0.000000 0.009765 0.000000
# 3 -0.006081 -0.003066 0.016462 0.000000 -0.001272 0.000000
# 4 0.000000 0.000000 0.000000 0.024912 0.000000 0.004697
# 5 -0.007006 0.009765 -0.001272 0.000000 0.034141 0.000000
# 6 0.000000 0.000000 0.000000 0.004697 0.000000 0.039015
#
#
# Mechanical properties :
#
#
# Convention : Reuss Voigt Hill
#
# Bulk Modulus (GPa) = 58.92420 65.89028 62.40724
# Shear Modulus (GPa) = 27.25772 31.78654 29.52213
#
# Velocity S-wave (km/s) = 3.53805 3.82068 3.68207
# Velocity P-wave (km/s) = 6.61442 7.05143 6.83642
#
# Compressibility (1/GPa) = 0.01697096
#
# Stress axis : x y z
#
# Youngs Moduli (GPa) = 75.20172 53.81865 60.74561
#
# Poissons Ratio (x) = 0.35187 0.36937
# Poissons Ratio (y) = 0.49168 0.18625
# Poissons Ratio (z) = 0.45727 0.16501
#
# Static dielectric constant tensor:
#      x y z
#    x 4.210920 0.000000 -0.008170 
#    y 0.000000 3.993980 0.000000 
#    z -0.008170 0.000000 3.835360 
# 
# 
# High freq. dielectric constant tensor:
#      x y z
#    x 1.869100 0.000000 0.011590 
#    y 0.000000 1.862020 0.000000 
#    z 0.011590 0.000000 1.856340 
# 
# From -- ./inp_files/41727.got.cif
#   From: 2010.03.12/outbox.cif.g09.slc.cpg/sg5_21_cif.got.tgz:41727.got - 2010.03.31 09:47:26.
