data_PCOD8049241
_publ_section_title
;
Structure prediction by ZEFSAII (Michael W. Deem and Ramdas Pophale) SiO2 
 PCOD8049241
Probable space group: C 2
;
_chemical_formula_sum "Si O2"
_cell_formula_units_Z 28
_cell_length_a 25.970029
_cell_length_b 5.057723
_cell_length_c 10.424157
_cell_angle_alpha 90.000000
_cell_angle_beta 84.814956
_cell_angle_gamma 90.000000
_cell_volume 1363.602063
_symmetry_space_group_name_H-M "C 2"
_symmetry_group_IT_number 5
_symmetry_cell_setting 'monoclinic'
loop_
_space_group_symop_operation_xyz
x,y,z
-x,y,-z
1/2+x,1/2+y,z
1/2-x,1/2+y,-z
loop_
_atom_site_type_symbol
_atom_site_label
_atom_site_fract_x
_atom_site_fract_y
_atom_site_fract_z
Si Si1 0.183488 0.794040 0.786535
Si Si2 0.006798 0.941280 0.146784
Si Si3 0.415169 0.339155 0.352456
Si Si4 0.827900 0.565867 0.950236
Si Si5 0.738195 0.806381 0.840625
Si Si6 0.069254 0.443399 0.207966
Si Si7 0.940814 0.326883 0.503381
O O1 0.141190 0.761588 0.685669
O O2 0.228866 0.572594 0.759531
O O3 0.209125 0.078560 0.769067
O O4 0.156153 0.750465 0.932156
O O5 0.046126 0.736418 0.202806
O O6 0.951278 0.927598 0.226724
O O7 0.028913 0.235515 0.158537
O O8 0.000000 0.871918 0.000000
O O9 0.408843 0.584929 0.450507
O O10 0.439387 0.086316 0.416148
O O11 0.798593 0.738939 0.847495
O O12 0.877666 0.423567 0.882072
O O13 0.787727 0.340444 0.010710
O O14 0.082622 0.385486 0.352315
O O15 0.000000 0.232307 0.500000
#
# Coordination Sequence:
#
# PCOD8049241 Si02
#       7
#     4   4   4   4   4   4   4
#     4  10  21  36  62  95 118 161 201 261 313 381
#     4  12  25  39  59  95 130 163 194 269 322 368
#     4  12  23  41  65  83 131 167 217 251 308 369
#     4  10  22  38  64  94 127 158 200 261 321 383
#     4  10  20  37  62  92 124 157 202 248 338 376
#     4  12  26  38  63  91 129 163 219 254 298 384
#     4  12  23  44  61  86 121 184 217 249 291 364
#
# _framework density 20.533849
#
# number of rings (size 3 to 8) (size 9 to 14) (size 15 to 20)
#    0.857    0.000    4.286    3.429    4.000    0.000 
#    0.000    0.000    0.000    3.429    0.000    0.000 
#    0.000    0.000    0.000    0.000    0.000    0.000 
#
# Total GULP energy -173621.797113 kJ/mol
# GULP energy per Si atom -12401.556937 kJ/mol
# Density = 2.048711 g / cm^3
# Si number density = 20.533849 Si / 1000 Ang^3
#
#
#
# Elastic Constant Matrix: (Units=GPa)
#
#
# Indices 1 2 3 4 5 6 
#
# 1 44.6069 15.5871 14.1875 0.0000 20.8117 0.0000
# 2 15.5871 107.2521 19.5544 0.0000 13.4838 0.0000
# 3 14.1875 19.5544 88.7343 0.0000 21.0895 0.0000
# 4 0.0000 0.0000 0.0000 29.0401 0.0000 9.1876
# 5 20.8117 13.4838 21.0895 0.0000 25.9618 0.0000
# 6 0.0000 0.0000 0.0000 9.1876 0.0000 28.8665
#
#
#
# Elastic Compliance Matrix: (Units=1/GPa)
#
#
# Indices 1 2 3 4 5 6 
#
# 1 0.036287 -0.001867 0.001602 0.000000 -0.029421 0.000000
# 2 -0.001867 0.010175 -0.001293 0.000000 -0.002738 0.000000
# 3 0.001602 -0.001293 0.014182 0.000000 -0.012133 0.000000
# 4 0.000000 0.000000 0.000000 0.038291 0.000000 -0.012187
# 5 -0.029421 -0.002738 -0.012133 0.000000 0.073380 0.000000
# 6 0.000000 0.000000 0.000000 -0.012187 0.000000 0.038521
#
#
# Mechanical properties :
#
#
# Convention : Reuss Voigt Hill
#
# Bulk Modulus (GPa) = 17.38275 37.69457 27.53866
# Shear Modulus (GPa) = 21.44731 29.52464 25.48598
#
# Velocity S-wave (km/s) = 3.23536 3.79602 3.52684
# Velocity P-wave (km/s) = 4.73714 6.13271 5.47954
#
# Compressibility (1/GPa) = 0.05752830
#
# Stress axis : x y z
#
# Youngs Moduli (GPa) = 27.55773 98.27917 70.51140
#
# Poissons Ratio (x) = 0.18349 -0.11296
# Poissons Ratio (y) = 0.05145 0.09118
# Poissons Ratio (z) = -0.04415 0.12709
#
# Static dielectric constant tensor:
#      x y z
#    x 3.414430 0.000000 0.134950 
#    y 0.000000 3.762390 0.000000 
#    z 0.134950 0.000000 3.613470 
# 
# 
# High freq. dielectric constant tensor:
#      x y z
#    x 1.783570 0.000000 0.023210 
#    y 0.000000 1.818730 0.000000 
#    z 0.023210 0.000000 1.785800 
# 
# From -- ./inp_files/31423.got.cif
#   From: 2010.03.12/outbox.cif.g09.slc.cpg/sg5_16_cif.got.tgz:31423.got - 2010.03.31 09:47:26.
