data_PCOD8049982
_publ_section_title
;
Structure prediction by ZEFSAII (Michael W. Deem and Ramdas Pophale) SiO2 
 PCOD8049982
Probable space group: C 2
;
_chemical_formula_sum "Si O2"
_cell_formula_units_Z 30
_cell_length_a 26.671617
_cell_length_b 9.496294
_cell_length_c 5.623448
_cell_angle_alpha 90.000000
_cell_angle_beta 98.034277
_cell_angle_gamma 90.000000
_cell_volume 1410.335257
_symmetry_space_group_name_H-M "C 2"
_symmetry_group_IT_number 5
_symmetry_cell_setting 'monoclinic'
loop_
_space_group_symop_operation_xyz
x,y,z
-x,y,-z
1/2+x,1/2+y,z
1/2-x,1/2+y,-z
loop_
_atom_site_type_symbol
_atom_site_label
_atom_site_fract_x
_atom_site_fract_y
_atom_site_fract_z
Si Si1 0.836810 0.888670 0.787138
Si Si2 0.074565 0.050784 0.392659
Si Si3 0.632696 0.812580 0.439829
Si Si4 0.500000 0.409505 0.000000
Si Si5 0.854366 0.627453 0.500478
Si Si6 0.759077 0.543531 0.135708
Si Si7 0.910806 0.838116 0.223696
Si Si8 0.810752 0.288506 0.014387
O O1 0.840098 0.725083 0.713548
O O2 0.871254 0.985787 0.645159
O O3 0.779989 0.947871 0.737158
O O4 0.858722 0.890824 0.068775
O O5 0.081281 0.219996 0.420963
O O6 0.027798 0.017177 0.194340
O O7 0.064276 0.974334 0.634456
O O8 0.660345 0.788144 0.712403
O O9 0.621760 0.978626 0.401007
O O10 0.659495 0.758720 0.212007
O O11 0.456798 0.302752 0.072732
O O12 0.801855 0.607799 0.330560
O O13 0.898489 0.703137 0.376333
O O14 0.784793 0.440605 0.959124
O O15 0.731145 0.667966 0.979826
#
# Coordination Sequence:
#
# PCOD8049982 Si02
#       8
#     4   4   4   2   4   4   4   4
#     4  10  21  39  63  90 134 181 227 275 326 391
#     4  10  21  41  70  98 130 164 221 282 345 403
#     4  11  25  43  64  97 137 181 219 279 344 399
#     4  10  22  40  78 102 124 160 230 284 348 416
#     4  10  25  38  63  94 140 183 224 276 335 393
#     4  11  23  39  62  95 136 186 238 271 327 390
#     4  10  21  43  66 102 126 175 222 288 337 405
#     4  11  26  40  61  95 135 186 235 278 327 390
#
# _framework density 21.271538
#
# number of rings (size 3 to 8) (size 9 to 14) (size 15 to 20)
#    0.000    1.600    1.333    2.000   11.200    2.133 
#    0.000    0.000    0.000   19.200    0.000    0.000 
#    0.000    0.000    0.000    0.000    0.000    0.000 
#
# Total GULP energy -185860.755508 kJ/mol
# GULP energy per Si atom -12390.717034 kJ/mol
# Density = 2.122312 g / cm^3
# Si number density = 21.271538 Si / 1000 Ang^3
#
#
#
# Elastic Constant Matrix: (Units=GPa)
#
#
# Indices 1 2 3 4 5 6 
#
# 1 97.3488 39.2012 31.4433 0.0000 7.0628 0.0000
# 2 39.2012 125.4054 35.8470 0.0000 20.2455 0.0000
# 3 31.4433 35.8470 107.7025 0.0000 9.1136 0.0000
# 4 0.0000 0.0000 0.0000 23.4990 0.0000 3.1709
# 5 7.0628 20.2455 9.1136 0.0000 19.0490 0.0000
# 6 0.0000 0.0000 0.0000 3.1709 0.0000 20.2170
#
#
#
# Elastic Compliance Matrix: (Units=1/GPa)
#
#
# Indices 1 2 3 4 5 6 
#
# 1 0.012362 -0.003125 -0.002566 0.000000 -0.000034 0.000000
# 2 -0.003125 0.011071 -0.001954 0.000000 -0.009673 0.000000
# 3 -0.002566 -0.001954 0.010868 0.000000 -0.002172 0.000000
# 4 0.000000 0.000000 0.000000 0.043475 0.000000 -0.006819
# 5 -0.000034 -0.009673 -0.002172 0.000000 0.063828 0.000000
# 6 0.000000 0.000000 0.000000 -0.006819 0.000000 0.050533
#
#
# Mechanical properties :
#
#
# Convention : Reuss Voigt Hill
#
# Bulk Modulus (GPa) = 52.60128 60.38220 56.49174
# Shear Modulus (GPa) = 23.39014 27.48401 25.43708
#
# Velocity S-wave (km/s) = 3.31962 3.59842 3.46182
# Velocity P-wave (km/s) = 6.28294 6.76113 6.52641
#
# Compressibility (1/GPa) = 0.01901094
#
# Stress axis : x y z
#
# Youngs Moduli (GPa) = 80.89197 90.32403 92.01289
#
# Poissons Ratio (x) = 0.28229 0.23610
# Poissons Ratio (y) = 0.25282 0.17979
# Poissons Ratio (z) = 0.20757 0.17649
#
# Static dielectric constant tensor:
#      x y z
#    x 3.701370 0.000000 -0.123530 
#    y 0.000000 4.094950 0.000000 
#    z -0.123530 0.000000 3.916660 
# 
# 
# High freq. dielectric constant tensor:
#      x y z
#    x 1.818560 0.000000 -0.004470 
#    y 0.000000 1.838010 0.000000 
#    z -0.004470 0.000000 1.838150 
# 
# From -- ./inp_files/11147.got.cif
#   From: 2010.03.12/outbox.cif.g09.slc.cpg/sg5_6_cif.got.tgz:11147.got - 2010.03.31 09:47:26.
