data_PCOD8049365
_publ_section_title
;
Structure prediction by ZEFSAII (Michael W. Deem and Ramdas Pophale) SiO2 
 PCOD8049365
Probable space group: C 2
;
_chemical_formula_sum "Si O2"
_cell_formula_units_Z 32
_cell_length_a 10.842470
_cell_length_b 11.080486
_cell_length_c 19.922660
_cell_angle_alpha 90.000000
_cell_angle_beta 40.101200
_cell_angle_gamma 90.000000
_cell_volume 1541.751554
_symmetry_space_group_name_H-M "C 2"
_symmetry_group_IT_number 5
_symmetry_cell_setting 'monoclinic'
loop_
_space_group_symop_operation_xyz
x,y,z
-x,y,-z
1/2+x,1/2+y,z
1/2-x,1/2+y,-z
loop_
_atom_site_type_symbol
_atom_site_label
_atom_site_fract_x
_atom_site_fract_y
_atom_site_fract_z
Si Si1 0.552825 0.404780 0.903606
Si Si2 0.359272 0.810839 0.617352
Si Si3 0.810823 0.032056 0.617868
Si Si4 0.490953 0.471087 0.791625
Si Si5 0.183393 0.436562 0.805468
Si Si6 0.533008 0.727466 0.161810
Si Si7 0.556348 0.141021 0.047185
Si Si8 0.457096 0.897622 0.715403
O O1 0.411854 0.442332 0.900936
O O2 0.576256 0.259765 0.889742
O O3 0.753560 0.467755 0.798395
O O4 0.500000 0.450838 0.000000
O O5 0.500000 0.855176 0.500000
O O6 0.295401 0.674183 0.633614
O O7 0.166914 0.889434 0.695086
O O8 0.476027 0.821841 0.638653
O O9 0.000000 0.992800 0.500000
O O10 0.817319 0.962016 0.685636
O O11 0.630378 0.990494 0.648403
O O12 0.310396 0.450433 0.818857
O O13 0.562439 0.610093 0.764177
O O14 0.100326 0.299910 0.835758
O O15 0.009282 0.536443 0.873478
O O16 0.571055 0.817143 0.206862
O O17 0.723651 0.685122 0.042229
O O18 0.500000 0.081181 0.000000
#
# Coordination Sequence:
#
# PCOD8049365 Si02
#       8
#     4   4   4   4   4   4   4   4
#     4  10  20  38  65  89 125 178 218 264 337 397
#     4  10  23  42  67  95 124 173 220 277 339 392
#     4  10  23  42  68  94 124 174 226 275 338 400
#     4  11  23  39  63  95 136 165 220 283 327 397
#     4  11  24  41  66  96 132 175 223 279 328 399
#     4  11  23  39  63  95 133 175 219 264 342 397
#     4  11  20  39  66  88 125 179 219 264 331 401
#     4  10  20  41  65  91 129 169 223 271 327 404
#
# _framework density 20.755614000000001
#
# number of rings (size 3 to 8) (size 9 to 14) (size 15 to 20)
#    0.000    1.500    3.750    2.250    3.500    2.000 
#    0.000    4.375    0.000    0.000    0.000    0.000 
#    0.000    0.000    0.000    0.000    0.000    0.000 
#
# Total GULP energy -198255.036230 kJ/mol
# GULP energy per Si atom -12390.939764 kJ/mol
# Density = 2.070837 g / cm^3
# Si number density = 20.755614 Si / 1000 Ang^3
#
#
#
# Elastic Constant Matrix: (Units=GPa)
#
#
# Indices 1 2 3 4 5 6 
#
# 1 126.6919 63.8471 65.4632 0.0000 4.9305 0.0000
# 2 63.8471 104.3301 47.5380 0.0000 -12.3437 0.0000
# 3 65.4632 47.5380 133.3522 -0.0001 -2.4227 0.0000
# 4 0.0000 0.0000 -0.0001 28.4003 0.0000 4.9620
# 5 4.9305 -12.3437 -2.4227 0.0000 32.1887 0.0000
# 6 0.0000 0.0000 0.0000 4.9620 0.0000 23.3008
#
#
#
# Elastic Compliance Matrix: (Units=1/GPa)
#
#
# Indices 1 2 3 4 5 6 
#
# 1 0.013986 -0.007170 -0.004405 0.000000 -0.005223 0.000000
# 2 -0.007170 0.015683 -0.001944 0.000000 0.006966 0.000000
# 3 -0.004405 -0.001944 0.010367 0.000000 0.000709 0.000000
# 4 0.000000 0.000000 0.000000 0.036572 0.000000 -0.007788
# 5 -0.005223 0.006966 0.000709 0.000000 0.034592 0.000000
# 6 0.000000 0.000000 0.000000 -0.007788 0.000000 0.044575
#
#
# Mechanical properties :
#
#
# Convention : Reuss Voigt Hill
#
# Bulk Modulus (GPa) = 76.93492 79.78565 78.36028
# Shear Modulus (GPa) = 26.71729 29.27966 27.99848
#
# Velocity S-wave (km/s) = 3.59169 3.75999 3.67680
# Velocity P-wave (km/s) = 7.37210 7.57456 7.47402
#
# Compressibility (1/GPa) = 0.01299800
#
# Stress axis : x y z
#
# Youngs Moduli (GPa) = 71.50205 63.76384 96.45802
#
# Poissons Ratio (x) = 0.45718 0.42485
# Poissons Ratio (y) = 0.51266 0.18756
# Poissons Ratio (z) = 0.31493 0.12398
#
# Static dielectric constant tensor:
#      x y z
#    x 3.908750 0.000000 0.143030 
#    y 0.000000 3.812470 0.000000 
#    z 0.143030 0.000000 3.927870 
# 
# 
# High freq. dielectric constant tensor:
#      x y z
#    x 1.813820 0.000000 0.007170 
#    y 0.000000 1.805820 0.000000 
#    z 0.007170 0.000000 1.811410 
# 
# From -- ./inp_files/65240.got.cif
#   From: 2010.03.12/outbox.cif.g09.slc.cpg/sg5_33_cif.got.tgz:65240.got - 2010.03.31 09:47:26.
