data_PCOD8049558
_publ_section_title
;
Structure prediction by ZEFSAII (Michael W. Deem and Ramdas Pophale) SiO2 
 PCOD8049558
Probable space group: C 2
;
_chemical_formula_sum "Si O2"
_cell_formula_units_Z 32
_cell_length_a 12.263819
_cell_length_b 8.067794
_cell_length_c 14.421283
_cell_angle_alpha 90.000000
_cell_angle_beta 91.937497
_cell_angle_gamma 90.000000
_cell_volume 1426.054346
_symmetry_space_group_name_H-M "C 2"
_symmetry_group_IT_number 5
_symmetry_cell_setting 'monoclinic'
loop_
_space_group_symop_operation_xyz
x,y,z
-x,y,-z
1/2+x,1/2+y,z
1/2-x,1/2+y,-z
loop_
_atom_site_type_symbol
_atom_site_label
_atom_site_fract_x
_atom_site_fract_y
_atom_site_fract_z
Si Si1 0.790229 0.768190 0.879343
Si Si2 0.392190 0.848059 0.254385
Si Si3 0.470131 0.524027 0.353870
Si Si4 0.010765 0.879683 0.830451
Si Si5 0.658667 0.609994 0.485246
Si Si6 0.110096 0.479277 0.551536
Si Si7 0.041144 0.249197 0.104926
Si Si8 0.266085 0.396994 0.076773
O O1 0.730179 0.852256 0.789988
O O2 0.738968 0.589569 0.897519
O O3 0.918077 0.750828 0.859777
O O4 0.770013 0.886153 0.966399
O O5 0.412280 0.668341 0.296078
O O6 0.404300 0.983571 0.336974
O O7 0.477016 0.874568 0.172194
O O8 0.479830 0.372683 0.281685
O O9 0.592326 0.575561 0.389021
O O10 0.390294 0.482756 0.438473
O O11 0.123807 0.819316 0.877727
O O12 0.975771 0.059829 0.866903
O O13 0.787674 0.591980 0.475203
O O14 0.632243 0.794277 0.517597
O O15 0.000000 0.549279 0.500000
O O16 0.167929 0.292875 0.117566
O O17 0.000000 0.281971 0.000000
#
# Coordination Sequence:
#
# PCOD8049558 Si02
#       8
#     4   4   4   4   4   4   4   4
#     4  12  23  41  65  88 128 167 214 262 316 367
#     4  10  20  41  67  89 126 174 208 253 319 375
#     4   9  18  41  66  88 125 173 203 252 321 375
#     4  11  23  41  62  91 124 164 215 261 313 371
#     4  10  20  40  69  91 130 167 202 256 320 373
#     4  11  22  42  66  96 129 164 206 261 315 375
#     4  11  21  42  64  84 126 168 207 261 314 368
#     4  12  24  41  62  89 123 168 209 265 314 368
#
# _framework density 22.439537000000001
#
# number of rings (size 3 to 8) (size 9 to 14) (size 15 to 20)
#    0.000    1.250    6.250    2.625    0.000    2.000 
#    4.500    1.250    0.000    0.000    0.000    0.000 
#    0.000    0.000    0.000    0.000    0.000    0.000 
#
# Total GULP energy -198390.298601 kJ/mol
# GULP energy per Si atom -12399.393663 kJ/mol
# Density = 2.238846 g / cm^3
# Si number density = 22.439537 Si / 1000 Ang^3
#
#
#
# Elastic Constant Matrix: (Units=GPa)
#
#
# Indices 1 2 3 4 5 6 
#
# 1 189.3056 13.7686 51.2334 0.0000 17.0833 0.0000
# 2 13.7686 12.8531 5.7733 0.0000 3.3779 0.0000
# 3 51.2334 5.7733 126.3615 0.0000 15.2638 0.0000
# 4 0.0000 0.0000 0.0000 5.0438 0.0000 -0.4861
# 5 17.0833 3.3779 15.2638 0.0000 42.0177 0.0000
# 6 0.0000 0.0000 0.0000 -0.4861 0.0000 36.6599
#
#
#
# Elastic Compliance Matrix: (Units=1/GPa)
#
#
# Indices 1 2 3 4 5 6 
#
# 1 0.006396 -0.005515 -0.002176 0.000000 -0.001367 0.000000
# 2 -0.005515 0.085332 -0.001156 0.000000 -0.004198 0.000000
# 3 -0.002176 -0.001156 0.009132 0.000000 -0.002340 0.000000
# 4 0.000000 0.000000 0.000000 0.198515 0.000000 0.002632
# 5 -0.001367 -0.004198 -0.002340 0.000000 0.025542 0.000000
# 6 0.000000 0.000000 0.000000 0.002632 0.000000 0.027313
#
#
# Mechanical properties :
#
#
# Convention : Reuss Voigt Hill
#
# Bulk Modulus (GPa) = 12.02408 52.23009 32.12708
# Shear Modulus (GPa) = 12.57403 33.92728 23.25066
#
# Velocity S-wave (km/s) = 2.36974 3.89259 3.22242
# Velocity P-wave (km/s) = 3.58576 6.59768 5.30976
#
# Compressibility (1/GPa) = 0.08316643
#
# Stress axis : x y z
#
# Youngs Moduli (GPa) = 156.35168 11.71891 109.51064
#
# Poissons Ratio (x) = 0.06463 0.23831
# Poissons Ratio (y) = 0.86225 0.12655
# Poissons Ratio (z) = 0.34025 0.01354
#
# Static dielectric constant tensor:
#      x y z
#    x 4.423590 0.000000 -0.241230 
#    y 0.000000 3.521820 0.000000 
#    z -0.241230 0.000000 4.707030 
# 
# 
# High freq. dielectric constant tensor:
#      x y z
#    x 1.898310 0.000000 0.000860 
#    y 0.000000 1.842330 0.000000 
#    z 0.000860 0.000000 1.901160 
# 
# From -- ./inp_files/52453.got.cif
#   From: 2010.03.12/outbox.cif.g09.slc.cpg/sg5_27_cif.got.tgz:52453.got - 2010.03.31 09:47:26.
