data_PCOD8049912
_publ_section_title
;
Structure prediction by ZEFSAII (Michael W. Deem and Ramdas Pophale) SiO2 
 PCOD8049912
Probable space group: C 2
;
_chemical_formula_sum "Si O2"
_cell_formula_units_Z 18
_cell_length_a 5.440858
_cell_length_b 19.032912
_cell_length_c 6.763498
_cell_angle_alpha 90.000000
_cell_angle_beta 103.668394
_cell_angle_gamma 90.000000
_cell_volume 680.561051
_symmetry_space_group_name_H-M "C 2"
_symmetry_group_IT_number 5
_symmetry_cell_setting 'monoclinic'
loop_
_space_group_symop_operation_xyz
x,y,z
-x,y,-z
1/2+x,1/2+y,z
1/2-x,1/2+y,-z
loop_
_atom_site_type_symbol
_atom_site_label
_atom_site_fract_x
_atom_site_fract_y
_atom_site_fract_z
Si Si1 0.553461 0.284930 0.742864
Si Si2 0.239989 0.000321 0.177647
Si Si3 0.454759 0.128980 0.722069
Si Si4 0.945394 0.354911 0.260439
Si Si5 0.500000 0.557884 0.500000
O O1 0.500000 0.289262 0.500000
O O2 0.537332 0.204724 0.817467
O O3 0.335832 0.323175 0.831213
O O4 0.832817 0.318891 0.831348
O O5 0.441456 0.936938 0.201522
O O6 0.374696 0.071947 0.129271
O O7 0.166850 0.006437 0.395755
O O8 0.000000 0.983144 0.000000
O O9 0.500000 0.123307 0.500000
O O10 0.157939 0.108265 0.681730
O O11 0.000000 0.341794 0.500000
#
# Coordination Sequence:
#
# PCOD8049912 Si02
#       5
#     4   4   4   4   2
#     4   9  20  35  65  96 129 170 223 275 333 401
#     4  11  25  42  64  99 133 177 227 278 333 407
#     4   9  20  38  64  97 127 172 222 272 335 400
#     4  10  21  38  63  96 131 175 221 273 336 398
#     4  10  22  40  74  94 132 174 226 282 340 402
#
# _framework density 26.448767
#
# number of rings (size 3 to 8) (size 9 to 14) (size 15 to 20)
#    0.000    2.222    0.000    2.000   18.667    0.889 
#    0.000    2.222    0.000    0.000    0.000    0.000 
#    0.000    0.000    0.000    0.000    0.000    0.000 
#
# Total GULP energy -111584.710444 kJ/mol
# GULP energy per Si atom -12398.301160 kJ/mol
# Density = 2.638857 g / cm^3
# Si number density = 26.448767 Si / 1000 Ang^3
#
#
#
# Elastic Constant Matrix: (Units=GPa)
#
#
# Indices 1 2 3 4 5 6 
#
# 1 180.8814 83.9540 49.0591 0.0000 21.6528 0.0000
# 2 83.9540 216.2109 23.0842 0.0000 27.7778 0.0000
# 3 49.0591 23.0842 58.4707 0.0000 17.1590 0.0000
# 4 0.0000 0.0000 0.0000 -12.0502 0.0000 38.5338
# 5 21.6528 27.7778 17.1590 0.0000 48.3008 0.0000
# 6 0.0000 0.0000 0.0000 38.5338 0.0000 9.4440
#
#
#
# Elastic Compliance Matrix: (Units=1/GPa)
#
#
# Indices 1 2 3 4 5 6 
#
# 1 0.008364 -0.002594 -0.005951 0.000000 -0.000143 0.000000
# 2 -0.002594 0.005883 0.000564 0.000000 -0.002421 0.000000
# 3 -0.005951 0.000564 0.023651 0.000000 -0.006059 0.000000
# 4 0.000000 0.000000 0.000000 -0.005907 0.000000 0.024104
# 5 -0.000143 -0.002421 -0.006059 0.000000 0.024313 0.000000
# 6 0.000000 0.000000 0.000000 0.024104 0.000000 0.007538
#
#
# Mechanical properties :
#
#
# Convention : Reuss Voigt Hill
#
# Bulk Modulus (GPa) = 45.58711 85.30639 65.44675
# Shear Modulus (GPa) = 57.39568 29.10332 43.24950
#
# Velocity S-wave (km/s) = 4.66346 3.32077 4.04817
# Velocity P-wave (km/s) = 6.80224 6.85761 6.82998
#
# Compressibility (1/GPa) = 0.02193603
#
# Stress axis : x y z
#
# Youngs Moduli (GPa) = 119.56527 169.97930 42.28116
#
# Poissons Ratio (x) = 0.44088 0.25163
# Poissons Ratio (y) = 0.31012 -0.02385
# Poissons Ratio (z) = 0.71157 -0.09588
#
# Static dielectric constant tensor:
#      x y z
#    x 5.874170 0.000000 1.020390 
#    y 0.000000 4.856860 0.000000 
#    z 1.020390 0.000000 5.320120 
# 
# 
# High freq. dielectric constant tensor:
#      x y z
#    x 2.070210 0.000000 -0.000520 
#    y 0.000000 2.052390 0.000000 
#    z -0.000520 0.000000 2.073540 
# 
# From -- ./inp_files/11871.got.cif
#   From: 2010.03.12/outbox.cif.g09.slc.cpg/sg5_6_cif.got.tgz:11871.got - 2010.03.31 09:47:26.
