data_PCOD8049951
_publ_section_title
;
Structure prediction by ZEFSAII (Michael W. Deem and Ramdas Pophale) SiO2 
 PCOD8049951
Probable space group: C 2
;
_chemical_formula_sum "Si O2"
_cell_formula_units_Z 30
_cell_length_a 17.797190
_cell_length_b 15.519745
_cell_length_c 13.780145
_cell_angle_alpha 90.000000
_cell_angle_beta 23.436265
_cell_angle_gamma 90.000000
_cell_volume 1513.828698
_symmetry_space_group_name_H-M "C 2"
_symmetry_group_IT_number 5
_symmetry_cell_setting 'monoclinic'
loop_
_space_group_symop_operation_xyz
x,y,z
-x,y,-z
1/2+x,1/2+y,z
1/2-x,1/2+y,-z
loop_
_atom_site_type_symbol
_atom_site_label
_atom_site_fract_x
_atom_site_fract_y
_atom_site_fract_z
Si Si1 0.000000 0.325240 0.000000
Si Si2 0.222197 0.615056 0.630772
Si Si3 0.447714 0.854071 0.347558
Si Si4 0.416349 0.585825 0.697544
Si Si5 0.211688 0.748062 0.998377
Si Si6 0.300679 0.284857 0.210563
Si Si7 0.283316 0.246842 0.523767
Si Si8 0.581059 0.975348 0.049168
O O1 0.839922 0.260849 0.232766
O O2 0.084263 0.387718 0.982739
O O3 0.411030 0.561241 0.434749
O O4 0.203674 0.691225 0.731703
O O5 0.241114 0.653364 0.499306
O O6 0.042408 0.551686 0.852271
O O7 0.367808 0.846864 0.551431
O O8 0.281014 0.817948 0.477231
O O9 0.492768 0.951225 0.259456
O O10 0.641332 0.799391 0.108836
O O11 0.500000 0.629625 0.500000
O O12 0.274057 0.648528 0.922938
O O13 0.298711 0.502140 0.804412
O O14 0.003537 0.758866 0.289707
O O15 0.219197 0.781173 0.880054
O O16 0.500000 0.328799 0.000000
#
# Coordination Sequence:
#
# PCOD8049951 Si02
#       8
#     2   4   4   4   4   4   4   4
#     4  10  24  42  60  84 130 164 196 252 306 358
#     4  11  21  35  64  89 118 152 194 247 303 355
#     4  10  22  36  54  87 122 156 194 242 299 358
#     4  12  21  32  60  94 120 148 193 252 311 350
#     4  12  19  34  65  88 117 153 196 248 295 366
#     4  11  18  34  62  91 114 149 194 240 306 356
#     4  10  21  39  61  82 118 165 205 234 296 373
#     4  11  24  39  56  87 126 154 199 255 297 345
#
# _framework density 19.817301
#
# number of rings (size 3 to 8) (size 9 to 14) (size 15 to 20)
#    0.000    1.067    8.000    1.200    0.933    3.200 
#    0.000    2.000    1.467    0.000    0.000    0.000 
#    0.000    0.000    0.000    0.000    0.000    0.000 
#
# Total GULP energy -185898.552678 kJ/mol
# GULP energy per Si atom -12393.236845 kJ/mol
# Density = 1.977220 g / cm^3
# Si number density = 19.817301 Si / 1000 Ang^3
#
#
#
# Elastic Constant Matrix: (Units=GPa)
#
#
# Indices 1 2 3 4 5 6 
#
# 1 48.7518 19.5385 32.4371 -0.0054 -15.3019 0.0058
# 2 19.5385 49.3641 31.2496 -0.0100 2.8234 0.0120
# 3 32.4371 31.2496 134.9549 -0.0020 -10.3819 0.0083
# 4 -0.0054 -0.0100 -0.0020 27.8302 0.0008 3.9216
# 5 -15.3019 2.8234 -10.3819 0.0008 44.1228 -0.0068
# 6 0.0058 0.0120 0.0083 3.9216 -0.0068 24.2277
#
#
#
# Elastic Compliance Matrix: (Units=1/GPa)
#
#
# Indices 1 2 3 4 5 6 
#
# 1 0.030553 -0.009993 -0.004242 0.000002 0.010237 0.000002
# 2 -0.009993 0.027366 -0.004416 0.000010 -0.006256 -0.000013
# 3 -0.004242 -0.004416 0.009533 -0.000002 0.001055 0.000001
# 4 0.000002 0.000010 -0.000002 0.036771 -0.000002 -0.005952
# 5 0.010237 -0.006256 0.001055 -0.000002 0.026863 0.000008
# 6 0.000002 -0.000013 0.000001 -0.005952 0.000008 0.042238
#
#
# Mechanical properties :
#
#
# Convention : Reuss Voigt Hill
#
# Bulk Modulus (GPa) = 33.16781 44.39123 38.77952
# Shear Modulus (GPa) = 22.65761 29.22587 25.94174
#
# Velocity S-wave (km/s) = 3.38498 3.84443 3.62200
# Velocity P-wave (km/s) = 5.66132 6.49270 6.09121
#
# Compressibility (1/GPa) = 0.03014971
#
# Stress axis : x y z
#
# Youngs Moduli (GPa) = 32.73052 36.54121 104.89661
#
# Poissons Ratio (x) = 0.36515 0.44497
# Poissons Ratio (y) = 0.32707 0.46325
# Poissons Ratio (z) = 0.13884 0.16137
#
# Static dielectric constant tensor:
#      x y z
#    x 3.744140 -0.000020 -0.137900 
#    y -0.000020 3.387970 0.000010 
#    z -0.137900 0.000010 4.015530 
# 
# 
# High freq. dielectric constant tensor:
#      x y z
#    x 1.769650 0.000000 -0.021760 
#    y 0.000000 1.728930 0.000000 
#    z -0.021760 0.000000 1.780200 
# 
# From -- ./inp_files/57140.got.cif
#   From: 2010.03.12/outbox.cif.g09.slc.cpg/sg5_29_cif.got.tgz:57140.got - 2010.03.31 09:47:26.
