data_PCOD8049473
_publ_section_title
;
Structure prediction by ZEFSAII (Michael W. Deem and Ramdas Pophale) SiO2 
 PCOD8049473
Probable space group: C 2
;
_chemical_formula_sum "Si O2"
_cell_formula_units_Z 28
_cell_length_a 6.942939
_cell_length_b 12.092965
_cell_length_c 21.193325
_cell_angle_alpha 90.000000
_cell_angle_beta 49.395982
_cell_angle_gamma 90.000000
_cell_volume 1350.971310
_symmetry_space_group_name_H-M "C 2"
_symmetry_group_IT_number 5
_symmetry_cell_setting 'monoclinic'
loop_
_space_group_symop_operation_xyz
x,y,z
-x,y,-z
1/2+x,1/2+y,z
1/2-x,1/2+y,-z
loop_
_atom_site_type_symbol
_atom_site_label
_atom_site_fract_x
_atom_site_fract_y
_atom_site_fract_z
Si Si1 0.790681 0.090630 0.274959
Si Si2 0.000000 0.339233 0.500000
Si Si3 0.694280 0.621949 0.867151
Si Si4 0.769440 0.699458 0.212950
Si Si5 0.533467 0.250171 0.422997
Si Si6 0.500000 0.787425 0.000000
Si Si7 0.523036 0.372472 0.922409
Si Si8 0.527211 0.868920 0.350856
O O1 0.779182 0.153661 0.211314
O O2 0.622334 0.150850 0.361756
O O3 0.080523 0.098313 0.236576
O O4 0.681005 0.968480 0.286072
O O5 0.263097 0.275138 0.449814
O O6 0.023823 0.399437 0.426644
O O7 0.496089 0.707759 0.939592
O O8 0.607947 0.497945 0.897704
O O9 0.965312 0.638576 0.841210
O O10 0.777674 0.792438 0.156006
O O11 0.680182 0.757582 0.298081
O O12 0.500000 0.201378 0.500000
O O13 0.737980 0.352664 0.384808
O O14 0.747557 0.864209 0.948209
O O15 0.500000 0.337322 0.000000
#
# Coordination Sequence:
#
# PCOD8049473 Si02
#       8
#     4   2   4   4   4   2   4   4
#     4  11  22  39  63  90 119 161 195 245 303 347
#     4  10  20  40  60  86 120 162 192 248 300 340
#     4  11  22  41  62  90 119 160 200 242 302 354
#     4  10  23  42  61  88 123 153 203 248 290 357
#     4   9  21  40  60  86 123 154 202 247 288 356
#     4  10  24  42  62  88 122 156 202 246 294 356
#     4  11  22  42  63  88 122 158 197 250 295 352
#     4  10  21  39  60  90 121 155 202 245 293 357
#
# _framework density 20.725829000000001
#
# number of rings (size 3 to 8) (size 9 to 14) (size 15 to 20)
#    0.000    1.714    2.143    1.714    1.000    2.286 
#    7.714    0.000    0.000    0.000    0.000    0.000 
#    0.000    0.000    0.000    0.000    0.000    0.000 
#
# Total GULP energy -173464.995224 kJ/mol
# GULP energy per Si atom -12390.356802 kJ/mol
# Density = 2.067866 g / cm^3
# Si number density = 20.725829 Si / 1000 Ang^3
#
#
#
# Elastic Constant Matrix: (Units=GPa)
#
#
# Indices 1 2 3 4 5 6 
#
# 1 104.4247 51.2850 31.2334 0.0014 -15.9740 0.0032
# 2 51.2850 98.3753 37.3567 0.0012 -10.5211 0.0020
# 3 31.2334 37.3567 105.7785 0.0021 1.7448 0.0014
# 4 0.0014 0.0012 0.0021 -2.7595 -0.0015 -20.7685
# 5 -15.9740 -10.5211 1.7448 -0.0015 43.8053 -0.0025
# 6 0.0032 0.0020 0.0014 -20.7685 -0.0025 19.1595
#
#
#
# Elastic Compliance Matrix: (Units=1/GPa)
#
#
# Indices 1 2 3 4 5 6 
#
# 1 0.013661 -0.005982 -0.001981 0.000001 0.003624 0.000000
# 2 -0.005982 0.014763 -0.003472 0.000000 0.001503 0.000000
# 3 -0.001981 -0.003472 0.011298 0.000001 -0.002006 0.000001
# 4 0.000001 0.000000 0.000001 -0.039569 -0.000004 -0.042892
# 5 0.003624 0.001503 -0.002006 -0.000004 0.024591 -0.000001
# 6 0.000000 0.000000 0.000001 -0.042892 -0.000001 0.005699
#
#
# Mechanical properties :
#
#
# Convention : Reuss Voigt Hill
#
# Bulk Modulus (GPa) = 59.34086 60.92543 60.13314
# Shear Modulus (GPa) = 84.84768 24.62129 54.73448
#
# Velocity S-wave (km/s) = 6.40523 3.45041 5.14453
# Velocity P-wave (km/s) = 9.13215 6.73301 8.02277
#
# Compressibility (1/GPa) = 0.01685180
#
# Stress axis : x y z
#
# Youngs Moduli (GPa) = 73.20134 67.73754 88.51183
#
# Poissons Ratio (x) = 0.40520 0.17533
# Poissons Ratio (y) = 0.43789 0.30732
# Poissons Ratio (z) = 0.14500 0.23519
#
# Static dielectric constant tensor:
#      x y z
#    x 3.836860 0.000000 0.037330 
#    y 0.000000 3.400220 0.000000 
#    z 0.037330 0.000000 4.271310 
# 
# 
# High freq. dielectric constant tensor:
#      x y z
#    x 1.811430 0.000000 -0.002310 
#    y 0.000000 1.782040 0.000000 
#    z -0.002310 0.000000 1.843750 
# 
# From -- ./inp_files/63990.got.cif
#   From: 2010.03.12/outbox.cif.g09.slc.cpg/sg5_32_cif.got.tgz:63990.got - 2010.03.31 09:47:26.
