data_PCOD8049183
_publ_section_title
;
Structure prediction by ZEFSAII (Michael W. Deem and Ramdas Pophale) SiO2 
 PCOD8049183
Probable space group: C 2
;
_chemical_formula_sum "Si O2"
_cell_formula_units_Z 30
_cell_length_a 27.973829
_cell_length_b 8.501570
_cell_length_c 17.022120
_cell_angle_alpha 90.000000
_cell_angle_beta 157.964987
_cell_angle_gamma 90.000000
_cell_volume 1518.785393
_symmetry_space_group_name_H-M "C 2"
_symmetry_group_IT_number 5
_symmetry_cell_setting 'monoclinic'
loop_
_space_group_symop_operation_xyz
x,y,z
-x,y,-z
1/2+x,1/2+y,z
1/2-x,1/2+y,-z
loop_
_atom_site_type_symbol
_atom_site_label
_atom_site_fract_x
_atom_site_fract_y
_atom_site_fract_z
Si Si1 0.000000 0.197940 0.000000
Si Si2 0.966787 0.626886 0.064884
Si Si3 0.597406 0.486533 0.713932
Si Si4 0.903461 0.620041 0.286304
Si Si5 0.376296 0.621421 0.088769
Si Si6 0.623888 0.985143 0.913771
Si Si7 0.457715 0.474273 0.788661
Si Si8 0.823716 0.474711 0.714092
O O1 0.127391 0.304211 0.180119
O O2 0.035163 0.096115 0.129451
O O3 0.929834 0.587042 0.097156
O O4 0.012144 0.805797 0.128840
O O5 0.087041 0.519711 0.223687
O O6 0.848693 0.597388 0.824326
O O7 0.500000 0.534031 0.500000
O O8 0.595868 0.303518 0.733708
O O9 0.552359 0.586202 0.720775
O O10 0.732499 0.538236 0.884820
O O11 0.949205 0.526182 0.278382
O O12 0.000000 0.572454 0.500000
O O13 0.767848 0.566979 0.114294
O O14 0.389211 0.802778 0.084337
O O15 0.432660 0.515805 0.105932
O O16 0.321877 0.476314 0.536282
#
# Coordination Sequence:
#
# PCOD8049183 Si02
#       8
#     2   4   4   4   4   4   4   4
#     4  10  22  42  64  92 120 160 206 254 290 368
#     4  10  22  41  62  92 121 160 200 251 298 365
#     4   9  19  35  60  82 112 156 198 240 297 354
#     4   9  19  39  56  83 117 156 196 247 300 354
#     4  10  21  36  56  89 117 154 199 245 296 360
#     4  10  20  37  58  83 124 150 198 250 292 358
#     4  12  23  41  65  91 126 159 204 248 306 360
#     4  10  23  43  65  87 126 160 201 252 309 349
#
# _framework density 19.752627
#
# number of rings (size 3 to 8) (size 9 to 14) (size 15 to 20)
#    0.000    2.133    0.000    4.000    1.867    1.600 
#   12.000    0.000    0.000    0.000    0.000    0.000 
#    0.000    0.000    0.000    0.000    0.000    0.000 
#
# Total GULP energy -185963.319412 kJ/mol
# GULP energy per Si atom -12397.554627 kJ/mol
# Density = 1.970767 g / cm^3
# Si number density = 19.752627 Si / 1000 Ang^3
#
#
#
# Elastic Constant Matrix: (Units=GPa)
#
#
# Indices 1 2 3 4 5 6 
#
# 1 114.7431 32.0212 51.8282 0.0000 -11.1520 0.0000
# 2 32.0212 81.6096 44.6474 0.0000 -8.9503 0.0000
# 3 51.8282 44.6474 116.0853 0.0000 -27.4472 0.0000
# 4 0.0000 0.0000 0.0000 26.3004 0.0000 -8.8758
# 5 -11.1520 -8.9503 -27.4472 0.0000 20.8470 0.0000
# 6 0.0000 0.0000 0.0000 -8.8758 0.0000 37.6598
#
#
#
# Elastic Compliance Matrix: (Units=1/GPa)
#
#
# Indices 1 2 3 4 5 6 
#
# 1 0.011199 -0.002085 -0.004346 0.000000 -0.000627 0.000000
# 2 -0.002085 0.015950 -0.005588 0.000000 -0.001624 0.000000
# 3 -0.004346 -0.005588 0.016824 0.000000 0.017427 0.000000
# 4 0.000000 0.000000 0.000000 0.041308 0.000000 0.009736
# 5 -0.000627 -0.001624 0.017427 0.000000 0.069881 0.000000
# 6 0.000000 0.000000 0.000000 0.009736 0.000000 0.028848
#
#
# Mechanical properties :
#
#
# Convention : Reuss Voigt Hill
#
# Bulk Modulus (GPa) = 50.16138 63.27020 56.71579
# Shear Modulus (GPa) = 23.28892 29.22417 26.25654
#
# Velocity S-wave (km/s) = 3.43742 3.85061 3.64987
# Velocity P-wave (km/s) = 6.41907 7.20211 6.82183
#
# Compressibility (1/GPa) = 0.01993566
#
# Stress axis : x y z
#
# Youngs Moduli (GPa) = 89.29124 62.69400 59.43759
#
# Poissons Ratio (x) = 0.13073 0.25833
# Poissons Ratio (y) = 0.18619 0.33212
# Poissons Ratio (z) = 0.38808 0.35032
#
# Static dielectric constant tensor:
#      x y z
#    x 3.623400 0.000000 -0.162330 
#    y 0.000000 3.640080 0.000000 
#    z -0.162330 0.000000 3.637520 
# 
# 
# High freq. dielectric constant tensor:
#      x y z
#    x 1.777290 0.000000 -0.013200 
#    y 0.000000 1.773120 0.000000 
#    z -0.013200 0.000000 1.763900 
# 
# From -- ./inp_files/63812.got.cif
#   From: 2010.03.12/outbox.cif.g09.slc.cpg/sg5_32_cif.got.tgz:63812.got - 2010.03.31 09:47:26.
