data_PCOD8049579
_publ_section_title
;
Structure prediction by ZEFSAII (Michael W. Deem and Ramdas Pophale) SiO2 
 PCOD8049579
Probable space group: C 2
;
_chemical_formula_sum "Si O2"
_cell_formula_units_Z 24
_cell_length_a 20.003907
_cell_length_b 12.845012
_cell_length_c 14.933205
_cell_angle_alpha 90.000000
_cell_angle_beta 161.441419
_cell_angle_gamma 90.000000
_cell_volume 1221.247389
_symmetry_space_group_name_H-M "C 2"
_symmetry_group_IT_number 5
_symmetry_cell_setting 'monoclinic'
loop_
_space_group_symop_operation_xyz
x,y,z
-x,y,-z
1/2+x,1/2+y,z
1/2-x,1/2+y,-z
loop_
_atom_site_type_symbol
_atom_site_label
_atom_site_fract_x
_atom_site_fract_y
_atom_site_fract_z
Si Si1 0.916781 0.305960 0.170858
Si Si2 0.500000 0.065669 0.000000
Si Si3 0.737524 0.130124 0.822524
Si Si4 0.821405 0.390711 0.653451
Si Si5 0.841292 0.899681 0.007866
Si Si6 0.000000 0.219806 0.000000
Si Si7 0.793057 0.763826 0.781769
O O1 0.007743 0.378438 0.207891
O O2 0.095993 0.277498 0.468002
O O3 0.822087 0.200438 0.010590
O O4 0.733750 0.370136 0.987819
O O5 0.661130 0.139755 0.149060
O O6 0.632338 0.997640 0.237155
O O7 0.500000 0.162263 0.500000
O O8 0.874368 0.145379 0.907103
O O9 0.748854 0.011083 0.865715
O O10 0.591776 0.397930 0.320337
O O11 0.834775 0.292769 0.737540
O O12 0.748019 0.815076 0.820364
O O13 0.000000 0.817585 0.000000
#
# Coordination Sequence:
#
# PCOD8049579 Si02
#       7
#     4   2   4   4   4   2   4
#     4  11  23  41  61  87 120 155 197 242 290 347
#     4   9  20  37  66  84 118 155 198 239 296 342
#     4  11  24  40  60  90 119 154 198 239 294 350
#     4  10  20  41  61  89 115 157 196 242 291 346
#     4  12  24  37  64  86 123 154 195 242 295 347
#     4   9  22  39  64  82 120 157 196 243 288 342
#     4  10  21  40  58  87 115 156 194 236 291 341
#
# _framework density 19.652038000000001
#
# number of rings (size 3 to 8) (size 9 to 14) (size 15 to 20)
#    0.500    1.000    1.667    3.500    1.167    2.667 
#    0.000    1.667    0.000    0.000    0.000    0.000 
#    0.000    0.000    0.000    0.000    0.000    0.000 
#
# Total GULP energy -148828.734238 kJ/mol
# GULP energy per Si atom -12402.394520 kJ/mol
# Density = 1.960731 g / cm^3
# Si number density = 19.652038 Si / 1000 Ang^3
#
#
#
# Elastic Constant Matrix: (Units=GPa)
#
#
# Indices 1 2 3 4 5 6 
#
# 1 124.9173 66.2695 28.2697 -0.0025 -5.4076 -0.0007
# 2 66.2695 129.8420 36.1614 -0.0034 -6.8202 -0.0009
# 3 28.2697 36.1614 109.7741 -0.0019 -13.7995 -0.0007
# 4 -0.0025 -0.0034 -0.0019 21.0295 -0.0021 -7.6265
# 5 -5.4076 -6.8202 -13.7995 -0.0021 30.7367 -0.0005
# 6 -0.0007 -0.0009 -0.0007 -7.6265 -0.0005 29.3444
#
#
#
# Elastic Compliance Matrix: (Units=1/GPa)
#
#
# Indices 1 2 3 4 5 6 
#
# 1 0.011098 -0.005354 -0.001058 0.000000 0.000290 0.000000
# 2 -0.005354 0.011076 -0.002204 0.000001 0.000526 0.000000
# 3 -0.001058 -0.002204 0.010623 0.000001 0.004094 0.000001
# 4 0.000000 0.000001 0.000001 0.052501 0.000005 0.013645
# 5 0.000290 0.000526 0.004094 0.000005 0.034540 0.000002
# 6 0.000000 0.000000 0.000001 0.013645 0.000002 0.037624
#
#
# Mechanical properties :
#
#
# Convention : Reuss Voigt Hill
#
# Bulk Modulus (GPa) = 64.24723 69.54828 66.89776
# Shear Modulus (GPa) = 27.79626 31.81100 29.80363
#
# Velocity S-wave (km/s) = 3.76496 4.02769 3.89854
# Velocity P-wave (km/s) = 7.18772 7.55621 7.37427
#
# Compressibility (1/GPa) = 0.01556487
#
# Stress axis : x y z
#
# Youngs Moduli (GPa) = 90.10875 90.28731 94.13940
#
# Poissons Ratio (x) = 0.48343 0.09958
# Poissons Ratio (y) = 0.48247 0.20744
# Poissons Ratio (z) = 0.09531 0.19895
#
# Static dielectric constant tensor:
#      x y z
#    x 3.711610 0.000000 -0.056400 
#    y 0.000000 3.486120 0.000000 
#    z -0.056400 0.000000 3.595330 
# 
# 
# High freq. dielectric constant tensor:
#      x y z
#    x 1.767760 0.000000 -0.004630 
#    y 0.000000 1.763830 0.000000 
#    z -0.004630 0.000000 1.778140 
# 
# From -- ./inp_files/57036.got.cif
#   From: 2010.03.12/outbox.cif.g09.slc.cpg/sg5_29_cif.got.tgz:57036.got - 2010.03.31 09:47:26.
