data_PCOD8049080
_publ_section_title
;
Structure prediction by ZEFSAII (Michael W. Deem and Ramdas Pophale) SiO2 
 PCOD8049080
Probable space group: C 2
;
_chemical_formula_sum "Si O2"
_cell_formula_units_Z 24
_cell_length_a 13.816219
_cell_length_b 8.794823
_cell_length_c 18.442760
_cell_angle_alpha 90.000000
_cell_angle_beta 31.771854
_cell_angle_gamma 90.000000
_cell_volume 1179.973180
_symmetry_space_group_name_H-M "C 2"
_symmetry_group_IT_number 5
_symmetry_cell_setting 'monoclinic'
loop_
_space_group_symop_operation_xyz
x,y,z
-x,y,-z
1/2+x,1/2+y,z
1/2-x,1/2+y,-z
loop_
_atom_site_type_symbol
_atom_site_label
_atom_site_fract_x
_atom_site_fract_y
_atom_site_fract_z
Si Si1 0.000000 0.135950 0.000000
Si Si2 0.898536 0.941006 0.348899
Si Si3 0.194426 0.589063 0.602649
Si Si4 0.542931 0.944625 0.129682
Si Si5 0.500000 0.444390 0.500000
Si Si6 0.927101 0.084206 0.891433
Si Si7 0.236046 0.881141 0.224636
O O1 0.038495 0.034048 0.046632
O O2 0.817587 0.236742 0.130765
O O3 0.853983 0.764345 0.373233
O O4 0.098592 0.970638 0.258800
O O5 0.733577 0.022797 0.497454
O O6 0.911717 0.012159 0.260319
O O7 0.373244 0.561476 0.537023
O O8 0.024372 0.503196 0.749157
O O9 0.567687 0.764632 0.117868
O O10 0.403160 0.983065 0.151732
O O11 0.732193 0.023752 0.988163
O O12 0.614170 0.333923 0.373314
#
# Coordination Sequence:
#
# PCOD8049080 Si02
#       7
#     2   4   4   4   2   4   4
#     4  10  20  36  54  82 114 148 190 230 274 330
#     4  11  21  37  60  85 113 149 187 232 281 333
#     4  10  20  37  58  85 116 147 186 231 277 335
#     4  10  20  37  59  84 113 148 187 229 276 334
#     4   8  18  34  56  84 114 146 184 224 278 334
#     4  11  22  37  57  82 113 150 190 234 280 329
#     4   9  18  35  59  81 111 151 185 219 276 352
#
# _framework density 20.339445999999999
#
# number of rings (size 3 to 8) (size 9 to 14) (size 15 to 20)
#    0.000    2.000    0.000    5.000    0.000    1.333 
#    0.000   11.667    0.000    1.000    0.000    0.000 
#    0.000    0.000    0.000    0.000    0.000    0.000 
#
# Total GULP energy -148721.508431 kJ/mol
# GULP energy per Si atom -12393.459036 kJ/mol
# Density = 2.029315 g / cm^3
# Si number density = 20.339446 Si / 1000 Ang^3
#
#
#
# Elastic Constant Matrix: (Units=GPa)
#
#
# Indices 1 2 3 4 5 6 
#
# 1 63.8863 33.3026 41.3474 0.0000 25.5813 0.0000
# 2 33.3026 108.4225 48.2830 -0.0008 9.4832 0.0002
# 3 41.3474 48.2830 124.0461 -0.0018 30.6494 0.0007
# 4 0.0000 -0.0008 -0.0018 38.4643 0.0004 5.5418
# 5 25.5813 9.4832 30.6494 0.0004 38.0409 -0.0001
# 6 0.0000 0.0002 0.0007 5.5418 -0.0001 20.0325
#
#
#
# Elastic Compliance Matrix: (Units=1/GPa)
#
#
# Indices 1 2 3 4 5 6 
#
# 1 0.025939 -0.005349 -0.003226 0.000000 -0.013510 0.000000
# 2 -0.005349 0.012285 -0.003909 0.000000 0.003684 0.000000
# 3 -0.003226 -0.003909 0.012338 0.000001 -0.006797 -0.000001
# 4 0.000000 0.000000 0.000001 0.027077 -0.000001 -0.007491
# 5 -0.013510 0.003684 -0.006797 -0.000001 0.039931 0.000001
# 6 0.000000 0.000000 -0.000001 -0.007491 0.000001 0.051991
#
#
# Mechanical properties :
#
#
# Convention : Reuss Voigt Hill
#
# Bulk Modulus (GPa) = 39.07238 60.24678 49.65958
# Shear Modulus (GPa) = 24.62347 30.86901 27.74624
#
# Velocity S-wave (km/s) = 3.48318 3.89998 3.69746
# Velocity P-wave (km/s) = 5.95219 7.06858 6.53427
#
# Compressibility (1/GPa) = 0.02559353
#
# Stress axis : x y z
#
# Youngs Moduli (GPa) = 38.55243 81.40232 81.05346
#
# Poissons Ratio (x) = 0.43542 0.26146
# Poissons Ratio (y) = 0.20622 0.31683
# Poissons Ratio (z) = 0.12436 0.31819
#
# Static dielectric constant tensor:
#      x y z
#    x 4.034400 0.000000 0.157350 
#    y 0.000000 3.253020 0.000000 
#    z 0.157350 0.000000 4.260240 
# 
# 
# High freq. dielectric constant tensor:
#      x y z
#    x 1.795120 0.000000 0.010520 
#    y 0.000000 1.750200 0.000000 
#    z 0.010520 0.000000 1.827070 
# 
# From -- ./inp_files/22818.got.cif
#   From: 2010.03.12/outbox.cif.g09.slc.cpg/sg5_12_cif.got.tgz:22818.got - 2010.03.31 09:47:26.
