data_PCOD8049243
_publ_section_title
;
Structure prediction by ZEFSAII (Michael W. Deem and Ramdas Pophale) SiO2 
 PCOD8049243
Probable space group: C 2
;
_chemical_formula_sum "Si O2"
_cell_formula_units_Z 32
_cell_length_a 11.792648
_cell_length_b 14.404396
_cell_length_c 16.914771
_cell_angle_alpha 90.000000
_cell_angle_beta 32.345834
_cell_angle_gamma 90.000000
_cell_volume 1537.267000
_symmetry_space_group_name_H-M "C 2"
_symmetry_group_IT_number 5
_symmetry_cell_setting 'monoclinic'
loop_
_space_group_symop_operation_xyz
x,y,z
-x,y,-z
1/2+x,1/2+y,z
1/2-x,1/2+y,-z
loop_
_atom_site_type_symbol
_atom_site_label
_atom_site_fract_x
_atom_site_fract_y
_atom_site_fract_z
Si Si1 0.517608 0.163440 0.684746
Si Si2 0.703466 0.406393 0.832204
Si Si3 0.311550 0.591108 0.245028
Si Si4 0.201672 0.697396 0.828085
Si Si5 0.745803 0.547882 0.337480
Si Si6 0.484918 0.871878 0.210697
Si Si7 0.634874 0.736788 0.996250
Si Si8 0.842068 0.202174 0.372451
O O1 0.364206 0.137211 0.704997
O O2 0.629345 0.074098 0.656606
O O3 0.711267 0.219086 0.529995
O O4 0.382484 0.221105 0.828824
O O5 0.709105 0.480420 0.756861
O O6 0.683471 0.303348 0.807253
O O7 0.894823 0.410478 0.782610
O O8 0.500000 0.437334 0.000000
O O9 0.536780 0.639839 0.088397
O O10 0.264790 0.613914 0.364968
O O11 0.216892 0.629804 0.745642
O O12 0.409730 0.686329 0.758183
O O13 0.000000 0.670853 0.000000
O O14 0.500000 0.532119 0.500000
O O15 0.853470 0.452760 0.244089
O O16 0.639839 0.820825 0.056753
O O17 0.312220 0.795479 0.339014
O O18 0.500000 0.769835 0.000000
#
# Coordination Sequence:
#
# PCOD8049243 Si02
#       8
#     4   4   4   4   4   4   4   4
#     4  11  21  39  65  96 129 167 212 275 333 384
#     4  10  20  37  62  94 122 161 219 272 326 378
#     4  10  20  38  67  95 121 165 216 272 325 385
#     4  10  24  42  63  90 133 177 218 268 326 402
#     4  12  25  42  65  93 137 177 213 267 345 391
#     4  10  23  41  65  90 127 171 216 266 325 398
#     4   9  21  38  66  97 124 162 220 269 330 385
#     4  10  22  42  65  94 127 172 219 268 332 388
#
# _framework density 20.816161000000001
#
# number of rings (size 3 to 8) (size 9 to 14) (size 15 to 20)
#    0.000    1.750    2.500    1.500    7.000    3.500 
#    0.000    2.500    2.750    0.000    0.000    0.000 
#    0.000    0.000    0.000    0.000    0.000    0.000 
#
# Total GULP energy -198294.855688 kJ/mol
# GULP energy per Si atom -12393.428480 kJ/mol
# Density = 2.076878 g / cm^3
# Si number density = 20.816161 Si / 1000 Ang^3
#
#
#
# Elastic Constant Matrix: (Units=GPa)
#
#
# Indices 1 2 3 4 5 6 
#
# 1 64.4003 42.6706 30.7068 -0.0077 -1.1354 0.0177
# 2 42.6706 130.6630 51.3656 0.0101 7.7916 0.0446
# 3 30.7068 51.3656 139.7399 0.0148 1.4135 0.1661
# 4 -0.0077 0.0101 0.0148 17.7002 0.0130 -1.6686
# 5 -1.1354 7.7916 1.4135 0.0130 29.7512 -0.0415
# 6 0.0177 0.0446 0.1661 -1.6686 -0.0415 -6.0726
#
#
#
# Elastic Compliance Matrix: (Units=1/GPa)
#
#
# Indices 1 2 3 4 5 6 
#
# 1 0.020650 -0.005958 -0.002373 0.000006 0.002461 -0.000067
# 2 -0.005958 0.010809 -0.002635 -0.000003 -0.002933 0.000011
# 3 -0.002373 -0.002635 0.008644 0.000012 0.000189 0.000205
# 4 0.000006 -0.000003 0.000012 0.055070 -0.000045 -0.015131
# 5 0.002461 -0.002933 0.000189 -0.000045 0.034465 -0.000233
# 6 -0.000067 0.000011 0.000205 -0.015131 -0.000233 -0.160508
#
#
# Mechanical properties :
#
#
# Convention : Reuss Voigt Hill
#
# Bulk Modulus (GPa) = 55.02477 64.92102 59.97289
# Shear Modulus (GPa) = -1734.53760 22.27976 -856.12892
#
# Velocity S-wave (km/s) = -28.89764 3.27511 -20.30206
# Velocity P-wave (km/s) = 32.96878 6.74961 22.81867
#
# Compressibility (1/GPa) = 0.01817363
#
# Stress axis : x y z
#
# Youngs Moduli (GPa) = 48.42603 92.51152 115.69048
#
# Poissons Ratio (x) = 0.55116 0.27448
# Poissons Ratio (y) = 0.28851 0.30479
# Poissons Ratio (z) = 0.11489 0.24372
#
# Static dielectric constant tensor:
#      x y z
#    x 4.034960 0.000010 0.167240 
#    y 0.000010 3.747980 0.000040 
#    z 0.167240 0.000040 4.113820 
# 
# 
# High freq. dielectric constant tensor:
#      x y z
#    x 1.815380 0.000000 -0.008810 
#    y 0.000000 1.801440 0.000000 
#    z -0.008810 0.000000 1.814810 
# 
# From -- ./inp_files/60680.got.cif
#   From: 2010.03.12/outbox.cif.g09.slc.cpg/sg5_31_cif.got.tgz:60680.got - 2010.03.31 09:47:26.
