data_PCOD8049685
_publ_section_title
;
Structure prediction by ZEFSAII (Michael W. Deem and Ramdas Pophale) SiO2 
 PCOD8049685
Probable space group: C 2
;
_chemical_formula_sum "Si O2"
_cell_formula_units_Z 18
_cell_length_a 17.837858
_cell_length_b 10.863804
_cell_length_c 7.921837
_cell_angle_alpha 90.000000
_cell_angle_beta 31.677232
_cell_angle_gamma 90.000000
_cell_volume 806.158179
_symmetry_space_group_name_H-M "C 2"
_symmetry_group_IT_number 5
_symmetry_cell_setting 'monoclinic'
loop_
_space_group_symop_operation_xyz
x,y,z
-x,y,-z
1/2+x,1/2+y,z
1/2-x,1/2+y,-z
loop_
_atom_site_type_symbol
_atom_site_label
_atom_site_fract_x
_atom_site_fract_y
_atom_site_fract_z
Si Si1 0.058550 0.559490 0.570461
Si Si2 0.000000 0.197239 0.500000
Si Si3 0.881981 0.837099 0.532026
Si Si4 0.850665 0.975687 0.917407
Si Si5 0.929248 0.344240 0.967602
O O1 0.047847 0.703838 0.621475
O O2 0.961743 0.490093 0.893144
O O3 0.000000 0.523921 0.500000
O O4 0.216630 0.499829 0.293507
O O5 0.996886 0.278361 0.335840
O O6 0.866407 0.103351 0.780352
O O7 0.827279 0.863824 0.828810
O O8 0.006157 0.938177 0.248986
O O9 0.741880 0.835717 0.684134
O O10 0.000000 0.286995 0.000000
#
# Coordination Sequence:
#
# PCOD8049685 Si02
#       5
#     4   2   4   4   4
#     4  12  21  39  69  95 128 170 217 265 322 384
#     4  10  20  42  72  90 134 172 212 268 324 380
#     4  10  21  41  61  97 132 162 221 266 316 387
#     4  10  21  38  71 100 119 177 218 259 336 382
#     4  12  25  43  66  99 133 174 218 264 323 388
#
# _framework density 22.328123000000001
#
# number of rings (size 3 to 8) (size 9 to 14) (size 15 to 20)
#    0.000    1.333    7.778    0.000    0.000    0.000 
#    8.000    1.111    0.000    1.333    0.000    0.000 
#    0.000    0.000    0.000    0.000    0.000    0.000 
#
# Total GULP energy -111493.224085 kJ/mol
# GULP energy per Si atom -12388.136009 kJ/mol
# Density = 2.227730 g / cm^3
# Si number density = 22.328123 Si / 1000 Ang^3
#
#
#
# Elastic Constant Matrix: (Units=GPa)
#
#
# Indices 1 2 3 4 5 6 
#
# 1 127.2454 31.2583 35.8116 0.0000 -18.5407 0.0000
# 2 31.2583 132.0684 25.9165 0.0000 1.1300 0.0000
# 3 35.8116 25.9165 67.7378 0.0000 -27.0169 0.0000
# 4 0.0000 0.0000 0.0000 32.2954 0.0000 -9.6225
# 5 -18.5407 1.1300 -27.0169 0.0000 36.3415 0.0000
# 6 0.0000 0.0000 0.0000 -9.6225 0.0000 11.4345
#
#
#
# Elastic Compliance Matrix: (Units=1/GPa)
#
#
# Indices 1 2 3 4 5 6 
#
# 1 0.009582 -0.001594 -0.003534 0.000000 0.002311 0.000000
# 2 -0.001594 0.008811 -0.004211 0.000000 -0.004218 0.000000
# 3 -0.003534 -0.004211 0.024983 0.000000 0.016901 0.000000
# 4 0.000000 0.000000 0.000000 0.041326 0.000000 0.034777
# 5 0.002311 -0.004218 0.016901 0.000000 0.041391 0.000000
# 6 0.000000 0.000000 0.000000 0.034777 0.000000 0.116721
#
#
# Mechanical properties :
#
#
# Convention : Reuss Voigt Hill
#
# Bulk Modulus (GPa) = 40.48848 57.00271 48.74559
# Shear Modulus (GPa) = 18.53742 31.61861 25.07802
#
# Velocity S-wave (km/s) = 2.88449 3.76718 3.35499
# Velocity P-wave (km/s) = 5.40985 6.67137 6.07345
#
# Compressibility (1/GPa) = 0.02469838
#
# Stress axis : x y z
#
# Youngs Moduli (GPa) = 104.36508 113.48813 40.02713
#
# Poissons Ratio (x) = 0.18091 0.14146
# Poissons Ratio (y) = 0.16636 0.16854
# Poissons Ratio (z) = 0.36885 0.47786
#
# Static dielectric constant tensor:
#      x y z
#    x 3.704410 0.000000 -0.322670 
#    y 0.000000 4.212910 0.000000 
#    z -0.322670 0.000000 4.042820 
# 
# 
# High freq. dielectric constant tensor:
#      x y z
#    x 1.830750 0.000000 -0.031280 
#    y 0.000000 1.895720 0.000000 
#    z -0.031280 0.000000 1.872620 
# 
# From -- ./inp_files/27379.got.cif
#   From: 2010.03.12/outbox.cif.g09.slc.cpg/sg5_14_cif.got.tgz:27379.got - 2010.03.31 09:47:26.
