data_PCOD8049212
_publ_section_title
;
Structure prediction by ZEFSAII (Michael W. Deem and Ramdas Pophale) SiO2 
 PCOD8049212
Probable space group: C 2
;
_chemical_formula_sum "Si O2"
_cell_formula_units_Z 28
_cell_length_a 9.673417
_cell_length_b 30.604798
_cell_length_c 4.975046
_cell_angle_alpha 90.000000
_cell_angle_beta 64.680804
_cell_angle_gamma 90.000000
_cell_volume 1331.391578
_symmetry_space_group_name_H-M "C 2"
_symmetry_group_IT_number 5
_symmetry_cell_setting 'monoclinic'
loop_
_space_group_symop_operation_xyz
x,y,z
-x,y,-z
1/2+x,1/2+y,z
1/2-x,1/2+y,-z
loop_
_atom_site_type_symbol
_atom_site_label
_atom_site_fract_x
_atom_site_fract_y
_atom_site_fract_z
Si Si1 0.180617 0.175190 0.864462
Si Si2 0.826426 0.380912 0.716927
Si Si3 0.679643 0.524469 0.296296
Si Si4 0.898551 0.749413 0.812706
Si Si5 0.831703 0.845318 0.651867
Si Si6 0.318774 0.621817 0.645163
Si Si7 0.321401 0.982204 0.661990
O O1 0.248044 0.219564 0.938400
O O2 0.241067 0.156436 0.528862
O O3 0.235294 0.137558 0.020076
O O4 0.000000 0.183140 0.000000
O O5 0.729079 0.349579 0.601520
O O6 0.786994 0.431614 0.735978
O O7 0.000000 0.371104 0.500000
O O8 0.787293 0.369476 0.056012
O O9 0.500000 0.521353 0.500000
O O10 0.742012 0.572370 0.332939
O O11 0.761135 0.489554 0.414180
O O12 0.728269 0.512373 0.951016
O O13 0.845983 0.796163 0.746065
O O14 0.000000 0.726410 0.500000
O O15 0.000000 0.752607 0.000000
O O16 0.000000 0.867211 0.500000
O O17 0.500000 0.620600 0.500000
O O18 0.500000 0.993431 0.500000
#
# Coordination Sequence:
#
# PCOD8049212 Si02
#       7
#     4   4   4   4   4   4   4
#     4  10  20  37  61  86 114 154 199 241 290 352
#     4  11  24  41  62  88 121 158 199 249 301 355
#     4  11  22  39  64  89 117 159 207 248 291 355
#     4  11  23  41  60  86 123 156 189 243 306 355
#     4  11  23  41  63  88 120 158 198 246 302 358
#     4   9  19  36  58  86 118 150 194 251 296 334
#     4  11  24  41  59  87 126 159 192 248 311 355
#
# _framework density 21.030626000000002
#
# number of rings (size 3 to 8) (size 9 to 14) (size 15 to 20)
#    0.000    1.429    0.000    6.000    0.000    9.143 
#    0.000    8.571    0.000    0.000    0.000    0.000 
#    0.000    0.000    0.000    0.000    0.000    0.000 
#
# Total GULP energy -173496.458540 kJ/mol
# GULP energy per Si atom -12392.604181 kJ/mol
# Density = 2.098276 g / cm^3
# Si number density = 21.030626 Si / 1000 Ang^3
#
#
#
# Elastic Constant Matrix: (Units=GPa)
#
#
# Indices 1 2 3 4 5 6 
#
# 1 86.8041 40.6333 21.5514 0.0000 7.2574 0.0000
# 2 40.6333 94.4331 22.9132 0.0000 -5.5017 0.0000
# 3 21.5514 22.9132 97.8536 0.0000 3.3803 0.0000
# 4 0.0000 0.0000 0.0000 23.6239 0.0000 8.5108
# 5 7.2574 -5.5017 3.3803 0.0000 36.1913 0.0000
# 6 0.0000 0.0000 0.0000 8.5108 0.0000 32.0244
#
#
#
# Elastic Compliance Matrix: (Units=1/GPa)
#
#
# Indices 1 2 3 4 5 6 
#
# 1 0.015255 -0.006368 -0.001735 0.000000 -0.003865 0.000000
# 2 -0.006368 0.014026 -0.002006 0.000000 0.003597 0.000000
# 3 -0.001735 -0.002006 0.011106 0.000000 -0.000994 0.000000
# 4 0.000000 0.000000 0.000000 0.046812 0.000000 -0.012441
# 5 -0.003865 0.003597 -0.000994 0.000000 0.029046 0.000000
# 6 0.000000 0.000000 0.000000 -0.012441 0.000000 0.034532
#
#
# Mechanical properties :
#
#
# Convention : Reuss Voigt Hill
#
# Bulk Modulus (GPa) = 49.58363 49.92073 49.75218
# Shear Modulus (GPa) = 28.13445 31.30076 29.71761
#
# Velocity S-wave (km/s) = 3.66154 3.86209 3.76315
# Velocity P-wave (km/s) = 6.44235 6.60881 6.52611
#
# Compressibility (1/GPa) = 0.02016795
#
# Stress axis : x y z
#
# Youngs Moduli (GPa) = 65.55179 71.29643 90.04507
#
# Poissons Ratio (x) = 0.45403 0.15624
# Poissons Ratio (y) = 0.41745 0.18063
# Poissons Ratio (z) = 0.11374 0.14302
#
# Static dielectric constant tensor:
#      x y z
#    x 3.733920 0.000000 0.058930 
#    y 0.000000 3.773030 0.000000 
#    z 0.058930 0.000000 4.135230 
# 
# 
# High freq. dielectric constant tensor:
#      x y z
#    x 1.821080 0.000000 0.011290 
#    y 0.000000 1.828060 0.000000 
#    z 0.011290 0.000000 1.836490 
# 
# From -- ./inp_files/3875.got.cif
#   From: 2010.03.12/outbox.cif.g09.slc.cpg/sg5_2_cif.got.tgz:3875.got - 2010.03.31 09:47:26.
