data_PCOD8049131
_publ_section_title
;
Structure prediction by ZEFSAII (Michael W. Deem and Ramdas Pophale) SiO2 
 PCOD8049131
Probable space group: C 2
;
_chemical_formula_sum "Si O2"
_cell_formula_units_Z 22
_cell_length_a 15.915315
_cell_length_b 8.030398
_cell_length_c 8.846747
_cell_angle_alpha 90.000000
_cell_angle_beta 71.665704
_cell_angle_gamma 90.000000
_cell_volume 1073.274321
_symmetry_space_group_name_H-M "C 2"
_symmetry_group_IT_number 5
_symmetry_cell_setting 'monoclinic'
loop_
_space_group_symop_operation_xyz
x,y,z
-x,y,-z
1/2+x,1/2+y,z
1/2-x,1/2+y,-z
loop_
_atom_site_type_symbol
_atom_site_label
_atom_site_fract_x
_atom_site_fract_y
_atom_site_fract_z
Si Si1 0.369628 0.282330 0.994559
Si Si2 0.500000 0.224338 0.500000
Si Si3 0.818284 0.404470 0.969178
Si Si4 0.948332 0.891878 0.244842
Si Si5 0.464324 0.907152 0.671958
Si Si6 0.076376 0.248675 0.840741
O O1 0.448174 0.372109 0.858139
O O2 0.352052 0.092983 0.961066
O O3 0.284465 0.396480 0.009209
O O4 0.390246 0.282420 0.162135
O O5 0.437249 0.334467 0.426119
O O6 0.443560 0.101090 0.642210
O O7 0.875933 0.326784 0.796351
O O8 0.836944 0.306913 0.115822
O O9 0.910289 0.079718 0.261690
O O10 0.500000 0.812359 0.500000
O O11 0.544263 0.897271 0.748725
O O12 0.000000 0.203194 0.000000
#
# Coordination Sequence:
#
# PCOD8049131 Si02
#       6
#     4   2   4   4   4   4
#     4  11  22  38  61  91 123 155 210 247 302 350
#     4  10  20  38  62  86 120 162 202 236 304 368
#     4  11  22  38  64  92 121 156 202 262 291 357
#     4  11  22  39  61  90 122 162 201 248 301 367
#     4   9  20  37  60  87 121 159 197 236 310 360
#     4  10  20  36  62  89 119 152 204 245 302 349
#
# _framework density 20.49802
#
# number of rings (size 3 to 8) (size 9 to 14) (size 15 to 20)
#    0.545    1.091    3.636    2.182    8.909    0.000 
#    0.000    1.818    0.000    0.000    0.000    0.000 
#    0.000    0.000    0.000    0.000    0.000    0.000 
#
# Total GULP energy -136272.511884 kJ/mol
# GULP energy per Si atom -12388.410171 kJ/mol
# Density = 2.045137 g / cm^3
# Si number density = 20.498020 Si / 1000 Ang^3
#
#
#
# Elastic Constant Matrix: (Units=GPa)
#
#
# Indices 1 2 3 4 5 6 
#
# 1 137.0108 30.9057 50.0634 0.0000 15.1225 0.0000
# 2 30.9057 92.1459 41.1362 0.0000 9.5932 0.0000
# 3 50.0634 41.1362 101.0698 0.0000 28.6725 0.0000
# 4 0.0000 0.0000 0.0000 34.1792 0.0000 13.3775
# 5 15.1225 9.5932 28.6725 0.0000 24.4523 0.0000
# 6 0.0000 0.0000 0.0000 13.3775 0.0000 32.3266
#
#
#
# Elastic Compliance Matrix: (Units=1/GPa)
#
#
# Indices 1 2 3 4 5 6 
#
# 1 0.009037 -0.001281 -0.003765 0.000000 -0.000672 0.000000
# 2 -0.001281 0.013490 -0.005364 0.000000 0.001789 0.000000
# 3 -0.003765 -0.005364 0.019007 0.000000 -0.017855 0.000000
# 4 0.000000 0.000000 0.000000 0.034912 0.000000 -0.014448
# 5 -0.000672 0.001789 -0.017855 0.000000 0.061547 0.000000
# 6 0.000000 0.000000 0.000000 -0.014448 0.000000 0.036913
#
#
# Mechanical properties :
#
#
# Convention : Reuss Voigt Hill
#
# Bulk Modulus (GPa) = 48.26949 63.82633 56.04791
# Shear Modulus (GPa) = 24.67548 32.06636 28.37092
#
# Velocity S-wave (km/s) = 3.47334 3.95949 3.72436
# Velocity P-wave (km/s) = 6.29960 7.21865 6.77473
#
# Compressibility (1/GPa) = 0.02071702
#
# Stress axis : x y z
#
# Youngs Moduli (GPa) = 110.65227 74.12820 52.61128
#
# Poissons Ratio (x) = 0.09492 0.19806
# Poissons Ratio (y) = 0.14169 0.28220
# Poissons Ratio (z) = 0.41655 0.39761
#
# Static dielectric constant tensor:
#      x y z
#    x 3.608740 0.000000 0.338700 
#    y 0.000000 3.621980 0.000000 
#    z 0.338700 0.000000 3.872900 
# 
# 
# High freq. dielectric constant tensor:
#      x y z
#    x 1.773760 0.000000 0.032320 
#    y 0.000000 1.800900 0.000000 
#    z 0.032320 0.000000 1.795550 
# 
# From -- ./inp_files/22765.got.cif
#   From: 2010.03.12/outbox.cif.g09.slc.cpg/sg5_12_cif.got.tgz:22765.got - 2010.03.31 09:47:26.
