data_PCOD8049309
_publ_section_title
;
Structure prediction by ZEFSAII (Michael W. Deem and Ramdas Pophale) SiO2 
 PCOD8049309
Probable space group: C 2
;
_chemical_formula_sum "Si O2"
_cell_formula_units_Z 32
_cell_length_a 8.584803
_cell_length_b 27.514460
_cell_length_c 13.963660
_cell_angle_alpha 90.000000
_cell_angle_beta 28.854971
_cell_angle_gamma 90.000000
_cell_volume 1591.742065
_symmetry_space_group_name_H-M "C 2"
_symmetry_group_IT_number 5
_symmetry_cell_setting 'monoclinic'
loop_
_space_group_symop_operation_xyz
x,y,z
-x,y,-z
1/2+x,1/2+y,z
1/2-x,1/2+y,-z
loop_
_atom_site_type_symbol
_atom_site_label
_atom_site_fract_x
_atom_site_fract_y
_atom_site_fract_z
Si Si1 0.849531 0.184010 0.351146
Si Si2 0.707387 0.349820 0.223087
Si Si3 0.288022 0.004726 0.206150
Si Si4 0.255808 0.185148 0.941475
Si Si5 0.741049 0.935480 0.453898
Si Si6 0.702898 0.111661 0.795451
Si Si7 0.369553 0.921009 0.287811
Si Si8 0.796639 0.758918 0.407643
O O1 0.500000 0.170121 0.500000
O O2 0.836480 0.229044 0.430727
O O3 0.967123 0.138462 0.351348
O O4 0.084190 0.197791 0.135528
O O5 0.504406 0.394135 0.286266
O O6 0.875897 0.368724 0.231256
O O7 0.467947 0.304897 0.365539
O O8 0.000000 0.333026 0.000000
O O9 0.234012 0.058009 0.282604
O O10 0.502117 0.966953 0.155741
O O11 0.500000 0.012930 0.000000
O O12 0.933313 0.984954 0.370903
O O13 0.515598 0.142420 0.815593
O O14 0.442283 0.231777 0.799468
O O15 0.000000 0.167241 0.000000
O O16 0.500000 0.946227 0.500000
O O17 0.506047 0.918436 0.669779
O O18 0.500000 0.107718 0.000000
O O19 0.000000 0.936730 0.500000
O O20 0.500000 0.775578 0.500000
#
# Coordination Sequence:
#
# PCOD8049309 Si02
#       8
#     4   4   4   4   4   4   4   4
#     4  11  23  39  61  85 125 166 207 268 313 370
#     4  10  21  39  61  86 117 158 206 249 315 384
#     4   9  17  36  61  85 118 162 197 247 312 368
#     4  11  22  42  59  89 125 167 218 263 318 376
#     4  10  20  38  60  89 124 156 199 261 305 376
#     4   9  20  38  60  86 124 166 211 257 314 375
#     4   8  17  36  57  85 116 151 193 242 304 368
#     4  12  24  41  63  92 119 166 212 266 324 374
#
# _framework density 20.103760999999999
#
# number of rings (size 3 to 8) (size 9 to 14) (size 15 to 20)
#    0.000    2.250    2.500    2.250    0.000    2.000 
#    6.750    6.250    2.750    0.000    0.000    0.000 
#    0.000    0.000    0.000    0.000    0.000    0.000 
#
# Total GULP energy -198229.486329 kJ/mol
# GULP energy per Si atom -12389.342896 kJ/mol
# Density = 2.005800 g / cm^3
# Si number density = 20.103761 Si / 1000 Ang^3
#
#
#
# Elastic Constant Matrix: (Units=GPa)
#
#
# Indices 1 2 3 4 5 6 
#
# 1 132.1742 48.2041 36.5228 0.0000 -0.0338 0.0000
# 2 48.2041 140.3099 34.1765 0.0000 1.9467 0.0000
# 3 36.5228 34.1765 68.8839 0.0000 9.6724 0.0000
# 4 0.0000 0.0000 0.0000 8.9040 0.0000 -11.7814
# 5 -0.0338 1.9467 9.6724 0.0000 28.0245 0.0000
# 6 0.0000 0.0000 0.0000 -11.7814 0.0000 7.7401
#
#
#
# Elastic Compliance Matrix: (Units=1/GPa)
#
#
# Indices 1 2 3 4 5 6 
#
# 1 0.009549 -0.002292 -0.004151 0.000000 0.001603 0.000000
# 2 -0.002292 0.008677 -0.003158 0.000000 0.000484 0.000000
# 3 -0.004151 -0.003158 0.019185 0.000000 -0.006407 0.000000
# 4 0.000000 0.000000 0.000000 -0.110759 0.000000 -0.168588
# 5 0.001603 0.000484 -0.006407 0.000000 0.037863 0.000000
# 6 0.000000 0.000000 0.000000 -0.168588 0.000000 -0.127414
#
#
# Mechanical properties :
#
#
# Convention : Reuss Voigt Hill
#
# Bulk Modulus (GPa) = 54.91797 64.35276 59.63537
# Shear Modulus (GPa) = -36.32959 23.76470 -6.28245
#
# Velocity S-wave (km/s) = -4.25562 3.44190 -1.76969
# Velocity P-wave (km/s) = 1.79709 6.91920 5.05494
#
# Compressibility (1/GPa) = 0.01820898
#
# Stress axis : x y z
#
# Youngs Moduli (GPa) = 104.72268 115.24846 52.12528
#
# Poissons Ratio (x) = 0.26412 0.21638
# Poissons Ratio (y) = 0.24000 0.16461
# Poissons Ratio (z) = 0.43471 0.36395
#
# Static dielectric constant tensor:
#      x y z
#    x 6.838590 0.000000 1.188400 
#    y 0.000000 3.834340 0.000000 
#    z 1.188400 0.000000 4.092010 
# 
# 
# High freq. dielectric constant tensor:
#      x y z
#    x 1.781170 0.000000 0.015200 
#    y 0.000000 1.780550 0.000000 
#    z 0.015200 0.000000 1.779760 
# 
# From -- ./inp_files/51684.got.cif
#   From: 2010.03.12/outbox.cif.g09.slc.cpg/sg5_26_cif.got.tgz:51684.got - 2010.03.31 09:47:26.
