data_PCOD8049949
_publ_section_title
;
Structure prediction by ZEFSAII (Michael W. Deem and Ramdas Pophale) SiO2 
 PCOD8049949
Probable space group: C 2
;
_chemical_formula_sum "Si O2"
_cell_formula_units_Z 32
_cell_length_a 11.916478
_cell_length_b 22.592240
_cell_length_c 5.263804
_cell_angle_alpha 90.000000
_cell_angle_beta 73.574732
_cell_angle_gamma 90.000000
_cell_volume 1359.287345
_symmetry_space_group_name_H-M "C 2"
_symmetry_group_IT_number 5
_symmetry_cell_setting 'monoclinic'
loop_
_space_group_symop_operation_xyz
x,y,z
-x,y,-z
1/2+x,1/2+y,z
1/2-x,1/2+y,-z
loop_
_atom_site_type_symbol
_atom_site_label
_atom_site_fract_x
_atom_site_fract_y
_atom_site_fract_z
Si Si1 0.608348 0.146490 0.108946
Si Si2 0.871128 0.415054 0.524904
Si Si3 0.326098 0.606849 0.638832
Si Si4 0.178407 0.541076 0.332200
Si Si5 0.109253 0.000005 0.115372
Si Si6 0.126988 0.234994 0.402366
Si Si7 0.268960 0.257787 0.806499
Si Si8 0.769052 0.887543 0.876702
O O1 0.580129 0.087534 0.293002
O O2 0.632310 0.206033 0.257574
O O3 0.500000 0.160728 0.000000
O O4 0.726026 0.128945 0.891936
O O5 0.881544 0.486720 0.483458
O O6 0.829034 0.391433 0.279659
O O7 0.000000 0.389973 0.500000
O O8 0.786201 0.394388 0.806413
O O9 0.268444 0.579874 0.430384
O O10 0.414854 0.556603 0.690124
O O11 0.395917 0.665601 0.520344
O O12 0.259909 0.510356 0.070434
O O13 0.127556 0.936161 0.241496
O O14 0.000000 0.994372 0.000000
O O15 0.210862 0.261042 0.565611
O O16 0.000000 0.266132 0.500000
O O17 0.175709 0.245663 0.089345
O O18 0.326533 0.322093 0.822235
#
# Coordination Sequence:
#
# PCOD8049949 Si02
#       8
#     4   4   4   4   4   4   4   4
#     4  10  23  39  63  92 126 170 210 258 322 378
#     4  11  24  40  68  95 127 168 212 264 328 376
#     4  10  21  39  60  91 128 159 206 264 316 383
#     4  10  21  39  60  91 128 159 206 264 316 383
#     4  10  23  39  63  92 126 170 210 258 322 378
#     4  11  24  40  68  95 127 168 212 264 328 376
#     4  11  24  44  63  92 131 170 220 266 305 374
#     4  11  24  44  63  92 131 170 220 266 305 374
#
# _framework density 23.541747000000001
#
# number of rings (size 3 to 8) (size 9 to 14) (size 15 to 20)
#    0.000    1.500    2.500    1.500    3.500    3.500 
#    0.000    0.000    0.000    4.500    0.000    0.000 
#    0.000    0.000    0.000    0.000    0.000    0.000 
#
# Total GULP energy -198257.744144 kJ/mol
# GULP energy per Si atom -12391.109009 kJ/mol
# Density = 2.348817 g / cm^3
# Si number density = 23.541747 Si / 1000 Ang^3
#
#
#
# Elastic Constant Matrix: (Units=GPa)
#
#
# Indices 1 2 3 4 5 6 
#
# 1 79.9301 16.5545 1.9908 0.0000 29.8408 0.0000
# 2 16.5545 171.9584 -4.9285 0.0000 7.1243 0.0000
# 3 1.9908 -4.9285 76.1956 0.0000 14.2419 0.0000
# 4 0.0000 0.0000 0.0000 32.6934 0.0000 9.5250
# 5 29.8408 7.1243 14.2419 0.0000 33.5616 0.0000
# 6 0.0000 0.0000 0.0000 9.5250 0.0000 -2.4600
#
#
#
# Elastic Compliance Matrix: (Units=1/GPa)
#
#
# Indices 1 2 3 4 5 6 
#
# 1 0.019495 -0.001036 0.002848 0.000000 -0.018322 0.000000
# 2 -0.001036 0.005953 0.000517 0.000000 -0.000562 0.000000
# 3 0.002848 0.000517 0.014747 0.000000 -0.008900 0.000000
# 4 0.000000 0.000000 0.000000 0.014373 0.000000 0.055652
# 5 -0.018322 -0.000562 -0.008900 0.000000 0.049983 0.000000
# 6 0.000000 0.000000 0.000000 0.055652 0.000000 -0.191020
#
#
# Mechanical properties :
#
#
# Convention : Reuss Voigt Hill
#
# Bulk Modulus (GPa) = 22.29464 39.47973 30.88719
# Shear Modulus (GPa) = -65.63736 33.72349 -15.95694
#
# Velocity S-wave (km/s) = -5.28600 3.78894 -2.60631
# Velocity P-wave (km/s) = 5.26924 5.99566 2.02275
#
# Compressibility (1/GPa) = 0.04485383
#
# Stress axis : x y z
#
# Youngs Moduli (GPa) = 51.29513 167.97666 67.81187
#
# Poissons Ratio (x) = 0.17403 -0.19315
# Poissons Ratio (y) = 0.05314 -0.03507
# Poissons Ratio (z) = -0.14611 -0.08687
#
# Static dielectric constant tensor:
#      x y z
#    x 3.798360 0.000000 0.115770 
#    y 0.000000 5.563560 0.000000 
#    z 0.115770 0.000000 4.075680 
# 
# 
# High freq. dielectric constant tensor:
#      x y z
#    x 1.910770 0.000000 0.013260 
#    y 0.000000 1.960740 0.000000 
#    z 0.013260 0.000000 1.923040 
# 
# From -- ./inp_files/5967.got.cif
#   From: 2010.03.12/outbox.cif.g09.slc.cpg/sg5_3_cif.got.tgz:5967.got - 2010.03.31 09:47:26.
