data_PCOD8049139
_publ_section_title
;
Structure prediction by ZEFSAII (Michael W. Deem and Ramdas Pophale) SiO2 
 PCOD8049139
Probable space group: C 2
;
_chemical_formula_sum "Si O2"
_cell_formula_units_Z 26
_cell_length_a 20.012496
_cell_length_b 11.567224
_cell_length_c 7.049122
_cell_angle_alpha 90.000000
_cell_angle_beta 57.454422
_cell_angle_gamma 90.000000
_cell_volume 1375.543527
_symmetry_space_group_name_H-M "C 2"
_symmetry_group_IT_number 5
_symmetry_cell_setting 'monoclinic'
loop_
_space_group_symop_operation_xyz
x,y,z
-x,y,-z
1/2+x,1/2+y,z
1/2-x,1/2+y,-z
loop_
_atom_site_type_symbol
_atom_site_label
_atom_site_fract_x
_atom_site_fract_y
_atom_site_fract_z
Si Si1 0.162917 0.877190 0.110675
Si Si2 0.708891 0.807234 0.805337
Si Si3 0.236307 0.744542 0.688607
Si Si4 0.069483 0.704048 0.033176
Si Si5 0.650671 0.637975 0.202826
Si Si6 0.500000 0.780537 0.500000
Si Si7 0.945458 0.444947 0.906506
O O1 0.227215 0.858584 0.840377
O O2 0.086689 0.795104 0.178812
O O3 0.205475 0.843283 0.242736
O O4 0.131895 0.006828 0.175180
O O5 0.717857 0.775917 0.571462
O O6 0.676081 0.696457 0.966818
O O7 0.646110 0.911226 0.919761
O O8 0.148548 0.694006 0.780527
O O9 0.281841 0.646203 0.739709
O O10 0.050503 0.580139 0.156153
O O11 0.000000 0.748009 0.000000
O O12 0.574938 0.697766 0.413587
O O13 0.488210 0.865209 0.691136
O O14 0.000000 0.421744 0.000000
#
# Coordination Sequence:
#
# PCOD8049139 Si02
#       7
#     4   4   4   4   4   2   4
#     4   9  21  38  56  86 124 157 196 244 290 358
#     4  10  20  36  63  88 117 158 202 243 300 351
#     4   9  20  38  58  89 115 154 199 239 300 349
#     4   9  20  41  57  85 125 150 198 250 289 351
#     4  10  20  39  59  86 124 153 199 247 292 355
#     4  10  22  38  58  90 110 156 198 240 300 346
#     4  10  20  38  60  85 119 151 195 251 290 350
#
# _framework density 18.901617999999999
#
# number of rings (size 3 to 8) (size 9 to 14) (size 15 to 20)
#    0.923    1.538    0.000    1.846    0.000    2.462 
#    8.308    3.077    0.000    0.000    0.000    0.000 
#    0.000    0.000    0.000    0.000    0.000    0.000 
#
# Total GULP energy -161094.569221 kJ/mol
# GULP energy per Si atom -12391.889940 kJ/mol
# Density = 1.885860 g / cm^3
# Si number density = 18.901618 Si / 1000 Ang^3
#
#
#
# Elastic Constant Matrix: (Units=GPa)
#
#
# Indices 1 2 3 4 5 6 
#
# 1 138.6011 61.8655 29.2134 0.0000 8.5804 0.0000
# 2 61.8655 137.6783 43.8705 0.0000 6.5660 0.0000
# 3 29.2134 43.8705 94.0425 0.0000 6.2945 0.0000
# 4 0.0000 0.0000 0.0000 9.3833 0.0000 1.5142
# 5 8.5804 6.5660 6.2945 0.0000 26.9345 0.0000
# 6 0.0000 0.0000 0.0000 1.5142 0.0000 34.1584
#
#
#
# Elastic Compliance Matrix: (Units=1/GPa)
#
#
# Indices 1 2 3 4 5 6 
#
# 1 0.009202 -0.003731 -0.000998 0.000000 -0.001788 0.000000
# 2 -0.003731 0.010081 -0.003514 0.000000 -0.000448 0.000000
# 3 -0.000998 -0.003514 0.012703 0.000000 -0.001794 0.000000
# 4 0.000000 0.000000 0.000000 0.107340 0.000000 -0.004758
# 5 -0.001788 -0.000448 -0.001794 0.000000 0.038225 0.000000
# 6 0.000000 0.000000 0.000000 -0.004758 0.000000 0.029486
#
#
# Mechanical properties :
#
#
# Convention : Reuss Voigt Hill
#
# Bulk Modulus (GPa) = 64.51973 71.13566 67.82769
# Shear Modulus (GPa) = 21.86371 29.78674 25.82523
#
# Velocity S-wave (km/s) = 3.40474 3.97405 3.70036
# Velocity P-wave (km/s) = 7.04733 7.66641 7.36338
#
# Compressibility (1/GPa) = 0.01549914
#
# Stress axis : x y z
#
# Youngs Moduli (GPa) = 108.67728 99.19686 78.72350
#
# Poissons Ratio (x) = 0.37014 0.07856
# Poissons Ratio (y) = 0.40552 0.27661
# Poissons Ratio (z) = 0.10846 0.34854
#
# Static dielectric constant tensor:
#      x y z
#    x 3.531570 0.000000 -0.021010 
#    y 0.000000 3.332310 0.000000 
#    z -0.021010 0.000000 3.201850 
# 
# 
# High freq. dielectric constant tensor:
#      x y z
#    x 1.745860 0.000000 0.002630 
#    y 0.000000 1.728320 0.000000 
#    z 0.002630 0.000000 1.713570 
# 
# From -- ./inp_files/9414.got.cif
#   From: 2010.03.12/outbox.cif.g09.slc.cpg/sg5_5_cif.got.tgz:9414.got - 2010.03.31 09:47:26.
