data_PCOD8049518
_publ_section_title
;
Structure prediction by ZEFSAII (Michael W. Deem and Ramdas Pophale) SiO2 
 PCOD8049518
Probable space group: C 2
;
_chemical_formula_sum "Si O2"
_cell_formula_units_Z 32
_cell_length_a 13.148162
_cell_length_b 15.983319
_cell_length_c 18.892087
_cell_angle_alpha 90.000000
_cell_angle_beta 156.315745
_cell_angle_gamma 90.000000
_cell_volume 1594.812402
_symmetry_space_group_name_H-M "C 2"
_symmetry_group_IT_number 5
_symmetry_cell_setting 'monoclinic'
loop_
_space_group_symop_operation_xyz
x,y,z
-x,y,-z
1/2+x,1/2+y,z
1/2-x,1/2+y,-z
loop_
_atom_site_type_symbol
_atom_site_label
_atom_site_fract_x
_atom_site_fract_y
_atom_site_fract_z
Si Si1 0.323944 0.096470 0.320912
Si Si2 0.606988 0.332154 0.855068
Si Si3 0.438314 0.021314 0.664372
Si Si4 0.125387 0.275032 0.156195
Si Si5 0.283896 0.170321 0.663934
Si Si6 0.943831 0.555545 0.886757
Si Si7 0.459216 0.417471 0.337125
Si Si8 0.843628 0.986539 0.038364
O O1 0.500000 0.112595 0.500000
O O2 0.478158 0.044250 0.361368
O O3 0.236748 0.183482 0.232832
O O4 0.072028 0.050618 0.184567
O O5 0.419060 0.254898 0.725901
O O6 0.581202 0.391386 0.769766
O O7 0.542826 0.392702 0.880640
O O8 0.886264 0.295933 0.053377
O O9 0.303739 0.101208 0.614750
O O10 0.685571 0.994257 0.865480
O O11 0.249271 0.941844 0.539315
O O12 0.358399 0.338831 0.319082
O O13 0.000000 0.288147 0.000000
O O14 0.404380 0.135604 0.812457
O O15 0.000000 0.194939 0.500000
O O16 0.699593 0.497579 0.739357
O O17 0.000000 0.591617 0.000000
O O18 0.170306 0.501685 0.997233
#
# Coordination Sequence:
#
# PCOD8049518 Si02
#       8
#     4   4   4   4   4   4   4   4
#     4  12  26  43  64  95 138 181 226 279 342 413
#     4  11  22  40  63 100 134 179 221 276 341 405
#     4  11  24  43  67  97 130 178 229 279 346 407
#     4  10  20  40  64  95 132 171 219 274 337 393
#     4  11  24  41  65  97 142 175 218 281 350 409
#     4  11  20  41  69  99 126 172 227 279 328 401
#     4  11  20  39  71  96 130 168 227 278 325 403
#     4  11  23  41  68  93 131 177 226 281 343 401
#
# _framework density 20.065055999999998
#
# number of rings (size 3 to 8) (size 9 to 14) (size 15 to 20)
#    0.000    1.000    3.750    5.250    0.000    2.500 
#    0.000    2.500    0.000    0.000    0.000    0.000 
#    0.000    0.000    0.000    0.000    0.000    0.000 
#
# Total GULP energy -198339.558576 kJ/mol
# GULP energy per Si atom -12396.222411 kJ/mol
# Density = 2.001939 g / cm^3
# Si number density = 20.065056 Si / 1000 Ang^3
#
#
#
# Elastic Constant Matrix: (Units=GPa)
#
#
# Indices 1 2 3 4 5 6 
#
# 1 56.5794 8.2082 2.4318 0.0805 -7.7497 0.0002
# 2 8.2082 99.4611 36.9276 0.1094 7.3748 0.0192
# 3 2.4318 36.9276 77.1364 0.2099 12.8694 0.0602
# 4 0.0805 0.1094 0.2099 41.6582 -0.0115 5.9940
# 5 -7.7497 7.3748 12.8694 -0.0115 24.1688 -0.0052
# 6 0.0002 0.0192 0.0602 5.9940 -0.0052 13.7157
#
#
#
# Elastic Compliance Matrix: (Units=1/GPa)
#
#
# Indices 1 2 3 4 5 6 
#
# 1 0.018941 -0.001737 -0.000952 -0.000028 0.007110 0.000021
# 2 -0.001737 0.012397 -0.005659 -0.000002 -0.001327 0.000008
# 3 -0.000952 -0.005659 0.016974 -0.000065 -0.007617 -0.000041
# 4 -0.000028 -0.000002 -0.000065 0.025616 0.000036 -0.011194
# 5 0.007110 -0.001327 -0.007617 0.000036 0.048116 0.000038
# 6 0.000021 0.000008 -0.000041 -0.011194 0.000038 0.077802
#
#
# Mechanical properties :
#
#
# Convention : Reuss Voigt Hill
#
# Bulk Modulus (GPa) = 31.62843 36.47911 34.05377
# Shear Modulus (GPa) = 22.01869 28.28248 25.15058
#
# Velocity S-wave (km/s) = 3.31624 3.75846 3.54425
# Velocity P-wave (km/s) = 5.51910 6.08724 5.81012
#
# Compressibility (1/GPa) = 0.03161712
#
# Stress axis : x y z
#
# Youngs Moduli (GPa) = 52.79519 80.66589 58.91351
#
# Poissons Ratio (x) = 0.14011 0.05608
# Poissons Ratio (y) = 0.09170 0.33337
# Poissons Ratio (z) = 0.05025 0.45646
#
# Static dielectric constant tensor:
#      x y z
#    x 3.722730 -0.000010 0.171240 
#    y -0.000010 3.624470 -0.000160 
#    z 0.171240 -0.000160 3.718190 
# 
# 
# High freq. dielectric constant tensor:
#      x y z
#    x 1.779970 0.000000 0.008010 
#    y 0.000000 1.785220 -0.000020 
#    z 0.008010 -0.000020 1.784700 
# 
# From -- ./inp_files/66254.got.cif
#   From: 2010.03.12/outbox.cif.g09.slc.cpg/sg5_34_cif.got.tgz:66254.got - 2010.03.31 09:47:26.
