data_PCOD8049043
_publ_section_title
;
Structure prediction by ZEFSAII (Michael W. Deem and Ramdas Pophale) SiO2 
 PCOD8049043
Probable space group: C 2
;
_chemical_formula_sum "Si O2"
_cell_formula_units_Z 32
_cell_length_a 30.764776
_cell_length_b 9.321215
_cell_length_c 5.426910
_cell_angle_alpha 90.000000
_cell_angle_beta 85.573627
_cell_angle_gamma 90.000000
_cell_volume 1551.606573
_symmetry_space_group_name_H-M "C 2"
_symmetry_group_IT_number 5
_symmetry_cell_setting 'monoclinic'
loop_
_space_group_symop_operation_xyz
x,y,z
-x,y,-z
1/2+x,1/2+y,z
1/2-x,1/2+y,-z
loop_
_atom_site_type_symbol
_atom_site_label
_atom_site_fract_x
_atom_site_fract_y
_atom_site_fract_z
Si Si1 0.378561 0.056720 0.292447
Si Si2 0.833753 0.924742 0.851304
Si Si3 0.380261 0.379358 0.354081
Si Si4 0.736590 0.612180 0.302532
Si Si5 0.977867 0.872729 0.259037
Si Si6 0.684808 0.124778 0.057079
Si Si7 0.976978 0.531398 0.259271
Si Si8 0.704992 0.913539 0.438263
O O1 0.379573 0.210365 0.429731
O O2 0.426057 0.982391 0.280862
O O3 0.340931 0.951816 0.411701
O O4 0.364294 0.093283 0.018641
O O5 0.864251 0.966996 0.603458
O O6 0.816106 0.766934 0.775015
O O7 0.795713 0.042766 0.884945
O O8 0.854378 0.916810 0.114339
O O9 0.428974 0.430673 0.278901
O O10 0.711484 0.743277 0.444342
O O11 0.750876 0.485867 0.479682
O O12 0.781526 0.670390 0.171054
O O13 0.979869 0.701676 0.252756
O O14 0.000000 0.931019 0.500000
O O15 0.000000 0.934040 0.000000
O O16 0.701759 0.977466 0.166260
O O17 0.000000 0.472443 0.500000
O O18 0.000000 0.469881 0.000000
#
# Coordination Sequence:
#
# PCOD8049043 Si02
#       8
#     4   4   4   4   4   4   4   4
#     4   9  20  34  54  87 116 162 190 247 300 352
#     4  11  22  38  57  84 116 158 196 239 296 350
#     4  10  20  35  57  83 123 155 195 241 297 355
#     4  11  25  37  59  86 114 163 203 250 295 355
#     4   9  16  28  49  82 116 151 186 234 295 351
#     4  10  21  37  58  81 118 156 203 243 303 348
#     4   9  18  29  51  81 121 152 188 236 293 357
#     4  11  22  40  59  82 120 155 205 250 299 356
#
# _framework density 20.623785999999999
#
# number of rings (size 3 to 8) (size 9 to 14) (size 15 to 20)
#    0.000    2.000    1.250    2.250    7.000    4.000 
#    0.000    0.000    0.000    0.000    0.000    3.500 
#    0.000    0.000    0.000    0.000    0.000    0.000 
#
# Total GULP energy -198217.638335 kJ/mol
# GULP energy per Si atom -12388.602396 kJ/mol
# Density = 2.057685 g / cm^3
# Si number density = 20.623786 Si / 1000 Ang^3
#
#
#
# Elastic Constant Matrix: (Units=GPa)
#
#
# Indices 1 2 3 4 5 6 
#
# 1 145.1067 44.6747 47.2311 0.0000 6.8492 0.0000
# 2 44.6747 67.5534 22.2302 0.0000 9.1951 0.0000
# 3 47.2311 22.2302 115.6602 0.0000 0.4134 0.0000
# 4 0.0000 0.0000 0.0000 20.3294 0.0000 1.7324
# 5 6.8492 9.1951 0.4134 0.0000 29.9281 0.0000
# 6 0.0000 0.0000 0.0000 1.7324 0.0000 16.5747
#
#
#
# Elastic Compliance Matrix: (Units=1/GPa)
#
#
# Indices 1 2 3 4 5 6 
#
# 1 0.009460 -0.005247 -0.002853 0.000000 -0.000513 0.000000
# 2 -0.005247 0.019439 -0.001576 0.000000 -0.004750 0.000000
# 3 -0.002853 -0.001576 0.010110 0.000000 0.000997 0.000000
# 4 0.000000 0.000000 0.000000 0.049632 0.000000 -0.005188
# 5 -0.000513 -0.004750 0.000997 0.000000 0.034976 0.000000
# 6 0.000000 0.000000 0.000000 -0.005188 0.000000 0.060875
#
#
# Mechanical properties :
#
#
# Convention : Reuss Voigt Hill
#
# Bulk Modulus (GPa) = 50.87507 61.84359 56.35933
# Shear Modulus (GPa) = 23.76465 27.64540 25.70503
#
# Velocity S-wave (km/s) = 3.39823 3.66520 3.53424
# Velocity P-wave (km/s) = 6.33395 6.92555 6.63635
#
# Compressibility (1/GPa) = 0.01965599
#
# Stress axis : x y z
#
# Youngs Moduli (GPa) = 105.71120 51.44416 98.90883
#
# Poissons Ratio (x) = 0.26995 0.28215
# Poissons Ratio (y) = 0.55470 0.15592
# Poissons Ratio (z) = 0.30155 0.08109
#
# Static dielectric constant tensor:
#      x y z
#    x 3.861570 0.000000 0.067150 
#    y 0.000000 3.192860 0.000000 
#    z 0.067150 0.000000 3.786660 
# 
# 
# High freq. dielectric constant tensor:
#      x y z
#    x 1.817120 0.000000 0.002040 
#    y 0.000000 1.744990 0.000000 
#    z 0.002040 0.000000 1.813640 
# 
# From -- ./inp_files/11249.got.cif
#   From: 2010.03.12/outbox.cif.g09.slc.cpg/sg5_6_cif.got.tgz:11249.got - 2010.03.31 09:47:26.
