data_PCOD8049107
_publ_section_title
;
Structure prediction by ZEFSAII (Michael W. Deem and Ramdas Pophale) SiO2 
 PCOD8049107
Probable space group: C 2
;
_chemical_formula_sum "Si O2"
_cell_formula_units_Z 28
_cell_length_a 13.570702
_cell_length_b 13.783447
_cell_length_c 8.862734
_cell_angle_alpha 90.000000
_cell_angle_beta 55.093630
_cell_angle_gamma 90.000000
_cell_volume 1359.528965
_symmetry_space_group_name_H-M "C 2"
_symmetry_group_IT_number 5
_symmetry_cell_setting 'monoclinic'
loop_
_space_group_symop_operation_xyz
x,y,z
-x,y,-z
1/2+x,1/2+y,z
1/2-x,1/2+y,-z
loop_
_atom_site_type_symbol
_atom_site_label
_atom_site_fract_x
_atom_site_fract_y
_atom_site_fract_z
Si Si1 0.238026 0.791820 0.522534
Si Si2 0.732068 0.999321 0.579150
Si Si3 0.628687 0.922175 0.961280
Si Si4 0.963647 0.646913 0.359239
Si Si5 0.789624 0.600237 0.956645
Si Si6 0.359608 0.657568 0.621020
Si Si7 0.865505 0.214892 0.117990
O O1 0.228826 0.907838 0.556761
O O2 0.107534 0.747102 0.602416
O O3 0.291256 0.755369 0.634073
O O4 0.330197 0.757028 0.311503
O O5 0.722227 0.952372 0.752202
O O6 0.612544 0.052314 0.623591
O O7 0.836919 0.078933 0.506538
O O8 0.639313 0.807839 0.992958
O O9 0.500000 0.946812 0.000000
O O10 0.667297 0.987115 0.073025
O O11 0.000000 0.632504 0.500000
O O12 0.083601 0.657990 0.151629
O O13 0.722443 0.628044 0.858733
O O14 0.698385 0.627423 0.169588
O O15 0.500000 0.676597 0.500000
O O16 0.000000 0.172407 0.000000
#
# Coordination Sequence:
#
# PCOD8049107 Si02
#       7
#     4   4   4   4   4   4   4
#     4  10  21  38  57  87 116 152 195 241 292 348
#     4   9  20  36  58  82 119 153 190 235 295 350
#     4   9  17  34  59  83 109 152 197 234 285 347
#     4  11  21  37  62  89 116 154 200 247 296 338
#     4  11  21  38  62  89 118 151 203 250 284 352
#     4  10  22  39  60  85 118 157 194 239 300 345
#     4  10  20  36  59  84 117 156 196 239 292 348
#
# _framework density 20.595368000000001
#
# number of rings (size 3 to 8) (size 9 to 14) (size 15 to 20)
#    0.000    2.000    2.857    0.857    0.000    1.143 
#    5.143    0.000    0.000    2.571    0.000    0.000 
#    0.000    0.000    0.000    0.000    0.000    0.000 
#
# Total GULP energy -173447.089471 kJ/mol
# GULP energy per Si atom -12389.077819 kJ/mol
# Density = 2.054849 g / cm^3
# Si number density = 20.595368 Si / 1000 Ang^3
#
#
#
# Elastic Constant Matrix: (Units=GPa)
#
#
# Indices 1 2 3 4 5 6 
#
# 1 99.2829 34.8522 1.3242 0.0000 -11.3575 0.0000
# 2 34.8522 98.0797 -6.7412 0.0000 -4.8241 0.0000
# 3 1.3242 -6.7412 43.3706 0.0000 -18.0867 0.0000
# 4 0.0000 0.0000 0.0000 24.6926 0.0000 2.8568
# 5 -11.3575 -4.8241 -18.0867 0.0000 30.4584 0.0000
# 6 0.0000 0.0000 0.0000 2.8568 0.0000 24.8985
#
#
#
# Elastic Compliance Matrix: (Units=1/GPa)
#
#
# Indices 1 2 3 4 5 6 
#
# 1 0.011951 -0.003979 0.000814 0.000000 0.004309 0.000000
# 2 -0.003979 0.011908 0.002845 0.000000 0.002092 0.000000
# 3 0.000814 0.002845 0.031619 0.000000 0.019530 0.000000
# 4 0.000000 0.000000 0.000000 0.041043 0.000000 -0.004709
# 5 0.004309 0.002092 0.019530 0.000000 0.046367 0.000000
# 6 0.000000 0.000000 0.000000 -0.004709 0.000000 0.040703
#
#
# Mechanical properties :
#
#
# Convention : Reuss Voigt Hill
#
# Bulk Modulus (GPa) = 18.23580 33.28927 25.76253
# Shear Modulus (GPa) = 24.69000 30.09643 27.39322
#
# Velocity S-wave (km/s) = 3.46614 3.82687 3.65096
# Velocity P-wave (km/s) = 4.98923 5.97705 5.50534
#
# Compressibility (1/GPa) = 0.05483719
#
# Stress axis : x y z
#
# Youngs Moduli (GPa) = 83.67433 83.97679 31.62667
#
# Poissons Ratio (x) = 0.33413 -0.02574
# Poissons Ratio (y) = 0.33293 -0.08997
# Poissons Ratio (z) = -0.06810 -0.23888
#
# Static dielectric constant tensor:
#      x y z
#    x 3.682830 0.000000 -0.050400 
#    y 0.000000 4.137430 0.000000 
#    z -0.050400 0.000000 3.661780 
# 
# 
# High freq. dielectric constant tensor:
#      x y z
#    x 1.800370 0.000000 -0.010210 
#    y 0.000000 1.799410 0.000000 
#    z -0.010210 0.000000 1.791440 
# 
# From -- ./inp_files/20535.got.cif
#   From: 2010.03.12/outbox.cif.g09.slc.cpg/sg5_11_cif.got.tgz:20535.got - 2010.03.31 09:47:26.
