data_PCOD8049649
_publ_section_title
;
Structure prediction by ZEFSAII (Michael W. Deem and Ramdas Pophale) SiO2 
 PCOD8049649
Probable space group: C 2
;
_chemical_formula_sum "Si O2"
_cell_formula_units_Z 28
_cell_length_a 11.519493
_cell_length_b 12.830806
_cell_length_c 8.981191
_cell_angle_alpha 90.000000
_cell_angle_beta 65.505237
_cell_angle_gamma 90.000000
_cell_volume 1207.986923
_symmetry_space_group_name_H-M "C 2"
_symmetry_group_IT_number 5
_symmetry_cell_setting 'monoclinic'
loop_
_space_group_symop_operation_xyz
x,y,z
-x,y,-z
1/2+x,1/2+y,z
1/2-x,1/2+y,-z
loop_
_atom_site_type_symbol
_atom_site_label
_atom_site_fract_x
_atom_site_fract_y
_atom_site_fract_z
Si Si1 0.680043 0.138950 0.108326
Si Si2 0.796295 0.441073 0.323135
Si Si3 0.887444 0.058303 0.785372
Si Si4 0.354386 0.074849 0.554438
Si Si5 0.500000 0.005226 0.000000
Si Si6 0.982686 0.836511 0.838807
Si Si7 0.500000 0.700261 0.500000
Si Si8 0.736721 0.270844 0.546025
O O1 0.712137 0.081648 0.248341
O O2 0.627303 0.256936 0.163018
O O3 0.808870 0.131125 0.942336
O O4 0.570308 0.076777 0.081606
O O5 0.696760 0.523072 0.310876
O O6 0.837288 0.466809 0.474069
O O7 0.741141 0.325776 0.379925
O O8 0.910577 0.430300 0.144600
O O9 0.996807 0.129705 0.653043
O O10 0.940345 0.955651 0.837328
O O11 0.500000 0.104384 0.500000
O O12 0.297009 0.152204 0.463592
O O13 0.122669 0.823930 0.696908
O O14 0.000000 0.811100 0.000000
O O15 0.373031 0.772145 0.560230
#
# Coordination Sequence:
#
# PCOD8049649 Si02
#       8
#     4   4   4   4   2   4   2   4
#     4  11  23  43  73 109 145 187 241 300 366 434
#     4  11  24  44  70 103 143 190 242 299 366 435
#     4  11  26  47  73 106 149 190 237 313 368 434
#     4  12  23  44  74 105 140 191 248 300 360 444
#     4  10  20  42  66 104 148 188 234 294 354 432
#     4  12  25  45  75 108 143 195 252 296 370 446
#     4  12  26  50  68 102 154 192 242 312 372 416
#     4  12  27  45  73 104 145 196 244 303 366 440
#
# _framework density 23.17906
#
# number of rings (size 3 to 8) (size 9 to 14) (size 15 to 20)
#    0.000    0.571    5.000    2.571    3.000    0.000 
#   10.286    0.000    0.000    0.000    0.000    0.000 
#    0.000    0.000    0.000    0.000    0.000    0.000 
#
# Total GULP energy -173549.632697 kJ/mol
# GULP energy per Si atom -12396.402336 kJ/mol
# Density = 2.312630 g / cm^3
# Si number density = 23.179060 Si / 1000 Ang^3
#
#
#
# Elastic Constant Matrix: (Units=GPa)
#
#
# Indices 1 2 3 4 5 6 
#
# 1 88.4961 12.8180 28.2586 0.0000 -11.6945 0.0000
# 2 12.8180 63.4443 15.2791 0.0000 -16.6720 0.0000
# 3 28.2586 15.2791 79.9906 0.0000 -13.1972 0.0000
# 4 0.0000 0.0000 0.0000 19.8172 0.0000 8.1474
# 5 -11.6945 -16.6720 -13.1972 0.0000 49.0315 0.0000
# 6 0.0000 0.0000 0.0000 8.1474 0.0000 21.7589
#
#
#
# Elastic Compliance Matrix: (Units=1/GPa)
#
#
# Indices 1 2 3 4 5 6 
#
# 1 0.012994 -0.001223 -0.004096 0.000000 0.001581 0.000000
# 2 -0.001223 0.017892 -0.002124 0.000000 0.005220 0.000000
# 3 -0.004096 -0.002124 0.014728 0.000000 0.002265 0.000000
# 4 0.000000 0.000000 0.000000 0.059643 0.000000 -0.022333
# 5 0.001581 0.005220 0.002265 0.000000 0.023157 0.000000
# 6 0.000000 0.000000 0.000000 -0.022333 0.000000 0.054320
#
#
# Mechanical properties :
#
#
# Convention : Reuss Voigt Hill
#
# Bulk Modulus (GPa) = 32.54453 38.29360 35.41906
# Shear Modulus (GPa) = 24.05425 29.82653 26.94039
#
# Velocity S-wave (km/s) = 3.22492 3.59107 3.41291
# Velocity P-wave (km/s) = 5.28562 5.80957 5.55377
#
# Compressibility (1/GPa) = 0.03072713
#
# Stress axis : x y z
#
# Youngs Moduli (GPa) = 76.95894 55.88964 67.89846
#
# Poissons Ratio (x) = 0.06838 0.27811
# Poissons Ratio (y) = 0.09415 0.14423
# Poissons Ratio (z) = 0.31522 0.11872
#
# Static dielectric constant tensor:
#      x y z
#    x 4.198020 0.000000 -0.105410 
#    y 0.000000 4.006760 0.000000 
#    z -0.105410 0.000000 4.419500 
# 
# 
# High freq. dielectric constant tensor:
#      x y z
#    x 1.910920 0.000000 -0.000070 
#    y 0.000000 1.912010 0.000000 
#    z -0.000070 0.000000 1.931380 
# 
# From -- ./inp_files/20588.got.cif
#   From: 2010.03.12/outbox.cif.g09.slc.cpg/sg5_11_cif.got.tgz:20588.got - 2010.03.31 09:47:26.
