data_PCOD8049116
_publ_section_title
;
Structure prediction by ZEFSAII (Michael W. Deem and Ramdas Pophale) SiO2 
 PCOD8049116
Probable space group: C 2
;
_chemical_formula_sum "Si O2"
_cell_formula_units_Z 32
_cell_length_a 15.727726
_cell_length_b 13.974826
_cell_length_c 8.486528
_cell_angle_alpha 90.000000
_cell_angle_beta 118.205109
_cell_angle_gamma 90.000000
_cell_volume 1643.792887
_symmetry_space_group_name_H-M "C 2"
_symmetry_group_IT_number 5
_symmetry_cell_setting 'monoclinic'
loop_
_space_group_symop_operation_xyz
x,y,z
-x,y,-z
1/2+x,1/2+y,z
1/2-x,1/2+y,-z
loop_
_atom_site_type_symbol
_atom_site_label
_atom_site_fract_x
_atom_site_fract_y
_atom_site_fract_z
Si Si1 0.740670 0.563110 0.313152
Si Si2 0.807822 0.400382 0.174786
Si Si3 0.084263 0.539913 0.953903
Si Si4 0.264765 0.543638 0.329905
Si Si5 0.599790 0.703451 0.677285
Si Si6 0.283820 0.345116 0.206716
Si Si7 0.606377 0.703517 0.048666
Si Si8 0.912775 0.675052 0.311112
O O1 0.753198 0.454946 0.266754
O O2 0.764689 0.565742 0.517546
O O3 0.636697 0.609334 0.176791
O O4 0.817523 0.621377 0.280637
O O5 0.894618 0.456479 0.157225
O O6 0.846144 0.304628 0.290439
O O7 0.722850 0.382591 0.976456
O O8 0.057952 0.637842 0.837600
O O9 0.176997 0.565155 0.137727
O O10 0.000000 0.507966 0.000000
O O11 0.349752 0.616019 0.365724
O O12 0.296154 0.432476 0.340188
O O13 0.500000 0.717262 0.500000
O O14 0.597688 0.675361 0.858469
O O15 0.184210 0.287005 0.154235
O O16 0.383561 0.286066 0.296414
O O17 0.500000 0.740493 0.000000
O O18 0.000000 0.650825 0.500000
#
# Coordination Sequence:
#
# PCOD8049116 Si02
#       8
#     4   4   4   4   4   4   4   4
#     4  10  21  37  59  84 114 147 184 232 285 337
#     4   9  20  37  57  82 114 148 184 233 284 333
#     4  10  20  36  60  87 114 143 182 232 285 338
#     4  11  22  37  57  82 113 150 190 233 279 332
#     4  11  23  37  58  84 114 150 191 236 281 334
#     4   9  20  37  57  80 112 151 188 231 279 331
#     4  10  20  38  60  85 115 147 185 232 285 339
#     4  10  20  37  58  82 113 148 183 227 280 336
#
# _framework density 19.467172999999999
#
# number of rings (size 3 to 8) (size 9 to 14) (size 15 to 20)
#    0.000    2.000    0.000    5.250    0.000   11.000 
#    0.000    2.500    0.000    1.500    0.000    0.000 
#    0.000    0.000    0.000    0.000    0.000    0.000 
#
# Total GULP energy -198310.291020 kJ/mol
# GULP energy per Si atom -12394.393189 kJ/mol
# Density = 1.942287 g / cm^3
# Si number density = 19.467173 Si / 1000 Ang^3
#
#
#
# Elastic Constant Matrix: (Units=GPa)
#
#
# Indices 1 2 3 4 5 6 
#
# 1 45.9543 28.1321 9.5327 0.0000 -14.8288 0.0000
# 2 28.1321 100.9008 31.8943 0.0000 -7.6325 0.0000
# 3 9.5327 31.8943 98.3349 0.0000 -8.9138 0.0000
# 4 0.0000 0.0000 0.0000 22.8349 0.0000 -1.2114
# 5 -14.8288 -7.6325 -8.9138 0.0000 29.2756 0.0000
# 6 0.0000 0.0000 0.0000 -1.2114 0.0000 16.2360
#
#
#
# Elastic Compliance Matrix: (Units=1/GPa)
#
#
# Indices 1 2 3 4 5 6 
#
# 1 0.030834 -0.007802 0.000795 0.000000 0.013826 0.000000
# 2 -0.007802 0.013114 -0.003646 0.000000 -0.001643 0.000000
# 3 0.000795 -0.003646 0.011544 0.000000 0.002967 0.000000
# 4 0.000000 0.000000 0.000000 0.043967 0.000000 0.003280
# 5 0.013826 -0.001643 0.002967 0.000000 0.041636 0.000000
# 6 0.000000 0.000000 0.000000 0.003280 0.000000 0.061836
#
#
# Mechanical properties :
#
#
# Convention : Reuss Voigt Hill
#
# Bulk Modulus (GPa) = 29.25274 42.70090 35.97682
# Shear Modulus (GPa) = 21.21948 25.37804 23.29876
#
# Velocity S-wave (km/s) = 3.30512 3.61450 3.46327
# Velocity P-wave (km/s) = 5.44283 6.27710 5.87479
#
# Compressibility (1/GPa) = 0.03418483
#
# Stress axis : x y z
#
# Youngs Moduli (GPa) = 32.43217 76.25285 86.62649
#
# Poissons Ratio (x) = 0.59493 -0.06885
# Poissons Ratio (y) = 0.25304 0.31585
# Poissons Ratio (z) = -0.02578 0.27803
#
# Static dielectric constant tensor:
#      x y z
#    x 3.461190 0.000000 -0.045120 
#    y 0.000000 3.918380 0.000000 
#    z -0.045120 0.000000 3.601660 
# 
# 
# High freq. dielectric constant tensor:
#      x y z
#    x 1.738640 0.000000 -0.004180 
#    y 0.000000 1.761300 0.000000 
#    z -0.004180 0.000000 1.767440 
# 
# From -- ./inp_files/24633.got.cif
#   From: 2010.03.12/outbox.cif.g09.slc.cpg/sg5_13_cif.got.tgz:24633.got - 2010.03.31 09:47:26.
