data_PCOD8049804
_publ_section_title
;
Structure prediction by ZEFSAII (Michael W. Deem and Ramdas Pophale) SiO2 
 PCOD8049804
Probable space group: C 2
;
_chemical_formula_sum "Si O2"
_cell_formula_units_Z 30
_cell_length_a 5.152106
_cell_length_b 25.513686
_cell_length_c 11.652739
_cell_angle_alpha 90.000000
_cell_angle_beta 102.759061
_cell_angle_gamma 90.000000
_cell_volume 1493.920674
_symmetry_space_group_name_H-M "C 2"
_symmetry_group_IT_number 5
_symmetry_cell_setting 'monoclinic'
loop_
_space_group_symop_operation_xyz
x,y,z
-x,y,-z
1/2+x,1/2+y,z
1/2-x,1/2+y,-z
loop_
_atom_site_type_symbol
_atom_site_label
_atom_site_fract_x
_atom_site_fract_y
_atom_site_fract_z
Si Si1 0.436619 0.628480 0.621990
Si Si2 0.628941 0.046953 0.273573
Si Si3 0.730237 0.100937 0.927310
Si Si4 0.819061 0.204352 0.807480
Si Si5 0.087317 0.883882 0.139086
Si Si6 0.360511 0.266233 0.863702
Si Si7 0.590240 0.944563 0.139640
Si Si8 0.500000 0.053045 0.500000
O O1 0.500000 0.648367 0.500000
O O2 0.674654 0.597087 0.708612
O O3 0.349510 0.679107 0.684811
O O4 0.198324 0.588220 0.591848
O O5 0.352625 0.069808 0.195625
O O6 0.625412 0.021961 0.404123
O O7 0.707097 0.998978 0.199725
O O8 0.807378 0.160263 0.904033
O O9 0.500000 0.099727 0.000000
O O10 0.000000 0.073429 0.000000
O O11 0.540945 0.235910 0.787693
O O12 0.069019 0.242166 0.851898
O O13 0.169951 0.825551 0.185130
O O14 0.336373 0.922801 0.185046
O O15 0.828858 0.903453 0.182399
O O16 0.000000 0.883698 0.000000
O O17 0.500000 0.264618 0.000000
O O18 0.500000 0.953553 0.000000
#
# Coordination Sequence:
#
# PCOD8049804 Si02
#       8
#     4   4   4   4   4   4   4   2
#     4  10  23  40  59  86 120 159 208 256 292 357
#     4  11  23  38  60  88 122 160 207 246 295 360
#     4  12  24  36  55  88 136 167 189 240 304 366
#     4  12  22  36  57  88 117 161 200 236 297 356
#     4   9  20  38  56  84 120 154 195 242 290 357
#     4  11  22  36  58  87 122 157 197 241 293 360
#     4  10  21  36  60  89 119 156 194 239 304 360
#     4  10  22  42  60  80 120 160 212 250 292 350
#
# _framework density 20.081386999999999
#
# number of rings (size 3 to 8) (size 9 to 14) (size 15 to 20)
#    0.000    1.333    1.333    5.200    3.733    3.733 
#    0.000    0.000    0.000    0.000   10.400    0.000 
#    0.000    0.000    0.000    0.000    0.000    0.000 
#
# Total GULP energy -185912.501401 kJ/mol
# GULP energy per Si atom -12394.166760 kJ/mol
# Density = 2.003568 g / cm^3
# Si number density = 20.081387 Si / 1000 Ang^3
#
#
#
# Elastic Constant Matrix: (Units=GPa)
#
#
# Indices 1 2 3 4 5 6 
#
# 1 116.7923 31.5580 32.6425 0.0000 0.2067 0.0000
# 2 31.5580 99.5403 35.7615 0.0000 -5.2559 0.0000
# 3 32.6425 35.7615 85.9593 0.0000 -2.3488 0.0000
# 4 0.0000 0.0000 0.0000 16.3503 0.0000 0.5883
# 5 0.2067 -5.2559 -2.3488 0.0000 29.7170 0.0000
# 6 0.0000 0.0000 0.0000 0.5883 0.0000 24.2538
#
#
#
# Elastic Compliance Matrix: (Units=1/GPa)
#
#
# Indices 1 2 3 4 5 6 
#
# 1 0.009956 -0.002148 -0.002905 0.000000 -0.000679 0.000000
# 2 -0.002148 0.012362 -0.004276 0.000000 0.001863 0.000000
# 3 -0.002905 -0.004276 0.014527 0.000000 0.000412 0.000000
# 4 0.000000 0.000000 0.000000 0.061214 0.000000 -0.001485
# 5 -0.000679 0.001863 0.000412 0.000000 0.034018 0.000000
# 6 0.000000 0.000000 0.000000 -0.001485 0.000000 0.041267
#
#
# Mechanical properties :
#
#
# Convention : Reuss Voigt Hill
#
# Bulk Modulus (GPa) = 54.99082 55.80178 55.39630
# Shear Modulus (GPa) = 25.24421 27.55289 26.39855
#
# Velocity S-wave (km/s) = 3.54940 3.70815 3.62964
# Velocity P-wave (km/s) = 6.65140 6.79573 6.72395
#
# Compressibility (1/GPa) = 0.01818485
#
# Stress axis : x y z
#
# Youngs Moduli (GPa) = 100.44209 80.89311 68.83728
#
# Poissons Ratio (x) = 0.17379 0.20000
# Poissons Ratio (y) = 0.21579 0.29436
# Poissons Ratio (z) = 0.29183 0.34591
#
# Static dielectric constant tensor:
#      x y z
#    x 3.912220 0.000000 -0.023270 
#    y 0.000000 3.619600 0.000000 
#    z -0.023270 0.000000 3.528370 
# 
# 
# High freq. dielectric constant tensor:
#      x y z
#    x 1.804310 0.000000 -0.001670 
#    y 0.000000 1.764980 0.000000 
#    z -0.001670 0.000000 1.761260 
# 
# From -- ./inp_files/34262.got.cif
#   From: 2010.03.12/outbox.cif.g09.slc.cpg/sg5_18_cif.got.tgz:34262.got - 2010.03.31 09:47:26.
