data_PCOD8049751
_publ_section_title
;
Structure prediction by ZEFSAII (Michael W. Deem and Ramdas Pophale) SiO2 
 PCOD8049751
Probable space group: C 2
;
_chemical_formula_sum "Si O2"
_cell_formula_units_Z 28
_cell_length_a 17.403866
_cell_length_b 10.566799
_cell_length_c 12.306395
_cell_angle_alpha 90.000000
_cell_angle_beta 44.999987
_cell_angle_gamma 90.000000
_cell_volume 1600.312994
_symmetry_space_group_name_H-M "C 2"
_symmetry_group_IT_number 5
_symmetry_cell_setting 'monoclinic'
loop_
_space_group_symop_operation_xyz
x,y,z
-x,y,-z
1/2+x,1/2+y,z
1/2-x,1/2+y,-z
loop_
_atom_site_type_symbol
_atom_site_label
_atom_site_fract_x
_atom_site_fract_y
_atom_site_fract_z
Si Si1 0.057701 0.208590 0.265113
Si Si2 0.000000 0.412558 0.500000
Si Si3 0.925090 0.861583 0.432247
Si Si4 0.390157 0.557423 0.302267
Si Si5 0.692424 0.767692 0.917419
Si Si6 0.357338 0.463532 0.717572
Si Si7 0.000000 0.162558 0.000000
Si Si8 0.322814 0.116525 0.619484
O O1 0.034760 0.330484 0.361072
O O2 0.940149 0.155573 0.342092
O O3 0.123308 0.108318 0.272359
O O4 0.143470 0.236699 0.083570
O O5 0.895831 0.494632 0.569409
O O6 0.866477 0.951958 0.578908
O O7 0.895667 0.716797 0.481025
O O8 0.054614 0.873157 0.311863
O O9 0.886340 0.915177 0.354230
O O10 0.272959 0.588416 0.370511
O O11 0.478966 0.565000 0.118346
O O12 0.740571 0.909938 0.873090
O O13 0.597313 0.760117 0.923721
O O14 0.782241 0.669543 0.777609
#
# Coordination Sequence:
#
# PCOD8049751 Si02
#       8
#     4   2   4   4   4   4   2   4
#     4  10  21  34  56  82 114 144 185 232 279 327
#     4  12  24  36  54  92 120 132 188 250 272 316
#     4   9  17  33  54  76 104 145 185 222 273 338
#     4   9  18  34  56  76 109 148 187 218 280 336
#     4   9  18  34  56  76 109 148 187 218 280 336
#     4   9  17  33  54  76 104 145 185 222 273 338
#     4   8  16  32  52  84 106 140 188 232 270 328
#     4  10  21  34  56  82 114 144 185 232 279 327
#
# _framework density 17.496576999999998
#
# number of rings (size 3 to 8) (size 9 to 14) (size 15 to 20)
#    0.000    2.571    0.000    3.429    4.000    0.000 
#    0.000    0.000    0.000    0.000    0.000    0.000 
#    0.000    0.000    0.000    0.000    0.000    0.000 
#
# Total GULP energy -173442.448618 kJ/mol
# GULP energy per Si atom -12388.746330 kJ/mol
# Density = 1.745675 g / cm^3
# Si number density = 17.496577 Si / 1000 Ang^3
#
#
#
# Elastic Constant Matrix: (Units=GPa)
#
#
# Indices 1 2 3 4 5 6 
#
# 1 82.4054 52.7680 40.5808 0.0000 0.8561 0.0000
# 2 52.7680 110.0828 52.7677 0.0000 -0.0001 0.0000
# 3 40.5808 52.7677 82.4056 0.0000 -0.8560 0.0000
# 4 0.0000 0.0000 0.0000 27.1451 0.0000 0.0001
# 5 0.8561 -0.0001 -0.8560 0.0000 25.6324 0.0000
# 6 0.0000 0.0000 0.0000 0.0001 0.0000 27.1450
#
#
#
# Elastic Compliance Matrix: (Units=1/GPa)
#
#
# Indices 1 2 3 4 5 6 
#
# 1 0.018877 -0.006621 -0.005065 0.000000 -0.000800 0.000000
# 2 -0.006621 0.015432 -0.006621 0.000000 0.000000 0.000000
# 3 -0.005065 -0.006621 0.018877 0.000000 0.000800 0.000000
# 4 0.000000 0.000000 0.000000 0.036839 0.000000 0.000000
# 5 -0.000800 0.000000 0.000800 0.000000 0.039066 0.000000
# 6 0.000000 0.000000 0.000000 0.000000 0.000000 0.036839
#
#
# Mechanical properties :
#
#
# Convention : Reuss Voigt Hill
#
# Bulk Modulus (GPa) = 60.34038 63.01410 61.67724
# Shear Modulus (GPa) = 24.03053 24.56965 24.30009
#
# Velocity S-wave (km/s) = 3.71002 3.75140 3.73077
# Velocity P-wave (km/s) = 7.27421 7.40657 7.34069
#
# Compressibility (1/GPa) = 0.01657265
#
# Stress axis : x y z
#
# Youngs Moduli (GPa) = 52.97353 64.80222 52.97393
#
# Poissons Ratio (x) = 0.42906 0.26830
# Poissons Ratio (y) = 0.35074 0.35074
# Poissons Ratio (z) = 0.26830 0.42905
#
# Static dielectric constant tensor:
#      x y z
#    x 3.374800 0.000000 0.000000 
#    y 0.000000 3.172390 0.000000 
#    z 0.000000 0.000000 3.374810 
# 
# 
# High freq. dielectric constant tensor:
#      x y z
#    x 1.678660 0.000000 0.000000 
#    y 0.000000 1.655880 0.000000 
#    z 0.000000 0.000000 1.678660 
# 
# From -- ./inp_files/44488.got.cif
#   From: 2010.03.12/outbox.cif.g09.slc.cpg/sg5_23_cif.got.tgz:44488.got - 2010.03.31 09:47:26.
