data_PCOD8049966
_publ_section_title
;
Structure prediction by ZEFSAII (Michael W. Deem and Ramdas Pophale) SiO2 
 PCOD8049966
Probable space group: C 2
;
_chemical_formula_sum "Si O2"
_cell_formula_units_Z 22
_cell_length_a 26.534318
_cell_length_b 4.986692
_cell_length_c 7.813376
_cell_angle_alpha 90.000000
_cell_angle_beta 117.598976
_cell_angle_gamma 90.000000
_cell_volume 916.213647
_symmetry_space_group_name_H-M "C 2"
_symmetry_group_IT_number 5
_symmetry_cell_setting 'monoclinic'
loop_
_space_group_symop_operation_xyz
x,y,z
-x,y,-z
1/2+x,1/2+y,z
1/2-x,1/2+y,-z
loop_
_atom_site_type_symbol
_atom_site_label
_atom_site_fract_x
_atom_site_fract_y
_atom_site_fract_z
Si Si1 0.385919 0.802030 0.689665
Si Si2 0.659655 0.294667 0.211950
Si Si3 0.062604 0.706102 0.795677
Si Si4 0.500000 0.036432 0.000000
Si Si5 0.280719 0.508713 0.988904
Si Si6 0.599670 0.691043 0.676774
O O1 0.364135 0.506427 0.691517
O O2 0.443972 0.856699 0.885117
O O3 0.396778 0.812091 0.506347
O O4 0.337712 0.014814 0.679285
O O5 0.716725 0.402321 0.206543
O O6 0.620034 0.270667 0.985107
O O7 0.064393 0.407447 0.727913
O O8 0.009799 0.722943 0.847027
O O9 0.060752 0.922381 0.637341
O O10 0.265167 0.250284 0.080873
O O11 0.337338 0.647373 0.151652
#
# Coordination Sequence:
#
# PCOD8049966 Si02
#       6
#     4   4   4   2   4   4
#     4  11  23  40  63  89 127 160 200 246 301 354
#     4  10  21  40  62  87 122 163 194 248 310 354
#     4  10  21  39  62  87 123 160 205 244 298 356
#     4  10  22  40  62  90 120 170 206 236 290 370
#     4  11  21  38  66  91 116 158 208 245 297 372
#     4  11  23  41  62  91 124 158 196 259 305 340
#
# _framework density 24.011866999999999
#
# number of rings (size 3 to 8) (size 9 to 14) (size 15 to 20)
#    0.000    1.455    0.000    8.727    0.000    7.273 
#    0.000    7.273    0.000    2.182    0.000    0.000 
#    0.000    0.000    0.000    0.000    0.000    0.000 
#
# Total GULP energy -136325.297593 kJ/mol
# GULP energy per Si atom -12393.208872 kJ/mol
# Density = 2.395722 g / cm^3
# Si number density = 24.011867 Si / 1000 Ang^3
#
#
#
# Elastic Constant Matrix: (Units=GPa)
#
#
# Indices 1 2 3 4 5 6 
#
# 1 93.3881 33.5612 33.9969 0.0000 -40.1367 0.0000
# 2 33.5612 140.3217 24.8813 0.0000 -18.8874 0.0000
# 3 33.9969 24.8813 67.2138 0.0000 -32.4517 0.0000
# 4 0.0000 0.0000 0.0000 14.9242 0.0000 -28.2692
# 5 -40.1367 -18.8874 -32.4517 0.0000 33.2355 0.0000
# 6 0.0000 0.0000 0.0000 -28.2692 0.0000 35.6636
#
#
#
# Elastic Compliance Matrix: (Units=1/GPa)
#
#
# Indices 1 2 3 4 5 6 
#
# 1 0.023206 -0.002113 0.003775 0.000000 0.030509 0.000000
# 2 -0.002113 0.007979 -0.001755 0.000000 0.000269 0.000000
# 3 0.003775 -0.001755 0.029017 0.000000 0.031894 0.000000
# 4 0.000000 0.000000 0.000000 -0.133622 0.000000 -0.105917
# 5 0.030509 0.000269 0.031894 0.000000 0.098228 0.000000
# 6 0.000000 0.000000 0.000000 -0.105917 0.000000 -0.055917
#
#
# Mechanical properties :
#
#
# Convention : Reuss Voigt Hill
#
# Bulk Modulus (GPa) = 16.66221 53.97804 35.32013
# Shear Modulus (GPa) = -457.96031 30.66360 -213.64835
#
# Velocity S-wave (km/s) = -13.82521 3.57742 -9.44295
# Velocity P-wave (km/s) = 15.74467 6.29225 10.20544
#
# Compressibility (1/GPa) = 0.06001605
#
# Stress axis : x y z
#
# Youngs Moduli (GPa) = 43.09318 125.32463 34.46232
#
# Poissons Ratio (x) = 0.26480 -0.13010
# Poissons Ratio (y) = 0.09105 0.06048
# Poissons Ratio (z) = -0.16268 0.21996
#
# Static dielectric constant tensor:
#      x y z
#    x 4.738650 0.000000 -0.276820 
#    y 0.000000 4.688480 0.000000 
#    z -0.276820 0.000000 4.312490 
# 
# 
# High freq. dielectric constant tensor:
#      x y z
#    x 1.962320 0.000000 -0.035090 
#    y 0.000000 1.967040 0.000000 
#    z -0.035090 0.000000 1.918670 
# 
# From -- ./inp_files/30342.got.cif
#   From: 2010.03.12/outbox.cif.g09.slc.cpg/sg5_16_cif.got.tgz:30342.got - 2010.03.31 09:47:26.
