data_PCOD8049523
_publ_section_title
;
Structure prediction by ZEFSAII (Michael W. Deem and Ramdas Pophale) SiO2 
 PCOD8049523
Probable space group: C 2
;
_chemical_formula_sum "Si O2"
_cell_formula_units_Z 22
_cell_length_a 7.660223
_cell_length_b 21.759250
_cell_length_c 6.244852
_cell_angle_alpha 90.000000
_cell_angle_beta 116.618191
_cell_angle_gamma 90.000000
_cell_volume 930.573859
_symmetry_space_group_name_H-M "C 2"
_symmetry_group_IT_number 5
_symmetry_cell_setting 'monoclinic'
loop_
_space_group_symop_operation_xyz
x,y,z
-x,y,-z
1/2+x,1/2+y,z
1/2-x,1/2+y,-z
loop_
_atom_site_type_symbol
_atom_site_label
_atom_site_fract_x
_atom_site_fract_y
_atom_site_fract_z
Si Si1 0.500000 0.807791 0.000000
Si Si2 0.201722 0.110370 0.736656
Si Si3 0.000000 0.058762 0.000000
Si Si4 0.307317 0.971605 0.289496
Si Si5 0.700671 0.746810 0.733110
Si Si6 0.199508 0.853423 0.492440
Si Si7 0.500000 0.015384 0.000000
O O1 0.657703 0.766714 0.955099
O O2 0.375304 0.848011 0.761445
O O3 0.150296 0.101844 0.958288
O O4 0.293229 0.178708 0.767405
O O5 0.365672 0.059222 0.771810
O O6 0.000000 0.101495 0.500000
O O7 0.877427 0.015529 0.769275
O O8 0.500000 0.999956 0.500000
O O9 0.261107 0.904699 0.355007
O O10 0.357101 0.971477 0.060953
O O11 0.500000 0.746256 0.500000
O O12 0.839694 0.793132 0.676328
O O13 0.000000 0.871455 0.500000
#
# Coordination Sequence:
#
# PCOD8049523 Si02
#       7
#     2   4   2   4   4   4   2
#     4  10  21  43  64  90 128 159 197 252 314 364
#     4  10  20  40  65  92 125 158 202 251 301 365
#     4  10  23  40  62  92 124 164 203 246 304 360
#     4  11  24  42  63  89 124 164 207 253 302 362
#     4   9  20  40  67  95 123 159 201 251 309 367
#     4  11  26  42  62  93 124 161 207 254 307 366
#     4  10  24  41  62  92 124 165 206 250 304 356
#
# _framework density 23.641324999999998
#
# number of rings (size 3 to 8) (size 9 to 14) (size 15 to 20)
#    0.000    1.818    0.000    3.273    0.000   11.636 
#    0.000    4.545    0.000    0.000    0.000    0.000 
#    0.000    0.000    0.000    0.000    0.000    0.000 
#
# Total GULP energy -136318.593739 kJ/mol
# GULP energy per Si atom -12392.599431 kJ/mol
# Density = 2.358752 g / cm^3
# Si number density = 23.641325 Si / 1000 Ang^3
#
#
#
# Elastic Constant Matrix: (Units=GPa)
#
#
# Indices 1 2 3 4 5 6 
#
# 1 113.7909 56.1368 35.2665 0.0000 -6.3888 0.0000
# 2 56.1368 143.1620 69.9021 0.0000 -12.1780 0.0000
# 3 35.2665 69.9021 88.4713 0.0000 -3.4566 0.0000
# 4 0.0000 0.0000 0.0000 -167.0074 0.0000 158.1097
# 5 -6.3888 -12.1780 -3.4566 0.0000 48.1198 0.0000
# 6 0.0000 0.0000 0.0000 158.1097 0.0000 -115.5742
#
#
#
# Elastic Compliance Matrix: (Units=1/GPa)
#
#
# Indices 1 2 3 4 5 6 
#
# 1 0.011042 -0.003501 -0.001618 0.000000 0.000464 0.000000
# 2 -0.003501 0.012728 -0.008577 0.000000 0.002140 0.000000
# 3 -0.001618 -0.008577 0.018684 0.000000 -0.001043 0.000000
# 4 0.000000 0.000000 0.000000 0.020287 0.000000 0.027754
# 5 0.000464 0.002140 -0.001043 0.000000 0.021310 0.000000
# 6 0.000000 0.000000 0.000000 0.027754 0.000000 0.029315
#
#
# Mechanical properties :
#
#
# Convention : Reuss Voigt Hill
#
# Bulk Modulus (GPa) = 66.38737 74.22612 70.30674
# Shear Modulus (GPa) = 34.29835 -34.61777 -0.15971
#
# Velocity S-wave (km/s) = 3.81304 -3.83076 -0.26020
# Velocity P-wave (km/s) = 6.89404 3.44944 5.45098
#
# Compressibility (1/GPa) = 0.01506311
#
# Stress axis : x y z
#
# Youngs Moduli (GPa) = 90.55967 78.56729 53.52074
#
# Poissons Ratio (x) = 0.27503 0.08658
# Poissons Ratio (y) = 0.31701 0.45907
# Poissons Ratio (z) = 0.14650 0.67391
#
# Static dielectric constant tensor:
#      x y z
#    x 4.372280 0.000000 -0.050940 
#    y 0.000000 4.395130 0.000000 
#    z -0.050940 0.000000 4.437120 
# 
# 
# High freq. dielectric constant tensor:
#      x y z
#    x 1.934290 0.000000 -0.003730 
#    y 0.000000 1.931360 0.000000 
#    z -0.003730 0.000000 1.935210 
# 
# From -- ./inp_files/3062.got.cif
#   From: 2010.03.12/outbox.cif.g09.slc.cpg/sg5_2_cif.got.tgz:3062.got - 2010.03.31 09:47:26.
