data_PCOD8049389
_publ_section_title
;
Structure prediction by ZEFSAII (Michael W. Deem and Ramdas Pophale) SiO2 
 PCOD8049389
Probable space group: C 2
;
_chemical_formula_sum "Si O2"
_cell_formula_units_Z 26
_cell_length_a 8.259473
_cell_length_b 16.294477
_cell_length_c 14.004570
_cell_angle_alpha 90.000000
_cell_angle_beta 38.331686
_cell_angle_gamma 90.000000
_cell_volume 1168.969994
_symmetry_space_group_name_H-M "C 2"
_symmetry_group_IT_number 5
_symmetry_cell_setting 'monoclinic'
loop_
_space_group_symop_operation_xyz
x,y,z
-x,y,-z
1/2+x,1/2+y,z
1/2-x,1/2+y,-z
loop_
_atom_site_type_symbol
_atom_site_label
_atom_site_fract_x
_atom_site_fract_y
_atom_site_fract_z
Si Si1 0.500000 0.828990 0.000000
Si Si2 0.820002 0.938948 0.719450
Si Si3 0.621508 0.911781 0.604829
Si Si4 0.715987 0.597814 0.164047
Si Si5 0.423265 0.738119 0.638381
Si Si6 0.077136 0.808777 0.070585
Si Si7 0.936357 0.991988 0.133680
O O1 0.263784 0.881558 0.154239
O O2 0.359993 0.776929 0.979289
O O3 0.687078 0.906742 0.685651
O O4 0.135139 0.945389 0.568492
O O5 0.717316 0.030290 0.786655
O O6 0.589141 0.817979 0.588170
O O7 0.369430 0.969941 0.705926
O O8 0.550057 0.670305 0.290641
O O9 0.538256 0.557714 0.163395
O O10 0.000000 0.631614 0.000000
O O11 0.500000 0.700750 0.500000
O O12 0.127165 0.768418 0.763296
O O13 0.097569 0.907410 0.064784
O O14 0.000000 0.779922 0.000000
O O15 0.000000 0.030206 0.000000
#
# Coordination Sequence:
#
# PCOD8049389 Si02
#       7
#     2   4   4   4   4   4   4
#     4  12  18  36  70 106 126 174 240 284 336 400
#     4  11  22  40  71 101 134 174 233 288 333 413
#     4  10  24  43  69  98 136 181 234 280 342 409
#     4  12  24  42  70  99 138 182 222 285 356 407
#     4  11  25  43  66  97 141 185 220 279 359 413
#     4  10  20  38  68 100 132 176 231 292 331 414
#     4  10  20  40  71 100 131 175 237 288 335 413
#
# _framework density 22.241804999999999
#
# number of rings (size 3 to 8) (size 9 to 14) (size 15 to 20)
#    0.000    1.231    2.308    5.077    4.308    0.615 
#    0.000    3.077   25.385    0.000    0.000    0.000 
#    0.000    0.000    0.000    0.000    0.000    0.000 
#
# Total GULP energy -161108.364883 kJ/mol
# GULP energy per Si atom -12392.951145 kJ/mol
# Density = 2.219118 g / cm^3
# Si number density = 22.241805 Si / 1000 Ang^3
#
#
#
# Elastic Constant Matrix: (Units=GPa)
#
#
# Indices 1 2 3 4 5 6 
#
# 1 163.3562 34.0958 60.7128 -0.0019 3.0745 0.0002
# 2 34.0958 77.7849 26.1799 -0.0022 15.9606 -0.0015
# 3 60.7128 26.1799 132.0403 -0.0146 13.5208 0.0014
# 4 -0.0019 -0.0022 -0.0146 33.9487 0.0022 7.1990
# 5 3.0745 15.9606 13.5208 0.0022 35.9546 0.0000
# 6 0.0002 -0.0015 0.0014 7.1990 0.0000 16.1806
#
#
#
# Elastic Compliance Matrix: (Units=1/GPa)
#
#
# Indices 1 2 3 4 5 6 
#
# 1 0.007866 -0.002711 -0.003259 -0.000001 0.001757 0.000001
# 2 -0.002711 0.015751 -0.001231 0.000000 -0.006297 0.000001
# 3 -0.003259 -0.001231 0.009601 0.000005 -0.002785 -0.000003
# 4 -0.000001 0.000000 0.000005 0.032525 -0.000004 -0.014471
# 5 0.001757 -0.006297 -0.002785 -0.000004 0.031505 0.000001
# 6 0.000001 0.000001 -0.000003 -0.014471 0.000001 0.068241
#
#
# Mechanical properties :
#
#
# Convention : Reuss Voigt Hill
#
# Bulk Modulus (GPa) = 53.15074 68.35093 60.75084
# Shear Modulus (GPa) = 26.85803 34.02965 30.44384
#
# Velocity S-wave (km/s) = 3.47875 3.91575 3.70370
# Velocity P-wave (km/s) = 6.33121 7.15833 6.75744
#
# Compressibility (1/GPa) = 0.01881441
#
# Stress axis : x y z
#
# Youngs Moduli (GPa) = 127.13490 63.48800 104.15258
#
# Poissons Ratio (x) = 0.17214 0.33943
# Poissons Ratio (y) = 0.34471 0.12826
# Poissons Ratio (z) = 0.41433 0.07818
#
# Static dielectric constant tensor:
#      x y z
#    x 4.214580 -0.000010 -0.013790 
#    y -0.000010 3.724510 0.000010 
#    z -0.013790 0.000010 4.331850 
# 
# 
# High freq. dielectric constant tensor:
#      x y z
#    x 1.885950 0.000000 0.009210 
#    y 0.000000 1.846380 0.000000 
#    z 0.009210 0.000000 1.889740 
# 
# From -- ./inp_files/51066.got.cif
#   From: 2010.03.12/outbox.cif.g09.slc.cpg/sg5_26_cif.got.tgz:51066.got - 2010.03.31 09:47:26.
