data_PCOD8049032
_publ_section_title
;
Structure prediction by ZEFSAII (Michael W. Deem and Ramdas Pophale) SiO2 
 PCOD8049032
Probable space group: C 2
;
_chemical_formula_sum "Si O2"
_cell_formula_units_Z 24
_cell_length_a 17.876061
_cell_length_b 5.073195
_cell_length_c 29.137952
_cell_angle_alpha 90.000000
_cell_angle_beta 152.188905
_cell_angle_gamma 90.000000
_cell_volume 1232.871970
_symmetry_space_group_name_H-M "C 2"
_symmetry_group_IT_number 5
_symmetry_cell_setting 'monoclinic'
loop_
_space_group_symop_operation_xyz
x,y,z
-x,y,-z
1/2+x,1/2+y,z
1/2-x,1/2+y,-z
loop_
_atom_site_type_symbol
_atom_site_label
_atom_site_fract_x
_atom_site_fract_y
_atom_site_fract_z
Si Si1 0.352150 0.640510 0.654079
Si Si2 0.579727 0.968847 0.940660
Si Si3 0.135321 0.141095 0.536141
Si Si4 0.116521 0.230756 0.868599
Si Si5 0.429514 0.457698 0.011375
Si Si6 0.350478 0.541302 0.554669
O O1 0.209964 0.429781 0.583441
O O2 0.485486 0.597995 0.765058
O O3 0.438835 0.604074 0.651022
O O4 0.278156 0.930757 0.618807
O O5 0.529078 0.898229 0.861344
O O6 0.522499 0.743393 0.944577
O O7 0.497071 0.238690 0.913496
O O8 0.775729 0.000192 0.048811
O O9 0.055317 0.111998 0.441477
O O10 0.000000 0.088846 0.500000
O O11 0.235833 0.419496 0.904028
O O12 0.500000 0.409718 0.000000
O O13 0.306604 0.232002 0.530270
#
# Coordination Sequence:
#
# PCOD8049032 Si02
#       6
#     4   4   4   4   4   4
#     4  10  21  33  59  81 105 146 188 228 252 351
#     4  10  20  35  56  77 113 154 181 232 277 331
#     4  10  20  36  57  80 113 140 176 228 294 319
#     4  10  21  36  57  83 109 148 202 217 277 327
#     4  10  20  35  56  77 107 150 186 227 286 322
#     4   8  16  33  51  74 100 138 170 210 274 322
#
# _framework density 19.466743000000001
#
# number of rings (size 3 to 8) (size 9 to 14) (size 15 to 20)
#    1.000    1.333    1.667    1.000    2.333    0.000 
#    0.000    3.333    0.000    0.000    0.000    0.000 
#    0.000    0.000    0.000    0.000    0.000    0.000 
#
# Total GULP energy -148666.020817 kJ/mol
# GULP energy per Si atom -12388.835068 kJ/mol
# Density = 1.942244 g / cm^3
# Si number density = 19.466743 Si / 1000 Ang^3
#
#
#
# Elastic Constant Matrix: (Units=GPa)
#
#
# Indices 1 2 3 4 5 6 
#
# 1 133.5208 10.0503 22.1485 -0.0407 -24.2714 0.0622
# 2 10.0503 92.9277 2.4015 -0.0547 -4.5699 0.1207
# 3 22.1485 2.4015 68.6042 0.0005 -27.5997 0.0126
# 4 -0.0407 -0.0547 0.0005 15.7356 0.0080 -4.0340
# 5 -24.2714 -4.5699 -27.5997 0.0080 25.3268 -0.0022
# 6 0.0622 0.1207 0.0126 -4.0340 -0.0022 29.0889
#
#
#
# Elastic Compliance Matrix: (Units=1/GPa)
#
#
# Indices 1 2 3 4 5 6 
#
# 1 0.009135 -0.000535 0.000984 0.000013 0.009731 -0.000015
# 2 -0.000535 0.010909 0.000670 0.000025 0.002186 -0.000041
# 3 0.000984 0.000670 0.026110 -0.000015 0.029517 -0.000016
# 4 0.000013 0.000025 -0.000015 0.065893 -0.000019 0.009138
# 5 0.009731 0.002186 0.029517 -0.000019 0.081370 -0.000039
# 6 -0.000015 -0.000041 -0.000016 0.009138 -0.000039 0.035645
#
#
# Mechanical properties :
#
#
# Convention : Reuss Voigt Hill
#
# Bulk Modulus (GPa) = 20.66383 40.47257 30.56820
# Shear Modulus (GPa) = 20.58001 31.39375 25.98688
#
# Velocity S-wave (km/s) = 3.25497 4.02018 3.65764
# Velocity P-wave (km/s) = 4.97639 6.51037 5.79437
#
# Compressibility (1/GPa) = 0.04839373
#
# Stress axis : x y z
#
# Youngs Moduli (GPa) = 109.46522 91.66607 38.29931
#
# Poissons Ratio (x) = 0.04903 -0.03769
# Poissons Ratio (y) = 0.05855 -0.02568
# Poissons Ratio (z) = -0.10772 -0.06145
#
# Static dielectric constant tensor:
#      x y z
#    x 3.543910 -0.000150 -0.395960 
#    y -0.000150 3.605090 0.000030 
#    z -0.395960 0.000030 3.034930 
# 
# 
# High freq. dielectric constant tensor:
#      x y z
#    x 1.758480 -0.000010 -0.041830 
#    y -0.000010 1.776570 0.000000 
#    z -0.041830 0.000000 1.697760 
# 
# From -- ./inp_files/70756.got.cif
#   From: 2010.03.12/outbox.cif.g09.slc.cpg/sg5_36_cif.got.tgz:70756.got - 2010.03.31 09:47:26.
