data_PCOD8049244
_publ_section_title
;
Structure prediction by ZEFSAII (Michael W. Deem and Ramdas Pophale) SiO2 
 PCOD8049244
Probable space group: C 2
;
_chemical_formula_sum "Si O2"
_cell_formula_units_Z 32
_cell_length_a 4.966049
_cell_length_b 22.791680
_cell_length_c 12.891553
_cell_angle_alpha 90.000000
_cell_angle_beta 77.274360
_cell_angle_gamma 90.000000
_cell_volume 1423.283407
_symmetry_space_group_name_H-M "C 2"
_symmetry_group_IT_number 5
_symmetry_cell_setting 'monoclinic'
loop_
_space_group_symop_operation_xyz
x,y,z
-x,y,-z
1/2+x,1/2+y,z
1/2-x,1/2+y,-z
loop_
_atom_site_type_symbol
_atom_site_label
_atom_site_fract_x
_atom_site_fract_y
_atom_site_fract_z
Si Si1 0.489642 0.171470 0.117345
Si Si2 0.418258 0.691725 0.255747
Si Si3 0.348764 0.303264 0.624422
Si Si4 0.802754 0.420950 0.930670
Si Si5 0.709198 0.459981 0.566596
Si Si6 0.970438 0.542523 0.827088
Si Si7 0.539987 0.563889 0.695958
Si Si8 0.291468 0.864698 0.714356
O O1 0.759635 0.187020 0.160074
O O2 0.464938 0.100496 0.109902
O O3 0.235041 0.202547 0.197664
O O4 0.500000 0.196980 0.000000
O O5 0.294599 0.741044 0.340487
O O6 0.413088 0.632795 0.326015
O O7 0.500000 0.302942 0.500000
O O8 0.576075 0.314907 0.694858
O O9 0.101157 0.350626 0.648693
O O10 0.789076 0.374209 0.838003
O O11 0.955965 0.482519 0.892223
O O12 0.500000 0.433535 0.000000
O O13 0.000000 0.390938 0.000000
O O14 0.500000 0.434596 0.500000
O O15 0.676780 0.529405 0.588609
O O16 0.675781 0.425569 0.677249
O O17 0.000000 0.443420 0.500000
O O18 0.223589 0.541208 0.723657
O O19 0.680153 0.547419 0.793146
#
# Coordination Sequence:
#
# PCOD8049244 Si02
#       8
#     4   4   4   4   4   4   4   4
#     4  10  20  38  64 100 135 172 217 261 328 401
#     4  10  23  42  66  95 131 169 224 278 327 387
#     4  12  26  48  73  95 123 180 236 282 336 394
#     4  12  25  41  66  99 137 185 223 266 338 403
#     4  12  24  39  66  97 131 172 212 269 349 403
#     4  10  20  37  62  94 137 178 212 257 317 399
#     4  10  21  39  62  96 137 169 204 275 334 391
#     4  12  26  46  67  97 137 168 231 287 324 396
#
# _framework density 22.483226999999999
#
# number of rings (size 3 to 8) (size 9 to 14) (size 15 to 20)
#    0.000    1.000    1.250    6.000    1.750    2.500 
#    0.000    7.500    0.000    0.000    0.000    0.000 
#    0.000    0.000    0.000    0.000    0.000    0.000 
#
# Total GULP energy -198368.262305 kJ/mol
# GULP energy per Si atom -12398.016394 kJ/mol
# Density = 2.243205 g / cm^3
# Si number density = 22.483227 Si / 1000 Ang^3
#
#
#
# Elastic Constant Matrix: (Units=GPa)
#
#
# Indices 1 2 3 4 5 6 
#
# 1 130.2526 33.7932 41.8759 0.0000 -1.0945 0.0000
# 2 33.7932 99.8583 55.9491 0.0000 -7.4287 0.0000
# 3 41.8759 55.9491 105.9916 0.0000 3.8743 0.0000
# 4 0.0000 0.0000 0.0000 24.9718 0.0000 -3.7461
# 5 -1.0945 -7.4287 3.8743 0.0000 34.3558 0.0000
# 6 0.0000 0.0000 0.0000 -3.7461 0.0000 32.6411
#
#
#
# Elastic Compliance Matrix: (Units=1/GPa)
#
#
# Indices 1 2 3 4 5 6 
#
# 1 0.008950 -0.001449 -0.002782 0.000000 0.000285 0.000000
# 2 -0.001449 0.015005 -0.007496 0.000000 0.004044 0.000000
# 3 -0.002782 -0.007496 0.014613 0.000000 -0.003357 0.000000
# 4 0.000000 0.000000 0.000000 0.040747 0.000000 0.004676
# 5 0.000285 0.004044 -0.003357 0.000000 0.030369 0.000000
# 6 0.000000 0.000000 0.000000 0.004676 0.000000 0.031173
#
#
# Mechanical properties :
#
#
# Convention : Reuss Voigt Hill
#
# Bulk Modulus (GPa) = 66.15845 66.59322 66.37584
# Shear Modulus (GPa) = 29.52476 32.02601 30.77538
#
# Velocity S-wave (km/s) = 3.62773 3.77827 3.70376
# Velocity P-wave (km/s) = 6.85834 6.97977 6.91932
#
# Compressibility (1/GPa) = 0.01511523
#
# Stress axis : x y z
#
# Youngs Moduli (GPa) = 111.73179 66.64289 68.43081
#
# Poissons Ratio (x) = 0.09657 0.19034
# Poissons Ratio (y) = 0.16191 0.51296
# Poissons Ratio (z) = 0.31079 0.49956
#
# Static dielectric constant tensor:
#      x y z
#    x 4.266950 0.000000 0.018400 
#    y 0.000000 3.977400 0.000000 
#    z 0.018400 0.000000 3.759190 
# 
# 
# High freq. dielectric constant tensor:
#      x y z
#    x 1.909290 0.000000 0.001130 
#    y 0.000000 1.877820 0.000000 
#    z 0.001130 0.000000 1.870710 
# 
# From -- ./inp_files/34303.got.cif
#   From: 2010.03.12/outbox.cif.g09.slc.cpg/sg5_18_cif.got.tgz:34303.got - 2010.03.31 09:47:26.
