data_PCOD8049368
_publ_section_title
;
Structure prediction by ZEFSAII (Michael W. Deem and Ramdas Pophale) SiO2 
 PCOD8049368
Probable space group: C 2
;
_chemical_formula_sum "Si O2"
_cell_formula_units_Z 32
_cell_length_a 20.272168
_cell_length_b 14.768329
_cell_length_c 13.673547
_cell_angle_alpha 90.000000
_cell_angle_beta 23.430739
_cell_angle_gamma 90.000000
_cell_volume 1627.807455
_symmetry_space_group_name_H-M "C 2"
_symmetry_group_IT_number 5
_symmetry_cell_setting 'monoclinic'
loop_
_space_group_symop_operation_xyz
x,y,z
-x,y,-z
1/2+x,1/2+y,z
1/2-x,1/2+y,-z
loop_
_atom_site_type_symbol
_atom_site_label
_atom_site_fract_x
_atom_site_fract_y
_atom_site_fract_z
Si Si1 0.519717 0.257280 0.183758
Si Si2 0.289046 0.571898 0.180702
Si Si3 0.246877 0.843271 0.582218
Si Si4 0.682780 0.870305 0.292192
Si Si5 0.344727 0.543801 0.324877
Si Si6 0.134354 0.758915 0.392064
Si Si7 0.053472 0.381240 0.036869
Si Si8 0.486939 0.083887 0.128653
O O1 0.382615 0.271350 0.284539
O O2 0.433686 0.264104 0.405510
O O3 0.574905 0.154084 0.084047
O O4 0.676777 0.325154 0.967868
O O5 0.198291 0.479260 0.273045
O O6 0.299563 0.586726 0.282457
O O7 0.187139 0.658671 0.283562
O O8 0.474479 0.574468 0.883546
O O9 0.287342 0.827997 0.641112
O O10 0.150407 0.936447 0.695269
O O11 0.419700 0.837296 0.290701
O O12 0.500000 0.845601 0.500000
O O13 0.210399 0.574613 0.585861
O O14 0.276647 0.830711 0.179516
O O15 0.000000 0.794237 0.500000
O O16 0.076073 0.487902 0.027522
O O17 0.000000 0.364021 0.000000
O O18 0.500000 0.116510 0.000000
#
# Coordination Sequence:
#
# PCOD8049368 Si02
#       8
#     4   4   4   4   4   4   4   4
#     4  12  23  43  65  94 126 166 213 269 306 379
#     4  10  20  39  64  92 128 160 211 260 316 368
#     4  10  20  38  65  94 125 159 212 255 312 368
#     4  11  24  40  65  95 132 169 204 259 321 377
#     4   9  18  34  62  99 119 156 206 267 304 364
#     4  12  27  42  62  94 130 169 211 261 323 376
#     4  10  22  41  65  94 123 165 211 264 313 376
#     4  10  21  37  63  95 128 156 207 264 319 364
#
# _framework density 19.658344
#
# number of rings (size 3 to 8) (size 9 to 14) (size 15 to 20)
#    0.000    1.500    3.750    1.500    5.250    0.000 
#    0.000    0.625    0.000    0.000    0.000    0.000 
#    0.000    0.000    0.000    0.000    0.000    0.000 
#
# Total GULP energy -198389.097076 kJ/mol
# GULP energy per Si atom -12399.318567 kJ/mol
# Density = 1.961360 g / cm^3
# Si number density = 19.658344 Si / 1000 Ang^3
#
#
#
# Elastic Constant Matrix: (Units=GPa)
#
#
# Indices 1 2 3 4 5 6 
#
# 1 70.4601 31.6684 54.8005 0.0009 -10.9682 0.0001
# 2 31.6684 84.4574 54.2968 0.0018 -9.4553 0.0001
# 3 54.8005 54.2968 129.3306 0.0025 -0.0312 0.0005
# 4 0.0009 0.0018 0.0025 35.6589 0.0006 -2.9585
# 5 -10.9682 -9.4553 -0.0312 0.0006 37.4483 -0.0001
# 6 0.0001 0.0001 0.0005 -2.9585 -0.0001 25.9280
#
#
#
# Elastic Compliance Matrix: (Units=1/GPa)
#
#
# Indices 1 2 3 4 5 6 
#
# 1 0.023016 -0.002290 -0.008789 0.000000 0.006156 0.000000
# 2 -0.002290 0.017097 -0.006206 0.000000 0.003641 0.000000
# 3 -0.008789 -0.006206 0.014061 0.000000 -0.004130 0.000000
# 4 0.000000 0.000000 0.000000 0.028311 -0.000001 0.003230
# 5 0.006156 0.003641 -0.004130 -0.000001 0.029422 0.000000
# 6 0.000000 0.000000 0.000000 0.003230 0.000000 0.038937
#
#
# Mechanical properties :
#
#
# Convention : Reuss Voigt Hill
#
# Bulk Modulus (GPa) = 51.01657 62.86439 56.94048
# Shear Modulus (GPa) = 26.04840 29.37254 27.71047
#
# Velocity S-wave (km/s) = 3.64408 3.86962 3.75854
# Velocity P-wave (km/s) = 6.61163 7.21202 6.91834
#
# Compressibility (1/GPa) = 0.01960147
#
# Stress axis : x y z
#
# Youngs Moduli (GPa) = 43.44798 58.49092 71.11880
#
# Poissons Ratio (x) = 0.13397 0.62509
# Poissons Ratio (y) = 0.09951 0.44138
# Poissons Ratio (z) = 0.38188 0.36301
#
# Static dielectric constant tensor:
#      x y z
#    x 3.359960 0.000000 0.194670 
#    y 0.000000 3.723140 0.000000 
#    z 0.194670 0.000000 3.672310 
# 
# 
# High freq. dielectric constant tensor:
#      x y z
#    x 1.740410 0.000000 0.015800 
#    y 0.000000 1.773690 0.000000 
#    z 0.015800 0.000000 1.776310 
# 
# From -- ./inp_files/31090.got.cif
#   From: 2010.03.12/outbox.cif.g09.slc.cpg/sg5_16_cif.got.tgz:31090.got - 2010.03.31 09:47:26.
