data_PCOD8049142
_publ_section_title
;
Structure prediction by ZEFSAII (Michael W. Deem and Ramdas Pophale) SiO2 
 PCOD8049142
Probable space group: C 2
;
_chemical_formula_sum "Si O2"
_cell_formula_units_Z 24
_cell_length_a 13.526031
_cell_length_b 8.345888
_cell_length_c 14.096696
_cell_angle_alpha 90.000000
_cell_angle_beta 42.459646
_cell_angle_gamma 90.000000
_cell_volume 1074.260402
_symmetry_space_group_name_H-M "C 2"
_symmetry_group_IT_number 5
_symmetry_cell_setting 'monoclinic'
loop_
_space_group_symop_operation_xyz
x,y,z
-x,y,-z
1/2+x,1/2+y,z
1/2-x,1/2+y,-z
loop_
_atom_site_type_symbol
_atom_site_label
_atom_site_fract_x
_atom_site_fract_y
_atom_site_fract_z
Si Si1 0.621082 0.527710 0.295731
Si Si2 0.360967 0.207105 0.360690
Si Si3 0.663148 0.866517 0.350236
Si Si4 0.184662 0.918562 0.446011
Si Si5 0.682721 0.309680 0.090965
Si Si6 0.337776 0.522467 0.071181
O O1 0.671670 0.705112 0.282557
O O2 0.667189 0.400261 0.345535
O O3 0.444902 0.527526 0.416234
O O4 0.696477 0.469692 0.145716
O O5 0.269696 0.335920 0.363575
O O6 0.318807 0.246291 0.500463
O O7 0.531231 0.222082 0.219916
O O8 0.330449 0.020740 0.363492
O O9 0.500000 0.910795 0.500000
O O10 0.724657 0.007828 0.239505
O O11 0.810721 0.185189 0.029818
O O12 0.687787 0.367859 0.978767
O O13 0.500000 0.524386 0.000000
#
# Coordination Sequence:
#
# PCOD8049142 Si02
#       6
#     4   4   4   4   4   4
#     4   9  18  40  62  91 132 172 218 272 339 399
#     4  10  20  36  63  96 133 177 224 275 345 404
#     4  11  21  42  70 100 135 180 222 285 351 405
#     4   9  18  33  57  95 134 163 213 275 332 399
#     4  11  25  46  68  95 135 188 230 285 338 411
#     4  12  27  50  69 101 142 183 235 284 343 412
#
# _framework density 22.340951
#
# number of rings (size 3 to 8) (size 9 to 14) (size 15 to 20)
#    0.000    1.667    5.000    1.000    2.333    1.333 
#    9.000    0.000    0.000    0.000    0.000    0.000 
#    0.000    0.000    0.000    0.000    0.000    0.000 
#
# Total GULP energy -148765.583418 kJ/mol
# GULP energy per Si atom -12397.131951 kJ/mol
# Density = 2.229010 g / cm^3
# Si number density = 22.340951 Si / 1000 Ang^3
#
#
#
# Elastic Constant Matrix: (Units=GPa)
#
#
# Indices 1 2 3 4 5 6 
#
# 1 108.9771 27.0903 39.8415 0.0000 -4.8969 0.0000
# 2 27.0903 45.7380 19.8390 0.0000 -7.2875 0.0000
# 3 39.8415 19.8390 97.3248 0.0000 5.4144 0.0000
# 4 0.0000 0.0000 0.0000 20.5899 0.0000 7.0479
# 5 -4.8969 -7.2875 5.4144 0.0000 23.0945 0.0000
# 6 0.0000 0.0000 0.0000 7.0479 0.0000 34.8255
#
#
#
# Elastic Compliance Matrix: (Units=1/GPa)
#
#
# Indices 1 2 3 4 5 6 
#
# 1 0.011973 -0.005071 -0.003972 0.000000 0.001870 0.000000
# 2 -0.005071 0.028051 -0.004129 0.000000 0.008744 0.000000
# 3 -0.003972 -0.004129 0.013032 0.000000 -0.005200 0.000000
# 4 0.000000 0.000000 0.000000 0.052182 0.000000 -0.010561
# 5 0.001870 0.008744 -0.005200 0.000000 0.047675 0.000000
# 6 0.000000 0.000000 0.000000 -0.010561 0.000000 0.030852
#
#
# Mechanical properties :
#
#
# Convention : Reuss Voigt Hill
#
# Bulk Modulus (GPa) = 37.43450 47.28685 42.36068
# Shear Modulus (GPa) = 22.82985 26.71993 24.77489
#
# Velocity S-wave (km/s) = 3.20016 3.46209 3.33370
# Velocity P-wave (km/s) = 5.51789 6.09863 5.81551
#
# Compressibility (1/GPa) = 0.02671333
#
# Stress axis : x y z
#
# Youngs Moduli (GPa) = 83.52265 35.64920 76.73645
#
# Poissons Ratio (x) = 0.18077 0.30477
# Poissons Ratio (y) = 0.42353 0.31682
# Poissons Ratio (z) = 0.33172 0.14718
#
# Static dielectric constant tensor:
#      x y z
#    x 4.308230 0.000000 0.205850 
#    y 0.000000 3.665030 0.000000 
#    z 0.205850 0.000000 3.834670 
# 
# 
# High freq. dielectric constant tensor:
#      x y z
#    x 1.894200 0.000000 0.010460 
#    y 0.000000 1.858380 0.000000 
#    z 0.010460 0.000000 1.866260 
# 
# From -- ./inp_files/54080.got.cif
#   From: 2010.03.12/outbox.cif.g09.slc.cpg/sg5_28_cif.got.tgz:54080.got - 2010.03.31 09:47:26.
