data_PCOD8049980
_publ_section_title
;
Structure prediction by ZEFSAII (Michael W. Deem and Ramdas Pophale) SiO2 
 PCOD8049980
Probable space group: C 2
;
_chemical_formula_sum "Si O2"
_cell_formula_units_Z 26
_cell_length_a 19.778682
_cell_length_b 8.584098
_cell_length_c 8.102804
_cell_angle_alpha 90.000000
_cell_angle_beta 56.273503
_cell_angle_gamma 90.000000
_cell_volume 1144.175683
_symmetry_space_group_name_H-M "C 2"
_symmetry_group_IT_number 5
_symmetry_cell_setting 'monoclinic'
loop_
_space_group_symop_operation_xyz
x,y,z
-x,y,-z
1/2+x,1/2+y,z
1/2-x,1/2+y,-z
loop_
_atom_site_type_symbol
_atom_site_label
_atom_site_fract_x
_atom_site_fract_y
_atom_site_fract_z
Si Si1 0.091117 0.920780 0.437551
Si Si2 0.550293 0.859669 0.271977
Si Si3 0.269089 0.830308 0.625729
Si Si4 0.301245 0.642488 0.891843
Si Si5 0.147793 0.589786 0.316249
Si Si6 0.145443 0.080258 0.683767
Si Si7 0.000000 0.253233 0.000000
O O1 0.115087 0.743904 0.448996
O O2 0.000000 0.932176 0.500000
O O3 0.155945 0.979085 0.213260
O O4 0.096864 0.034345 0.585180
O O5 0.500000 0.796162 0.500000
O O6 0.630550 0.758562 0.135110
O O7 0.581350 0.036004 0.268803
O O8 0.499289 0.857048 0.169433
O O9 0.252872 0.718066 0.803617
O O10 0.291148 0.720501 0.440248
O O11 0.344196 0.949786 0.560509
O O12 0.188290 0.927494 0.697209
O O13 0.238296 0.610220 0.122567
O O14 0.079305 0.143404 0.901811
#
# Coordination Sequence:
#
# PCOD8049980 Si02
#       7
#     4   4   4   4   4   4   2
#     4  11  22  38  61  91 129 170 208 259 324 378
#     4  11  23  43  65  92 130 172 214 260 320 382
#     4  10  22  40  63  90 124 165 209 263 317 370
#     4  10  21  39  63  89 121 166 215 258 312 378
#     4  11  22  39  64  92 124 167 214 260 316 376
#     4  11  24  41  64  92 125 164 215 265 314 379
#     4  12  24  40  68  98 128 170 216 260 316 386
#
# _framework density 22.723783000000001
#
# number of rings (size 3 to 8) (size 9 to 14) (size 15 to 20)
#    0.000    1.231    0.000    8.308    0.000    3.692 
#    0.000    3.077    0.000    4.615    0.000    0.000 
#    0.000    0.000    0.000    0.000    0.000    0.000 
#
# Total GULP energy -161204.594918 kJ/mol
# GULP energy per Si atom -12400.353455 kJ/mol
# Density = 2.267206 g / cm^3
# Si number density = 22.723783 Si / 1000 Ang^3
#
#
#
# Elastic Constant Matrix: (Units=GPa)
#
#
# Indices 1 2 3 4 5 6 
#
# 1 92.0262 13.5752 35.1708 0.0000 -10.3029 0.0000
# 2 13.5752 90.9484 16.9088 0.0000 -12.8216 0.0000
# 3 35.1708 16.9088 97.6599 0.0000 -5.7004 0.0000
# 4 0.0000 0.0000 0.0000 16.8021 0.0000 -3.4846
# 5 -10.3029 -12.8216 -5.7004 0.0000 30.7816 0.0000
# 6 0.0000 0.0000 0.0000 -3.4846 0.0000 47.2604
#
#
#
# Elastic Compliance Matrix: (Units=1/GPa)
#
#
# Indices 1 2 3 4 5 6 
#
# 1 0.013003 -0.000667 -0.004377 0.000000 0.003264 0.000000
# 2 -0.000667 0.012022 -0.001579 0.000000 0.004492 0.000000
# 3 -0.004377 -0.001579 0.012096 0.000000 0.000117 0.000000
# 4 0.000000 0.000000 0.000000 0.060441 0.000000 0.004456
# 5 0.003264 0.004492 0.000117 0.000000 0.035472 0.000000
# 6 0.000000 0.000000 0.000000 0.004456 0.000000 0.021488
#
#
# Mechanical properties :
#
#
# Convention : Reuss Voigt Hill
#
# Bulk Modulus (GPa) = 41.88487 45.77160 43.82823
# Shear Modulus (GPa) = 28.45347 33.30080 30.87713
#
# Velocity S-wave (km/s) = 3.54240 3.83229 3.69019
# Velocity P-wave (km/s) = 5.93327 6.30620 6.12258
#
# Compressibility (1/GPa) = 0.02387497
#
# Stress axis : x y z
#
# Youngs Moduli (GPa) = 76.90512 83.18354 82.67114
#
# Poissons Ratio (x) = 0.05548 0.36184
# Poissons Ratio (y) = 0.05130 0.13054
# Poissons Ratio (z) = 0.33660 0.13135
#
# Static dielectric constant tensor:
#      x y z
#    x 4.178350 0.000000 0.005160 
#    y 0.000000 4.235760 0.000000 
#    z 0.005160 0.000000 3.866440 
# 
# 
# High freq. dielectric constant tensor:
#      x y z
#    x 1.901840 0.000000 -0.006130 
#    y 0.000000 1.899840 0.000000 
#    z -0.006130 0.000000 1.881660 
# 
# From -- ./inp_files/29080.got.cif
#   From: 2010.03.12/outbox.cif.g09.slc.cpg/sg5_15_cif.got.tgz:29080.got - 2010.03.31 09:47:26.
