data_PCOD8049155
_publ_section_title
;
Structure prediction by ZEFSAII (Michael W. Deem and Ramdas Pophale) SiO2 
 PCOD8049155
Probable space group: C 2
;
_chemical_formula_sum "Si O2"
_cell_formula_units_Z 30
_cell_length_a 15.938967
_cell_length_b 9.587287
_cell_length_c 10.876605
_cell_angle_alpha 90.000000
_cell_angle_beta 69.012050
_cell_angle_gamma 90.000000
_cell_volume 1551.801061
_symmetry_space_group_name_H-M "C 2"
_symmetry_group_IT_number 5
_symmetry_cell_setting 'monoclinic'
loop_
_space_group_symop_operation_xyz
x,y,z
-x,y,-z
1/2+x,1/2+y,z
1/2-x,1/2+y,-z
loop_
_atom_site_type_symbol
_atom_site_label
_atom_site_fract_x
_atom_site_fract_y
_atom_site_fract_z
Si Si1 0.000000 0.676710 0.500000
Si Si2 0.855410 0.845504 0.694762
Si Si3 0.204675 0.137345 0.861805
Si Si4 0.363707 0.634342 0.827613
Si Si5 0.774207 0.360681 0.717327
Si Si6 0.070753 0.197068 0.717606
Si Si7 0.624955 0.962315 0.544579
Si Si8 0.819865 0.960630 0.451909
O O1 0.948224 0.762494 0.633256
O O2 0.943639 0.586253 0.433721
O O3 0.775817 0.758433 0.797395
O O4 0.869671 0.980145 0.770398
O O5 0.837579 0.870816 0.561199
O O6 0.116652 0.160322 0.823695
O O7 0.254098 0.990267 0.816984
O O8 0.174279 0.138350 0.016801
O O9 0.291232 0.720463 0.784747
O O10 0.463311 0.697502 0.779579
O O11 0.866827 0.384503 0.592454
O O12 0.690507 0.356976 0.662501
O O13 0.098026 0.352546 0.663647
O O14 0.105499 0.080917 0.602294
O O15 0.722082 0.033185 0.522656
#
# Coordination Sequence:
#
# PCOD8049155 Si02
#       8
#     2   4   4   4   4   4   4   4
#     4  12  22  36  60  94 128 150 200 276 316 352
#     4  12  23  40  61  94 124 162 202 260 316 361
#     4  11  22  44  60  85 130 174 202 245 309 373
#     4  12  25  37  63  94 124 165 217 250 286 381
#     4   9  20  40  63  85 123 163 201 250 312 367
#     4  11  21  40  63  95 120 160 211 254 312 361
#     4  10  20  36  65  88 121 156 195 258 321 362
#     4   9  21  39  62  87 125 154 197 259 314 373
#
# _framework density 19.332374000000002
#
# number of rings (size 3 to 8) (size 9 to 14) (size 15 to 20)
#    0.800    0.533    2.667    3.600    0.000    1.067 
#    0.000    0.000    0.000    0.000    0.000    0.000 
#    0.000    0.000    0.000    0.000    0.000    0.000 
#
# Total GULP energy -185841.792424 kJ/mol
# GULP energy per Si atom -12389.452828 kJ/mol
# Density = 1.928837 g / cm^3
# Si number density = 19.332374 Si / 1000 Ang^3
#
#
#
# Elastic Constant Matrix: (Units=GPa)
#
#
# Indices 1 2 3 4 5 6 
#
# 1 57.9922 23.5257 33.5694 0.0000 5.2833 0.0000
# 2 23.5257 90.2333 50.9430 0.0000 8.6655 0.0000
# 3 33.5694 50.9430 126.9641 0.0000 9.2874 0.0000
# 4 0.0000 0.0000 0.0000 21.3953 0.0000 2.7173
# 5 5.2833 8.6655 9.2874 0.0000 17.8190 0.0000
# 6 0.0000 0.0000 0.0000 2.7173 0.0000 32.9330
#
#
#
# Elastic Compliance Matrix: (Units=1/GPa)
#
#
# Indices 1 2 3 4 5 6 
#
# 1 0.021097 -0.002852 -0.004239 0.000000 -0.002659 0.000000
# 2 -0.002852 0.015012 -0.004987 0.000000 -0.003855 0.000000
# 3 -0.004239 -0.004987 0.011154 0.000000 -0.002131 0.000000
# 4 0.000000 0.000000 0.000000 0.047234 0.000000 -0.003897
# 5 -0.002659 -0.003855 -0.002131 0.000000 0.059894 0.000000
# 6 0.000000 0.000000 0.000000 -0.003897 0.000000 0.030686
#
#
# Mechanical properties :
#
#
# Convention : Reuss Voigt Hill
#
# Bulk Modulus (GPa) = 43.27858 54.58510 48.93184
# Shear Modulus (GPa) = 23.04830 25.57289 24.31059
#
# Velocity S-wave (km/s) = 3.45659 3.64098 3.54998
# Velocity P-wave (km/s) = 6.19402 6.78027 6.49376
#
# Compressibility (1/GPa) = 0.02310612
#
# Stress axis : x y z
#
# Youngs Moduli (GPa) = 47.40073 66.61423 89.65280
#
# Poissons Ratio (x) = 0.18996 0.38007
# Poissons Ratio (y) = 0.13517 0.44713
# Poissons Ratio (z) = 0.20095 0.33223
#
# Static dielectric constant tensor:
#      x y z
#    x 3.355530 0.000000 0.057680 
#    y 0.000000 3.438310 0.000000 
#    z 0.057680 0.000000 3.433140 
# 
# 
# High freq. dielectric constant tensor:
#      x y z
#    x 1.754680 0.000000 -0.001910 
#    y 0.000000 1.752670 0.000000 
#    z -0.001910 0.000000 1.744260 
# 
# From -- ./inp_files/44300.got.cif
#   From: 2010.03.12/outbox.cif.g09.slc.cpg/sg5_23_cif.got.tgz:44300.got - 2010.03.31 09:47:26.
