data_PCOD8049489
_publ_section_title
;
Structure prediction by ZEFSAII (Michael W. Deem and Ramdas Pophale) SiO2 
 PCOD8049489
Probable space group: C 2
;
_chemical_formula_sum "Si O2"
_cell_formula_units_Z 28
_cell_length_a 18.906862
_cell_length_b 8.888672
_cell_length_c 21.052175
_cell_angle_alpha 90.000000
_cell_angle_beta 155.616206
_cell_angle_gamma 90.000000
_cell_volume 1460.636869
_symmetry_space_group_name_H-M "C 2"
_symmetry_group_IT_number 5
_symmetry_cell_setting 'monoclinic'
loop_
_space_group_symop_operation_xyz
x,y,z
-x,y,-z
1/2+x,1/2+y,z
1/2-x,1/2+y,-z
loop_
_atom_site_type_symbol
_atom_site_label
_atom_site_fract_x
_atom_site_fract_y
_atom_site_fract_z
Si Si1 0.841554 0.747990 0.603831
Si Si2 0.288029 0.965034 0.983833
Si Si3 0.971043 0.047726 0.647618
Si Si4 0.155174 0.896176 0.081676
Si Si5 0.623971 0.689516 0.656144
Si Si6 0.066591 0.682718 0.180509
Si Si7 0.303105 0.127128 0.120245
O O1 0.653124 0.685298 0.434330
O O2 0.856121 0.762724 0.692927
O O3 0.991853 0.635487 0.704525
O O4 0.867014 0.898629 0.583126
O O5 0.275999 0.788296 0.961613
O O6 0.148521 0.057923 0.829676
O O7 0.477966 0.023140 0.122969
O O8 0.250110 0.002063 0.025555
O O9 0.024158 0.059393 0.615567
O O10 0.319765 0.819495 0.249369
O O11 0.220522 0.061655 0.116051
O O12 0.000000 0.932199 0.000000
O O13 0.081452 0.793423 0.965067
O O14 0.500000 0.753929 0.500000
O O15 0.795518 0.635931 0.760146
#
# Coordination Sequence:
#
# PCOD8049489 Si02
#       7
#     4   4   4   4   4   4   4
#     4  10  23  36  60  87 122 154 208 244 304 355
#     4  10  21  37  62  87 120 153 201 256 301 358
#     4  11  22  37  58  89 118 161 197 255 297 356
#     4  10  21  38  62  86 117 157 200 245 305 360
#     4  11  22  38  63  87 119 162 206 243 301 376
#     4  10  20  40  61  90 113 161 202 249 303 366
#     4  10  21  39  58  91 118 152 204 250 305 358
#
# _framework density 19.169720000000002
#
# number of rings (size 3 to 8) (size 9 to 14) (size 15 to 20)
#    0.000    1.714    2.857    2.571    2.000    1.143 
#    5.143    0.000    0.000    3.429    0.000    0.000 
#    0.000    0.000    0.000    0.000    0.000    0.000 
#
# Total GULP energy -173456.962943 kJ/mol
# GULP energy per Si atom -12389.783067 kJ/mol
# Density = 1.912609 g / cm^3
# Si number density = 19.169720 Si / 1000 Ang^3
#
#
#
# Elastic Constant Matrix: (Units=GPa)
#
#
# Indices 1 2 3 4 5 6 
#
# 1 107.3038 72.6564 31.0720 0.0000 14.2210 0.0000
# 2 72.6564 104.4772 50.5113 0.0004 5.1023 0.0005
# 3 31.0720 50.5113 77.3645 0.0020 -3.3730 0.0007
# 4 0.0000 0.0004 0.0020 21.7061 0.0010 0.7970
# 5 14.2210 5.1023 -3.3730 0.0010 30.0681 0.0004
# 6 0.0000 0.0005 0.0007 0.7970 0.0004 35.4135
#
#
#
# Elastic Compliance Matrix: (Units=1/GPa)
#
#
# Indices 1 2 3 4 5 6 
#
# 1 0.018910 -0.013174 0.000717 0.000000 -0.006628 0.000000
# 2 -0.013174 0.023521 -0.010018 0.000000 0.001115 0.000000
# 3 0.000717 -0.010018 0.019332 -0.000002 0.003529 0.000000
# 4 0.000000 0.000000 -0.000002 0.046108 -0.000002 -0.001038
# 5 -0.006628 0.001115 0.003529 -0.000002 0.036599 0.000000
# 6 0.000000 0.000000 0.000000 -0.001038 0.000000 0.028261
#
#
# Mechanical properties :
#
#
# Convention : Reuss Voigt Hill
#
# Bulk Modulus (GPa) = 59.46844 66.40275 62.93559
# Shear Modulus (GPa) = 22.39289 26.43127 24.41208
#
# Velocity S-wave (km/s) = 3.42151 3.71725 3.57244
# Velocity P-wave (km/s) = 6.83362 7.28962 7.06530
#
# Compressibility (1/GPa) = 0.01681564
#
# Stress axis : x y z
#
# Youngs Moduli (GPa) = 52.88199 42.51430 51.72744
#
# Poissons Ratio (x) = 0.56007 -0.03710
# Poissons Ratio (y) = 0.69665 0.51818
# Poissons Ratio (z) = -0.03793 0.42589
#
# Static dielectric constant tensor:
#      x y z
#    x 3.709530 0.000000 0.024100 
#    y 0.000000 3.218840 0.000000 
#    z 0.024100 0.000000 3.643740 
# 
# 
# High freq. dielectric constant tensor:
#      x y z
#    x 1.755740 0.000000 0.009480 
#    y 0.000000 1.717620 0.000000 
#    z 0.009480 0.000000 1.757400 
# 
# From -- ./inp_files/28740.got.cif
#   From: 2010.03.12/outbox.cif.g09.slc.cpg/sg5_15_cif.got.tgz:28740.got - 2010.03.31 09:47:26.
