data_PCOD8049325
_publ_section_title
;
Structure prediction by ZEFSAII (Michael W. Deem and Ramdas Pophale) SiO2 
 PCOD8049325
Probable space group: C 2
;
_chemical_formula_sum "Si O2"
_cell_formula_units_Z 28
_cell_length_a 4.983478
_cell_length_b 32.342857
_cell_length_c 9.166932
_cell_angle_alpha 90.000000
_cell_angle_beta 117.489554
_cell_angle_gamma 90.000000
_cell_volume 1310.705340
_symmetry_space_group_name_H-M "C 2"
_symmetry_group_IT_number 5
_symmetry_cell_setting 'monoclinic'
loop_
_space_group_symop_operation_xyz
x,y,z
-x,y,-z
1/2+x,1/2+y,z
1/2-x,1/2+y,-z
loop_
_atom_site_type_symbol
_atom_site_label
_atom_site_fract_x
_atom_site_fract_y
_atom_site_fract_z
Si Si1 0.653985 0.115530 0.692960
Si Si2 0.831571 0.246201 0.105987
Si Si3 0.145042 0.308718 0.388139
Si Si4 0.113838 0.478251 0.190535
Si Si5 0.351710 0.667872 0.305052
Si Si6 0.654965 0.900300 0.392056
Si Si7 0.263437 0.524310 0.686590
O O1 0.500000 0.110283 0.500000
O O2 0.416309 0.133914 0.749393
O O3 0.793437 0.070458 0.761766
O O4 0.916405 0.148750 0.750978
O O5 0.754140 0.209678 0.201749
O O6 0.052719 0.279981 0.230747
O O7 0.500000 0.266294 0.000000
O O8 0.000000 0.231241 0.000000
O O9 0.500000 0.306392 0.500000
O O10 0.014551 0.355102 0.321796
O O11 0.000000 0.291507 0.500000
O O12 0.143876 0.431635 0.254950
O O13 0.416343 0.506231 0.292510
O O14 0.829832 0.496856 0.201906
O O15 0.000000 0.475956 0.000000
O O16 0.500000 0.677477 0.500000
O O17 0.500000 0.919285 0.500000
O O18 0.000000 0.890363 0.500000
O O19 0.000000 0.521462 0.500000
#
# Coordination Sequence:
#
# PCOD8049325 Si02
#       7
#     4   4   4   4   4   4   4
#     4   9  19  36  61  88 110 148 207 258 295 344
#     4  12  25  40  60  93 130 161 199 248 311 370
#     4  10  22  42  67  91 118 160 211 254 298 359
#     4  12  24  38  58  90 127 159 195 245 308 365
#     4  10  20  38  62  85 115 156 204 251 296 355
#     4  10  21  40  65  90 117 158 210 254 297 357
#     4  11  22  40  64  87 116 158 207 252 298 358
#
# _framework density 21.362541
#
# number of rings (size 3 to 8) (size 9 to 14) (size 15 to 20)
#    0.000    1.429    0.000    6.000    0.000    4.571 
#    0.000    8.571    0.000    0.000    0.000    0.000 
#    0.000    0.000    0.000    0.000    0.000    0.000 
#
# Total GULP energy -173525.284243 kJ/mol
# GULP energy per Si atom -12394.663160 kJ/mol
# Density = 2.131392 g / cm^3
# Si number density = 21.362541 Si / 1000 Ang^3
#
#
#
# Elastic Constant Matrix: (Units=GPa)
#
#
# Indices 1 2 3 4 5 6 
#
# 1 104.0554 11.8230 19.7597 0.0000 0.6053 0.0000
# 2 11.8230 115.5212 43.7693 0.0000 -0.4538 0.0000
# 3 19.7597 43.7693 83.0420 0.0000 -2.5741 0.0000
# 4 0.0000 0.0000 0.0000 -256.7957 0.0000 55.2380
# 5 0.6053 -0.4538 -2.5741 0.0000 32.0641 0.0000
# 6 0.0000 0.0000 0.0000 55.2380 0.0000 98.6178
#
#
#
# Elastic Compliance Matrix: (Units=1/GPa)
#
#
# Indices 1 2 3 4 5 6 
#
# 1 0.010072 -0.000150 -0.002329 0.000000 -0.000379 0.000000
# 2 -0.000150 0.010822 -0.005678 0.000000 -0.000300 0.000000
# 3 -0.002329 -0.005678 0.015627 0.000000 0.001218 0.000000
# 4 0.000000 0.000000 0.000000 -0.003475 0.000000 0.001947
# 5 -0.000379 -0.000300 0.001218 0.000000 0.031288 0.000000
# 6 0.000000 0.000000 0.000000 0.001947 0.000000 0.009050
#
#
# Mechanical properties :
#
#
# Convention : Reuss Voigt Hill
#
# Bulk Modulus (GPa) = 49.48817 50.36919 49.92868
# Shear Modulus (GPa) = 51.85018 -10.07167 20.88926
#
# Velocity S-wave (km/s) = 4.93196 -2.17368 3.13044
# Velocity P-wave (km/s) = 7.45979 4.16289 6.04062
#
# Compressibility (1/GPa) = 0.02020685
#
# Stress axis : x y z
#
# Youngs Moduli (GPa) = 99.28684 92.40703 63.99341
#
# Poissons Ratio (x) = 0.01383 0.14907
# Poissons Ratio (y) = 0.01486 0.36332
# Poissons Ratio (z) = 0.23128 0.52464
#
# Static dielectric constant tensor:
#      x y z
#    x 3.827640 0.000000 -0.685830 
#    y 0.000000 4.108400 0.000000 
#    z -0.685830 0.000000 4.158990 
# 
# 
# High freq. dielectric constant tensor:
#      x y z
#    x 1.856270 0.000000 -0.005660 
#    y 0.000000 1.847360 0.000000 
#    z -0.005660 0.000000 1.815670 
# 
# From -- ./inp_files/13379.got.cif
#   From: 2010.03.12/outbox.cif.g09.slc.cpg/sg5_7_cif.got.tgz:13379.got - 2010.03.31 09:47:26.
