data_PCOD8049063
_publ_section_title
;
Structure prediction by ZEFSAII (Michael W. Deem and Ramdas Pophale) SiO2 
 PCOD8049063
Probable space group: C 2
;
_chemical_formula_sum "Si O2"
_cell_formula_units_Z 30
_cell_length_a 10.915886
_cell_length_b 17.853227
_cell_length_c 8.721630
_cell_angle_alpha 90.000000
_cell_angle_beta 117.883738
_cell_angle_gamma 90.000000
_cell_volume 1502.365933
_symmetry_space_group_name_H-M "C 2"
_symmetry_group_IT_number 5
_symmetry_cell_setting 'monoclinic'
loop_
_space_group_symop_operation_xyz
x,y,z
-x,y,-z
1/2+x,1/2+y,z
1/2-x,1/2+y,-z
loop_
_atom_site_type_symbol
_atom_site_label
_atom_site_fract_x
_atom_site_fract_y
_atom_site_fract_z
Si Si1 0.823459 0.306810 0.794436
Si Si2 0.869755 0.893848 0.527412
Si Si3 0.773849 0.533679 0.490718
Si Si4 0.146795 0.660220 0.668145
Si Si5 0.500000 0.926748 0.500000
Si Si6 0.373458 0.283750 0.813683
Si Si7 0.603798 0.821394 0.829937
Si Si8 0.459724 0.120858 0.807512
O O1 0.766456 0.369308 0.645041
O O2 0.719841 0.237524 0.750500
O O3 0.967313 0.274568 0.804607
O O4 0.837550 0.348273 0.968914
O O5 0.872593 0.848922 0.687863
O O6 0.000000 0.873843 0.500000
O O7 0.863305 0.984233 0.553708
O O8 0.750254 0.607232 0.371016
O O9 0.869444 0.477437 0.454412
O O10 0.847189 0.560120 0.689704
O O11 0.000000 0.675744 0.500000
O O12 0.104447 0.617119 0.798810
O O13 0.545446 0.882370 0.678510
O O14 0.226683 0.276684 0.817204
O O15 0.394908 0.203632 0.747695
O O16 0.500000 0.302747 0.000000
O O17 0.500000 0.099264 0.000000
#
# Coordination Sequence:
#
# PCOD8049063 Si02
#       8
#     4   4   4   4   2   4   4   4
#     4  11  22  38  64  92 121 154 207 252 292 351
#     4  12  23  40  61  90 121 160 201 251 300 354
#     4  11  22  39  60  84 122 162 195 238 304 366
#     4  10  20  39  63  87 118 165 198 239 299 355
#     4  12  20  42  60  90 122 154 200 244 306 366
#     4  11  22  40  65  91 120 156 204 251 296 351
#     4  11  23  38  64  92 119 156 197 255 302 347
#     4  10  20  35  61  91 115 153 204 249 288 350
#
# _framework density 19.968502999999998
#
# number of rings (size 3 to 8) (size 9 to 14) (size 15 to 20)
#    0.000    1.067    4.667    5.200    0.000    1.067 
#    2.400    0.000    2.933    0.000    0.000    0.000 
#    0.000    0.000    0.000    0.000    0.000    0.000 
#
# Total GULP energy -185835.617498 kJ/mol
# GULP energy per Si atom -12389.041167 kJ/mol
# Density = 1.992305 g / cm^3
# Si number density = 19.968503 Si / 1000 Ang^3
#
#
#
# Elastic Constant Matrix: (Units=GPa)
#
#
# Indices 1 2 3 4 5 6 
#
# 1 107.2183 17.4424 34.8873 0.0000 -8.1092 0.0000
# 2 17.4424 82.9016 52.0600 0.0000 -4.7450 0.0000
# 3 34.8873 52.0600 123.6978 0.0000 -18.3816 0.0000
# 4 0.0000 0.0000 0.0000 19.2991 0.0000 0.6564
# 5 -8.1092 -4.7450 -18.3816 0.0000 28.0058 0.0000
# 6 0.0000 0.0000 0.0000 0.6564 0.0000 36.5440
#
#
#
# Elastic Compliance Matrix: (Units=1/GPa)
#
#
# Indices 1 2 3 4 5 6 
#
# 1 0.010322 -0.000529 -0.002502 0.000000 0.001257 0.000000
# 2 -0.000529 0.016519 -0.007103 0.000000 -0.002016 0.000000
# 3 -0.002502 -0.007103 0.012735 0.000000 0.006431 0.000000
# 4 0.000000 0.000000 0.000000 0.051847 0.000000 -0.000931
# 5 0.001257 -0.002016 0.006431 0.000000 0.039950 0.000000
# 6 0.000000 0.000000 0.000000 -0.000931 0.000000 0.027381
#
#
# Mechanical properties :
#
#
# Convention : Reuss Voigt Hill
#
# Bulk Modulus (GPa) = 51.78952 58.06635 54.92793
# Shear Modulus (GPa) = 26.96056 30.73164 28.84610
#
# Velocity S-wave (km/s) = 3.67843 3.92727 3.80489
# Velocity P-wave (km/s) = 6.63574 7.05030 6.84616
#
# Compressibility (1/GPa) = 0.01930893
#
# Stress axis : x y z
#
# Youngs Moduli (GPa) = 96.88119 60.53796 78.52595
#
# Poissons Ratio (x) = 0.03200 0.19646
# Poissons Ratio (y) = 0.05122 0.55774
# Poissons Ratio (z) = 0.24238 0.42998
#
# Static dielectric constant tensor:
#      x y z
#    x 3.785820 0.000000 -0.174280 
#    y 0.000000 3.528800 0.000000 
#    z -0.174280 0.000000 3.838590 
# 
# 
# High freq. dielectric constant tensor:
#      x y z
#    x 1.787240 0.000000 -0.019620 
#    y 0.000000 1.758080 0.000000 
#    z -0.019620 0.000000 1.788360 
# 
# From -- ./inp_files/21474.got.cif
#   From: 2010.03.12/outbox.cif.g09.slc.cpg/sg5_11_cif.got.tgz:21474.got - 2010.03.31 09:47:26.
