data_PCOD8049945
_publ_section_title
;
Structure prediction by ZEFSAII (Michael W. Deem and Ramdas Pophale) SiO2 
 PCOD8049945
Probable space group: C 2
;
_chemical_formula_sum "Si O2"
_cell_formula_units_Z 26
_cell_length_a 12.810259
_cell_length_b 6.766276
_cell_length_c 12.633630
_cell_angle_alpha 90.000000
_cell_angle_beta 88.454276
_cell_angle_gamma 90.000000
_cell_volume 1094.656126
_symmetry_space_group_name_H-M "C 2"
_symmetry_group_IT_number 5
_symmetry_cell_setting 'monoclinic'
loop_
_space_group_symop_operation_xyz
x,y,z
-x,y,-z
1/2+x,1/2+y,z
1/2-x,1/2+y,-z
loop_
_atom_site_type_symbol
_atom_site_label
_atom_site_fract_x
_atom_site_fract_y
_atom_site_fract_z
Si Si1 0.355381 0.071540 0.331529
Si Si2 0.500000 0.197221 0.500000
Si Si3 0.764143 0.418205 0.733174
Si Si4 0.148189 0.806236 0.324145
Si Si5 0.416628 0.769747 0.882551
Si Si6 0.494164 0.177241 0.851476
Si Si7 0.388263 0.543090 0.092073
O O1 0.424078 0.049557 0.435666
O O2 0.318603 0.301179 0.334432
O O3 0.429657 0.050155 0.227799
O O4 0.254241 0.931602 0.329135
O O5 0.566858 0.344840 0.421989
O O6 0.821206 0.576026 0.658609
O O7 0.844293 0.256927 0.780740
O O8 0.714284 0.535996 0.834299
O O9 0.087335 0.817202 0.212758
O O10 0.527164 0.675428 0.849020
O O11 0.432212 0.002833 0.915553
O O12 0.364189 0.645336 0.979954
O O13 0.563480 0.320573 0.924810
#
# Coordination Sequence:
#
# PCOD8049945 Si02
#       7
#     4   2   4   4   4   4   4
#     4  10  21  41  67  91 135 165 208 264 323 385
#     4  10  24  40  66 112 118 162 218 260 318 400
#     4  10  22  42  64  92 128 176 210 256 328 374
#     4  10  21  41  67  91 135 165 208 264 323 385
#     4  10  21  39  59  91 125 169 222 263 309 367
#     4   9  20  40  62  87 130 178 213 263 321 371
#     4  10  21  39  59  91 125 169 222 263 309 367
#
# _framework density 23.751750000000001
#
# number of rings (size 3 to 8) (size 9 to 14) (size 15 to 20)
#    0.000    2.154    0.000    1.846    2.154    2.462 
#   24.923    1.538    0.000    0.000    0.000    0.000 
#    0.000    0.000    0.000    0.000    0.000    0.000 
#
# Total GULP energy -161073.684690 kJ/mol
# GULP energy per Si atom -12390.283438 kJ/mol
# Density = 2.369769 g / cm^3
# Si number density = 23.751750 Si / 1000 Ang^3
#
#
#
# Elastic Constant Matrix: (Units=GPa)
#
#
# Indices 1 2 3 4 5 6 
#
# 1 104.1899 15.7975 22.5889 0.0000 9.8253 0.0000
# 2 15.7975 78.1268 29.1579 0.0000 14.7005 0.0000
# 3 22.5889 29.1579 81.5222 0.0000 7.6454 0.0000
# 4 0.0000 0.0000 0.0000 17.5030 0.0000 2.3905
# 5 9.8253 14.7005 7.6454 0.0000 25.3478 0.0000
# 6 0.0000 0.0000 0.0000 2.3905 0.0000 55.8112
#
#
#
# Elastic Compliance Matrix: (Units=1/GPa)
#
#
# Indices 1 2 3 4 5 6 
#
# 1 0.010497 -0.000674 -0.002390 0.000000 -0.002957 0.000000
# 2 -0.000674 0.016202 -0.004890 0.000000 -0.007660 0.000000
# 3 -0.002390 -0.004890 0.014742 0.000000 -0.000684 0.000000
# 4 0.000000 0.000000 0.000000 0.057469 0.000000 -0.002462
# 5 -0.002957 -0.007660 -0.000684 0.000000 0.045246 0.000000
# 6 0.000000 0.000000 0.000000 -0.002462 0.000000 0.018023
#
#
# Mechanical properties :
#
#
# Convention : Reuss Voigt Hill
#
# Bulk Modulus (GPa) = 39.16478 44.32528 41.74503
# Shear Modulus (GPa) = 26.79534 32.81870 29.80702
#
# Velocity S-wave (km/s) = 3.36243 3.72121 3.54636
# Velocity P-wave (km/s) = 5.62135 6.09636 5.86367
#
# Compressibility (1/GPa) = 0.02553315
#
# Stress axis : x y z
#
# Youngs Moduli (GPa) = 95.26410 61.71930 67.83338
#
# Poissons Ratio (x) = 0.04160 0.16214
# Poissons Ratio (y) = 0.06422 0.33170
# Poissons Ratio (z) = 0.22770 0.30180
#
# Static dielectric constant tensor:
#      x y z
#    x 4.485740 0.000000 0.039820 
#    y 0.000000 4.193820 0.000000 
#    z 0.039820 0.000000 3.928120 
# 
# 
# High freq. dielectric constant tensor:
#      x y z
#    x 1.956870 0.000000 0.003310 
#    y 0.000000 1.931180 0.000000 
#    z 0.003310 0.000000 1.916610 
# 
# From -- ./inp_files/53843.got.cif
#   From: 2010.03.12/outbox.cif.g09.slc.cpg/sg5_27_cif.got.tgz:53843.got - 2010.03.31 09:47:26.
