data_PCOD8049402
_publ_section_title
;
Structure prediction by ZEFSAII (Michael W. Deem and Ramdas Pophale) SiO2 
 PCOD8049402
Probable space group: C 2
;
_chemical_formula_sum "Si O2"
_cell_formula_units_Z 20
_cell_length_a 34.839834
_cell_length_b 5.155578
_cell_length_c 21.789545
_cell_angle_alpha 90.000000
_cell_angle_beta 164.924188
_cell_angle_gamma 90.000000
_cell_volume 1017.974217
_symmetry_space_group_name_H-M "C 2"
_symmetry_group_IT_number 5
_symmetry_cell_setting 'monoclinic'
loop_
_space_group_symop_operation_xyz
x,y,z
-x,y,-z
1/2+x,1/2+y,z
1/2-x,1/2+y,-z
loop_
_atom_site_type_symbol
_atom_site_label
_atom_site_fract_x
_atom_site_fract_y
_atom_site_fract_z
Si Si1 0.129021 0.681890 0.239945
Si Si2 0.409481 0.409455 0.695670
Si Si3 0.910265 0.401104 0.628345
Si Si4 0.573697 0.844416 0.757249
Si Si5 0.911265 0.844519 0.299498
O O1 0.229450 0.443149 0.419562
O O2 0.047467 0.837771 0.168807
O O3 0.232596 0.875055 0.359768
O O4 0.000000 0.561237 0.000000
O O5 0.484165 0.674685 0.785547
O O6 0.461479 0.181752 0.730353
O O7 0.953470 0.364895 0.624784
O O8 0.542963 0.578497 0.674221
O O9 0.547229 0.075573 0.668594
O O10 0.734963 0.856170 0.037960
O O11 0.000000 0.867783 0.500000
#
# Coordination Sequence:
#
# PCOD8049402 Si02
#       5
#     4   4   4   4   4
#     4  10  21  39  59  79 117 159 186 233 286 329
#     4  10  20  39  54  81 118 148 194 233 277 330
#     4  10  20  39  57  84 118 146 191 243 269 334
#     4  10  21  39  60  86 118 146 188 238 281 334
#     4  10  21  40  62  84 116 153 181 231 295 347
#
# _framework density 19.646864999999998
#
# number of rings (size 3 to 8) (size 9 to 14) (size 15 to 20)
#    1.200    0.800    2.000    1.800    0.000    0.800 
#    7.200    0.000    0.000    0.000    0.000    0.000 
#    0.000    0.000    0.000    0.000    0.000    0.000 
#
# Total GULP energy -123930.648983 kJ/mol
# GULP energy per Si atom -12393.064898 kJ/mol
# Density = 1.960215 g / cm^3
# Si number density = 19.646865 Si / 1000 Ang^3
#
#
#
# Elastic Constant Matrix: (Units=GPa)
#
#
# Indices 1 2 3 4 5 6 
#
# 1 97.7142 3.8612 23.5026 0.0008 -4.6390 -0.0002
# 2 3.8612 94.6533 6.0005 -0.0001 -3.1988 0.0008
# 3 23.5026 6.0005 66.9420 0.0004 -29.3280 0.0000
# 4 0.0008 -0.0001 0.0004 13.7873 0.0007 -4.4906
# 5 -4.6390 -3.1988 -29.3280 0.0007 25.2563 -0.0004
# 6 -0.0002 0.0008 0.0000 -4.4906 -0.0004 22.9812
#
#
#
# Elastic Compliance Matrix: (Units=1/GPa)
#
#
# Indices 1 2 3 4 5 6 
#
# 1 0.011515 -0.000247 -0.006326 0.000000 -0.005262 0.000000
# 2 -0.000247 0.010633 -0.000603 0.000000 0.000601 0.000000
# 3 -0.006326 -0.000603 0.033935 -0.000003 0.038168 0.000000
# 4 0.000000 0.000000 -0.000003 0.077460 -0.000005 0.015136
# 5 -0.005262 0.000601 0.038168 -0.000005 0.083024 0.000000
# 6 0.000000 0.000000 0.000000 0.015136 0.000000 0.046471
#
#
# Mechanical properties :
#
#
# Convention : Reuss Voigt Hill
#
# Bulk Modulus (GPa) = 23.96267 36.22645 30.09456
# Shear Modulus (GPa) = 17.16424 27.46798 22.31611
#
# Velocity S-wave (km/s) = 2.95894 3.74315 3.37391
# Velocity P-wave (km/s) = 4.88845 6.09593 5.52528
#
# Compressibility (1/GPa) = 0.04173158
#
# Stress axis : x y z
#
# Youngs Moduli (GPa) = 86.83965 94.04257 29.46800
#
# Poissons Ratio (x) = 0.02318 0.18643
# Poissons Ratio (y) = 0.02141 0.01778
# Poissons Ratio (z) = 0.54938 0.05674
#
# Static dielectric constant tensor:
#      x y z
#    x 3.409720 0.000000 0.028110 
#    y 0.000000 3.643750 0.000000 
#    z 0.028110 0.000000 3.205160 
# 
# 
# High freq. dielectric constant tensor:
#      x y z
#    x 1.769940 0.000000 -0.006130 
#    y 0.000000 1.778040 0.000000 
#    z -0.006130 0.000000 1.723450 
# 
# From -- ./inp_files/51844.got.cif
#   From: 2010.03.12/outbox.cif.g09.slc.cpg/sg5_26_cif.got.tgz:51844.got - 2010.03.31 09:47:26.
