data_PCOD8049900
_publ_section_title
;
Structure prediction by ZEFSAII (Michael W. Deem and Ramdas Pophale) SiO2 
 PCOD8049900
Probable space group: C 2
;
_chemical_formula_sum "Si O2"
_cell_formula_units_Z 30
_cell_length_a 9.755147
_cell_length_b 21.563641
_cell_length_c 12.308479
_cell_angle_alpha 90.000000
_cell_angle_beta 144.430016
_cell_angle_gamma 90.000000
_cell_volume 1506.111303
_symmetry_space_group_name_H-M "C 2"
_symmetry_group_IT_number 5
_symmetry_cell_setting 'monoclinic'
loop_
_space_group_symop_operation_xyz
x,y,z
-x,y,-z
1/2+x,1/2+y,z
1/2-x,1/2+y,-z
loop_
_atom_site_type_symbol
_atom_site_label
_atom_site_fract_x
_atom_site_fract_y
_atom_site_fract_z
Si Si1 0.279546 0.480710 0.285337
Si Si2 0.446218 0.558876 0.694221
Si Si3 0.857758 0.153650 0.019919
Si Si4 0.000000 0.374959 0.000000
Si Si5 0.241185 0.791534 0.012349
Si Si6 0.772053 0.329998 0.275317
Si Si7 0.014778 0.551213 0.740318
Si Si8 0.258621 0.970344 0.280528
O O1 0.500000 0.460553 0.500000
O O2 0.346542 0.539944 0.254186
O O3 0.060299 0.504609 0.213238
O O4 0.209812 0.418470 0.178092
O O5 0.201213 0.569563 0.475453
O O6 0.439896 0.500071 0.771310
O O7 0.490513 0.622310 0.786552
O O8 0.617522 0.114965 0.852190
O O9 0.794557 0.221445 0.017403
O O10 0.000000 0.155848 0.000000
O O11 0.889613 0.334141 0.025498
O O12 0.327377 0.802831 0.191730
O O13 0.958245 0.799221 0.818470
O O14 0.694849 0.401002 0.206269
O O15 0.000000 0.320957 0.500000
O O16 0.220289 0.514053 0.810866
O O17 0.500000 0.969027 0.500000
#
# Coordination Sequence:
#
# PCOD8049900 Si02
#       8
#     4   4   4   2   4   4   4   4
#     4  10  22  38  61  95 128 157 197 251 315 372
#     4  10  21  38  62  92 121 154 199 252 306 365
#     4  12  24  41  61  84 120 164 206 252 303 360
#     4  12  22  40  62  94 136 168 200 250 308 368
#     4  11  26  41  62  93 125 168 218 249 291 375
#     4  10  23  45  67  91 124 162 207 263 313 358
#     4  10  21  38  62  92 121 154 199 252 306 365
#     4   9  17  34  62  91 116 149 198 247 302 363
#
# _framework density 19.918845999999998
#
# number of rings (size 3 to 8) (size 9 to 14) (size 15 to 20)
#    0.000    1.600    2.000    2.400    0.000    8.533 
#    0.000    1.333    0.000    0.000    0.000    0.000 
#    0.000    0.000    0.000    0.000    0.000    0.000 
#
# Total GULP energy -185990.855284 kJ/mol
# GULP energy per Si atom -12399.390352 kJ/mol
# Density = 1.987351 g / cm^3
# Si number density = 19.918846 Si / 1000 Ang^3
#
#
#
# Elastic Constant Matrix: (Units=GPa)
#
#
# Indices 1 2 3 4 5 6 
#
# 1 93.3663 29.7168 34.2238 -0.0002 -5.7943 -0.0003
# 2 29.7168 140.0653 45.9509 0.0000 -6.4609 0.0000
# 3 34.2238 45.9509 103.4408 -0.0004 -7.0137 -0.0005
# 4 -0.0002 0.0000 -0.0004 5.2574 -0.0002 -17.6785
# 5 -5.7943 -6.4609 -7.0137 -0.0002 23.6445 -0.0003
# 6 -0.0003 0.0000 -0.0005 -17.6785 -0.0003 12.7148
#
#
#
# Elastic Compliance Matrix: (Units=1/GPa)
#
#
# Indices 1 2 3 4 5 6 
#
# 1 0.012520 -0.001472 -0.003375 0.000000 0.001665 0.000000
# 2 -0.001472 0.008564 -0.003249 0.000000 0.001016 0.000000
# 3 -0.003375 -0.003249 0.012360 -0.000001 0.001951 0.000000
# 4 0.000000 0.000000 -0.000001 -0.051753 -0.000002 -0.071957
# 5 0.001665 0.001016 0.001951 -0.000002 0.043557 -0.000001
# 6 0.000000 0.000000 0.000000 -0.071957 -0.000001 -0.021399
#
#
# Mechanical properties :
#
#
# Convention : Reuss Voigt Hill
#
# Bulk Modulus (GPa) = 57.96601 61.85060 59.90831
# Shear Modulus (GPa) = 193.86483 23.45541 108.66012
#
# Velocity S-wave (km/s) = 9.87616 3.43527 7.39391
# Velocity P-wave (km/s) = 12.61807 6.84496 10.15060
#
# Compressibility (1/GPa) = 0.01725149
#
# Stress axis : x y z
#
# Youngs Moduli (GPa) = 79.87480 116.76133 80.90915
#
# Poissons Ratio (x) = 0.17188 0.27310
# Poissons Ratio (y) = 0.11758 0.26284
# Poissons Ratio (z) = 0.26961 0.37931
#
# Static dielectric constant tensor:
#      x y z
#    x 3.880670 0.000000 -0.109190 
#    y 0.000000 3.601730 0.000000 
#    z -0.109190 0.000000 3.716040 
# 
# 
# High freq. dielectric constant tensor:
#      x y z
#    x 1.793370 0.000000 -0.004770 
#    y 0.000000 1.770590 0.000000 
#    z -0.004770 0.000000 1.785250 
# 
# From -- ./inp_files/37550.got.cif
#   From: 2010.03.12/outbox.cif.g09.slc.cpg/sg5_19_cif.got.tgz:37550.got - 2010.03.31 09:47:26.
