data_PCOD8049497
_publ_section_title
;
Structure prediction by ZEFSAII (Michael W. Deem and Ramdas Pophale) SiO2 
 PCOD8049497
Probable space group: C 2
;
_chemical_formula_sum "Si O2"
_cell_formula_units_Z 24
_cell_length_a 19.816303
_cell_length_b 8.874000
_cell_length_c 8.632379
_cell_angle_alpha 90.000000
_cell_angle_beta 127.550128
_cell_angle_gamma 90.000000
_cell_volume 1203.503596
_symmetry_space_group_name_H-M "C 2"
_symmetry_group_IT_number 5
_symmetry_cell_setting 'monoclinic'
loop_
_space_group_symop_operation_xyz
x,y,z
-x,y,-z
1/2+x,1/2+y,z
1/2-x,1/2+y,-z
loop_
_atom_site_type_symbol
_atom_site_label
_atom_site_fract_x
_atom_site_fract_y
_atom_site_fract_z
Si Si1 0.586249 0.837340 0.193789
Si Si2 0.909728 0.230854 0.448926
Si Si3 0.179710 0.936245 0.720812
Si Si4 0.750908 0.169894 0.664362
Si Si5 0.266183 0.371575 0.869361
Si Si6 0.680645 0.109382 0.242431
O O1 0.591492 0.802006 0.382285
O O2 0.659316 0.753248 0.202260
O O3 0.595000 0.018077 0.168689
O O4 0.500000 0.776289 0.000000
O O5 0.828208 0.298196 0.242569
O O6 0.000000 0.275838 0.500000
O O7 0.899082 0.048215 0.429896
O O8 0.176104 0.789068 0.604304
O O9 0.268439 0.023307 0.820768
O O10 0.180775 0.877525 0.898221
O O11 0.738623 0.105818 0.476428
O O12 0.752068 0.038911 0.790368
O O13 0.327630 0.279835 0.833950
#
# Coordination Sequence:
#
# PCOD8049497 Si02
#       6
#     4   4   4   4   4   4
#     4  11  24  40  63  93 124 166 209 267 316 371
#     4  11  24  42  59  94 133 163 206 264 326 373
#     4  10  22  37  62  94 125 164 214 253 313 385
#     4  11  19  40  67  89 121 168 218 261 308 374
#     4  11  21  39  67  94 122 169 211 264 313 382
#     4  10  20  40  62  90 123 164 219 256 303 380
#
# _framework density 19.941776999999998
#
# number of rings (size 3 to 8) (size 9 to 14) (size 15 to 20)
#    0.000    1.333    5.000    3.000    7.000    0.000 
#    0.000    3.333    0.000    0.000    0.000    0.000 
#    0.000    0.000    0.000    0.000    0.000    0.000 
#
# Total GULP energy -148716.262898 kJ/mol
# GULP energy per Si atom -12393.021908 kJ/mol
# Density = 1.989639 g / cm^3
# Si number density = 19.941777 Si / 1000 Ang^3
#
#
#
# Elastic Constant Matrix: (Units=GPa)
#
#
# Indices 1 2 3 4 5 6 
#
# 1 88.5892 45.4185 29.8968 0.0000 -2.1699 0.0000
# 2 45.4185 101.8149 12.3815 0.0000 -0.0011 0.0000
# 3 29.8968 12.3815 69.3371 0.0000 -6.1201 0.0000
# 4 0.0000 0.0000 0.0000 29.1076 0.0000 -7.6116
# 5 -2.1699 -0.0011 -6.1201 0.0000 26.8591 0.0000
# 6 0.0000 0.0000 0.0000 -7.6116 0.0000 31.6553
#
#
#
# Elastic Compliance Matrix: (Units=1/GPa)
#
#
# Indices 1 2 3 4 5 6 
#
# 1 0.016787 -0.006755 -0.006034 0.000000 -0.000019 0.000000
# 2 -0.006755 0.012762 0.000597 0.000000 -0.000409 0.000000
# 3 -0.006034 0.000597 0.017221 0.000000 0.003436 0.000000
# 4 0.000000 0.000000 0.000000 0.036660 0.000000 0.008815
# 5 -0.000019 -0.000409 0.003436 0.000000 0.038013 0.000000
# 6 0.000000 0.000000 0.000000 0.008815 0.000000 0.033710
#
#
# Mechanical properties :
#
#
# Convention : Reuss Voigt Hill
#
# Bulk Modulus (GPa) = 44.66713 48.34832 46.50772
# Shear Modulus (GPa) = 26.73839 28.99404 27.86621
#
# Velocity S-wave (km/s) = 3.66570 3.81719 3.74221
# Velocity P-wave (km/s) = 6.35325 6.61251 6.48418
#
# Compressibility (1/GPa) = 0.02238783
#
# Stress axis : x y z
#
# Youngs Moduli (GPa) = 59.57041 78.35586 58.07027
#
# Poissons Ratio (x) = 0.52927 0.35038
# Poissons Ratio (y) = 0.40238 -0.03469
# Poissons Ratio (z) = 0.35943 -0.04681
#
# Static dielectric constant tensor:
#      x y z
#    x 3.704240 0.000000 -0.139590 
#    y 0.000000 4.039860 0.000000 
#    z -0.139590 0.000000 3.381300 
# 
# 
# High freq. dielectric constant tensor:
#      x y z
#    x 1.762170 0.000000 -0.027040 
#    y 0.000000 1.792540 0.000000 
#    z -0.027040 0.000000 1.758320 
# 
# From -- ./inp_files/22794.got.cif
#   From: 2010.03.12/outbox.cif.g09.slc.cpg/sg5_12_cif.got.tgz:22794.got - 2010.03.31 09:47:26.
