data_PCOD8049903
_publ_section_title
;
Structure prediction by ZEFSAII (Michael W. Deem and Ramdas Pophale) SiO2 
 PCOD8049903
Probable space group: C 2
;
_chemical_formula_sum "Si O2"
_cell_formula_units_Z 28
_cell_length_a 9.818242
_cell_length_b 32.400978
_cell_length_c 4.993789
_cell_angle_alpha 90.000000
_cell_angle_beta 60.094443
_cell_angle_gamma 90.000000
_cell_volume 1377.099088
_symmetry_space_group_name_H-M "C 2"
_symmetry_group_IT_number 5
_symmetry_cell_setting 'monoclinic'
loop_
_space_group_symop_operation_xyz
x,y,z
-x,y,-z
1/2+x,1/2+y,z
1/2-x,1/2+y,-z
loop_
_atom_site_type_symbol
_atom_site_label
_atom_site_fract_x
_atom_site_fract_y
_atom_site_fract_z
Si Si1 0.819972 0.986180 0.768035
Si Si2 0.608932 0.661485 0.136880
Si Si3 0.829418 0.814142 0.769715
Si Si4 0.605933 0.222267 0.156153
Si Si5 0.895134 0.070637 0.856595
Si Si6 0.323634 0.946452 0.594611
Si Si7 0.174413 0.350988 0.424270
O O1 0.711124 0.974543 0.627134
O O2 0.000000 0.983270 0.500000
O O3 0.775920 0.033176 0.903976
O O4 0.791693 0.955680 0.044359
O O5 0.500000 0.663034 0.500000
O O6 0.680639 0.615435 0.003846
O O7 0.500000 0.676570 0.000000
O O8 0.755544 0.690889 0.042668
O O9 0.818451 0.765433 0.828946
O O10 0.702550 0.825823 0.668731
O O11 0.000000 0.828061 0.500000
O O12 0.797091 0.838053 0.076045
O O13 0.500000 0.204199 0.500000
O O14 0.500000 0.229249 0.000000
O O15 0.000000 0.079785 0.500000
O O16 0.000000 0.054588 0.000000
O O17 0.500000 0.957336 0.500000
O O18 0.304224 0.899040 0.530647
O O19 0.000000 0.340240 0.500000
#
# Coordination Sequence:
#
# PCOD8049903 Si02
#       7
#     4   4   4   4   4   4   4
#     4  11  21  37  62  87 113 153 200 237 279 343
#     4  10  21  38  63  90 115 153 198 237 278 340
#     4  11  23  40  61  85 116 153 192 237 290 344
#     4  11  23  41  60  86 124 155 183 236 299 343
#     4   9  18  35  58  86 119 148 188 243 287 323
#     4  11  24  40  57  84 122 153 185 241 301 340
#     4  11  24  41  60  84 116 153 193 241 291 341
#
# _framework density 20.332594
#
# number of rings (size 3 to 8) (size 9 to 14) (size 15 to 20)
#    0.000    1.429    0.000    6.857    0.000    7.429 
#    0.000    2.143    0.000    0.000    0.000    0.000 
#    0.000    0.000    0.000    0.000    0.000    0.000 
#
# Total GULP energy -173618.815370 kJ/mol
# GULP energy per Si atom -12401.343955 kJ/mol
# Density = 2.028632 g / cm^3
# Si number density = 20.332594 Si / 1000 Ang^3
#
#
#
# Elastic Constant Matrix: (Units=GPa)
#
#
# Indices 1 2 3 4 5 6 
#
# 1 112.3772 88.5443 33.9666 0.0000 21.7447 0.0000
# 2 88.5443 130.3786 39.3827 0.0000 -0.9478 0.0000
# 3 33.9666 39.3827 93.3340 0.0000 16.8355 0.0000
# 4 0.0000 0.0000 0.0000 42.2504 0.0000 0.2669
# 5 21.7447 -0.9478 16.8355 0.0000 40.7355 0.0000
# 6 0.0000 0.0000 0.0000 0.2669 0.0000 25.0326
#
#
#
# Elastic Compliance Matrix: (Units=1/GPa)
#
#
# Indices 1 2 3 4 5 6 
#
# 1 0.025080 -0.017359 0.000740 0.000000 -0.014098 0.000000
# 2 -0.017359 0.020940 -0.004622 0.000000 0.011664 0.000000
# 3 0.000740 -0.004622 0.013492 0.000000 -0.006079 0.000000
# 4 0.000000 0.000000 0.000000 0.023670 0.000000 -0.000252
# 5 -0.014098 0.011664 -0.006079 0.000000 0.034858 0.000000
# 6 0.000000 0.000000 0.000000 -0.000252 0.000000 0.039951
#
#
# Mechanical properties :
#
#
# Convention : Reuss Voigt Hill
#
# Bulk Modulus (GPa) = 58.71976 73.31967 66.01972
# Shear Modulus (GPa) = 24.25442 33.21678 28.73560
#
# Velocity S-wave (km/s) = 3.45756 4.04626 3.76344
# Velocity P-wave (km/s) = 6.69940 7.61367 7.17112
#
# Compressibility (1/GPa) = 0.01703004
#
# Stress axis : x y z
#
# Youngs Moduli (GPa) = 39.87237 47.75573 74.11986
#
# Poissons Ratio (x) = 0.82898 -0.05487
# Poissons Ratio (y) = 0.69213 0.34260
# Poissons Ratio (z) = -0.02952 0.22074
#
# Static dielectric constant tensor:
#      x y z
#    x 3.589910 0.000000 0.182650 
#    y 0.000000 3.924510 0.000000 
#    z 0.182650 0.000000 3.784880 
# 
# 
# High freq. dielectric constant tensor:
#      x y z
#    x 1.790410 0.000000 0.023410 
#    y 0.000000 1.802990 0.000000 
#    z 0.023410 0.000000 1.803030 
# 
# From -- ./inp_files/3869.got.cif
#   From: 2010.03.12/outbox.cif.g09.slc.cpg/sg5_2_cif.got.tgz:3869.got - 2010.03.31 09:47:26.
