data_PCOD8049035
_publ_section_title
;
Structure prediction by ZEFSAII (Michael W. Deem and Ramdas Pophale) SiO2 
 PCOD8049035
Probable space group: C 2
;
_chemical_formula_sum "Si O2"
_cell_formula_units_Z 28
_cell_length_a 15.407541
_cell_length_b 8.496519
_cell_length_c 11.885562
_cell_angle_alpha 90.000000
_cell_angle_beta 113.138995
_cell_angle_gamma 90.000000
_cell_volume 1430.775349
_symmetry_space_group_name_H-M "C 2"
_symmetry_group_IT_number 5
_symmetry_cell_setting 'monoclinic'
loop_
_space_group_symop_operation_xyz
x,y,z
-x,y,-z
1/2+x,1/2+y,z
1/2-x,1/2+y,-z
loop_
_atom_site_type_symbol
_atom_site_label
_atom_site_fract_x
_atom_site_fract_y
_atom_site_fract_z
Si Si1 0.368955 0.003400 0.080480
Si Si2 0.059574 0.920815 0.391130
Si Si3 0.629005 0.270404 0.640782
Si Si4 0.217633 0.226981 0.108631
Si Si5 0.357968 0.918971 0.317749
Si Si6 0.854673 0.932650 0.809690
Si Si7 0.500000 0.205736 0.000000
Si Si8 0.000000 0.197209 0.500000
O O1 0.281450 0.122829 0.056032
O O2 0.458046 0.095235 0.075652
O O3 0.404124 0.932305 0.217196
O O4 0.339780 0.860074 0.985014
O O5 0.133791 0.863719 0.524994
O O6 0.107110 0.935024 0.296328
O O7 0.969414 0.804582 0.344470
O O8 0.024035 0.094394 0.403485
O O9 0.715920 0.316536 0.766453
O O10 0.636724 0.086245 0.616953
O O11 0.145426 0.107691 0.135338
O O12 0.250502 0.862985 0.247210
O O13 0.409299 0.798596 0.424261
O O14 0.916271 0.815090 0.914222
#
# Coordination Sequence:
#
# PCOD8049035 Si02
#       8
#     4   4   4   4   4   4   2   2
#     4  10  22  39  59  85 114 151 193 238 288 339
#     4  10  20  35  56  83 113 149 187 233 284 335
#     4   8  18  36  57  78 110 152 190 229 283 338
#     4  10  21  39  60  84 113 153 195 236 285 342
#     4  10  21  38  58  83 112 148 189 234 284 339
#     4  10  23  39  58  84 117 152 190 234 284 339
#     4  12  24  38  58  88 118 152 192 238 288 340
#     4  10  22  36  58  86 112 144 188 234 284 336
#
# _framework density 19.569808999999999
#
# number of rings (size 3 to 8) (size 9 to 14) (size 15 to 20)
#    0.000    2.571    0.000    4.286    0.000    9.714 
#    0.000    0.000    0.000    0.000    0.000    0.000 
#    0.000    0.000    0.000    0.000    0.000    0.000 
#
# Total GULP energy -173560.706457 kJ/mol
# GULP energy per Si atom -12397.193318 kJ/mol
# Density = 1.952527 g / cm^3
# Si number density = 19.569809 Si / 1000 Ang^3
#
#
#
# Elastic Constant Matrix: (Units=GPa)
#
#
# Indices 1 2 3 4 5 6 
#
# 1 95.9713 30.7950 29.4929 0.0000 -9.7172 0.0000
# 2 30.7950 71.3922 22.7298 0.0000 15.2329 0.0000
# 3 29.4929 22.7298 45.7531 0.0000 -2.2266 0.0000
# 4 0.0000 0.0000 0.0000 29.2753 0.0000 1.4766
# 5 -9.7172 15.2329 -2.2266 0.0000 42.5520 0.0000
# 6 0.0000 0.0000 0.0000 1.4766 0.0000 33.3540
#
#
#
# Elastic Compliance Matrix: (Units=1/GPa)
#
#
# Indices 1 2 3 4 5 6 
#
# 1 0.014620 -0.005252 -0.006578 0.000000 0.004875 0.000000
# 2 -0.005252 0.020471 -0.007217 0.000000 -0.008905 0.000000
# 3 -0.006578 -0.007217 0.029811 0.000000 0.002641 0.000000
# 4 0.000000 0.000000 0.000000 0.034235 0.000000 -0.001516
# 5 0.004875 -0.008905 0.002641 0.000000 0.027940 0.000000
# 6 0.000000 0.000000 0.000000 -0.001516 0.000000 0.030049
#
#
# Mechanical properties :
#
#
# Convention : Reuss Voigt Hill
#
# Bulk Modulus (GPa) = 37.30429 42.12801 39.71615
# Shear Modulus (GPa) = 24.49116 29.70950 27.10033
#
# Velocity S-wave (km/s) = 3.54146 3.90054 3.72533
# Velocity P-wave (km/s) = 5.98549 6.46989 6.23240
#
# Compressibility (1/GPa) = 0.02680657
#
# Stress axis : x y z
#
# Youngs Moduli (GPa) = 68.39903 48.85037 33.54507
#
# Poissons Ratio (x) = 0.25657 0.22065
# Poissons Ratio (y) = 0.35925 0.24211
# Poissons Ratio (z) = 0.44991 0.35257
#
# Static dielectric constant tensor:
#      x y z
#    x 3.559280 0.000000 0.010450 
#    y 0.000000 3.624400 0.000000 
#    z 0.010450 0.000000 3.597400 
# 
# 
# High freq. dielectric constant tensor:
#      x y z
#    x 1.750810 0.000000 -0.000400 
#    y 0.000000 1.765180 0.000000 
#    z -0.000400 0.000000 1.768850 
# 
# From -- ./inp_files/41782.got.cif
#   From: 2010.03.12/outbox.cif.g09.slc.cpg/sg5_21_cif.got.tgz:41782.got - 2010.03.31 09:47:26.
