data_PCOD8049713
_publ_section_title
;
Structure prediction by ZEFSAII (Michael W. Deem and Ramdas Pophale) SiO2 
 PCOD8049713
Probable space group: C 2
;
_chemical_formula_sum "Si O2"
_cell_formula_units_Z 28
_cell_length_a 15.024827
_cell_length_b 15.780126
_cell_length_c 7.749791
_cell_angle_alpha 90.000000
_cell_angle_beta 136.690412
_cell_angle_gamma 90.000000
_cell_volume 1260.364461
_symmetry_space_group_name_H-M "C 2"
_symmetry_group_IT_number 5
_symmetry_cell_setting 'monoclinic'
loop_
_space_group_symop_operation_xyz
x,y,z
-x,y,-z
1/2+x,1/2+y,z
1/2-x,1/2+y,-z
loop_
_atom_site_type_symbol
_atom_site_label
_atom_site_fract_x
_atom_site_fract_y
_atom_site_fract_z
Si Si1 0.613367 0.302130 0.025233
Si Si2 0.734231 0.011791 0.436753
Si Si3 0.503909 0.448440 0.310697
Si Si4 0.240360 0.637705 0.130077
Si Si5 0.500000 0.728421 0.000000
Si Si6 0.000000 0.247692 0.500000
Si Si7 0.336943 0.588459 0.918367
Si Si8 0.372202 0.848647 0.589187
O O1 0.626110 0.206300 0.978241
O O2 0.745423 0.337437 0.293283
O O3 0.500000 0.309477 0.000000
O O4 0.567444 0.357632 0.796080
O O5 0.707895 0.067842 0.230001
O O6 0.618636 0.947030 0.332623
O O7 0.762409 0.077319 0.632047
O O8 0.850246 0.946737 0.555151
O O9 0.500000 0.484168 0.500000
O O10 0.426701 0.507988 0.072069
O O11 0.377440 0.685243 0.347081
O O12 0.235862 0.595662 0.934222
O O13 0.433594 0.669366 0.052535
O O14 0.620440 0.785943 0.236217
O O15 0.002291 0.315041 0.343067
#
# Coordination Sequence:
#
# PCOD8049713 Si02
#       8
#     4   4   4   4   2   2   4   4
#     4  11  23  46  66 100 142 184 221 293 355 417
#     4  12  23  43  71 104 138 182 230 296 350 408
#     4  12  22  39  71 103 136 176 243 292 340 410
#     4  11  24  42  72  96 138 184 241 281 345 426
#     4  12  24  42  74 104 138 186 240 292 354 424
#     4  10  20  44  66 100 134 186 228 294 346 406
#     4  12  21  41  70 103 132 180 240 299 337 410
#     4  11  24  43  71 104 143 179 232 295 354 417
#
# _framework density 22.215796999999998
#
# number of rings (size 3 to 8) (size 9 to 14) (size 15 to 20)
#    0.000    0.571    7.143    2.571    0.000    1.143 
#    6.429    0.000    0.000    0.000    0.000    0.000 
#    0.000    0.000    0.000    0.000    0.000    0.000 
#
# Total GULP energy -173515.858771 kJ/mol
# GULP energy per Si atom -12393.989912 kJ/mol
# Density = 2.216523 g / cm^3
# Si number density = 22.215797 Si / 1000 Ang^3
#
#
#
# Elastic Constant Matrix: (Units=GPa)
#
#
# Indices 1 2 3 4 5 6 
#
# 1 67.7764 40.6194 16.8395 0.0000 -29.2611 0.0000
# 2 40.6194 144.1330 29.8551 0.0000 -6.4608 0.0000
# 3 16.8395 29.8551 52.8023 0.0000 -18.8678 0.0000
# 4 0.0000 0.0000 0.0000 29.7749 0.0000 4.0807
# 5 -29.2611 -6.4608 -18.8678 0.0000 30.9129 0.0000
# 6 0.0000 0.0000 0.0000 4.0807 0.0000 45.7206
#
#
#
# Elastic Compliance Matrix: (Units=1/GPa)
#
#
# Indices 1 2 3 4 5 6 
#
# 1 0.033013 -0.009170 0.006571 0.000000 0.033343 0.000000
# 2 -0.009170 0.010451 -0.006786 0.000000 -0.010638 0.000000
# 3 0.006571 -0.006786 0.028642 0.000000 0.022284 0.000000
# 4 0.000000 0.000000 0.000000 0.034001 0.000000 -0.003035
# 5 0.033343 -0.010638 0.022284 0.000000 0.075288 0.000000
# 6 0.000000 0.000000 0.000000 -0.003035 0.000000 0.022143
#
#
# Mechanical properties :
#
#
# Convention : Reuss Voigt Hill
#
# Bulk Modulus (GPa) = 18.74899 48.81553 33.78226
# Shear Modulus (GPa) = 20.82584 33.10819 26.96702
#
# Velocity S-wave (km/s) = 3.06508 3.86463 3.48784
# Velocity P-wave (km/s) = 4.58084 6.47571 5.60887
#
# Compressibility (1/GPa) = 0.05333622
#
# Stress axis : x y z
#
# Youngs Moduli (GPa) = 30.29150 95.68386 34.91332
#
# Poissons Ratio (x) = 0.87743 -0.22941
# Poissons Ratio (y) = 0.27777 0.23692
# Poissons Ratio (z) = -0.19904 0.64929
#
# Static dielectric constant tensor:
#      x y z
#    x 4.298490 0.000000 -0.075570 
#    y 0.000000 4.252830 0.000000 
#    z -0.075570 0.000000 3.822460 
# 
# 
# High freq. dielectric constant tensor:
#      x y z
#    x 1.873570 0.000000 -0.026110 
#    y 0.000000 1.883230 0.000000 
#    z -0.026110 0.000000 1.846520 
# 
# From -- ./inp_files/24704.got.cif
#   From: 2010.03.12/outbox.cif.g09.slc.cpg/sg5_13_cif.got.tgz:24704.got - 2010.03.31 09:47:26.
