data_PCOD8049199
_publ_section_title
;
Structure prediction by ZEFSAII (Michael W. Deem and Ramdas Pophale) SiO2 
 PCOD8049199
Probable space group: C 2
;
_chemical_formula_sum "Si O2"
_cell_formula_units_Z 24
_cell_length_a 11.287513
_cell_length_b 8.201818
_cell_length_c 10.818755
_cell_angle_alpha 90.000000
_cell_angle_beta 94.281695
_cell_angle_gamma 90.000000
_cell_volume 998.784705
_symmetry_space_group_name_H-M "C 2"
_symmetry_group_IT_number 5
_symmetry_cell_setting 'monoclinic'
loop_
_space_group_symop_operation_xyz
x,y,z
-x,y,-z
1/2+x,1/2+y,z
1/2-x,1/2+y,-z
loop_
_atom_site_type_symbol
_atom_site_label
_atom_site_fract_x
_atom_site_fract_y
_atom_site_fract_z
Si Si1 0.292039 0.178490 0.960607
Si Si2 0.884265 0.553285 0.638813
Si Si3 0.872466 0.887227 0.751936
Si Si4 0.850779 0.363606 0.870297
Si Si5 0.559116 0.657812 0.786868
Si Si6 0.135379 0.442043 0.635665
O O1 0.367920 0.312647 0.889894
O O2 0.172036 0.124741 0.879946
O O3 0.366529 0.009193 0.974656
O O4 0.256588 0.245705 0.092606
O O5 0.856858 0.745261 0.647070
O O6 0.814871 0.450396 0.738236
O O7 0.846047 0.469563 0.508516
O O8 0.025964 0.550677 0.673612
O O9 0.754853 0.997495 0.717510
O O10 0.991899 0.991229 0.742998
O O11 0.971506 0.264281 0.865606
O O12 0.599816 0.753524 0.665580
#
# Coordination Sequence:
#
# PCOD8049199 Si02
#       6
#     4   4   4   4   4   4
#     4  10  21  38  59  88 117 149 196 240 287 346
#     4   9  20  38  58  88 120 150 193 239 287 346
#     4  10  21  38  62  86 113 156 197 235 289 344
#     4  10  20  37  60  82 115 151 186 239 291 337
#     4  10  21  38  61  85 114 154 197 239 286 344
#     4   9  20  39  58  84 121 151 188 239 288 342
#
# _framework density 24.029202999999999
#
# number of rings (size 3 to 8) (size 9 to 14) (size 15 to 20)
#    0.000    2.333    0.000    1.500    0.000    5.333 
#    0.000   21.667    0.000    0.000    0.000    0.000 
#    0.000    0.000    0.000    0.000    0.000    0.000 
#
# Total GULP energy -148711.853425 kJ/mol
# GULP energy per Si atom -12392.654452 kJ/mol
# Density = 2.397451 g / cm^3
# Si number density = 24.029203 Si / 1000 Ang^3
#
#
#
# Elastic Constant Matrix: (Units=GPa)
#
#
# Indices 1 2 3 4 5 6 
#
# 1 47.8415 34.2404 13.0470 0.0000 -8.6485 0.0000
# 2 34.2404 106.6547 49.3747 0.0000 -13.3926 0.0000
# 3 13.0470 49.3747 91.1726 0.0000 -34.9048 0.0000
# 4 0.0000 0.0000 0.0000 36.3258 0.0000 -15.1511
# 5 -8.6485 -13.3926 -34.9048 0.0000 34.0132 0.0000
# 6 0.0000 0.0000 0.0000 -15.1511 0.0000 41.7223
#
#
#
# Elastic Compliance Matrix: (Units=1/GPa)
#
#
# Indices 1 2 3 4 5 6 
#
# 1 0.028388 -0.010187 0.004418 0.000000 0.007741 0.000000
# 2 -0.010187 0.016403 -0.009791 0.000000 -0.006179 0.000000
# 3 0.004418 -0.009791 0.024036 0.000000 0.021934 0.000000
# 4 0.000000 0.000000 0.000000 0.032442 0.000000 0.011781
# 5 0.007741 -0.006179 0.021934 0.000000 0.051444 0.000000
# 6 0.000000 0.000000 0.000000 0.011781 0.000000 0.028246
#
#
# Mechanical properties :
#
#
# Convention : Reuss Voigt Hill
#
# Bulk Modulus (GPa) = 26.52082 48.77701 37.64892
# Shear Modulus (GPa) = 22.25707 32.34605 27.30156
#
# Velocity S-wave (km/s) = 3.04674 3.67292 3.37439
# Velocity P-wave (km/s) = 4.84125 6.19114 5.55734
#
# Compressibility (1/GPa) = 0.03770622
#
# Stress axis : x y z
#
# Youngs Moduli (GPa) = 35.22671 60.96393 41.60505
#
# Poissons Ratio (x) = 0.62102 -0.18380
# Poissons Ratio (y) = 0.35884 0.40736
# Poissons Ratio (z) = -0.15562 0.59690
#
# Static dielectric constant tensor:
#      x y z
#    x 4.423050 0.000000 -0.406430 
#    y 0.000000 4.356510 0.000000 
#    z -0.406430 0.000000 4.138290 
# 
# 
# High freq. dielectric constant tensor:
#      x y z
#    x 1.955410 0.000000 -0.027610 
#    y 0.000000 1.950930 0.000000 
#    z -0.027610 0.000000 1.931440 
# 
# From -- ./inp_files/38349.got.cif
#   From: 2010.03.12/outbox.cif.g09.slc.cpg/sg5_20_cif.got.tgz:38349.got - 2010.03.31 09:47:26.
