data_PCOD8049340
_publ_section_title
;
Structure prediction by ZEFSAII (Michael W. Deem and Ramdas Pophale) SiO2 
 PCOD8049340
Probable space group: C 2
;
_chemical_formula_sum "Si O2"
_cell_formula_units_Z 16
_cell_length_a 5.119861
_cell_length_b 18.655898
_cell_length_c 9.140460
_cell_angle_alpha 90.000000
_cell_angle_beta 51.456082
_cell_angle_gamma 90.000000
_cell_volume 682.844394
_symmetry_space_group_name_H-M "C 2"
_symmetry_group_IT_number 5
_symmetry_cell_setting 'monoclinic'
loop_
_space_group_symop_operation_xyz
x,y,z
-x,y,-z
1/2+x,1/2+y,z
1/2-x,1/2+y,-z
loop_
_atom_site_type_symbol
_atom_site_label
_atom_site_fract_x
_atom_site_fract_y
_atom_site_fract_z
Si Si1 0.621657 0.447310 0.622616
Si Si2 0.204908 0.224238 0.715720
Si Si3 0.378326 0.577572 0.880770
Si Si4 0.296052 0.294159 0.285575
O O1 0.500000 0.430457 0.500000
O O2 0.394027 0.508883 0.769958
O O3 0.595422 0.376361 0.731601
O O4 0.000000 0.475408 0.500000
O O5 0.500000 0.242999 0.500000
O O6 0.373463 0.244154 0.812812
O O7 0.111687 0.141078 0.739925
O O8 0.878793 0.276002 0.808722
O O9 0.500000 0.556019 0.000000
O O10 0.000000 0.604573 0.000000
O O11 0.000000 0.271742 0.500000
#
# Coordination Sequence:
#
# PCOD8049340 Si02
#       4
#     4   4   4   4
#     4  11  22  41  66  91 118 159 206 251 300 360
#     4  10  20  38  63  88 115 155 201 247 297 355
#     4  12  26  42  58  89 130 165 200 247 300 360
#     4   9  18  35  63  92 114 143 200 259 296 343
#
# _framework density 23.431398000000002
#
# number of rings (size 3 to 8) (size 9 to 14) (size 15 to 20)
#    0.000    1.500    0.000    7.500    0.000    3.000 
#    0.000    7.500    0.000    0.000    0.000    0.000 
#    0.000    0.000    0.000    0.000    0.000    0.000 
#
# Total GULP energy -99166.755267 kJ/mol
# GULP energy per Si atom -12395.844408 kJ/mol
# Density = 2.337807 g / cm^3
# Si number density = 23.431398 Si / 1000 Ang^3
#
#
#
# Elastic Constant Matrix: (Units=GPa)
#
#
# Indices 1 2 3 4 5 6 
#
# 1 191.6834 70.6250 33.8563 0.0000 -4.1169 0.0000
# 2 70.6250 163.6178 24.5339 0.0000 -1.8530 0.0000
# 3 33.8563 24.5339 18.0352 0.0000 9.3092 0.0000
# 4 0.0000 0.0000 0.0000 9.0848 0.0000 0.8835
# 5 -4.1169 -1.8530 9.3092 0.0000 32.7642 0.0000
# 6 0.0000 0.0000 0.0000 0.8835 0.0000 42.7270
#
#
#
# Elastic Compliance Matrix: (Units=1/GPa)
#
#
# Indices 1 2 3 4 5 6 
#
# 1 0.009091 -0.000990 -0.019079 0.000000 0.006507 0.000000
# 2 -0.000990 0.008257 -0.011193 0.000000 0.003523 0.000000
# 3 -0.019079 -0.011193 0.126623 0.000000 -0.039007 0.000000
# 4 0.000000 0.000000 0.000000 0.110296 0.000000 -0.002281
# 5 0.006507 0.003523 -0.039007 0.000000 0.042621 0.000000
# 6 0.000000 0.000000 0.000000 -0.002281 0.000000 0.023452
#
#
# Mechanical properties :
#
#
# Convention : Reuss Voigt Hill
#
# Bulk Modulus (GPa) = 12.27775 70.15186 41.21480
# Shear Modulus (GPa) = 12.19478 33.20329 22.69903
#
# Velocity S-wave (km/s) = 2.28380 3.76845 3.11584
# Velocity P-wave (km/s) = 3.49365 6.99565 5.52923
#
# Compressibility (1/GPa) = 0.08144813
#
# Stress axis : x y z
#
# Youngs Moduli (GPa) = 109.99764 121.10545 7.89749
#
# Poissons Ratio (x) = 0.11986 0.15067
# Poissons Ratio (y) = 0.10886 0.08840
# Poissons Ratio (z) = 2.09859 1.35555
#
# Static dielectric constant tensor:
#      x y z
#    x 4.989460 0.000000 0.039490 
#    y 0.000000 3.878540 0.000000 
#    z 0.039490 0.000000 3.837420 
# 
# 
# High freq. dielectric constant tensor:
#      x y z
#    x 1.965250 0.000000 -0.006670 
#    y 0.000000 1.924460 0.000000 
#    z -0.006670 0.000000 1.893790 
# 
# From -- ./inp_files/11631.got.cif
#   From: 2010.03.12/outbox.cif.g09.slc.cpg/sg5_6_cif.got.tgz:11631.got - 2010.03.31 09:47:26.
