data_PCOD8049202
_publ_section_title
;
Structure prediction by ZEFSAII (Michael W. Deem and Ramdas Pophale) SiO2 
 PCOD8049202
Probable space group: C 2
;
_chemical_formula_sum "Si O2"
_cell_formula_units_Z 24
_cell_length_a 8.448642
_cell_length_b 18.329749
_cell_length_c 14.476683
_cell_angle_alpha 90.000000
_cell_angle_beta 31.686664
_cell_angle_gamma 90.000000
_cell_volume 1177.600735
_symmetry_space_group_name_H-M "C 2"
_symmetry_group_IT_number 5
_symmetry_cell_setting 'monoclinic'
loop_
_space_group_symop_operation_xyz
x,y,z
-x,y,-z
1/2+x,1/2+y,z
1/2-x,1/2+y,-z
loop_
_atom_site_type_symbol
_atom_site_label
_atom_site_fract_x
_atom_site_fract_y
_atom_site_fract_z
Si Si1 0.699311 0.094940 0.487749
Si Si2 0.710688 0.826850 0.809134
Si Si3 0.832977 0.670579 0.815436
Si Si4 0.158802 0.349157 0.191590
Si Si5 0.847135 0.209517 0.675703
Si Si6 0.705778 0.927344 0.483998
O O1 0.500000 0.118870 0.500000
O O2 0.502424 0.106552 0.677412
O O3 0.994859 0.145065 0.345532
O O4 0.802892 0.011498 0.429795
O O5 0.835325 0.744780 0.754372
O O6 0.512847 0.830762 0.816297
O O7 0.990741 0.880908 0.665978
O O8 0.500000 0.847387 0.000000
O O9 0.000924 0.686124 0.829393
O O10 0.500000 0.642025 0.000000
O O11 0.147591 0.281438 0.266421
O O12 0.986692 0.415495 0.327171
O O13 0.500000 0.372501 0.000000
O O14 0.000000 0.223800 0.500000
O O15 0.500000 0.904183 0.500000
#
# Coordination Sequence:
#
# PCOD8049202 Si02
#       6
#     4   4   4   4   4   4
#     4  10  22  39  59  83 115 156 194 233 288 346
#     4  11  23  40  62  88 117 151 197 245 290 342
#     4  10  20  37  60  85 116 148 189 243 287 336
#     4  12  23  37  62  90 118 154 195 238 291 348
#     4  10  21  38  60  86 118 152 193 239 287 344
#     4  11  23  41  60  84 121 157 194 240 289 346
#
# _framework density 20.380423
#
# number of rings (size 3 to 8) (size 9 to 14) (size 15 to 20)
#    0.000    1.333    0.000    8.000    0.000    4.667 
#    0.000    4.167    0.000    0.000    0.000    0.000 
#    0.000    0.000    0.000    0.000    0.000    0.000 
#
# Total GULP energy -148835.941816 kJ/mol
# GULP energy per Si atom -12402.995151 kJ/mol
# Density = 2.033404 g / cm^3
# Si number density = 20.380423 Si / 1000 Ang^3
#
#
#
# Elastic Constant Matrix: (Units=GPa)
#
#
# Indices 1 2 3 4 5 6 
#
# 1 140.7233 16.8839 22.3472 0.0024 -5.9686 -0.0156
# 2 16.8839 46.5078 20.0860 -0.0157 -1.3639 0.0031
# 3 22.3472 20.0860 97.3976 -0.0222 -10.2989 -0.1524
# 4 0.0024 -0.0157 -0.0222 9.5951 -0.0039 -3.2649
# 5 -5.9686 -1.3639 -10.2989 -0.0039 37.7315 0.0166
# 6 -0.0156 0.0031 -0.1524 -3.2649 0.0166 47.8910
#
#
#
# Elastic Compliance Matrix: (Units=1/GPa)
#
#
# Indices 1 2 3 4 5 6 
#
# 1 0.007597 -0.002215 -0.001202 -0.000009 0.000793 -0.000002
# 2 -0.002215 0.024259 -0.004571 0.000024 -0.000721 -0.000015
# 3 -0.001202 -0.004571 0.011788 0.000034 0.002862 0.000039
# 4 -0.000009 0.000024 0.000034 0.106696 0.000017 0.007274
# 5 0.000793 -0.000721 0.002862 0.000017 0.027384 0.000001
# 6 -0.000002 -0.000015 0.000039 0.007274 0.000001 0.021377
#
#
# Mechanical properties :
#
#
# Convention : Reuss Voigt Hill
#
# Bulk Modulus (GPa) = 36.14399 44.80698 40.47549
# Shear Modulus (GPa) = 22.29168 34.06427 28.17798
#
# Velocity S-wave (km/s) = 3.31082 4.09274 3.72237
# Velocity P-wave (km/s) = 5.69109 6.66086 6.19498
#
# Compressibility (1/GPa) = 0.02766712
#
# Stress axis : x y z
#
# Youngs Moduli (GPa) = 131.63956 41.22198 84.82925
#
# Poissons Ratio (x) = 0.09132 0.10198
# Poissons Ratio (y) = 0.29162 0.38774
# Poissons Ratio (z) = 0.15826 0.18842
#
# Static dielectric constant tensor:
#      x y z
#    x 4.189930 -0.000030 -0.124400 
#    y -0.000030 3.513830 -0.000030 
#    z -0.124400 -0.000030 3.769970 
# 
# 
# High freq. dielectric constant tensor:
#      x y z
#    x 1.820670 0.000000 -0.010840 
#    y 0.000000 1.786020 0.000000 
#    z -0.010840 0.000000 1.795200 
# 
# From -- ./inp_files/16440.got.cif
#   From: 2010.03.12/outbox.cif.g09.slc.cpg/sg5_9_cif.got.tgz:16440.got - 2010.03.31 09:47:26.
