data_PCOD8049502
_publ_section_title
;
Structure prediction by ZEFSAII (Michael W. Deem and Ramdas Pophale) SiO2 
 PCOD8049502
Probable space group: C 2
;
_chemical_formula_sum "Si O2"
_cell_formula_units_Z 26
_cell_length_a 22.680140
_cell_length_b 9.635470
_cell_length_c 16.728579
_cell_angle_alpha 90.000000
_cell_angle_beta 159.072885
_cell_angle_gamma 90.000000
_cell_volume 1305.764634
_symmetry_space_group_name_H-M "C 2"
_symmetry_group_IT_number 5
_symmetry_cell_setting 'monoclinic'
loop_
_space_group_symop_operation_xyz
x,y,z
-x,y,-z
1/2+x,1/2+y,z
1/2-x,1/2+y,-z
loop_
_atom_site_type_symbol
_atom_site_label
_atom_site_fract_x
_atom_site_fract_y
_atom_site_fract_z
Si Si1 0.760119 0.433270 0.579916
Si Si2 0.914046 0.198429 0.666693
Si Si3 0.000000 0.451958 0.500000
Si Si4 0.820615 0.216506 0.364705
Si Si5 0.500000 0.481598 0.500000
Si Si6 0.070152 0.860292 0.751331
Si Si7 0.742152 0.103227 0.922837
Si Si8 0.500000 0.092151 0.000000
O O1 0.837268 0.326907 0.615446
O O2 0.683266 0.559094 0.430838
O O3 0.616125 0.362089 0.450563
O O4 0.905048 0.491523 0.819118
O O5 0.899012 0.214820 0.552031
O O6 0.107751 0.182329 0.932586
O O7 0.873412 0.357723 0.389441
O O8 0.892699 0.551317 0.309688
O O9 0.870175 0.079335 0.379685
O O10 0.623406 0.202013 0.114920
O O11 0.579343 0.383050 0.667493
O O12 0.151795 0.709392 0.869791
O O13 0.185307 0.974935 0.936902
#
# Coordination Sequence:
#
# PCOD8049502 Si02
#       8
#     4   4   2   4   2   4   4   2
#     4  10  23  41  62  91 131 163 217 258 323 384
#     4  10  22  44  61  94 126 172 213 260 323 388
#     4  11  25  42  62  94 136 164 222 274 316 380
#     4  10  22  41  64  93 129 171 211 263 324 384
#     4  11  19  42  66  90 130 160 220 270 304 390
#     4  11  24  42  64  98 127 169 214 269 324 380
#     4  11  24  41  64  96 127 168 220 262 329 373
#     4  10  20  40  62  98 120 172 216 254 332 388
#
# _framework density 19.911705000000001
#
# number of rings (size 3 to 8) (size 9 to 14) (size 15 to 20)
#    0.000    1.538    4.615    1.385    4.308    8.615 
#    0.000    0.000    0.000    0.000    0.000    0.000 
#    0.000    0.000    0.000    0.000    0.000    0.000 
#
# Total GULP energy -161171.801737 kJ/mol
# GULP energy per Si atom -12397.830903 kJ/mol
# Density = 1.986638 g / cm^3
# Si number density = 19.911705 Si / 1000 Ang^3
#
#
#
# Elastic Constant Matrix: (Units=GPa)
#
#
# Indices 1 2 3 4 5 6 
#
# 1 87.5712 39.4759 36.8557 -0.0001 12.9123 0.0000
# 2 39.4759 105.0830 42.2617 -0.0001 21.8087 0.0000
# 3 36.8557 42.2617 126.2578 -0.0001 18.9397 0.0000
# 4 -0.0001 -0.0001 -0.0001 28.4580 0.0000 2.6968
# 5 12.9123 21.8087 18.9397 0.0000 28.8828 0.0000
# 6 0.0000 0.0000 0.0000 2.6968 0.0000 37.1332
#
#
#
# Elastic Compliance Matrix: (Units=1/GPa)
#
#
# Indices 1 2 3 4 5 6 
#
# 1 0.014623 -0.004070 -0.002647 0.000000 -0.001728 0.000000
# 2 -0.004070 0.013366 -0.002268 0.000000 -0.006785 0.000000
# 3 -0.002647 -0.002268 0.010002 0.000000 -0.003663 0.000000
# 4 0.000000 0.000000 0.000000 0.035383 0.000000 -0.002570
# 5 -0.001728 -0.006785 -0.003663 0.000000 0.042921 0.000000
# 6 0.000000 0.000000 0.000000 -0.002570 0.000000 0.027117
#
#
# Mechanical properties :
#
#
# Convention : Reuss Voigt Hill
#
# Bulk Modulus (GPa) = 49.94937 61.78875 55.86906
# Shear Modulus (GPa) = 29.75246 32.24937 31.00091
#
# Velocity S-wave (km/s) = 3.86971 4.02881 3.95006
# Velocity P-wave (km/s) = 6.71611 7.26227 6.99452
#
# Compressibility (1/GPa) = 0.02002027
#
# Stress axis : x y z
#
# Youngs Moduli (GPa) = 68.38620 74.81928 99.98496
#
# Poissons Ratio (x) = 0.30452 0.26465
# Poissons Ratio (y) = 0.27833 0.22675
# Poissons Ratio (z) = 0.18101 0.16968
#
# Static dielectric constant tensor:
#      x y z
#    x 3.864450 0.000000 0.102780 
#    y 0.000000 3.762700 0.000000 
#    z 0.102780 0.000000 3.831220 
# 
# 
# High freq. dielectric constant tensor:
#      x y z
#    x 1.766170 0.000000 0.009570 
#    y 0.000000 1.785070 0.000000 
#    z 0.009570 0.000000 1.789370 
# 
# From -- ./inp_files/26542.got.cif
#   From: 2010.03.12/outbox.cif.g09.slc.cpg/sg5_14_cif.got.tgz:26542.got - 2010.03.31 09:47:26.
