data_PCOD8049644
_publ_section_title
;
Structure prediction by ZEFSAII (Michael W. Deem and Ramdas Pophale) SiO2 
 PCOD8049644
Probable space group: C 2
;
_chemical_formula_sum "Si O2"
_cell_formula_units_Z 30
_cell_length_a 11.005434
_cell_length_b 9.471993
_cell_length_c 14.003782
_cell_angle_alpha 90.000000
_cell_angle_beta 77.151741
_cell_angle_gamma 90.000000
_cell_volume 1423.251833
_symmetry_space_group_name_H-M "C 2"
_symmetry_group_IT_number 5
_symmetry_cell_setting 'monoclinic'
loop_
_space_group_symop_operation_xyz
x,y,z
-x,y,-z
1/2+x,1/2+y,z
1/2-x,1/2+y,-z
loop_
_atom_site_type_symbol
_atom_site_label
_atom_site_fract_x
_atom_site_fract_y
_atom_site_fract_z
Si Si1 0.000000 0.596791 0.500000
Si Si2 0.659891 0.485717 0.242933
Si Si3 0.451378 0.286331 0.330019
Si Si4 0.380737 0.452517 0.954889
Si Si5 0.135285 0.103208 0.440173
Si Si6 0.588149 0.089703 0.840092
Si Si7 0.338351 0.137654 0.964362
Si Si8 0.274856 0.908154 0.545242
O O1 0.944557 0.689151 0.424446
O O2 0.890132 0.500553 0.564778
O O3 0.590816 0.347940 0.296987
O O4 0.595439 0.527219 0.152443
O O5 0.638713 0.611622 0.323735
O O6 0.811390 0.465601 0.202604
O O7 0.412599 0.202973 0.243206
O O8 0.343603 0.406051 0.361485
O O9 0.284923 0.546456 0.032700
O O10 0.500000 0.436114 0.000000
O O11 0.327383 0.299216 0.930033
O O12 0.175907 0.249832 0.481026
O O13 0.000000 0.059129 0.500000
O O14 0.229430 0.977323 0.453732
O O15 0.637441 0.162076 0.927880
O O16 0.445657 0.046523 0.889712
#
# Coordination Sequence:
#
# PCOD8049644 Si02
#       8
#     2   4   4   4   4   4   4   4
#     4  12  26  40  64  98 128 172 222 268 330 382
#     4  11  22  39  72  94 127 180 217 265 330 390
#     4  12  22  41  63  93 132 171 212 272 323 384
#     4  11  22  45  68  97 133 169 218 267 332 391
#     4  12  24  42  65  94 132 173 221 269 325 384
#     4  10  20  42  65  93 128 173 212 265 328 384
#     4  10  21  42  71  92 130 172 208 272 328 389
#     4  12  24  41  67  90 129 173 217 268 324 382
#
# _framework density 21.078491
#
# number of rings (size 3 to 8) (size 9 to 14) (size 15 to 20)
#    0.000    0.800    7.333    0.800    0.000    0.000 
#    9.600    1.333    2.933    0.000    0.000    0.000 
#    0.000    0.000    0.000    0.000    0.000    0.000 
#
# Total GULP energy -185832.579856 kJ/mol
# GULP energy per Si atom -12388.838657 kJ/mol
# Density = 2.103052 g / cm^3
# Si number density = 21.078491 Si / 1000 Ang^3
#
#
#
# Elastic Constant Matrix: (Units=GPa)
#
#
# Indices 1 2 3 4 5 6 
#
# 1 120.9395 67.3414 46.8130 0.0000 -28.1840 0.0000
# 2 67.3414 89.3708 34.9242 0.0000 -12.9782 0.0000
# 3 46.8130 34.9242 108.0276 0.0000 -20.4526 0.0000
# 4 0.0000 0.0000 0.0000 19.6641 0.0000 -8.7356
# 5 -28.1840 -12.9782 -20.4526 0.0000 23.2609 0.0000
# 6 0.0000 0.0000 0.0000 -8.7356 0.0000 40.1259
#
#
#
# Elastic Compliance Matrix: (Units=1/GPa)
#
#
# Indices 1 2 3 4 5 6 
#
# 1 0.018615 -0.011235 -0.001621 0.000000 0.014861 0.000000
# 2 -0.011235 0.019941 -0.002458 0.000000 -0.004649 0.000000
# 3 -0.001621 -0.002458 0.012144 0.000000 0.007343 0.000000
# 4 0.000000 0.000000 0.000000 0.056299 0.000000 0.012257
# 5 0.014861 -0.004649 0.007343 0.000000 0.064860 0.000000
# 6 0.000000 0.000000 0.000000 0.012257 0.000000 0.027590
#
#
# Mechanical properties :
#
#
# Convention : Reuss Voigt Hill
#
# Bulk Modulus (GPa) = 49.82126 68.49945 59.16036
# Shear Modulus (GPa) = 21.11775 27.89413 24.50594
#
# Velocity S-wave (km/s) = 3.16865 3.64173 3.41340
# Velocity P-wave (km/s) = 6.08889 7.08878 6.60777
#
# Compressibility (1/GPa) = 0.02007175
#
# Stress axis : x y z
#
# Youngs Moduli (GPa) = 53.71907 50.14894 82.34441
#
# Poissons Ratio (x) = 0.56343 0.13347
# Poissons Ratio (y) = 0.60355 0.20240
# Poissons Ratio (z) = 0.08707 0.12327
#
# Static dielectric constant tensor:
#      x y z
#    x 4.113050 0.000000 -0.269180 
#    y 0.000000 3.654310 0.000000 
#    z -0.269180 0.000000 4.072020 
# 
# 
# High freq. dielectric constant tensor:
#      x y z
#    x 1.837180 0.000000 -0.012420 
#    y 0.000000 1.793740 0.000000 
#    z -0.012420 0.000000 1.834470 
# 
# From -- ./inp_files/52426.got.cif
#   From: 2010.03.12/outbox.cif.g09.slc.cpg/sg5_27_cif.got.tgz:52426.got - 2010.03.31 09:47:26.
