data_PCOD8049660
_publ_section_title
;
Structure prediction by ZEFSAII (Michael W. Deem and Ramdas Pophale) SiO2 
 PCOD8049660
Probable space group: C 2
;
_chemical_formula_sum "Si O2"
_cell_formula_units_Z 24
_cell_length_a 22.839410
_cell_length_b 7.432634
_cell_length_c 11.327575
_cell_angle_alpha 90.000000
_cell_angle_beta 31.167658
_cell_angle_gamma 90.000000
_cell_volume 995.203588
_symmetry_space_group_name_H-M "C 2"
_symmetry_group_IT_number 5
_symmetry_cell_setting 'monoclinic'
loop_
_space_group_symop_operation_xyz
x,y,z
-x,y,-z
1/2+x,1/2+y,z
1/2-x,1/2+y,-z
loop_
_atom_site_type_symbol
_atom_site_label
_atom_site_fract_x
_atom_site_fract_y
_atom_site_fract_z
Si Si1 0.707544 0.584960 0.418617
Si Si2 0.830557 0.529392 0.994510
Si Si3 0.994392 0.031541 0.374684
Si Si4 0.878548 0.794717 0.267825
Si Si5 0.264733 0.439180 0.087100
Si Si6 0.422400 0.132224 0.434314
O O1 0.595336 0.656378 0.541643
O O2 0.788444 0.744039 0.322759
O O3 0.664066 0.482626 0.608412
O O4 0.779839 0.451203 0.205595
O O5 0.774244 0.431231 0.981598
O O6 0.964918 0.510158 0.752653
O O7 0.788880 0.735807 0.081329
O O8 0.000000 0.095248 0.500000
O O9 0.949606 0.825990 0.444358
O O10 0.118377 0.052101 0.103497
O O11 0.886557 0.648488 0.359256
O O12 0.000000 0.821838 0.000000
O O13 0.173805 0.534129 0.325881
#
# Coordination Sequence:
#
# PCOD8049660 Si02
#       6
#     4   4   4   4   4   4
#     4  11  25  45  72 101 135 185 236 282 344 412
#     4  11  23  44  68 103 143 178 234 286 349 418
#     4  10  20  42  67  97 140 177 222 286 349 406
#     4  11  25  47  70  96 142 188 236 286 337 409
#     4  11  23  41  72 102 143 182 227 288 357 412
#     4  10  22  41  71  97 135 186 229 278 347 406
#
# _framework density 24.115669
#
# number of rings (size 3 to 8) (size 9 to 14) (size 15 to 20)
#    0.000    1.333    3.333    2.500    4.667    0.000 
#    6.000    5.833    0.000    0.000    0.000    0.000 
#    0.000    0.000    0.000    0.000    0.000    0.000 
#
# Total GULP energy -148780.958133 kJ/mol
# GULP energy per Si atom -12398.413178 kJ/mol
# Density = 2.406078 g / cm^3
# Si number density = 24.115669 Si / 1000 Ang^3
#
#
#
# Elastic Constant Matrix: (Units=GPa)
#
#
# Indices 1 2 3 4 5 6 
#
# 1 144.6031 20.2588 57.2261 0.0000 -10.9432 0.0000
# 2 20.2588 17.6223 39.4533 0.0000 -2.2399 0.0000
# 3 57.2261 39.4533 221.4722 0.0000 -8.3527 0.0000
# 4 0.0000 0.0000 0.0000 35.7296 0.0000 -2.8974
# 5 -10.9432 -2.2399 -8.3527 0.0000 56.3659 0.0000
# 6 0.0000 0.0000 0.0000 -2.8974 0.0000 16.8461
#
#
#
# Elastic Compliance Matrix: (Units=1/GPa)
#
#
# Indices 1 2 3 4 5 6 
#
# 1 0.008397 -0.007891 -0.000718 0.000000 0.001210 0.000000
# 2 -0.007891 0.101899 -0.016108 0.000000 0.000130 0.000000
# 3 -0.000718 -0.016108 0.007583 0.000000 0.000344 0.000000
# 4 0.000000 0.000000 0.000000 0.028384 0.000000 0.004882
# 5 0.001210 0.000130 0.000344 0.000000 0.018032 0.000000
# 6 0.000000 0.000000 0.000000 0.004882 0.000000 0.060201
#
#
# Mechanical properties :
#
#
# Convention : Reuss Voigt Hill
#
# Bulk Modulus (GPa) = 14.61070 68.61934 41.61502
# Shear Modulus (GPa) = 16.84944 39.57227 28.21086
#
# Velocity S-wave (km/s) = 2.64615 4.05524 3.42397
# Velocity P-wave (km/s) = 3.92529 7.10230 5.73805
#
# Compressibility (1/GPa) = 0.06844299
#
# Stress axis : x y z
#
# Youngs Moduli (GPa) = 119.09189 9.81368 131.86747
#
# Poissons Ratio (x) = 0.07744 0.09472
# Poissons Ratio (y) = 0.93978 2.12417
# Poissons Ratio (z) = 0.08554 0.15808
#
# Static dielectric constant tensor:
#      x y z
#    x 4.691360 0.000000 -0.167300 
#    y 0.000000 3.883910 0.000000 
#    z -0.167300 0.000000 4.761240 
# 
# 
# High freq. dielectric constant tensor:
#      x y z
#    x 1.971490 0.000000 -0.004120 
#    y 0.000000 1.917300 0.000000 
#    z -0.004120 0.000000 1.988960 
# 
# From -- ./inp_files/47234.got.cif
#   From: 2010.03.12/outbox.cif.g09.slc.cpg/sg5_24_cif.got.tgz:47234.got - 2010.03.31 09:47:26.
