data_PCOD8049830
_publ_section_title
;
Structure prediction by ZEFSAII (Michael W. Deem and Ramdas Pophale) SiO2 
 PCOD8049830
Probable space group: C 2
;
_chemical_formula_sum "Si O2"
_cell_formula_units_Z 26
_cell_length_a 10.456021
_cell_length_b 8.559882
_cell_length_c 24.563591
_cell_angle_alpha 90.000000
_cell_angle_beta 146.707962
_cell_angle_gamma 90.000000
_cell_volume 1206.770228
_symmetry_space_group_name_H-M "C 2"
_symmetry_group_IT_number 5
_symmetry_cell_setting 'monoclinic'
loop_
_space_group_symop_operation_xyz
x,y,z
-x,y,-z
1/2+x,1/2+y,z
1/2-x,1/2+y,-z
loop_
_atom_site_type_symbol
_atom_site_label
_atom_site_fract_x
_atom_site_fract_y
_atom_site_fract_z
Si Si1 0.765818 0.752160 0.178076
Si Si2 0.996206 0.627169 0.436271
Si Si3 0.161852 0.954081 0.513608
Si Si4 0.061276 0.990853 0.214824
Si Si5 0.580431 0.819344 0.856504
Si Si6 0.067607 0.441384 0.732050
Si Si7 0.500000 0.534336 0.000000
O O1 0.626878 0.853035 0.173945
O O2 0.946597 0.632461 0.271172
O O3 0.592102 0.643963 0.080864
O O4 0.905295 0.868132 0.190074
O O5 0.239073 0.565571 0.497285
O O6 0.000000 0.572968 0.500000
O O7 0.768276 0.560322 0.325792
O O8 0.005242 0.814733 0.432858
O O9 0.000000 0.047544 0.500000
O O10 0.373518 0.874235 0.622595
O O11 0.890388 0.130851 0.134262
O O12 0.177135 0.904227 0.203552
O O13 0.521393 0.869710 0.774229
O O14 0.804570 0.917613 0.955453
#
# Coordination Sequence:
#
# PCOD8049830 Si02
#       7
#     4   4   4   4   4   4   2
#     4  10  23  40  62  88 117 154 196 240 293 357
#     4  10  22  37  56  86 119 156 200 243 290 346
#     4  10  21  37  57  84 120 156 199 246 289 343
#     4  10  22  39  60  88 120 155 197 244 293 347
#     4  10  21  40  64  86 115 152 192 241 296 354
#     4   9  21  40  58  86 120 153 196 243 294 348
#     4  10  24  40  58  90 120 146 192 244 298 356
#
# _framework density 21.545113000000001
#
# number of rings (size 3 to 8) (size 9 to 14) (size 15 to 20)
#    0.000    2.154    0.000    1.846    0.000   16.000 
#    0.000    0.000    0.000    0.000    0.000    0.000 
#    0.000    0.000    0.000    0.000    0.000    0.000 
#
# Total GULP energy -161081.710706 kJ/mol
# GULP energy per Si atom -12390.900824 kJ/mol
# Density = 2.149608 g / cm^3
# Si number density = 21.545113 Si / 1000 Ang^3
#
#
#
# Elastic Constant Matrix: (Units=GPa)
#
#
# Indices 1 2 3 4 5 6 
#
# 1 194.4198 59.9892 21.1738 0.0000 21.8719 0.0000
# 2 59.9892 73.6493 27.5369 0.0000 18.1928 0.0000
# 3 21.1738 27.5369 63.0395 -0.0001 2.8581 0.0000
# 4 0.0000 0.0000 -0.0001 38.4143 0.0000 2.6775
# 5 21.8719 18.1928 2.8581 0.0000 30.0499 0.0000
# 6 0.0000 0.0000 0.0000 2.6775 0.0000 43.3830
#
#
#
# Elastic Compliance Matrix: (Units=1/GPa)
#
#
# Indices 1 2 3 4 5 6 
#
# 1 0.006963 -0.005206 0.000022 0.000000 -0.001918 0.000000
# 2 -0.005206 0.023114 -0.007920 0.000000 -0.009451 0.000000
# 3 0.000022 -0.007920 0.019181 0.000000 0.002954 0.000000
# 4 0.000000 0.000000 0.000000 0.026144 0.000000 -0.001614
# 5 -0.001918 -0.009451 0.002954 0.000000 0.040115 0.000000
# 6 0.000000 0.000000 0.000000 -0.001614 0.000000 0.023150
#
#
# Mechanical properties :
#
#
# Convention : Reuss Voigt Hill
#
# Bulk Modulus (GPa) = 43.38097 60.94537 52.16317
# Shear Modulus (GPa) = 28.97558 37.19668 33.08613
#
# Velocity S-wave (km/s) = 3.67124 4.15957 3.92301
# Velocity P-wave (km/s) = 6.17651 7.17064 6.69206
#
# Compressibility (1/GPa) = 0.02305158
#
# Stress axis : x y z
#
# Youngs Moduli (GPa) = 143.60979 43.26354 52.13483
#
# Poissons Ratio (x) = 0.22524 -0.00116
# Poissons Ratio (y) = 0.74767 0.41288
# Poissons Ratio (z) = -0.00321 0.34263
#
# Static dielectric constant tensor:
#      x y z
#    x 4.319950 0.000000 0.053660 
#    y 0.000000 3.774220 0.000000 
#    z 0.053660 0.000000 3.879620 
# 
# 
# High freq. dielectric constant tensor:
#      x y z
#    x 1.873130 0.000000 0.000220 
#    y 0.000000 1.826630 0.000000 
#    z 0.000220 0.000000 1.833870 
# 
# From -- ./inp_files/71671.got.cif
#   From: 2010.03.12/outbox.cif.g09.slc.cpg/sg5_36_cif.got.tgz:71671.got - 2010.03.31 09:47:26.
