data_PCOD8049003
_publ_section_title
;
Structure prediction by ZEFSAII (Michael W. Deem and Ramdas Pophale) SiO2 
 PCOD8049003
Probable space group: C 2
;
_chemical_formula_sum "Si O2"
_cell_formula_units_Z 32
_cell_length_a 14.083923
_cell_length_b 9.223749
_cell_length_c 28.360438
_cell_angle_alpha 90.000000
_cell_angle_beta 26.903921
_cell_angle_gamma 90.000000
_cell_volume 1667.088075
_symmetry_space_group_name_H-M "C 2"
_symmetry_group_IT_number 5
_symmetry_cell_setting 'monoclinic'
loop_
_space_group_symop_operation_xyz
x,y,z
-x,y,-z
1/2+x,1/2+y,z
1/2-x,1/2+y,-z
loop_
_atom_site_type_symbol
_atom_site_label
_atom_site_fract_x
_atom_site_fract_y
_atom_site_fract_z
Si Si1 0.584670 0.933780 0.117239
Si Si2 0.088449 0.948762 0.187443
Si Si3 0.401185 0.191625 0.383370
Si Si4 0.353529 0.474300 0.735844
Si Si5 0.462211 0.127450 0.252915
Si Si6 0.150681 0.104556 0.071771
Si Si7 0.561013 0.706580 0.374146
Si Si8 0.724329 0.016293 0.289538
O O1 0.357173 0.918600 0.194911
O O2 0.687977 0.774855 0.067265
O O3 0.568040 0.990533 0.178781
O O4 0.716589 0.058133 0.032237
O O5 0.184484 0.013964 0.192635
O O6 0.094933 0.773708 0.183981
O O7 0.230384 0.009586 0.081494
O O8 0.846880 0.009656 0.285917
O O9 0.466338 0.354599 0.344299
O O10 0.446890 0.096083 0.315838
O O11 0.534441 0.130708 0.368892
O O12 0.158130 0.198363 0.502318
O O13 0.449940 0.611452 0.667641
O O14 0.228194 0.147209 0.337205
O O15 0.904434 0.063404 0.171558
O O16 0.620388 0.861573 0.326490
#
# Coordination Sequence:
#
# PCOD8049003 Si02
#       8
#     4   4   4   4   4   4   4   4
#     4  11  21  37  61  82 115 149 192 233 293 340
#     4   8  18  37  56  78 116 147 181 231 281 331
#     4  11  19  37  57  84 113 153 190 233 287 338
#     4  10  20  35  59  84 110 150 193 235 275 345
#     4   9  20  35  57  84 112 148 189 236 275 343
#     4  10  21  37  60  81 115 153 181 237 293 337
#     4  10  20  34  58  84 114 151 189 233 286 338
#     4   9  20  38  54  81 118 147 184 241 280 336
#
# _framework density 19.195145
#
# number of rings (size 3 to 8) (size 9 to 14) (size 15 to 20)
#    0.750    1.500    1.250    1.875    1.750    1.500 
#    0.000    2.500    2.750    0.000    0.000    0.000 
#    0.000    0.000    0.000    0.000    0.000    0.000 
#
# Total GULP energy -198240.947403 kJ/mol
# GULP energy per Si atom -12390.059213 kJ/mol
# Density = 1.915146 g / cm^3
# Si number density = 19.195145 Si / 1000 Ang^3
#
#
#
# Elastic Constant Matrix: (Units=GPa)
#
#
# Indices 1 2 3 4 5 6 
#
# 1 53.4412 11.7363 -0.5839 0.0002 15.9453 0.0003
# 2 11.7363 86.3508 31.2968 0.0002 10.5149 0.0002
# 3 -0.5839 31.2968 68.0842 -0.0026 5.1784 -0.0007
# 4 0.0002 0.0002 -0.0026 22.4583 -0.0007 -0.3787
# 5 15.9453 10.5149 5.1784 -0.0007 17.6559 0.0002
# 6 0.0003 0.0002 -0.0007 -0.3787 0.0002 25.5367
#
#
#
# Elastic Compliance Matrix: (Units=1/GPa)
#
#
# Indices 1 2 3 4 5 6 
#
# 1 0.026088 -0.001712 0.002787 -0.000001 -0.023359 0.000000
# 2 -0.001712 0.014790 -0.006404 -0.000001 -0.005384 0.000000
# 3 0.002787 -0.006404 0.017957 0.000002 -0.003970 0.000001
# 4 -0.000001 -0.000001 0.000002 0.044538 0.000002 0.000660
# 5 -0.023359 -0.005384 -0.003970 0.000002 0.082105 0.000000
# 6 0.000000 0.000000 0.000001 0.000660 0.000000 0.039169
#
#
# Mechanical properties :
#
#
# Convention : Reuss Voigt Hill
#
# Bulk Modulus (GPa) = 20.75602 32.53054 26.64328
# Shear Modulus (GPa) = 19.89155 24.15864 22.02510
#
# Velocity S-wave (km/s) = 3.22262 3.55150 3.39105
# Velocity P-wave (km/s) = 4.96827 5.81391 5.40765
#
# Compressibility (1/GPa) = 0.04817879
#
# Stress axis : x y z
#
# Youngs Moduli (GPa) = 38.33180 67.61381 55.68790
#
# Poissons Ratio (x) = 0.11572 -0.15521
# Poissons Ratio (y) = 0.06561 0.35661
# Poissons Ratio (z) = -0.10684 0.43298
#
# Static dielectric constant tensor:
#      x y z
#    x 3.468710 0.000000 0.037810 
#    y 0.000000 3.450510 0.000000 
#    z 0.037810 0.000000 3.343570 
# 
# 
# High freq. dielectric constant tensor:
#      x y z
#    x 1.736900 0.000000 -0.002320 
#    y 0.000000 1.744680 0.000000 
#    z -0.002320 0.000000 1.732820 
# 
# From -- ./inp_files/70605.got.cif
#   From: 2010.03.12/outbox.cif.g09.slc.cpg/sg5_36_cif.got.tgz:70605.got - 2010.03.31 09:47:26.
