data_PCOD8049978
_publ_section_title
;
Structure prediction by ZEFSAII (Michael W. Deem and Ramdas Pophale) SiO2 
 PCOD8049978
Probable space group: C 2
;
_chemical_formula_sum "Si O2"
_cell_formula_units_Z 28
_cell_length_a 13.282880
_cell_length_b 18.826865
_cell_length_c 6.350661
_cell_angle_alpha 90.000000
_cell_angle_beta 120.715148
_cell_angle_gamma 90.000000
_cell_volume 1365.352644
_symmetry_space_group_name_H-M "C 2"
_symmetry_group_IT_number 5
_symmetry_cell_setting 'monoclinic'
loop_
_space_group_symop_operation_xyz
x,y,z
-x,y,-z
1/2+x,1/2+y,z
1/2-x,1/2+y,-z
loop_
_atom_site_type_symbol
_atom_site_label
_atom_site_fract_x
_atom_site_fract_y
_atom_site_fract_z
Si Si1 0.000000 0.447850 0.000000
Si Si2 0.369441 0.491532 0.369605
Si Si3 0.813379 0.652793 0.481269
Si Si4 0.130560 0.155501 0.630403
Si Si5 0.802346 0.401173 0.073255
Si Si6 0.000000 0.699243 0.000000
Si Si7 0.302310 0.245885 0.073184
Si Si8 0.313377 0.994283 0.481273
O O1 0.080949 0.398336 0.941713
O O2 0.917959 0.495982 0.764134
O O3 0.500000 0.458705 0.500000
O O4 0.374164 0.573517 0.313783
O O5 0.310507 0.479477 0.535073
O O6 0.294394 0.455479 0.109154
O O7 0.689495 0.667577 0.464946
O O8 0.834515 0.717023 0.340408
O O9 0.812561 0.573537 0.376571
O O10 0.917990 0.651109 0.764109
O O11 0.000000 0.188329 0.500000
O O12 0.205640 0.191526 0.890895
O O13 0.834544 0.430061 0.340444
O O14 0.750077 0.323514 0.000138
O O15 0.080985 0.748757 0.941788
#
# Coordination Sequence:
#
# PCOD8049978 Si02
#       8
#     2   4   4   4   4   2   4   4
#     4  10  23  40  60  88 117 148 196 246 287 340
#     4   9  20  38  59  85 116 151 196 242 281 335
#     4  10  21  39  63  88 116 153 195 241 292 341
#     4   9  20  38  59  85 116 151 196 242 281 335
#     4  11  24  38  58  86 119 155 191 235 291 349
#     4  10  23  40  60  88 117 148 196 246 287 340
#     4  11  24  38  58  86 119 155 191 235 291 349
#     4  10  21  39  63  88 116 153 195 241 292 341
#
# _framework density 20.507524
#
# number of rings (size 3 to 8) (size 9 to 14) (size 15 to 20)
#    0.000    2.000    0.000    2.143    0.000   14.857 
#    0.000    4.286    0.000    0.000    0.000    0.000 
#    0.000    0.000    0.000    0.000    0.000    0.000 
#
# Total GULP energy -173559.890904 kJ/mol
# GULP energy per Si atom -12397.135065 kJ/mol
# Density = 2.046085 g / cm^3
# Si number density = 20.507524 Si / 1000 Ang^3
#
#
#
# Elastic Constant Matrix: (Units=GPa)
#
#
# Indices 1 2 3 4 5 6 
#
# 1 173.0257 47.9437 51.9340 0.0000 7.7262 0.0000
# 2 47.9437 102.8123 46.0702 0.0000 -12.7726 0.0000
# 3 51.9340 46.0702 102.6538 0.0000 -5.4156 0.0000
# 4 0.0000 0.0000 0.0000 6.7135 0.0000 -3.2539
# 5 7.7262 -12.7726 -5.4156 0.0000 27.7175 0.0000
# 6 0.0000 0.0000 0.0000 -3.2539 0.0000 23.1330
#
#
#
# Elastic Compliance Matrix: (Units=1/GPa)
#
#
# Indices 1 2 3 4 5 6 
#
# 1 0.007558 -0.002761 -0.002791 0.000000 -0.003924 0.000000
# 2 -0.002761 0.013790 -0.004462 0.000000 0.006253 0.000000
# 3 -0.002791 -0.004462 0.013225 0.000000 0.001306 0.000000
# 4 0.000000 0.000000 0.000000 0.159851 0.000000 0.022485
# 5 -0.003924 0.006253 0.001306 0.000000 0.040309 0.000000
# 6 0.000000 0.000000 0.000000 0.022485 0.000000 0.046391
#
#
# Mechanical properties :
#
#
# Convention : Reuss Voigt Hill
#
# Bulk Modulus (GPa) = 68.75818 74.48753 71.62285
# Shear Modulus (GPa) = 16.33981 27.01572 21.67777
#
# Velocity S-wave (km/s) = 2.82578 3.63348 3.25478
# Velocity P-wave (km/s) = 6.65190 7.34873 7.00898
#
# Compressibility (1/GPa) = 0.01454372
#
# Stress axis : x y z
#
# Youngs Moduli (GPa) = 132.31677 72.51478 75.61303
#
# Poissons Ratio (x) = 0.20021 0.21107
# Poissons Ratio (y) = 0.36532 0.33741
# Poissons Ratio (z) = 0.36935 0.32358
#
# Static dielectric constant tensor:
#      x y z
#    x 4.106250 0.000000 0.089980 
#    y 0.000000 3.531990 0.000000 
#    z 0.089980 0.000000 3.635550 
# 
# 
# High freq. dielectric constant tensor:
#      x y z
#    x 1.820560 0.000000 0.004520 
#    y 0.000000 1.785680 0.000000 
#    z 0.004520 0.000000 1.796220 
# 
# From -- ./inp_files/5622.got.cif
#   From: 2010.03.12/outbox.cif.g09.slc.cpg/sg5_3_cif.got.tgz:5622.got - 2010.03.31 09:47:26.
