data_PCOD8049201
_publ_section_title
;
Structure prediction by ZEFSAII (Michael W. Deem and Ramdas Pophale) SiO2 
 PCOD8049201
Probable space group: C 2
;
_chemical_formula_sum "Si O2"
_cell_formula_units_Z 28
_cell_length_a 8.603109
_cell_length_b 11.225321
_cell_length_c 14.609099
_cell_angle_alpha 90.000000
_cell_angle_beta 114.983926
_cell_angle_gamma 90.000000
_cell_volume 1278.822096
_symmetry_space_group_name_H-M "C 2"
_symmetry_group_IT_number 5
_symmetry_cell_setting 'monoclinic'
loop_
_space_group_symop_operation_xyz
x,y,z
-x,y,-z
1/2+x,1/2+y,z
1/2-x,1/2+y,-z
loop_
_atom_site_type_symbol
_atom_site_label
_atom_site_fract_x
_atom_site_fract_y
_atom_site_fract_z
Si Si1 0.030626 0.362840 0.378478
Si Si2 0.564614 0.097734 0.744994
Si Si3 0.860410 0.970123 0.535116
Si Si4 0.280236 0.674129 0.391765
Si Si5 0.903484 0.019757 0.258624
Si Si6 0.915426 0.221989 0.786961
Si Si7 0.448847 0.951931 0.885651
O O1 0.186540 0.393724 0.486120
O O2 0.115750 0.288417 0.317232
O O3 0.937627 0.482140 0.320766
O O4 0.888645 0.291524 0.400106
O O5 0.424191 0.193471 0.671960
O O6 0.743748 0.165947 0.786124
O O7 0.529193 0.053533 0.840276
O O8 0.000000 0.914619 0.500000
O O9 0.828307 0.112051 0.501874
O O10 0.924676 0.957596 0.657151
O O11 0.317148 0.571194 0.328093
O O12 0.948728 0.116693 0.193201
O O13 0.758994 0.937733 0.176566
O O14 0.008673 0.317125 0.877516
O O15 0.500000 0.988769 0.000000
#
# Coordination Sequence:
#
# PCOD8049201 Si02
#       7
#     4   4   4   4   4   4   4
#     4   9  18  35  55  81 117 152 185 220 262 323
#     4   9  19  36  58  85 114 142 182 229 275 333
#     4   9  16  33  54  79 116 151 187 226 263 315
#     4   8  16  33  56  80 115 156 183 215 266 322
#     4   9  19  37  57  81 114 146 184 234 277 324
#     4  10  20  37  60  85 113 146 184 230 279 328
#     4  10  22  41  61  79 105 143 184 234 294 343
#
# _framework density 21.895147999999999
#
# number of rings (size 3 to 8) (size 9 to 14) (size 15 to 20)
#    0.000    2.857    0.000    2.571    0.000    2.286 
#    0.000   37.143    0.000    1.714    0.000    0.000 
#    0.000    0.000    0.000    0.000    0.000    0.000 
#
# Total GULP energy -173481.071867 kJ/mol
# GULP energy per Si atom -12391.505133 kJ/mol
# Density = 2.184531 g / cm^3
# Si number density = 21.895148 Si / 1000 Ang^3
#
#
#
# Elastic Constant Matrix: (Units=GPa)
#
#
# Indices 1 2 3 4 5 6 
#
# 1 61.3497 42.0605 26.3521 0.0000 -4.6444 0.0000
# 2 42.0605 82.2675 27.8339 0.0000 -8.1189 0.0000
# 3 26.3521 27.8339 114.2298 0.0000 1.2473 0.0000
# 4 0.0000 0.0000 0.0000 16.8298 0.0000 -0.1987
# 5 -4.6444 -8.1189 1.2473 0.0000 15.6226 0.0000
# 6 0.0000 0.0000 0.0000 -0.1987 0.0000 42.5773
#
#
#
# Elastic Compliance Matrix: (Units=1/GPa)
#
#
# Indices 1 2 3 4 5 6 
#
# 1 0.026054 -0.012112 -0.003078 0.000000 0.001697 0.000000
# 2 -0.012112 0.019727 -0.002087 0.000000 0.006818 0.000000
# 3 -0.003078 -0.002087 0.010003 0.000000 -0.002798 0.000000
# 4 0.000000 0.000000 0.000000 0.059422 0.000000 0.000277
# 5 0.001697 0.006818 -0.002798 0.000000 0.068281 0.000000
# 6 0.000000 0.000000 0.000000 0.000277 0.000000 0.023488
#
#
# Mechanical properties :
#
#
# Convention : Reuss Voigt Hill
#
# Bulk Modulus (GPa) = 47.10096 50.03777 48.56937
# Shear Modulus (GPa) = 20.11222 25.77932 22.94577
#
# Velocity S-wave (km/s) = 3.03408 3.43505 3.24077
# Velocity P-wave (km/s) = 5.81661 6.21576 6.01950
#
# Compressibility (1/GPa) = 0.02123099
#
# Stress axis : x y z
#
# Youngs Moduli (GPa) = 38.38154 50.69252 99.96584
#
# Poissons Ratio (x) = 0.61398 0.30768
# Poissons Ratio (y) = 0.46487 0.20864
# Poissons Ratio (z) = 0.11813 0.10580
#
# Static dielectric constant tensor:
#      x y z
#    x 3.949540 0.000000 0.084210 
#    y 0.000000 3.904130 0.000000 
#    z 0.084210 0.000000 3.804290 
# 
# 
# High freq. dielectric constant tensor:
#      x y z
#    x 1.861710 0.000000 0.000190 
#    y 0.000000 1.860250 0.000000 
#    z 0.000190 0.000000 1.828530 
# 
# From -- ./inp_files/50326.got.cif
#   From: 2010.03.12/outbox.cif.g09.slc.cpg/sg5_26_cif.got.tgz:50326.got - 2010.03.31 09:47:26.
