data_PCOD8049047
_publ_section_title
;
Structure prediction by ZEFSAII (Michael W. Deem and Ramdas Pophale) SiO2 
 PCOD8049047
Probable space group: C 2
;
_chemical_formula_sum "Si O2"
_cell_formula_units_Z 30
_cell_length_a 7.852070
_cell_length_b 20.576202
_cell_length_c 9.892455
_cell_angle_alpha 90.000000
_cell_angle_beta 87.960568
_cell_angle_gamma 90.000000
_cell_volume 1597.269796
_symmetry_space_group_name_H-M "C 2"
_symmetry_group_IT_number 5
_symmetry_cell_setting 'monoclinic'
loop_
_space_group_symop_operation_xyz
x,y,z
-x,y,-z
1/2+x,1/2+y,z
1/2-x,1/2+y,-z
loop_
_atom_site_type_symbol
_atom_site_label
_atom_site_fract_x
_atom_site_fract_y
_atom_site_fract_z
Si Si1 0.652802 0.251120 0.724646
Si Si2 0.130065 0.360562 0.387604
Si Si3 0.881843 0.963437 0.375482
Si Si4 0.000000 0.665539 0.500000
Si Si5 0.143520 0.110808 0.609938
Si Si6 0.965286 0.868120 0.849500
Si Si7 0.010970 0.198037 0.152315
Si Si8 0.580117 0.843258 0.858256
O O1 0.737934 0.301441 0.618902
O O2 0.535183 0.206043 0.635195
O O3 0.538864 0.294923 0.828972
O O4 0.792290 0.209410 0.805845
O O5 0.208406 0.429296 0.430170
O O6 0.000000 0.334663 0.500000
O O7 0.045413 0.373641 0.246570
O O8 0.000000 0.960199 0.500000
O O9 0.949580 0.921407 0.248616
O O10 0.852250 0.037500 0.333691
O O11 0.829936 0.624650 0.540708
O O12 0.000000 0.121588 0.500000
O O13 0.093613 0.153883 0.740389
O O14 0.765808 0.871018 0.826604
O O15 0.000000 0.890635 0.000000
O O16 0.911398 0.265753 0.151600
O O17 0.000000 0.167996 0.000000
O O18 0.500000 0.867261 0.000000
#
# Coordination Sequence:
#
# PCOD8049047 Si02
#       8
#     4   4   4   2   4   4   4   4
#     4  10  23  34  60  97 120 156 200 246 320 368
#     4  10  21  33  57  84 117 149 189 244 300 357
#     4  10  23  40  58  84 116 159 207 249 297 353
#     4  12  24  38  66  92 130 162 212 258 304 378
#     4  11  24  43  62  87 124 167 216 257 303 362
#     4  11  21  38  62  89 124 155 199 250 311 378
#     4  10  20  39  62  89 128 161 201 258 315 370
#     4  10  20  35  57  88 121 153 187 245 312 364
#
# _framework density 18.782048
#
# number of rings (size 3 to 8) (size 9 to 14) (size 15 to 20)
#    0.000    1.600    1.333    4.800   10.267    0.533 
#    0.000    0.000    0.000    1.600    0.000    0.000 
#    0.000    0.000    0.000    0.000    0.000    0.000 
#
# Total GULP energy -185947.783478 kJ/mol
# GULP energy per Si atom -12396.518899 kJ/mol
# Density = 1.873930 g / cm^3
# Si number density = 18.782048 Si / 1000 Ang^3
#
#
#
# Elastic Constant Matrix: (Units=GPa)
#
#
# Indices 1 2 3 4 5 6 
#
# 1 104.2928 40.3832 20.2833 0.0000 -8.8182 0.0000
# 2 40.3832 79.7302 40.5146 0.0000 0.3020 0.0000
# 3 20.2833 40.5146 88.6114 0.0000 -6.5956 0.0000
# 4 0.0000 0.0000 0.0000 26.1711 0.0000 5.2695
# 5 -8.8182 0.3020 -6.5956 0.0000 29.8554 0.0000
# 6 0.0000 0.0000 0.0000 5.2695 0.0000 43.3975
#
#
#
# Elastic Compliance Matrix: (Units=1/GPa)
#
#
# Indices 1 2 3 4 5 6 
#
# 1 0.012336 -0.006476 0.000420 0.000000 0.003802 0.000000
# 2 -0.006476 0.019839 -0.007875 0.000000 -0.003853 0.000000
# 3 0.000420 -0.007875 0.015052 0.000000 0.003529 0.000000
# 4 0.000000 0.000000 0.000000 0.039168 0.000000 -0.004756
# 5 0.003802 -0.003853 0.003529 0.000000 0.035436 0.000000
# 6 0.000000 0.000000 0.000000 -0.004756 0.000000 0.023620
#
#
# Mechanical properties :
#
#
# Convention : Reuss Voigt Hill
#
# Bulk Modulus (GPa) = 51.63907 52.77739 52.20823
# Shear Modulus (GPa) = 27.81374 31.31501 29.56438
#
# Velocity S-wave (km/s) = 3.85238 4.08767 3.97177
# Velocity P-wave (km/s) = 6.88050 7.10209 6.99217
#
# Compressibility (1/GPa) = 0.01936518
#
# Stress axis : x y z
#
# Youngs Moduli (GPa) = 81.06582 50.40684 66.43505
#
# Poissons Ratio (x) = 0.32643 -0.02792
# Poissons Ratio (y) = 0.52498 0.52317
# Poissons Ratio (z) = -0.03407 0.39695
#
# Static dielectric constant tensor:
#      x y z
#    x 3.655240 0.000000 0.000250 
#    y 0.000000 3.434300 0.000000 
#    z 0.000250 0.000000 3.540920 
# 
# 
# High freq. dielectric constant tensor:
#      x y z
#    x 1.744440 0.000000 0.002500 
#    y 0.000000 1.706750 0.000000 
#    z 0.002500 0.000000 1.739830 
# 
# From -- ./inp_files/16805.got.cif
#   From: 2010.03.12/outbox.cif.g09.slc.cpg/sg5_9_cif.got.tgz:16805.got - 2010.03.31 09:47:26.
