data_PCOD8049793
_publ_section_title
;
Structure prediction by ZEFSAII (Michael W. Deem and Ramdas Pophale) SiO2 
 PCOD8049793
Probable space group: C 2
;
_chemical_formula_sum "Si O2"
_cell_formula_units_Z 22
_cell_length_a 13.402201
_cell_length_b 14.039947
_cell_length_c 11.208704
_cell_angle_alpha 90.000000
_cell_angle_beta 31.113086
_cell_angle_gamma 90.000000
_cell_volume 1089.832443
_symmetry_space_group_name_H-M "C 2"
_symmetry_group_IT_number 5
_symmetry_cell_setting 'monoclinic'
loop_
_space_group_symop_operation_xyz
x,y,z
-x,y,-z
1/2+x,1/2+y,z
1/2-x,1/2+y,-z
loop_
_atom_site_type_symbol
_atom_site_label
_atom_site_fract_x
_atom_site_fract_y
_atom_site_fract_z
Si Si1 0.500000 0.461800 0.000000
Si Si2 0.702125 0.639973 0.776871
Si Si3 0.757089 0.599928 0.990078
Si Si4 0.917482 0.730978 0.343717
Si Si5 0.976036 0.243608 0.383247
Si Si6 0.791817 0.886234 0.994533
O O1 0.644111 0.535114 0.780154
O O2 0.377110 0.395807 0.039867
O O3 0.794242 0.619748 0.811725
O O4 0.841004 0.698209 0.550200
O O5 0.500000 0.698755 0.000000
O O6 0.945209 0.649596 0.857439
O O7 0.560383 0.646516 0.240422
O O8 0.744310 0.487705 0.031697
O O9 0.747852 0.753474 0.423746
O O10 0.049215 0.823572 0.238391
O O11 0.000000 0.241071 0.500000
O O12 0.087599 0.333274 0.212488
#
# Coordination Sequence:
#
# PCOD8049793 Si02
#       6
#     2   4   4   4   4   4
#     4   8  16  34  58  84 120 144 190 246 280 344
#     4   9  17  36  66  85 112 151 192 236 294 342
#     4  10  22  40  59  88 117 151 197 239 290 350
#     4  11  21  36  62  87 120 154 187 249 291 333
#     4  11  23  38  59  85 119 158 195 231 289 349
#     4  10  21  36  58  91 115 147 201 238 287 348
#
# _framework density 20.186591
#
# number of rings (size 3 to 8) (size 9 to 14) (size 15 to 20)
#    0.545    1.455    1.818    1.636    0.000    8.000 
#    0.000    3.636    0.000    2.182    0.000    0.000 
#    0.000    0.000    0.000    0.000    0.000    0.000 
#
# Total GULP energy -136297.865571 kJ/mol
# GULP energy per Si atom -12390.715052 kJ/mol
# Density = 2.014064 g / cm^3
# Si number density = 20.186591 Si / 1000 Ang^3
#
#
#
# Elastic Constant Matrix: (Units=GPa)
#
#
# Indices 1 2 3 4 5 6 
#
# 1 61.2080 25.5923 29.4790 -0.0025 -21.7608 0.0011
# 2 25.5923 153.0922 59.1844 -0.0025 -14.4240 0.0011
# 3 29.4790 59.1844 95.3461 -0.0044 -19.7818 0.0019
# 4 -0.0025 -0.0025 -0.0044 24.2277 0.0021 -1.9067
# 5 -21.7608 -14.4240 -19.7818 0.0021 39.9791 -0.0010
# 6 0.0011 0.0011 0.0019 -1.9067 -0.0010 26.7010
#
#
#
# Elastic Compliance Matrix: (Units=1/GPa)
#
#
# Indices 1 2 3 4 5 6 
#
# 1 0.022260 -0.001218 -0.004128 0.000001 0.009635 0.000000
# 2 -0.001218 0.008671 -0.005008 0.000000 -0.000013 0.000000
# 3 -0.004128 -0.005008 0.015637 0.000002 0.003684 0.000000
# 4 0.000001 0.000000 0.000002 0.041508 -0.000001 0.002964
# 5 0.009635 -0.000013 0.003684 -0.000001 0.032075 0.000001
# 6 0.000000 0.000000 0.000000 0.002964 0.000001 0.037663
#
#
# Mechanical properties :
#
#
# Convention : Reuss Voigt Hill
#
# Bulk Modulus (GPa) = 38.66829 59.79532 49.23181
# Shear Modulus (GPa) = 26.71760 31.20759 28.96259
#
# Velocity S-wave (km/s) = 3.64198 3.93613 3.79191
# Velocity P-wave (km/s) = 6.07309 7.09529 6.60400
#
# Compressibility (1/GPa) = 0.02586098
#
# Stress axis : x y z
#
# Youngs Moduli (GPa) = 44.92331 115.33323 63.94964
#
# Poissons Ratio (x) = 0.14045 0.26395
# Poissons Ratio (y) = 0.05471 0.32027
# Poissons Ratio (z) = 0.18542 0.57761
#
# Static dielectric constant tensor:
#      x y z
#    x 3.588170 0.000000 -0.335550 
#    y 0.000000 3.735830 0.000000 
#    z -0.335550 0.000000 3.666470 
# 
# 
# High freq. dielectric constant tensor:
#      x y z
#    x 1.774290 0.000000 -0.026950 
#    y 0.000000 1.782460 0.000000 
#    z -0.026950 0.000000 1.784880 
# 
# From -- ./inp_files/42878.got.cif
#   From: 2010.03.12/outbox.cif.g09.slc.cpg/sg5_22_cif.got.tgz:42878.got - 2010.03.31 09:47:26.
