data_PCOD8049180
_publ_section_title
;
Structure prediction by ZEFSAII (Michael W. Deem and Ramdas Pophale) SiO2 
 PCOD8049180
Probable space group: C 2
;
_chemical_formula_sum "Si O2"
_cell_formula_units_Z 16
_cell_length_a 7.501176
_cell_length_b 13.044261
_cell_length_c 7.157440
_cell_angle_alpha 90.000000
_cell_angle_beta 113.504134
_cell_angle_gamma 90.000000
_cell_volume 642.230182
_symmetry_space_group_name_H-M "C 2"
_symmetry_group_IT_number 5
_symmetry_cell_setting 'monoclinic'
loop_
_space_group_symop_operation_xyz
x,y,z
-x,y,-z
1/2+x,1/2+y,z
1/2-x,1/2+y,-z
loop_
_atom_site_type_symbol
_atom_site_label
_atom_site_fract_x
_atom_site_fract_y
_atom_site_fract_z
Si Si1 0.208592 0.011070 0.934574
Si Si2 0.357197 0.303184 0.280404
Si Si3 0.616672 0.638896 0.354757
Si Si4 0.527615 0.098322 0.275688
O O1 0.328800 0.065782 0.825175
O O2 0.995127 0.064128 0.837533
O O3 0.196195 0.890371 0.890544
O O4 0.326775 0.031143 0.177867
O O5 0.500000 0.350651 0.500000
O O6 0.158646 0.251632 0.283146
O O7 0.474961 0.216889 0.217360
O O8 0.500000 0.651341 0.500000
O O9 0.838717 0.591713 0.478308
#
# Coordination Sequence:
#
# PCOD8049180 Si02
#       4
#     4   4   4   4
#     4  10  20  37  58  81 116 152 186 233 286 335
#     4  10  20  38  62  85 115 153 191 235 286 338
#     4   9  19  38  59  83 116 149 189 238 282 335
#     4   9  20  36  55  84 115 145 188 235 276 336
#
# _framework density 24.913186
#
# number of rings (size 3 to 8) (size 9 to 14) (size 15 to 20)
#    0.000    2.500    0.000    2.250    0.000    5.000 
#    0.000   18.750    0.000    0.000    0.000    0.000 
#    0.000    0.000    0.000    0.000    0.000    0.000 
#
# Total GULP energy -99106.560224 kJ/mol
# GULP energy per Si atom -12388.320028 kJ/mol
# Density = 2.485648 g / cm^3
# Si number density = 24.913186 Si / 1000 Ang^3
#
#
#
# Elastic Constant Matrix: (Units=GPa)
#
#
# Indices 1 2 3 4 5 6 
#
# 1 113.5397 37.3188 43.7087 0.0000 43.6379 0.0000
# 2 37.3188 159.5139 101.6171 0.0000 20.4839 0.0000
# 3 43.7087 101.6171 178.8943 0.0000 34.6123 0.0000
# 4 0.0000 0.0000 0.0000 29.3737 0.0000 29.7476
# 5 43.6379 20.4839 34.6123 0.0000 40.3571 0.0000
# 6 0.0000 0.0000 0.0000 29.7476 0.0000 102.6146
#
#
#
# Elastic Compliance Matrix: (Units=1/GPa)
#
#
# Indices 1 2 3 4 5 6 
#
# 1 0.015442 -0.001765 0.000344 0.000000 -0.016096 0.000000
# 2 -0.001765 0.010028 -0.005574 0.000000 0.001599 0.000000
# 3 0.000344 -0.005574 0.009827 0.000000 -0.005971 0.000000
# 4 0.000000 0.000000 0.000000 0.048193 0.000000 -0.013971
# 5 -0.016096 0.001599 -0.005971 0.000000 0.046493 0.000000
# 6 0.000000 0.000000 0.000000 -0.013971 0.000000 0.013795
#
#
# Mechanical properties :
#
#
# Convention : Reuss Voigt Hill
#
# Bulk Modulus (GPa) = 46.93406 90.80412 68.86909
# Shear Modulus (GPa) = 30.32704 52.42264 41.37484
#
# Velocity S-wave (km/s) = 3.49278 4.59215 4.07966
# Velocity P-wave (km/s) = 5.92840 8.04018 7.06365
#
# Compressibility (1/GPa) = 0.02130649
#
# Stress axis : x y z
#
# Youngs Moduli (GPa) = 64.76053 99.72557 101.75580
#
# Poissons Ratio (x) = 0.17598 -0.03499
# Poissons Ratio (y) = 0.11428 0.56720
# Poissons Ratio (z) = -0.02227 0.55589
#
# Static dielectric constant tensor:
#      x y z
#    x 4.992710 0.000000 0.702110 
#    y 0.000000 4.090950 0.000000 
#    z 0.702110 0.000000 0.203940 
# 
# 
# High freq. dielectric constant tensor:
#      x y z
#    x 2.033960 0.000000 0.007960 
#    y 0.000000 1.950630 0.000000 
#    z 0.007960 0.000000 2.020210 
# 
# From -- ./inp_files/13764.got.cif
#   From: 2010.03.12/outbox.cif.g09.slc.cpg/sg5_7_cif.got.tgz:13764.got - 2010.03.31 09:47:26.
