data_PCOD8049256
_publ_section_title
;
Structure prediction by ZEFSAII (Michael W. Deem and Ramdas Pophale) SiO2 
 PCOD8049256
Probable space group: C 2
;
_chemical_formula_sum "Si O2"
_cell_formula_units_Z 26
_cell_length_a 8.889607
_cell_length_b 19.387798
_cell_length_c 8.529552
_cell_angle_alpha 90.000000
_cell_angle_beta 123.464060
_cell_angle_gamma 90.000000
_cell_volume 1226.377142
_symmetry_space_group_name_H-M "C 2"
_symmetry_group_IT_number 5
_symmetry_cell_setting 'monoclinic'
loop_
_space_group_symop_operation_xyz
x,y,z
-x,y,-z
1/2+x,1/2+y,z
1/2-x,1/2+y,-z
loop_
_atom_site_type_symbol
_atom_site_label
_atom_site_fract_x
_atom_site_fract_y
_atom_site_fract_z
Si Si1 0.348852 0.357820 0.036162
Si Si2 0.773157 0.179053 0.594086
Si Si3 0.009850 0.305824 0.327005
Si Si4 0.803299 0.900495 0.339896
Si Si5 0.000000 0.615562 0.000000
Si Si6 0.290165 0.553165 0.402062
Si Si7 0.927665 0.714295 0.219349
O O1 0.298191 0.412480 0.145786
O O2 0.420018 0.293405 0.172776
O O3 0.500000 0.386332 0.000000
O O4 0.176816 0.331442 0.846740
O O5 0.958946 0.222396 0.670692
O O6 0.762680 0.097391 0.545704
O O7 0.630573 0.212580 0.395621
O O8 0.720604 0.188612 0.743209
O O9 0.166278 0.342430 0.317621
O O10 0.000000 0.329386 0.500000
O O11 0.000000 0.873898 0.500000
O O12 0.758580 0.971635 0.405879
O O13 0.847126 0.572846 0.818044
O O14 0.111162 0.664464 0.948032
O O15 0.500000 0.568518 0.500000
#
# Coordination Sequence:
#
# PCOD8049256 Si02
#       7
#     4   4   4   4   2   4   4
#     4  12  24  40  67 102 136 172 223 283 341 401
#     4  10  21  40  64  94 133 172 219 276 332 403
#     4  12  25  39  67 100 132 174 224 279 337 404
#     4  11  24  46  66  95 137 178 223 280 336 405
#     4  10  22  40  64  92 130 178 218 280 328 402
#     4  10  24  43  66  91 134 179 220 273 336 401
#     4  10  20  37  63  96 130 170 215 279 338 382
#
# _framework density 21.200655999999999
#
# number of rings (size 3 to 8) (size 9 to 14) (size 15 to 20)
#    0.000    1.231    2.308    3.692    6.462    0.000 
#    5.538    3.077    0.000    0.000    0.000    0.000 
#    0.000    0.000    0.000    0.000    0.000    0.000 
#
# Total GULP energy -161059.018505 kJ/mol
# GULP energy per Si atom -12389.155270 kJ/mol
# Density = 2.115240 g / cm^3
# Si number density = 21.200656 Si / 1000 Ang^3
#
#
#
# Elastic Constant Matrix: (Units=GPa)
#
#
# Indices 1 2 3 4 5 6 
#
# 1 96.6425 25.0825 33.8459 0.0000 -14.2956 0.0000
# 2 25.0825 90.8175 10.7654 0.0000 -5.3524 0.0000
# 3 33.8459 10.7654 83.3891 0.0000 0.5337 0.0000
# 4 0.0000 0.0000 0.0000 18.9010 0.0000 15.6856
# 5 -14.2956 -5.3524 0.5337 0.0000 43.4216 0.0000
# 6 0.0000 0.0000 0.0000 15.6856 0.0000 -1.1142
#
#
#
# Elastic Compliance Matrix: (Units=1/GPa)
#
#
# Indices 1 2 3 4 5 6 
#
# 1 0.013508 -0.002877 -0.005138 0.000000 0.004156 0.000000
# 2 -0.002877 0.011880 -0.000369 0.000000 0.000522 0.000000
# 3 -0.005138 -0.000369 0.014137 0.000000 -0.001911 0.000000
# 4 0.000000 0.000000 0.000000 0.004172 0.000000 0.058726
# 5 0.004156 0.000522 -0.001911 0.000000 0.024486 0.000000
# 6 0.000000 0.000000 0.000000 0.058726 0.000000 -0.070764
#
#
# Mechanical properties :
#
#
# Convention : Reuss Voigt Hill
#
# Bulk Modulus (GPa) = 43.94180 45.58186 44.76183
# Shear Modulus (GPa) = 229.64078 25.65202 127.64640
#
# Velocity S-wave (km/s) = 10.41887 3.48223 7.76784
# Velocity P-wave (km/s) = 12.86502 6.14123 10.08027
#
# Compressibility (1/GPa) = 0.02275737
#
# Stress axis : x y z
#
# Youngs Moduli (GPa) = 74.02931 84.17388 70.73509
#
# Poissons Ratio (x) = 0.24215 0.36343
# Poissons Ratio (y) = 0.21297 0.02613
# Poissons Ratio (z) = 0.38035 0.03110
#
# Static dielectric constant tensor:
#      x y z
#    x 4.313790 0.000000 0.221890 
#    y 0.000000 3.910410 0.000000 
#    z 0.221890 0.000000 4.300720 
# 
# 
# High freq. dielectric constant tensor:
#      x y z
#    x 1.832540 0.000000 0.001040 
#    y 0.000000 1.818810 0.000000 
#    z 0.001040 0.000000 1.843980 
# 
# From -- ./inp_files/16737.got.cif
#   From: 2010.03.12/outbox.cif.g09.slc.cpg/sg5_9_cif.got.tgz:16737.got - 2010.03.31 09:47:26.
