data_PCOD8049265
_publ_section_title
;
Structure prediction by ZEFSAII (Michael W. Deem and Ramdas Pophale) SiO2 
 PCOD8049265
Probable space group: C 2
;
_chemical_formula_sum "Si O2"
_cell_formula_units_Z 26
_cell_length_a 11.553731
_cell_length_b 11.553309
_cell_length_c 9.455556
_cell_angle_alpha 90.000000
_cell_angle_beta 97.947817
_cell_angle_gamma 90.000000
_cell_volume 1250.039951
_symmetry_space_group_name_H-M "C 2"
_symmetry_group_IT_number 5
_symmetry_cell_setting 'monoclinic'
loop_
_space_group_symop_operation_xyz
x,y,z
-x,y,-z
1/2+x,1/2+y,z
1/2-x,1/2+y,-z
loop_
_atom_site_type_symbol
_atom_site_label
_atom_site_fract_x
_atom_site_fract_y
_atom_site_fract_z
Si Si1 0.442390 0.646000 0.201066
Si Si2 0.760623 0.557974 0.988359
Si Si3 0.198913 0.205964 0.218206
Si Si4 0.744334 0.511884 0.447591
Si Si5 0.627190 0.964667 0.253855
Si Si6 0.360765 0.893038 0.221931
Si Si7 0.000000 0.040498 0.500000
O O1 0.568904 0.662744 0.152987
O O2 0.364365 0.760709 0.178662
O O3 0.452330 0.621506 0.368332
O O4 0.368461 0.549512 0.104545
O O5 0.775928 0.671824 0.092554
O O6 0.776224 0.448138 0.091532
O O7 0.855124 0.549140 0.877911
O O8 0.197506 0.342917 0.246834
O O9 0.242601 0.135129 0.363940
O O10 0.821185 0.529317 0.600942
O O11 0.803105 0.410765 0.365558
O O12 0.611859 0.468201 0.462319
O O13 0.489918 0.947377 0.247133
#
# Coordination Sequence:
#
# PCOD8049265 Si02
#       7
#     4   4   4   4   4   4   2
#     4  10  20  37  65  87 116 156 211 254 292 352
#     4  11  20  36  58  88 124 152 194 255 306 349
#     4   9  22  38  60  91 119 156 214 252 292 364
#     4  10  21  37  63  90 123 152 205 256 308 353
#     4  11  21  38  65  87 122 163 205 252 302 359
#     4  10  23  37  63  91 118 160 208 248 302 363
#     4  10  20  38  60  92 116 156 200 258 298 360
#
# _framework density 20.799334000000002
#
# number of rings (size 3 to 8) (size 9 to 14) (size 15 to 20)
#    0.000    1.846    1.538    2.308    6.462    2.462 
#    0.000    0.000   16.923   11.077    0.000    0.000 
#    0.000    0.000    0.000    0.000    0.000    0.000 
#
# Total GULP energy -161127.545376 kJ/mol
# GULP energy per Si atom -12394.426567 kJ/mol
# Density = 2.075199 g / cm^3
# Si number density = 20.799334 Si / 1000 Ang^3
#
#
#
# Elastic Constant Matrix: (Units=GPa)
#
#
# Indices 1 2 3 4 5 6 
#
# 1 102.5307 47.3912 52.8463 0.0000 -8.2573 0.0000
# 2 47.3912 75.8162 41.0219 0.0000 3.4231 0.0000
# 3 52.8463 41.0219 143.9879 0.0000 0.1717 0.0000
# 4 0.0000 0.0000 0.0000 22.9646 0.0000 3.0413
# 5 -8.2573 3.4231 0.1717 0.0000 46.4010 0.0000
# 6 0.0000 0.0000 0.0000 3.0413 0.0000 31.3474
#
#
#
# Elastic Compliance Matrix: (Units=1/GPa)
#
#
# Indices 1 2 3 4 5 6 
#
# 1 0.015466 -0.007975 -0.003408 0.000000 0.003353 0.000000
# 2 -0.007975 0.019765 -0.002701 0.000000 -0.002867 0.000000
# 3 -0.003408 -0.002701 0.008966 0.000000 -0.000440 0.000000
# 4 0.000000 0.000000 0.000000 0.044112 0.000000 -0.004280
# 5 0.003353 -0.002867 -0.000440 0.000000 0.022361 0.000000
# 6 0.000000 0.000000 0.000000 -0.004280 0.000000 0.032316
#
#
# Mechanical properties :
#
#
# Convention : Reuss Voigt Hill
#
# Bulk Modulus (GPa) = 62.38468 67.20593 64.79530
# Shear Modulus (GPa) = 28.32905 32.21429 30.27167
#
# Velocity S-wave (km/s) = 3.69456 3.93977 3.81913
# Velocity P-wave (km/s) = 6.94682 7.28542 7.11814
#
# Compressibility (1/GPa) = 0.01602958
#
# Stress axis : x y z
#
# Youngs Moduli (GPa) = 64.65809 50.59333 111.53320
#
# Poissons Ratio (x) = 0.40347 0.38014
# Poissons Ratio (y) = 0.51563 0.30123
# Poissons Ratio (z) = 0.22038 0.13665
#
# Static dielectric constant tensor:
#      x y z
#    x 3.860610 0.000000 -0.099350 
#    y 0.000000 3.525490 0.000000 
#    z -0.099350 0.000000 4.091140 
# 
# 
# High freq. dielectric constant tensor:
#      x y z
#    x 1.807210 0.000000 -0.000140 
#    y 0.000000 1.775170 0.000000 
#    z -0.000140 0.000000 1.845810 
# 
# From -- ./inp_files/19379.got.cif
#   From: 2010.03.12/outbox.cif.g09.slc.cpg/sg5_10_cif.got.tgz:19379.got - 2010.03.31 09:47:26.
