data_PCOD8049658
_publ_section_title
;
Structure prediction by ZEFSAII (Michael W. Deem and Ramdas Pophale) SiO2 
 PCOD8049658
Probable space group: C 2
;
_chemical_formula_sum "Si O2"
_cell_formula_units_Z 32
_cell_length_a 11.518812
_cell_length_b 8.108448
_cell_length_c 16.444614
_cell_angle_alpha 90.000000
_cell_angle_beta 83.273010
_cell_angle_gamma 90.000000
_cell_volume 1525.347888
_symmetry_space_group_name_H-M "C 2"
_symmetry_group_IT_number 5
_symmetry_cell_setting 'monoclinic'
loop_
_space_group_symop_operation_xyz
x,y,z
-x,y,-z
1/2+x,1/2+y,z
1/2-x,1/2+y,-z
loop_
_atom_site_type_symbol
_atom_site_label
_atom_site_fract_x
_atom_site_fract_y
_atom_site_fract_z
Si Si1 0.150258 0.269150 0.773329
Si Si2 0.819899 0.892514 0.224609
Si Si3 0.372598 0.293244 0.043799
Si Si4 0.747880 0.470233 0.090907
Si Si5 0.601011 0.670875 0.224396
Si Si6 0.125248 0.100103 0.518571
Si Si7 0.505030 0.395646 0.659059
Si Si8 0.275338 0.351403 0.608908
O O1 0.202924 0.334109 0.852249
O O2 0.193697 0.382041 0.694551
O O3 0.010531 0.278940 0.792750
O O4 0.195390 0.083923 0.750205
O O5 0.863799 0.889471 0.128975
O O6 0.700754 0.794265 0.247310
O O7 0.920854 0.811729 0.274085
O O8 0.347286 0.100814 0.059091
O O9 0.500000 0.316509 0.000000
O O10 0.284126 0.374816 0.987917
O O11 0.640674 0.566575 0.142143
O O12 0.565827 0.554384 0.301520
O O13 0.209030 0.233436 0.552042
O O14 0.000000 0.177445 0.500000
O O15 0.197847 0.024747 0.437388
O O16 0.096915 0.951556 0.583060
O O17 0.402837 0.279021 0.629164
#
# Coordination Sequence:
#
# PCOD8049658 Si02
#       8
#     4   4   4   4   4   4   4   4
#     4  11  22  42  65  93 130 170 211 265 318 375
#     4  10  22  41  67  97 125 172 215 256 321 378
#     4  11  24  41  64  95 132 170 212 269 314 373
#     4  11  24  41  64  95 130 169 218 261 321 373
#     4  10  21  41  65  94 125 169 214 262 314 378
#     4  10  23  43  64  91 131 165 206 263 322 379
#     4  10  20  42  67  88 131 164 210 261 316 376
#     4  11  22  43  67  93 127 169 206 264 320 379
#
# _framework density 20.978821
#
# number of rings (size 3 to 8) (size 9 to 14) (size 15 to 20)
#    0.000    1.500    3.750    2.250    0.000    5.000 
#    2.250    6.250    0.000    0.000    0.000    0.000 
#    0.000    0.000    0.000    0.000    0.000    0.000 
#
# Total GULP energy -198366.638376 kJ/mol
# GULP energy per Si atom -12397.914898 kJ/mol
# Density = 2.093107 g / cm^3
# Si number density = 20.978821 Si / 1000 Ang^3
#
#
#
# Elastic Constant Matrix: (Units=GPa)
#
#
# Indices 1 2 3 4 5 6 
#
# 1 130.7945 34.3264 34.8004 0.0000 17.3623 0.0000
# 2 34.3264 46.9763 10.5910 0.0000 8.8438 0.0000
# 3 34.8004 10.5910 100.5729 0.0000 21.1207 0.0000
# 4 0.0000 0.0000 0.0000 31.8409 0.0000 4.1269
# 5 17.3623 8.8438 21.1207 0.0000 43.0719 0.0000
# 6 0.0000 0.0000 0.0000 4.1269 0.0000 42.2405
#
#
#
# Elastic Compliance Matrix: (Units=1/GPa)
#
#
# Indices 1 2 3 4 5 6 
#
# 1 0.010266 -0.006642 -0.002531 0.000000 -0.001533 0.000000
# 2 -0.006642 0.026655 0.000087 0.000000 -0.002839 0.000000
# 3 -0.002531 0.000087 0.011816 0.000000 -0.004792 0.000000
# 4 0.000000 0.000000 0.000000 0.031809 0.000000 -0.003108
# 5 -0.001533 -0.002839 -0.004792 0.000000 0.026768 0.000000
# 6 0.000000 0.000000 0.000000 -0.003108 0.000000 0.023978
#
#
# Mechanical properties :
#
#
# Convention : Reuss Voigt Hill
#
# Bulk Modulus (GPa) = 32.71581 48.64214 40.67898
# Shear Modulus (GPa) = 31.31842 36.67239 33.99541
#
# Velocity S-wave (km/s) = 3.86794 4.18553 4.02986
# Velocity P-wave (km/s) = 5.96461 6.82604 6.40981
#
# Compressibility (1/GPa) = 0.03056626
#
# Stress axis : x y z
#
# Youngs Moduli (GPa) = 97.41237 37.51574 84.63238
#
# Poissons Ratio (x) = 0.24918 0.21418
# Poissons Ratio (y) = 0.64702 -0.00740
# Poissons Ratio (z) = 0.24652 -0.00328
#
# Static dielectric constant tensor:
#      x y z
#    x 4.057760 0.000000 0.084860 
#    y 0.000000 3.477480 0.000000 
#    z 0.084860 0.000000 3.808410 
# 
# 
# High freq. dielectric constant tensor:
#      x y z
#    x 1.833780 0.000000 0.006370 
#    y 0.000000 1.787720 0.000000 
#    z 0.006370 0.000000 1.844370 
# 
# From -- ./inp_files/52457.got.cif
#   From: 2010.03.12/outbox.cif.g09.slc.cpg/sg5_27_cif.got.tgz:52457.got - 2010.03.31 09:47:26.
