data_PCOD8049521
_publ_section_title
;
Structure prediction by ZEFSAII (Michael W. Deem and Ramdas Pophale) SiO2 
 PCOD8049521
Probable space group: C 2
;
_chemical_formula_sum "Si O2"
_cell_formula_units_Z 26
_cell_length_a 31.135379
_cell_length_b 5.147647
_cell_length_c 14.901100
_cell_angle_alpha 90.000000
_cell_angle_beta 26.960318
_cell_angle_gamma 90.000000
_cell_volume 1082.772407
_symmetry_space_group_name_H-M "C 2"
_symmetry_group_IT_number 5
_symmetry_cell_setting 'monoclinic'
loop_
_space_group_symop_operation_xyz
x,y,z
-x,y,-z
1/2+x,1/2+y,z
1/2-x,1/2+y,-z
loop_
_atom_site_type_symbol
_atom_site_label
_atom_site_fract_x
_atom_site_fract_y
_atom_site_fract_z
Si Si1 0.631127 0.764330 0.910616
Si Si2 0.657592 0.262580 0.953279
Si Si3 0.299983 0.057776 0.936579
Si Si4 0.000000 0.666902 0.500000
Si Si5 0.946477 0.802817 0.409877
Si Si6 0.918090 0.299189 0.369455
Si Si7 0.691021 0.721594 0.606808
O O1 0.692065 0.533828 0.845073
O O2 0.621966 0.716091 0.821544
O O3 0.682376 0.038165 0.834981
O O4 0.528667 0.779655 0.145201
O O5 0.709466 0.192132 0.948968
O O6 0.546191 0.289377 0.174402
O O7 0.409959 0.000268 0.704174
O O8 0.251459 0.277156 0.963403
O O9 0.039186 0.838853 0.509610
O O10 0.891959 0.539541 0.483382
O O11 0.886361 0.046101 0.485084
O O12 0.864022 0.324998 0.376838
O O13 0.726254 0.428080 0.525903
#
# Coordination Sequence:
#
# PCOD8049521 Si02
#       7
#     4   4   4   2   4   4   4
#     4  10  20  40  65  84 114 170 199 256 313 372
#     4   9  19  38  63  90 122 155 212 259 309 378
#     4  11  24  43  65 100 134 174 226 273 332 399
#     4  10  24  46  68  98 140 176 218 282 340 378
#     4   9  20  38  66  91 121 161 207 263 311 380
#     4  10  21  41  63  89 117 161 218 246 308 389
#     4  12  25  41  57  90 128 157 200 263 317 372
#
# _framework density 24.012435
#
# number of rings (size 3 to 8) (size 9 to 14) (size 15 to 20)
#    0.000    1.846    0.000    3.231    0.000    6.154 
#   16.615    6.154    0.000    0.000    0.000    0.000 
#    0.000    0.000    0.000    0.000    0.000    0.000 
#
# Total GULP energy -161153.690552 kJ/mol
# GULP energy per Si atom -12396.437735 kJ/mol
# Density = 2.395778 g / cm^3
# Si number density = 24.012435 Si / 1000 Ang^3
#
#
#
# Elastic Constant Matrix: (Units=GPa)
#
#
# Indices 1 2 3 4 5 6 
#
# 1 152.1546 46.0773 10.7679 -0.0017 25.7587 0.0011
# 2 46.0773 158.9103 13.6415 0.0004 9.8935 -0.0002
# 3 10.7679 13.6415 60.0680 -0.0012 7.3886 -0.0011
# 4 -0.0017 0.0004 -0.0012 8.2790 0.0001 5.0071
# 5 25.7587 9.8935 7.3886 0.0001 34.6541 0.0002
# 6 0.0011 -0.0002 -0.0011 5.0071 0.0002 35.4324
#
#
#
# Elastic Compliance Matrix: (Units=1/GPa)
#
#
# Indices 1 2 3 4 5 6 
#
# 1 0.008110 -0.001987 -0.000340 0.000002 -0.005389 -0.000001
# 2 -0.001987 0.006988 -0.001199 -0.000001 -0.000263 0.000000
# 3 -0.000340 -0.001199 0.017363 0.000002 -0.003107 0.000000
# 4 0.000002 -0.000001 0.000002 0.132075 -0.000002 -0.018664
# 5 -0.005389 -0.000263 -0.003107 -0.000002 0.033600 0.000000
# 6 -0.000001 0.000000 0.000000 -0.018664 0.000000 0.030860
#
#
# Mechanical properties :
#
#
# Convention : Reuss Voigt Hill
#
# Bulk Modulus (GPa) = 39.35302 56.90072 48.12687
# Shear Modulus (GPa) = 20.44844 35.71618 28.08231
#
# Velocity S-wave (km/s) = 2.92134 3.86087 3.42349
# Velocity P-wave (km/s) = 5.27287 6.60476 5.97604
#
# Compressibility (1/GPa) = 0.02541101
#
# Stress axis : x y z
#
# Youngs Moduli (GPa) = 123.29984 143.09754 57.59341
#
# Poissons Ratio (x) = 0.28433 0.01957
# Poissons Ratio (y) = 0.24500 0.06903
# Poissons Ratio (z) = 0.04190 0.17151
#
# Static dielectric constant tensor:
#      x y z
#    x 4.223620 0.000000 0.095670 
#    y 0.000000 4.692540 0.000000 
#    z 0.095670 0.000000 4.132770 
# 
# 
# High freq. dielectric constant tensor:
#      x y z
#    x 1.955690 0.000000 0.009710 
#    y 0.000000 1.955170 0.000000 
#    z 0.009710 0.000000 1.943200 
# 
# From -- ./inp_files/53814.got.cif
#   From: 2010.03.12/outbox.cif.g09.slc.cpg/sg5_27_cif.got.tgz:53814.got - 2010.03.31 09:47:26.
