data_PCOD8049556
_publ_section_title
;
Structure prediction by ZEFSAII (Michael W. Deem and Ramdas Pophale) SiO2 
 PCOD8049556
Probable space group: C 2
;
_chemical_formula_sum "Si O2"
_cell_formula_units_Z 32
_cell_length_a 11.483906
_cell_length_b 15.017067
_cell_length_c 17.395802
_cell_angle_alpha 90.000000
_cell_angle_beta 149.424641
_cell_angle_gamma 90.000000
_cell_volume 1526.006369
_symmetry_space_group_name_H-M "C 2"
_symmetry_group_IT_number 5
_symmetry_cell_setting 'monoclinic'
loop_
_space_group_symop_operation_xyz
x,y,z
-x,y,-z
1/2+x,1/2+y,z
1/2-x,1/2+y,-z
loop_
_atom_site_type_symbol
_atom_site_label
_atom_site_fract_x
_atom_site_fract_y
_atom_site_fract_z
Si Si1 0.641070 0.224360 0.658638
Si Si2 0.916499 0.217645 0.182348
Si Si3 0.469180 0.164463 0.845191
Si Si4 0.232843 0.333701 0.671447
Si Si5 0.462107 0.896768 0.294472
Si Si6 0.964042 0.081130 0.341134
Si Si7 0.050263 0.882395 0.358813
Si Si8 0.542070 0.094164 0.320844
O O1 0.500000 0.235615 0.500000
O O2 0.623096 0.311497 0.702639
O O3 0.556648 0.136719 0.656775
O O4 0.907592 0.215988 0.788671
O O5 0.872573 0.319779 0.185705
O O6 0.011879 0.155894 0.304262
O O7 0.684424 0.169302 0.023659
O O8 0.333306 0.255214 0.779484
O O9 0.286043 0.088400 0.762593
O O10 0.545072 0.152929 0.799914
O O11 0.177801 0.407381 0.704795
O O12 0.412851 0.365119 0.710563
O O13 0.000000 0.299460 0.500000
O O14 0.721197 0.871026 0.461708
O O15 0.446180 0.995036 0.249865
O O16 0.180245 0.092088 0.521257
O O17 0.955480 0.981651 0.304222
#
# Coordination Sequence:
#
# PCOD8049556 Si02
#       8
#     4   4   4   4   4   4   4   4
#     4  12  23  42  70  96 136 174 219 279 339 401
#     4  12  26  44  63  99 140 181 217 279 348 399
#     4  12  25  43  65  97 139 177 223 273 338 401
#     4  10  20  40  68  97 132 173 230 277 323 396
#     4  10  22  40  70  99 133 173 226 280 334 392
#     4  11  23  42  72  99 132 173 230 280 330 398
#     4  10  22  40  69 106 126 171 227 281 333 387
#     4  11  24  43  70 103 128 178 229 279 334 398
#
# _framework density 20.969767999999998
#
# number of rings (size 3 to 8) (size 9 to 14) (size 15 to 20)
#    0.000    1.000    5.000    1.500    3.500    1.000 
#    2.250    2.500    0.000    0.000    0.000    0.000 
#    0.000    0.000    0.000    0.000    0.000    0.000 
#
# Total GULP energy -198360.441589 kJ/mol
# GULP energy per Si atom -12397.527599 kJ/mol
# Density = 2.092204 g / cm^3
# Si number density = 20.969768 Si / 1000 Ang^3
#
#
#
# Elastic Constant Matrix: (Units=GPa)
#
#
# Indices 1 2 3 4 5 6 
#
# 1 123.0426 39.4779 28.5318 -0.0006 10.7579 -0.0011
# 2 39.4779 129.8744 31.0771 0.0152 2.1167 0.0001
# 3 28.5318 31.0771 70.4340 0.0425 -0.8425 0.0002
# 4 -0.0006 0.0152 0.0425 12.9644 0.0060 4.7363
# 5 10.7579 2.1167 -0.8425 0.0060 19.3820 -0.0032
# 6 -0.0011 0.0001 0.0002 4.7363 -0.0032 31.3332
#
#
#
# Elastic Compliance Matrix: (Units=1/GPa)
#
#
# Indices 1 2 3 4 5 6 
#
# 1 0.010047 -0.002209 -0.003161 0.000017 -0.005473 -0.000003
# 2 -0.002209 0.009118 -0.003127 -0.000001 0.000094 0.000000
# 3 -0.003161 -0.003127 0.016892 -0.000056 0.002830 0.000009
# 4 0.000017 -0.000001 -0.000056 0.081643 -0.000039 -0.012341
# 5 -0.005473 0.000094 0.002830 -0.000039 0.054745 0.000011
# 6 -0.000003 0.000000 0.000009 -0.012341 0.000011 0.033781
#
#
# Mechanical properties :
#
#
# Convention : Reuss Voigt Hill
#
# Bulk Modulus (GPa) = 52.45637 57.94719 55.20178
# Shear Modulus (GPa) = 21.77947 27.68685 24.73316
#
# Velocity S-wave (km/s) = 3.22625 3.63757 3.43806
# Velocity P-wave (km/s) = 6.24082 6.73322 6.49169
#
# Compressibility (1/GPa) = 0.01906346
#
# Stress axis : x y z
#
# Youngs Moduli (GPa) = 99.52841 109.67520 59.19999
#
# Poissons Ratio (x) = 0.24222 0.18714
# Poissons Ratio (y) = 0.21981 0.18513
# Poissons Ratio (z) = 0.31462 0.34298
#
# Static dielectric constant tensor:
#      x y z
#    x 4.097480 -0.000010 0.162120 
#    y -0.000010 3.813980 -0.000020 
#    z 0.162120 -0.000020 3.507950 
# 
# 
# High freq. dielectric constant tensor:
#      x y z
#    x 1.837160 0.000000 0.000230 
#    y 0.000000 1.823850 0.000000 
#    z 0.000230 0.000000 1.789540 
# 
# From -- ./inp_files/44974.got.cif
#   From: 2010.03.12/outbox.cif.g09.slc.cpg/sg5_23_cif.got.tgz:44974.got - 2010.03.31 09:47:26.
