data_PCOD8049392
_publ_section_title
;
Structure prediction by ZEFSAII (Michael W. Deem and Ramdas Pophale) SiO2 
 PCOD8049392
Probable space group: C 2
;
_chemical_formula_sum "Si O2"
_cell_formula_units_Z 28
_cell_length_a 20.977512
_cell_length_b 8.114873
_cell_length_c 22.902605
_cell_angle_alpha 90.000000
_cell_angle_beta 159.985649
_cell_angle_gamma 90.000000
_cell_volume 1334.353883
_symmetry_space_group_name_H-M "C 2"
_symmetry_group_IT_number 5
_symmetry_cell_setting 'monoclinic'
loop_
_space_group_symop_operation_xyz
x,y,z
-x,y,-z
1/2+x,1/2+y,z
1/2-x,1/2+y,-z
loop_
_atom_site_type_symbol
_atom_site_label
_atom_site_fract_x
_atom_site_fract_y
_atom_site_fract_z
Si Si1 0.712683 0.530440 0.330856
Si Si2 0.000000 0.536759 0.000000
Si Si3 0.463210 0.043561 0.738797
Si Si4 0.039719 0.716986 0.147659
Si Si5 0.669100 0.264259 0.469109
Si Si6 0.500000 0.191878 0.500000
Si Si7 0.818883 0.806683 0.232273
Si Si8 0.812438 0.022004 0.957597
O O1 0.702364 0.331197 0.316259
O O2 0.808976 0.597768 0.472572
O O3 0.830504 0.582434 0.376316
O O4 0.502895 0.605100 0.146095
O O5 0.100056 0.644538 0.136571
O O6 0.147943 0.431946 0.089697
O O7 0.497599 0.072926 0.837192
O O8 0.354169 0.200239 0.616994
O O9 0.347281 0.877781 0.629517
O O10 0.661634 0.024622 0.878913
O O11 0.855356 0.830913 0.977926
O O12 0.479855 0.362299 0.324853
O O13 0.417534 0.308163 0.379465
O O14 0.749961 0.624493 0.153257
#
# Coordination Sequence:
#
# PCOD8049392 Si02
#       8
#     4   2   4   4   4   2   4   4
#     4   9  21  40  62  94 122 165 212 251 318 370
#     4  12  26  42  62  92 134 162 220 262 306 380
#     4  11  23  42  66  94 133 163 209 264 315 378
#     4  10  26  39  62  99 122 167 213 259 318 364
#     4  10  23  41  66  96 126 165 211 260 322 373
#     4  10  20  38  68  84 124 166 214 254 310 374
#     4  10  23  40  64  89 121 171 213 256 312 373
#     4   9  23  41  67  90 123 168 216 252 317 375
#
# _framework density 20.983938999999999
#
# number of rings (size 3 to 8) (size 9 to 14) (size 15 to 20)
#    0.857    1.143    0.000    1.714   10.000    2.286 
#    2.571    0.000    0.000    0.000    0.000    0.000 
#    0.000    0.000    0.000    0.000    0.000    0.000 
#
# Total GULP energy -173482.738915 kJ/mol
# GULP energy per Si atom -12391.624208 kJ/mol
# Density = 2.093618 g / cm^3
# Si number density = 20.983939 Si / 1000 Ang^3
#
#
#
# Elastic Constant Matrix: (Units=GPa)
#
#
# Indices 1 2 3 4 5 6 
#
# 1 115.4261 38.8220 29.8294 0.0004 -4.9914 0.0000
# 2 38.8220 73.1574 25.9211 0.0005 6.4702 0.0001
# 3 29.8294 25.9211 89.6845 0.0026 14.9282 -0.0005
# 4 0.0004 0.0005 0.0026 33.1985 -0.0028 -3.3344
# 5 -4.9914 6.4702 14.9282 -0.0028 38.1035 0.0004
# 6 0.0000 0.0001 -0.0005 -3.3344 0.0004 21.1133
#
#
#
# Elastic Compliance Matrix: (Units=1/GPa)
#
#
# Indices 1 2 3 4 5 6 
#
# 1 0.011332 -0.005326 -0.002811 0.000000 0.003490 0.000000
# 2 -0.005326 0.017763 -0.002935 0.000000 -0.002564 0.000000
# 3 -0.002811 -0.002935 0.013813 -0.000001 -0.005281 0.000000
# 4 0.000000 0.000000 -0.000001 0.030607 0.000003 0.004834
# 5 0.003490 -0.002564 -0.005281 0.000003 0.029206 0.000000
# 6 0.000000 0.000000 0.000000 0.004834 0.000000 0.048127
#
#
# Mechanical properties :
#
#
# Convention : Reuss Voigt Hill
#
# Bulk Modulus (GPa) = 48.16425 51.93477 50.04951
# Shear Modulus (GPa) = 27.79117 30.72944 29.26030
#
# Velocity S-wave (km/s) = 3.64318 3.83093 3.73824
# Velocity P-wave (km/s) = 6.37964 6.66120 6.52194
#
# Compressibility (1/GPa) = 0.02076229
#
# Stress axis : x y z
#
# Youngs Moduli (GPa) = 88.24336 56.29816 72.39815
#
# Poissons Ratio (x) = 0.29987 0.20348
# Poissons Ratio (y) = 0.47003 0.21252
# Poissons Ratio (z) = 0.24802 0.16526
#
# Static dielectric constant tensor:
#      x y z
#    x 3.802110 0.000000 0.106610 
#    y 0.000000 3.542920 0.000000 
#    z 0.106610 0.000000 3.770560 
# 
# 
# High freq. dielectric constant tensor:
#      x y z
#    x 1.827930 0.000000 0.000170 
#    y 0.000000 1.801720 0.000000 
#    z 0.000170 0.000000 1.821220 
# 
# From -- ./inp_files/67373.got.cif
#   From: 2010.03.12/outbox.cif.g09.slc.cpg/sg5_34_cif.got.tgz:67373.got - 2010.03.31 09:47:26.
