data_PCOD8049248
_publ_section_title
;
Structure prediction by ZEFSAII (Michael W. Deem and Ramdas Pophale) SiO2 
 PCOD8049248
Probable space group: C 2
;
_chemical_formula_sum "Si O2"
_cell_formula_units_Z 28
_cell_length_a 10.267401
_cell_length_b 12.412052
_cell_length_c 19.720282
_cell_angle_alpha 90.000000
_cell_angle_beta 33.015169
_cell_angle_gamma 90.000000
_cell_volume 1369.313838
_symmetry_space_group_name_H-M "C 2"
_symmetry_group_IT_number 5
_symmetry_cell_setting 'monoclinic'
loop_
_space_group_symop_operation_xyz
x,y,z
-x,y,-z
1/2+x,1/2+y,z
1/2-x,1/2+y,-z
loop_
_atom_site_type_symbol
_atom_site_label
_atom_site_fract_x
_atom_site_fract_y
_atom_site_fract_z
Si Si1 0.457882 0.958230 0.838121
Si Si2 0.334911 0.983784 0.514820
Si Si3 0.054017 0.811751 0.050462
Si Si4 0.961043 0.374769 0.691430
Si Si5 0.627541 0.342488 0.267101
Si Si6 0.377688 0.228595 0.488305
Si Si7 0.229979 0.691049 0.097668
O O1 0.533398 0.896862 0.736941
O O2 0.639686 0.914897 0.816288
O O3 0.444817 0.086303 0.827594
O O4 0.192568 0.923420 0.976612
O O5 0.500000 0.930381 0.500000
O O6 0.473909 0.978224 0.382184
O O7 0.080167 0.929034 0.633479
O O8 0.302216 0.109243 0.540715
O O9 0.218532 0.735056 0.025388
O O10 0.813332 0.839573 0.196007
O O11 0.000000 0.756867 0.000000
O O12 0.123721 0.283896 0.585110
O O13 0.565448 0.243429 0.344709
O O14 0.646739 0.286913 0.184817
O O15 0.500000 0.284138 0.500000
O O16 0.500000 0.657523 0.000000
#
# Coordination Sequence:
#
# PCOD8049248 Si02
#       7
#     4   4   4   4   4   4   4
#     4  11  23  42  67  97 130 178 225 275 346 403
#     4  10  22  38  60  94 126 173 221 275 339 394
#     4  10  23  44  64  96 131 172 227 278 336 412
#     4  10  20  39  62  87 129 168 214 276 329 407
#     4  11  23  42  65 100 135 172 230 280 329 414
#     4  10  20  37  63  88 126 169 214 274 333 393
#     4  12  24  43  69  99 139 179 224 284 343 401
#
# _framework density 20.448198000000001
#
# number of rings (size 3 to 8) (size 9 to 14) (size 15 to 20)
#    0.000    1.429    2.857    3.000    2.000    0.000 
#    2.571    0.000    0.000    0.000    0.000    0.000 
#    0.000    0.000    0.000    0.000    0.000    0.000 
#
# Total GULP energy -173487.012227 kJ/mol
# GULP energy per Si atom -12391.929445 kJ/mol
# Density = 2.040166 g / cm^3
# Si number density = 20.448198 Si / 1000 Ang^3
#
#
#
# Elastic Constant Matrix: (Units=GPa)
#
#
# Indices 1 2 3 4 5 6 
#
# 1 121.0844 41.0503 37.3568 -0.0025 1.4708 0.0011
# 2 41.0503 86.8388 27.0011 -0.0074 -3.0558 0.0024
# 3 37.3568 27.0011 106.3112 -0.0151 -5.6498 0.0044
# 4 -0.0025 -0.0074 -0.0151 21.7072 0.0029 2.5773
# 5 1.4708 -3.0558 -5.6498 0.0029 29.6875 -0.0015
# 6 0.0011 0.0024 0.0044 2.5773 -0.0015 29.9076
#
#
#
# Elastic Compliance Matrix: (Units=1/GPa)
#
#
# Indices 1 2 3 4 5 6 
#
# 1 0.010534 -0.004187 -0.002716 -0.000002 -0.001470 0.000000
# 2 -0.004187 0.014181 -0.002063 0.000003 0.001275 -0.000001
# 3 -0.002716 -0.002063 0.010992 0.000007 0.002014 -0.000002
# 4 -0.000002 0.000003 0.000007 0.046544 -0.000003 -0.004011
# 5 -0.001470 0.001275 0.002014 -0.000003 0.034272 0.000002
# 6 0.000000 -0.000001 -0.000002 -0.004011 0.000002 0.033782
#
#
# Mechanical properties :
#
#
# Convention : Reuss Voigt Hill
#
# Bulk Modulus (GPa) = 56.25853 58.33897 57.29875
# Shear Modulus (GPa) = 28.70912 30.18223 29.44567
#
# Velocity S-wave (km/s) = 3.75105 3.84609 3.79887
# Velocity P-wave (km/s) = 6.80683 6.95092 6.87925
#
# Compressibility (1/GPa) = 0.01777508
#
# Stress axis : x y z
#
# Youngs Moduli (GPa) = 94.93090 70.51701 90.97716
#
# Poissons Ratio (x) = 0.29524 0.24712
# Poissons Ratio (y) = 0.39745 0.18767
# Poissons Ratio (z) = 0.25786 0.14546
#
# Static dielectric constant tensor:
#      x y z
#    x 4.027760 0.000000 0.097800 
#    y 0.000000 3.498980 0.000010 
#    z 0.097800 0.000010 3.673260 
# 
# 
# High freq. dielectric constant tensor:
#      x y z
#    x 1.808540 0.000000 -0.000710 
#    y 0.000000 1.785130 0.000000 
#    z -0.000710 0.000000 1.804570 
# 
# From -- ./inp_files/46373.got.cif
#   From: 2010.03.12/outbox.cif.g09.slc.cpg/sg5_24_cif.got.tgz:46373.got - 2010.03.31 09:47:26.
