data_PCOD8049162
_publ_section_title
;
Structure prediction by ZEFSAII (Michael W. Deem and Ramdas Pophale) SiO2 
 PCOD8049162
Probable space group: C 2
;
_chemical_formula_sum "Si O2"
_cell_formula_units_Z 26
_cell_length_a 13.920262
_cell_length_b 16.846225
_cell_length_c 10.587813
_cell_angle_alpha 90.000000
_cell_angle_beta 148.373017
_cell_angle_gamma 90.000000
_cell_volume 1301.991514
_symmetry_space_group_name_H-M "C 2"
_symmetry_group_IT_number 5
_symmetry_cell_setting 'monoclinic'
loop_
_space_group_symop_operation_xyz
x,y,z
-x,y,-z
1/2+x,1/2+y,z
1/2-x,1/2+y,-z
loop_
_atom_site_type_symbol
_atom_site_label
_atom_site_fract_x
_atom_site_fract_y
_atom_site_fract_z
Si Si1 0.018566 0.673410 0.878783
Si Si2 0.881033 0.087346 0.246165
Si Si3 0.000000 0.982677 0.000000
Si Si4 0.221643 0.413206 0.093645
Si Si5 0.806099 0.077189 0.579077
Si Si6 0.460988 0.352751 0.150316
Si Si7 0.308011 0.918021 0.651296
O O1 0.847270 0.646776 0.597260
O O2 0.045513 0.767341 0.920187
O O3 0.000000 0.639154 0.000000
O O4 0.201765 0.639077 0.024667
O O5 0.000000 0.113757 0.500000
O O6 0.998822 0.107696 0.253302
O O7 0.824205 0.995930 0.189412
O O8 0.102447 0.924388 0.014182
O O9 0.843513 0.038449 0.759406
O O10 0.333757 0.351472 0.132829
O O11 0.219530 0.387162 0.237176
O O12 0.009502 0.412056 0.815934
O O13 0.742130 0.010883 0.406796
O O14 0.674963 0.366113 0.417211
#
# Coordination Sequence:
#
# PCOD8049162 Si02
#       7
#     4   4   2   4   4   4   4
#     4  12  24  40  64  96 128 165 213 278 323 367
#     4  12  20  35  65  97 117 153 215 270 313 369
#     4  10  22  42  64  88 130 182 202 252 320 402
#     4  11  19  37  66  96 118 160 220 261 314 376
#     4  11  22  40  64  92 129 164 217 261 318 383
#     4  11  23  41  60  92 133 169 208 264 329 373
#     4  10  20  36  66  92 119 163 216 268 306 381
#
# _framework density 19.969408999999999
#
# number of rings (size 3 to 8) (size 9 to 14) (size 15 to 20)
#    0.000    0.923    8.462    0.462    0.000    1.231 
#    0.000   11.538    0.000    0.000    0.000    0.000 
#    0.000    0.000    0.000    0.000    0.000    0.000 
#
# Total GULP energy -161158.033536 kJ/mol
# GULP energy per Si atom -12396.771810 kJ/mol
# Density = 1.992396 g / cm^3
# Si number density = 19.969409 Si / 1000 Ang^3
#
#
#
# Elastic Constant Matrix: (Units=GPa)
#
#
# Indices 1 2 3 4 5 6 
#
# 1 81.8876 24.5022 58.6634 0.0000 9.4578 0.0000
# 2 24.5022 73.8953 37.9657 0.0000 0.2374 0.0000
# 3 58.6634 37.9657 121.5114 0.0000 15.6042 0.0000
# 4 0.0000 0.0000 0.0000 15.9240 0.0000 -1.0972
# 5 9.4578 0.2374 15.6042 0.0000 38.0553 0.0000
# 6 0.0000 0.0000 0.0000 -1.0972 0.0000 25.0787
#
#
#
# Elastic Compliance Matrix: (Units=1/GPa)
#
#
# Indices 1 2 3 4 5 6 
#
# 1 0.018942 -0.001980 -0.008364 0.000000 -0.001266 0.000000
# 2 -0.001980 0.016484 -0.004480 0.000000 0.002226 0.000000
# 3 -0.008364 -0.004480 0.014142 0.000000 -0.003692 0.000000
# 4 0.000000 0.000000 0.000000 0.062988 0.000000 0.002756
# 5 -0.001266 0.002226 -0.003692 0.000000 0.028092 0.000000
# 6 0.000000 0.000000 0.000000 0.002756 0.000000 0.039995
#
#
# Mechanical properties :
#
#
# Convention : Reuss Voigt Hill
#
# Bulk Modulus (GPa) = 50.20144 57.72855 53.96500
# Shear Modulus (GPa) = 23.04882 26.22245 24.63563
#
# Velocity S-wave (km/s) = 3.40105 3.62765 3.51617
# Velocity P-wave (km/s) = 6.37311 6.82039 6.60054
#
# Compressibility (1/GPa) = 0.01991975
#
# Stress axis : x y z
#
# Youngs Moduli (GPa) = 52.79223 60.66527 70.71326
#
# Poissons Ratio (x) = 0.12009 0.59143
# Poissons Ratio (y) = 0.10451 0.31683
# Poissons Ratio (z) = 0.44155 0.27181
#
# Static dielectric constant tensor:
#      x y z
#    x 3.791430 0.000000 0.259330 
#    y 0.000000 3.375520 0.000000 
#    z 0.259330 0.000000 3.968240 
# 
# 
# High freq. dielectric constant tensor:
#      x y z
#    x 1.774240 0.000000 0.008520 
#    y 0.000000 1.752660 0.000000 
#    z 0.008520 0.000000 1.783650 
# 
# From -- ./inp_files/43259.got.cif
#   From: 2010.03.12/outbox.cif.g09.slc.cpg/sg5_22_cif.got.tgz:43259.got - 2010.03.31 09:47:26.
