data_PCOD8049835
_publ_section_title
;
Structure prediction by ZEFSAII (Michael W. Deem and Ramdas Pophale) SiO2 
 PCOD8049835
Probable space group: C 2
;
_chemical_formula_sum "Si O2"
_cell_formula_units_Z 20
_cell_length_a 8.168611
_cell_length_b 23.610698
_cell_length_c 8.986048
_cell_angle_alpha 90.000000
_cell_angle_beta 145.885357
_cell_angle_gamma 90.000000
_cell_volume 972.014998
_symmetry_space_group_name_H-M "C 2"
_symmetry_group_IT_number 5
_symmetry_cell_setting 'monoclinic'
loop_
_space_group_symop_operation_xyz
x,y,z
-x,y,-z
1/2+x,1/2+y,z
1/2-x,1/2+y,-z
loop_
_atom_site_type_symbol
_atom_site_label
_atom_site_fract_x
_atom_site_fract_y
_atom_site_fract_z
Si Si1 0.336303 0.833150 0.227369
Si Si2 0.662126 0.048897 0.270383
Si Si3 0.343641 0.920268 0.732136
Si Si4 0.857800 0.221147 0.054973
Si Si5 0.862672 0.654961 0.556834
O O1 0.500000 0.813986 0.500000
O O2 0.529124 0.884431 0.307968
O O3 0.342032 0.782154 0.115931
O O4 0.000000 0.852126 0.000000
O O5 0.595687 0.091057 0.355403
O O6 0.000000 0.051619 0.500000
O O7 0.572239 0.985007 0.244814
O O8 0.500000 0.069446 0.000000
O O9 0.000000 0.910847 0.500000
O O10 0.500000 0.900649 0.000000
O O11 0.031396 0.176970 0.292065
O O12 0.530322 0.197582 0.793862
O O13 0.000000 0.227568 0.000000
O O14 0.000000 0.656876 0.500000
#
# Coordination Sequence:
#
# PCOD8049835 Si02
#       5
#     4   4   4   4   4
#     4  12  25  39  60  92 119 148 196 253 296 331
#     4  10  21  37  60  86 113 149 193 236 285 341
#     4  10  22  42  63  84 116 161 198 231 289 361
#     4  10  22  39  58  81 116 159 193 226 287 360
#     4  10  21  37  58  85 115 151 191 234 286 343
#
# _framework density 20.575813
#
# number of rings (size 3 to 8) (size 9 to 14) (size 15 to 20)
#    0.000    1.600    0.000    4.200    0.000    8.000 
#    0.000    3.000    0.000    0.000    0.000    0.000 
#    0.000    0.000    0.000    0.000    0.000    0.000 
#
# Total GULP energy -124002.707065 kJ/mol
# GULP energy per Si atom -12400.270706 kJ/mol
# Density = 2.052898 g / cm^3
# Si number density = 20.575813 Si / 1000 Ang^3
#
#
#
# Elastic Constant Matrix: (Units=GPa)
#
#
# Indices 1 2 3 4 5 6 
#
# 1 48.0114 43.9391 37.4870 0.0000 5.4160 0.0000
# 2 43.9391 120.0831 41.4799 0.0000 -12.3765 0.0000
# 3 37.4870 41.4799 142.9608 0.0000 -9.6103 0.0000
# 4 0.0000 0.0000 0.0000 22.5757 0.0000 -5.6814
# 5 5.4160 -12.3765 -9.6103 0.0000 22.4749 0.0000
# 6 0.0000 0.0000 0.0000 -5.6814 0.0000 33.8606
#
#
#
# Elastic Compliance Matrix: (Units=1/GPa)
#
#
# Indices 1 2 3 4 5 6 
#
# 1 0.044578 -0.015691 -0.008689 0.000000 -0.023099 0.000000
# 2 -0.015691 0.015153 0.000549 0.000000 0.012360 0.000000
# 3 -0.008689 0.000549 0.009550 0.000000 0.006480 0.000000
# 4 0.000000 0.000000 0.000000 0.046248 0.000000 0.007760
# 5 -0.023099 0.012360 0.006480 0.000000 0.059638 0.000000
# 6 0.000000 0.000000 0.000000 0.007760 0.000000 0.030835
#
#
# Mechanical properties :
#
#
# Convention : Reuss Voigt Hill
#
# Bulk Modulus (GPa) = 46.25648 61.87414 54.06531
# Shear Modulus (GPa) = 19.16654 28.32553 23.74604
#
# Velocity S-wave (km/s) = 3.05537 3.71434 3.40085
# Velocity P-wave (km/s) = 5.91413 6.96647 6.46175
#
# Compressibility (1/GPa) = 0.02161859
#
# Stress axis : x y z
#
# Youngs Moduli (GPa) = 22.43243 65.99238 104.71348
#
# Poissons Ratio (x) = 1.03546 0.90990
# Poissons Ratio (y) = 0.35198 -0.05744
# Poissons Ratio (z) = 0.19492 -0.03620
#
# Static dielectric constant tensor:
#      x y z
#    x 3.569790 0.000000 0.092060 
#    y 0.000000 4.284060 0.000000 
#    z 0.092060 0.000000 4.285270 
# 
# 
# High freq. dielectric constant tensor:
#      x y z
#    x 1.790850 0.000000 -0.000710 
#    y 0.000000 1.809340 0.000000 
#    z -0.000710 0.000000 1.832490 
# 
# From -- ./inp_files/2602.got.cif
#   From: 2010.03.12/outbox.cif.g09.slc.cpg/sg5_2_cif.got.tgz:2602.got - 2010.03.31 09:47:26.
