data_PCOD8049604
_publ_section_title
;
Structure prediction by ZEFSAII (Michael W. Deem and Ramdas Pophale) SiO2 
 PCOD8049604
Probable space group: C 2
;
_chemical_formula_sum "Si O2"
_cell_formula_units_Z 30
_cell_length_a 20.715921
_cell_length_b 9.208041
_cell_length_c 13.770372
_cell_angle_alpha 90.000000
_cell_angle_beta 32.709662
_cell_angle_gamma 90.000000
_cell_volume 1419.443840
_symmetry_space_group_name_H-M "C 2"
_symmetry_group_IT_number 5
_symmetry_cell_setting 'monoclinic'
loop_
_space_group_symop_operation_xyz
x,y,z
-x,y,-z
1/2+x,1/2+y,z
1/2-x,1/2+y,-z
loop_
_atom_site_type_symbol
_atom_site_label
_atom_site_fract_x
_atom_site_fract_y
_atom_site_fract_z
Si Si1 0.500000 0.944500 0.500000
Si Si2 0.211627 0.632862 0.730277
Si Si3 0.322003 0.559788 0.970424
Si Si4 0.776782 0.261604 0.852737
Si Si5 0.621281 0.416265 0.796979
Si Si6 0.873150 0.317936 0.203252
Si Si7 0.707849 0.100849 0.308050
Si Si8 0.907988 0.130952 0.331341
O O1 0.404545 0.840650 0.674398
O O2 0.567705 0.054109 0.490797
O O3 0.220794 0.685211 0.829051
O O4 0.129148 0.743695 0.772364
O O5 0.141655 0.483624 0.806213
O O6 0.343142 0.627411 0.517005
O O7 0.286875 0.624541 0.911234
O O8 0.454181 0.610831 0.825865
O O9 0.310991 0.383680 0.989209
O O10 0.236158 0.631942 0.159468
O O11 0.724311 0.455187 0.744002
O O12 0.642142 0.497575 0.669380
O O13 0.500000 0.468851 0.000000
O O14 0.755000 0.235516 0.311579
O O15 0.880267 0.282588 0.309454
O O16 0.000000 0.260293 0.000000
#
# Coordination Sequence:
#
# PCOD8049604 Si02
#       8
#     2   4   4   4   4   4   4   4
#     4  10  20  44  66  92 124 178 216 272 332 380
#     4  12  24  40  62 101 138 163 219 278 333 386
#     4  11  22  42  67  92 129 176 228 264 330 395
#     4  11  25  42  66  97 131 182 221 276 325 397
#     4  11  19  41  69  91 126 174 218 261 335 397
#     4  11  23  42  68 100 132 174 218 275 326 398
#     4  10  20  41  67  91 125 174 219 266 323 393
#     4  11  22  41  67  95 130 174 216 275 332 395
#
# _framework density 21.135038000000002
#
# number of rings (size 3 to 8) (size 9 to 14) (size 15 to 20)
#    0.000    1.067    5.333    2.800    1.867    0.000 
#    4.800    0.667    2.933    0.000    0.000    0.000 
#    0.000    0.000    0.000    0.000    0.000    0.000 
#
# Total GULP energy -185895.328824 kJ/mol
# GULP energy per Si atom -12393.021922 kJ/mol
# Density = 2.108693 g / cm^3
# Si number density = 21.135038 Si / 1000 Ang^3
#
#
#
# Elastic Constant Matrix: (Units=GPa)
#
#
# Indices 1 2 3 4 5 6 
#
# 1 108.7092 59.9182 27.3161 0.0000 -0.6608 0.0000
# 2 59.9182 154.4084 20.2390 0.0000 -0.5182 0.0000
# 3 27.3161 20.2390 51.9868 0.0001 -4.6931 0.0000
# 4 0.0000 0.0000 0.0001 27.0855 0.0000 4.0939
# 5 -0.6608 -0.5182 -4.6931 0.0000 36.8853 0.0000
# 6 0.0000 0.0000 0.0000 4.0939 0.0000 14.5924
#
#
#
# Elastic Compliance Matrix: (Units=1/GPa)
#
#
# Indices 1 2 3 4 5 6 
#
# 1 0.012865 -0.004323 -0.005121 0.000000 -0.000482 0.000000
# 2 -0.004323 0.008279 -0.000959 0.000000 -0.000083 0.000000
# 3 -0.005121 -0.000959 0.022549 0.000000 0.002764 0.000000
# 4 0.000000 0.000000 0.000000 0.038555 0.000000 -0.010816
# 5 -0.000482 -0.000083 0.002764 0.000000 0.027453 0.000000
# 6 0.000000 0.000000 0.000000 -0.010816 0.000000 0.071563
#
#
# Mechanical properties :
#
#
# Convention : Reuss Voigt Hill
#
# Bulk Modulus (GPa) = 43.69032 58.89455 51.29244
# Shear Modulus (GPa) = 23.84364 29.55472 26.69918
#
# Velocity S-wave (km/s) = 3.36245 3.74354 3.55810
# Velocity P-wave (km/s) = 5.98261 6.82728 6.41886
#
# Compressibility (1/GPa) = 0.02288837
#
# Stress axis : x y z
#
# Youngs Moduli (GPa) = 77.72885 120.78380 44.34748
#
# Poissons Ratio (x) = 0.52212 0.22708
# Poissons Ratio (y) = 0.33601 0.04254
# Poissons Ratio (z) = 0.39801 0.11587
#
# Static dielectric constant tensor:
#      x y z
#    x 3.950320 0.000000 0.011470 
#    y 0.000000 3.927910 0.000000 
#    z 0.011470 0.000000 3.803340 
# 
# 
# High freq. dielectric constant tensor:
#      x y z
#    x 1.828270 0.000000 -0.007790 
#    y 0.000000 1.831950 0.000000 
#    z -0.007790 0.000000 1.819090 
# 
# From -- ./inp_files/56902.got.cif
#   From: 2010.03.12/outbox.cif.g09.slc.cpg/sg5_29_cif.got.tgz:56902.got - 2010.03.31 09:47:26.
