data_PCOD8049599
_publ_section_title
;
Structure prediction by ZEFSAII (Michael W. Deem and Ramdas Pophale) SiO2 
 PCOD8049599
Probable space group: C 2
;
_chemical_formula_sum "Si O2"
_cell_formula_units_Z 24
_cell_length_a 8.839749
_cell_length_b 9.220466
_cell_length_c 13.650881
_cell_angle_alpha 90.000000
_cell_angle_beta 85.501057
_cell_angle_gamma 90.000000
_cell_volume 1109.208689
_symmetry_space_group_name_H-M "C 2"
_symmetry_group_IT_number 5
_symmetry_cell_setting 'monoclinic'
loop_
_space_group_symop_operation_xyz
x,y,z
-x,y,-z
1/2+x,1/2+y,z
1/2-x,1/2+y,-z
loop_
_atom_site_type_symbol
_atom_site_label
_atom_site_fract_x
_atom_site_fract_y
_atom_site_fract_z
Si Si1 0.284045 0.738900 0.870732
Si Si2 0.119670 0.625880 0.699713
Si Si3 0.826936 0.019067 0.528427
Si Si4 0.898199 0.319946 0.212435
Si Si5 0.819098 0.711397 0.615968
Si Si6 0.674933 0.964987 0.975517
O O1 0.159092 0.725295 0.791535
O O2 0.450439 0.729045 0.815182
O O3 0.271802 0.608013 0.949095
O O4 0.259117 0.889509 0.929961
O O5 0.271775 0.603633 0.628204
O O6 0.056159 0.470774 0.737685
O O7 0.992892 0.704740 0.641512
O O8 0.725704 0.066497 0.440547
O O9 0.000000 0.063209 0.500000
O O10 0.803267 0.847704 0.543814
O O11 0.788331 0.223393 0.284407
O O12 0.810466 0.353492 0.115871
O O13 0.500000 0.008645 0.000000
#
# Coordination Sequence:
#
# PCOD8049599 Si02
#       6
#     4   4   4   4   4   4
#     4  10  20  41  66  89 123 164 202 250 305 358
#     4  10  22  40  62  91 126 161 202 253 303 357
#     4  11  23  40  63  91 123 160 206 251 301 363
#     4   9  21  40  62  89 125 163 203 249 301 360
#     4  11  24  42  64  92 123 159 204 254 305 361
#     4   9  20  39  61  92 127 159 203 253 299 355
#
# _framework density 21.637046999999999
#
# number of rings (size 3 to 8) (size 9 to 14) (size 15 to 20)
#    0.000    2.000    0.000    2.500    0.000    9.333 
#    0.000   19.167    0.000    0.000    0.000    0.000 
#    0.000    0.000    0.000    0.000    0.000    0.000 
#
# Total GULP energy -148847.642009 kJ/mol
# GULP energy per Si atom -12403.970167 kJ/mol
# Density = 2.158780 g / cm^3
# Si number density = 21.637047 Si / 1000 Ang^3
#
#
#
# Elastic Constant Matrix: (Units=GPa)
#
#
# Indices 1 2 3 4 5 6 
#
# 1 116.5366 65.8491 62.6093 0.0000 -7.0657 0.0000
# 2 65.8491 81.5701 48.7393 0.0000 -10.6019 0.0000
# 3 62.6093 48.7393 117.2578 0.0000 -18.9052 0.0000
# 4 0.0000 0.0000 0.0000 45.9328 0.0000 -1.4689
# 5 -7.0657 -10.6019 -18.9052 0.0000 38.9384 0.0000
# 6 0.0000 0.0000 0.0000 -1.4689 0.0000 29.8039
#
#
#
# Elastic Compliance Matrix: (Units=1/GPa)
#
#
# Indices 1 2 3 4 5 6 
#
# 1 0.017671 -0.011584 -0.005003 0.000000 -0.002377 0.000000
# 2 -0.011584 0.023961 -0.003321 0.000000 0.002809 0.000000
# 3 -0.005003 -0.003321 0.013331 0.000000 0.004661 0.000000
# 4 0.000000 0.000000 0.000000 0.021805 0.000000 0.001075
# 5 -0.002377 0.002809 0.004661 0.000000 0.028278 0.000000
# 6 0.000000 0.000000 0.000000 0.001075 0.000000 0.033606
#
#
# Mechanical properties :
#
#
# Convention : Reuss Voigt Hill
#
# Bulk Modulus (GPa) = 66.02654 74.41775 70.22214
# Shear Modulus (GPa) = 27.24536 32.14614 29.69575
#
# Velocity S-wave (km/s) = 3.55237 3.85866 3.70868
# Velocity P-wave (km/s) = 6.88531 7.37026 7.13191
#
# Compressibility (1/GPa) = 0.01514543
#
# Stress axis : x y z
#
# Youngs Moduli (GPa) = 56.59112 41.73508 75.01033
#
# Poissons Ratio (x) = 0.48348 0.37529
# Poissons Ratio (y) = 0.65557 0.24912
# Poissons Ratio (z) = 0.28314 0.13861
#
# Static dielectric constant tensor:
#      x y z
#    x 3.635200 0.000000 -0.197440 
#    y 0.000000 3.723950 0.000000 
#    z -0.197440 0.000000 4.242280 
# 
# 
# High freq. dielectric constant tensor:
#      x y z
#    x 1.834940 0.000000 -0.014290 
#    y 0.000000 1.836320 0.000000 
#    z -0.014290 0.000000 1.874120 
# 
# From -- ./inp_files/49886.got.cif
#   From: 2010.03.12/outbox.cif.g09.slc.cpg/sg5_25_cif.got.tgz:49886.got - 2010.03.31 09:47:26.
