data_PCOD8049769
_publ_section_title
;
Structure prediction by ZEFSAII (Michael W. Deem and Ramdas Pophale) SiO2 
 PCOD8049769
Probable space group: C 2
;
_chemical_formula_sum "Si O2"
_cell_formula_units_Z 28
_cell_length_a 20.391078
_cell_length_b 5.112178
_cell_length_c 14.354585
_cell_angle_alpha 90.000000
_cell_angle_beta 58.244937
_cell_angle_gamma 90.000000
_cell_volume 1272.365533
_symmetry_space_group_name_H-M "C 2"
_symmetry_group_IT_number 5
_symmetry_cell_setting 'monoclinic'
loop_
_space_group_symop_operation_xyz
x,y,z
-x,y,-z
1/2+x,1/2+y,z
1/2-x,1/2+y,-z
loop_
_atom_site_type_symbol
_atom_site_label
_atom_site_fract_x
_atom_site_fract_y
_atom_site_fract_z
Si Si1 0.654734 0.834510 0.434312
Si Si2 0.244043 0.422830 0.871941
Si Si3 0.495256 0.450466 0.760273
Si Si4 0.387961 0.756001 0.730448
Si Si5 0.747015 0.826607 0.662434
Si Si6 0.362402 0.139356 0.906290
Si Si7 0.909308 0.429743 0.323853
O O1 0.606605 0.890867 0.375078
O O2 0.687145 0.541743 0.402457
O O3 0.596036 0.846496 0.564001
O O4 0.722238 0.049011 0.398534
O O5 0.299695 0.667804 0.811647
O O6 0.225897 0.286369 0.787001
O O7 0.283599 0.226005 0.914770
O O8 0.162464 0.509935 0.977726
O O9 0.450312 0.520026 0.695886
O O10 0.424523 0.368659 0.882725
O O11 0.538211 0.709857 0.766315
O O12 0.557704 0.221380 0.705329
O O13 0.408780 0.955924 0.798477
O O14 0.673929 0.925491 0.660425
#
# Coordination Sequence:
#
# PCOD8049769 Si02
#       7
#     4   4   4   4   4   4   4
#     4  11  23  41  67  98 122 166 215 273 317 366
#     4  10  21  35  70  95 120 160 206 274 329 353
#     4  11  25  42  61  91 132 175 209 251 319 398
#     4  10  21  40  61  95 126 151 211 263 312 380
#     4  11  23  42  67  97 126 159 224 268 311 385
#     4  11  19  40  64  93 125 159 207 270 319 373
#     4  12  24  44  64  89 135 177 207 254 321 386
#
# _framework density 22.006253000000001
#
# number of rings (size 3 to 8) (size 9 to 14) (size 15 to 20)
#    0.000    1.143    4.286    2.571    0.000    0.571 
#    2.571    0.714    3.143    0.000    0.000    0.000 
#    0.000    0.000    0.000    0.000    0.000    0.000 
#
# Total GULP energy -173553.477864 kJ/mol
# GULP energy per Si atom -12396.676990 kJ/mol
# Density = 2.195617 g / cm^3
# Si number density = 22.006253 Si / 1000 Ang^3
#
#
#
# Elastic Constant Matrix: (Units=GPa)
#
#
# Indices 1 2 3 4 5 6 
#
# 1 44.1694 14.5099 -8.8567 -0.0082 -9.8358 -0.0431
# 2 14.5099 96.7218 14.9619 -0.0098 -7.7147 -0.0409
# 3 -8.8567 14.9619 47.6531 -0.0047 3.4431 -0.0361
# 4 -0.0082 -0.0098 -0.0047 31.2422 0.0032 -11.7361
# 5 -9.8358 -7.7147 3.4431 0.0032 19.6649 -0.0001
# 6 -0.0431 -0.0409 -0.0361 -11.7361 -0.0001 44.0173
#
#
#
# Elastic Compliance Matrix: (Units=1/GPa)
#
#
# Indices 1 2 3 4 5 6 
#
# 1 0.027616 -0.004117 0.005615 0.000018 0.011214 0.000033
# 2 -0.004117 0.011972 -0.004775 0.000003 0.003474 0.000004
# 3 0.005615 -0.004775 0.023761 0.000013 -0.003225 0.000024
# 4 0.000018 0.000003 0.000013 0.035571 0.000002 0.009484
# 5 0.011214 0.003474 -0.003225 0.000002 0.058388 0.000012
# 6 0.000033 0.000004 0.000024 0.009484 0.000012 0.025247
#
#
# Mechanical properties :
#
#
# Convention : Reuss Voigt Hill
#
# Bulk Modulus (GPa) = 17.60730 25.53050 21.56890
# Shear Modulus (GPa) = 24.03375 30.18017 27.10696
#
# Velocity S-wave (km/s) = 3.30833 3.70731 3.51349
# Velocity P-wave (km/s) = 4.75519 5.47286 5.12660
#
# Compressibility (1/GPa) = 0.05679462
#
# Stress axis : x y z
#
# Youngs Moduli (GPa) = 36.21131 83.52628 42.08594
#
# Poissons Ratio (x) = 0.34387 -0.23631
# Poissons Ratio (y) = 0.14908 0.20097
# Poissons Ratio (z) = -0.20332 0.39885
#
# Static dielectric constant tensor:
#      x y z
#    x 3.819950 -0.000020 -0.002640 
#    y -0.000020 4.060070 -0.000010 
#    z -0.002640 -0.000010 3.907160 
# 
# 
# High freq. dielectric constant tensor:
#      x y z
#    x 1.848740 0.000000 -0.014440 
#    y 0.000000 1.876920 0.000000 
#    z -0.014440 0.000000 1.849210 
# 
# From -- ./inp_files/55415.got.cif
#   From: 2010.03.12/outbox.cif.g09.slc.cpg/sg5_28_cif.got.tgz:55415.got - 2010.03.31 09:47:26.
