data_PCOD8049727
_publ_section_title
;
Structure prediction by ZEFSAII (Michael W. Deem and Ramdas Pophale) SiO2 
 PCOD8049727
Probable space group: C 2
;
_chemical_formula_sum "Si O2"
_cell_formula_units_Z 20
_cell_length_a 17.458116
_cell_length_b 6.772850
_cell_length_c 7.688261
_cell_angle_alpha 90.000000
_cell_angle_beta 81.000684
_cell_angle_gamma 90.000000
_cell_volume 897.878761
_symmetry_space_group_name_H-M "C 2"
_symmetry_group_IT_number 5
_symmetry_cell_setting 'monoclinic'
loop_
_space_group_symop_operation_xyz
x,y,z
-x,y,-z
1/2+x,1/2+y,z
1/2-x,1/2+y,-z
loop_
_atom_site_type_symbol
_atom_site_label
_atom_site_fract_x
_atom_site_fract_y
_atom_site_fract_z
Si Si1 0.558155 0.610660 0.286478
Si Si2 0.662555 0.233122 0.852195
Si Si3 0.500000 0.359027 0.000000
Si Si4 0.120606 0.804334 0.497435
Si Si5 0.788214 0.942198 0.838273
Si Si6 0.500000 0.968954 0.500000
O O1 0.502993 0.493270 0.171573
O O2 0.435521 0.489981 0.530608
O O3 0.646009 0.616446 0.177677
O O4 0.526379 0.830692 0.329542
O O5 0.663002 0.342978 0.665786
O O6 0.702896 0.019761 0.817015
O O7 0.575222 0.218089 0.959767
O O8 0.716767 0.348234 0.969262
O O9 0.184625 0.784150 0.319840
O O10 0.071695 0.602755 0.535359
#
# Coordination Sequence:
#
# PCOD8049727 Si02
#       6
#     4   4   2   4   4   2
#     4   9  22  44  64 108 136 176 224 291 334 414
#     4  11  22  47  71  96 143 188 215 300 336 406
#     4  10  20  44  74 102 146 168 234 290 340 404
#     4  10  24  44  68 102 142 176 236 286 332 415
#     4   9  25  43  65  99 146 175 232 274 351 405
#     4  12  20  40  74  98 134 182 232 276 354 398
#
# _framework density 22.274723000000002
#
# number of rings (size 3 to 8) (size 9 to 14) (size 15 to 20)
#    1.200    0.800    0.000    3.000    0.000    4.800 
#   14.400    0.000    0.000    0.000    0.000    0.000 
#    0.000    0.000    0.000    0.000    0.000    0.000 
#
# Total GULP energy -123910.809408 kJ/mol
# GULP energy per Si atom -12391.080941 kJ/mol
# Density = 2.222402 g / cm^3
# Si number density = 22.274723 Si / 1000 Ang^3
#
#
#
# Elastic Constant Matrix: (Units=GPa)
#
#
# Indices 1 2 3 4 5 6 
#
# 1 103.0365 40.4485 40.6506 0.0000 0.1648 0.0000
# 2 40.4485 91.7399 39.0323 0.0000 -8.7325 0.0000
# 3 40.6506 39.0323 158.3880 0.0000 27.5125 0.0000
# 4 0.0000 0.0000 0.0000 33.2667 0.0000 -10.3808
# 5 0.1648 -8.7325 27.5125 0.0000 34.0214 0.0000
# 6 0.0000 0.0000 0.0000 -10.3808 0.0000 41.0357
#
#
#
# Elastic Compliance Matrix: (Units=1/GPa)
#
#
# Indices 1 2 3 4 5 6 
#
# 1 0.012304 -0.004458 -0.002152 0.000000 0.000537 0.000000
# 2 -0.004458 0.015148 -0.003802 0.000000 0.006985 0.000000
# 3 -0.002152 -0.003802 0.009273 0.000000 -0.008465 0.000000
# 4 0.000000 0.000000 0.000000 0.032636 0.000000 0.008256
# 5 0.000537 0.006985 -0.008465 0.000000 0.038029 0.000000
# 6 0.000000 0.000000 0.000000 0.008256 0.000000 0.026458
#
#
# Mechanical properties :
#
#
# Convention : Reuss Voigt Hill
#
# Bulk Modulus (GPa) = 62.89136 65.93636 64.41386
# Shear Modulus (GPa) = 31.25522 37.20030 34.22776
#
# Velocity S-wave (km/s) = 3.74995 4.09108 3.92423
# Velocity P-wave (km/s) = 6.85895 7.20983 7.03658
#
# Compressibility (1/GPa) = 0.01590044
#
# Stress axis : x y z
#
# Youngs Moduli (GPa) = 81.27688 66.01335 107.83546
#
# Poissons Ratio (x) = 0.29428 0.23211
# Poissons Ratio (y) = 0.36232 0.41002
# Poissons Ratio (z) = 0.17494 0.25100
#
# Static dielectric constant tensor:
#      x y z
#    x 3.958810 0.000000 -0.018520 
#    y 0.000000 3.506140 0.000000 
#    z -0.018520 0.000000 4.073630 
# 
# 
# High freq. dielectric constant tensor:
#      x y z
#    x 1.881370 0.000000 -0.006140 
#    y 0.000000 1.830430 0.000000 
#    z -0.006140 0.000000 1.891490 
# 
# From -- ./inp_files/25971.got.cif
#   From: 2010.03.12/outbox.cif.g09.slc.cpg/sg5_13_cif.got.tgz:25971.got - 2010.03.31 09:47:26.
