data_PCOD8049910
_publ_section_title
;
Structure prediction by ZEFSAII (Michael W. Deem and Ramdas Pophale) SiO2 
 PCOD8049910
Probable space group: C 2
;
_chemical_formula_sum "Si O2"
_cell_formula_units_Z 28
_cell_length_a 4.902947
_cell_length_b 31.637253
_cell_length_c 9.579068
_cell_angle_alpha 90.000000
_cell_angle_beta 63.328041
_cell_angle_gamma 90.000000
_cell_volume 1327.755462
_symmetry_space_group_name_H-M "C 2"
_symmetry_group_IT_number 5
_symmetry_cell_setting 'monoclinic'
loop_
_space_group_symop_operation_xyz
x,y,z
-x,y,-z
1/2+x,1/2+y,z
1/2-x,1/2+y,-z
loop_
_atom_site_type_symbol
_atom_site_label
_atom_site_fract_x
_atom_site_fract_y
_atom_site_fract_z
Si Si1 0.861279 0.557100 0.673990
Si Si2 0.684447 0.381714 0.814187
Si Si3 0.301075 0.425866 0.682798
Si Si4 0.655474 0.798425 0.105660
Si Si5 0.855282 0.205548 0.889870
Si Si6 0.825357 0.146434 0.397440
Si Si7 0.263958 0.017605 0.178371
O O1 0.770948 0.605682 0.671292
O O2 0.566466 0.532432 0.796793
O O3 0.000000 0.537364 0.500000
O O4 0.123998 0.550277 0.728592
O O5 0.444929 0.388507 0.744556
O O6 0.843421 0.334965 0.775759
O O7 0.951592 0.415225 0.728993
O O8 0.500000 0.388221 0.000000
O O9 0.500000 0.430549 0.500000
O O10 0.286716 0.469993 0.763285
O O11 0.514564 0.752836 0.180017
O O12 0.500000 0.816565 0.000000
O O13 0.000000 0.786128 0.000000
O O14 0.947863 0.175726 0.741417
O O15 0.500000 0.202838 0.000000
O O16 0.000000 0.189370 0.000000
O O17 0.500000 0.170105 0.500000
O O18 0.000000 0.133560 0.500000
O O19 0.500000 0.019025 0.000000
#
# Coordination Sequence:
#
# PCOD8049910 Si02
#       7
#     4   4   4   4   4   4   4
#     4  11  23  42  63  86 120 161 198 243 306 368
#     4  11  21  39  64  88 117 158 206 250 295 356
#     4  12  25  41  60  88 124 158 194 245 310 367
#     4   9  18  35  60  90 121 159 204 253 305 355
#     4  10  21  38  63  92 123 162 210 255 299 357
#     4  11  23  41  62  90 126 164 203 247 309 370
#     4  12  25  42  63  90 118 152 202 253 301 357
#
# _framework density 21.088218999999999
#
# number of rings (size 3 to 8) (size 9 to 14) (size 15 to 20)
#    0.000    1.143    0.000    8.571    0.000    1.714 
#    0.000    2.143    0.000    0.000    0.000    0.000 
#    0.000    0.000    0.000    0.000    0.000    0.000 
#
# Total GULP energy -173542.510320 kJ/mol
# GULP energy per Si atom -12395.893594 kJ/mol
# Density = 2.104022 g / cm^3
# Si number density = 21.088219 Si / 1000 Ang^3
#
#
#
# Elastic Constant Matrix: (Units=GPa)
#
#
# Indices 1 2 3 4 5 6 
#
# 1 94.1572 9.3058 10.5261 0.0000 -1.1036 0.0000
# 2 9.3058 96.3366 21.7262 0.0000 3.4897 0.0000
# 3 10.5261 21.7262 96.6717 0.0000 -14.1313 0.0000
# 4 0.0000 0.0000 0.0000 37.8413 0.0000 -1.1925
# 5 -1.1036 3.4897 -14.1313 0.0000 44.8963 0.0000
# 6 0.0000 0.0000 0.0000 -1.1925 0.0000 28.8470
#
#
#
# Elastic Compliance Matrix: (Units=1/GPa)
#
#
# Indices 1 2 3 4 5 6 
#
# 1 0.010813 -0.000822 -0.000990 0.000000 0.000018 0.000000
# 2 -0.000822 0.011122 -0.002662 0.000000 -0.001723 0.000000
# 3 -0.000990 -0.002662 0.011611 0.000000 0.003837 0.000000
# 4 0.000000 0.000000 0.000000 0.026461 0.000000 0.001094
# 5 0.000018 -0.001723 0.003837 0.000000 0.023616 0.000000
# 6 0.000000 0.000000 0.000000 0.001094 0.000000 0.034711
#
#
# Mechanical properties :
#
#
# Convention : Reuss Voigt Hill
#
# Bulk Modulus (GPa) = 40.65263 41.14241 40.89752
# Shear Modulus (GPa) = 36.90564 38.69076 37.79820
#
# Velocity S-wave (km/s) = 4.18791 4.28800 4.23825
# Velocity P-wave (km/s) = 6.53483 6.63837 6.58680
#
# Compressibility (1/GPa) = 0.02459866
#
# Stress axis : x y z
#
# Youngs Moduli (GPa) = 92.48433 89.90867 86.12325
#
# Poissons Ratio (x) = 0.07389 0.08526
# Poissons Ratio (y) = 0.07601 0.22926
# Poissons Ratio (z) = 0.09156 0.23934
#
# Static dielectric constant tensor:
#      x y z
#    x 4.051610 0.000000 -0.092940 
#    y 0.000000 3.913350 0.000000 
#    z -0.092940 0.000000 3.502730 
# 
# 
# High freq. dielectric constant tensor:
#      x y z
#    x 1.853130 0.000000 -0.006500 
#    y 0.000000 1.828180 0.000000 
#    z -0.006500 0.000000 1.805820 
# 
# From -- ./inp_files/13280.got.cif
#   From: 2010.03.12/outbox.cif.g09.slc.cpg/sg5_7_cif.got.tgz:13280.got - 2010.03.31 09:47:26.
