data_PCOD8049151
_publ_section_title
;
Structure prediction by ZEFSAII (Michael W. Deem and Ramdas Pophale) SiO2 
 PCOD8049151
Probable space group: C 2
;
_chemical_formula_sum "Si O2"
_cell_formula_units_Z 26
_cell_length_a 18.198745
_cell_length_b 9.534695
_cell_length_c 9.310725
_cell_angle_alpha 90.000000
_cell_angle_beta 130.625625
_cell_angle_gamma 90.000000
_cell_volume 1226.202448
_symmetry_space_group_name_H-M "C 2"
_symmetry_group_IT_number 5
_symmetry_cell_setting 'monoclinic'
loop_
_space_group_symop_operation_xyz
x,y,z
-x,y,-z
1/2+x,1/2+y,z
1/2-x,1/2+y,-z
loop_
_atom_site_type_symbol
_atom_site_label
_atom_site_fract_x
_atom_site_fract_y
_atom_site_fract_z
Si Si1 0.464494 0.199060 0.186390
Si Si2 0.000000 0.575965 0.500000
Si Si3 0.500000 0.969053 0.000000
Si Si4 0.205053 0.333799 0.296330
Si Si5 0.695930 0.938453 0.776103
Si Si6 0.500000 0.427246 0.000000
Si Si7 0.798376 0.023214 0.636826
Si Si8 0.240174 0.721478 0.937483
O O1 0.540163 0.165740 0.412785
O O2 0.487202 0.335958 0.126149
O O3 0.371657 0.229911 0.165671
O O4 0.457919 0.065312 0.073987
O O5 0.085169 0.476018 0.660885
O O6 0.408484 0.876227 0.832353
O O7 0.225309 0.187723 0.405456
O O8 0.277676 0.450793 0.456617
O O9 0.233906 0.317044 0.166766
O O10 0.725809 0.936025 0.647818
O O11 0.765330 0.057650 0.939960
O O12 0.704846 0.784207 0.855095
O O13 0.593526 0.518283 0.158234
#
# Coordination Sequence:
#
# PCOD8049151 Si02
#       8
#     4   2   2   4   4   2   4   4
#     4  10  22  37  68  94 126 167 221 261 330 391
#     4  10  20  36  64  94 124 162 212 268 326 396
#     4  11  23  44  68 100 132 180 218 270 334 402
#     4  11  25  41  68  96 135 170 224 271 332 392
#     4  10  21  39  63  90 130 163 218 263 333 389
#     4  11  23  40  62  86 132 172 216 270 326 382
#     4  11  25  40  62  95 131 172 221 272 324 393
#     4  10  21  40  62  96 124 170 205 275 320 395
#
# _framework density 21.203676000000002
#
# number of rings (size 3 to 8) (size 9 to 14) (size 15 to 20)
#    0.000    1.538    1.538    3.231   10.769    1.231 
#    0.000    0.000    0.000    0.923    4.000    0.000 
#    0.000    0.000    0.000    0.000    0.000    0.000 
#
# Total GULP energy -161074.978165 kJ/mol
# GULP energy per Si atom -12390.382936 kJ/mol
# Density = 2.115542 g / cm^3
# Si number density = 21.203676 Si / 1000 Ang^3
#
#
#
# Elastic Constant Matrix: (Units=GPa)
#
#
# Indices 1 2 3 4 5 6 
#
# 1 88.1862 16.7809 13.3161 0.0000 0.2791 0.0000
# 2 16.7809 70.8737 26.6476 0.0000 -0.4718 0.0000
# 3 13.3161 26.6476 82.6093 0.0000 7.1421 0.0000
# 4 0.0000 0.0000 0.0000 31.6645 0.0000 -3.7988
# 5 0.2791 -0.4718 7.1421 0.0000 35.0104 0.0000
# 6 0.0000 0.0000 0.0000 -3.7988 0.0000 19.8365
#
#
#
# Elastic Compliance Matrix: (Units=1/GPa)
#
#
# Indices 1 2 3 4 5 6 
#
# 1 0.011971 -0.002395 -0.001167 0.000000 0.000110 0.000000
# 2 -0.002395 0.016594 -0.005077 0.000000 0.001279 0.000000
# 3 -0.001167 -0.005077 0.014186 0.000000 -0.002953 0.000000
# 4 0.000000 0.000000 0.000000 0.032324 0.000000 0.006190
# 5 0.000110 0.001279 -0.002953 0.000000 0.029182 0.000000
# 6 0.000000 0.000000 0.000000 0.006190 0.000000 0.051598
#
#
# Mechanical properties :
#
#
# Convention : Reuss Voigt Hill
#
# Bulk Modulus (GPa) = 39.25614 39.46205 39.35909
# Shear Modulus (GPa) = 27.52937 29.63058 28.57997
#
# Velocity S-wave (km/s) = 3.60714 3.74227 3.67533
# Velocity P-wave (km/s) = 5.99188 6.10935 6.05090
#
# Compressibility (1/GPa) = 0.02547372
#
# Stress axis : x y z
#
# Youngs Moduli (GPa) = 83.53378 60.26197 70.49024
#
# Poissons Ratio (x) = 0.14433 0.08224
# Poissons Ratio (y) = 0.20007 0.35790
# Poissons Ratio (z) = 0.09745 0.30597
#
# Static dielectric constant tensor:
#      x y z
#    x 3.915380 0.000000 -0.193700 
#    y 0.000000 3.956980 0.000000 
#    z -0.193700 0.000000 4.021780 
# 
# 
# High freq. dielectric constant tensor:
#      x y z
#    x 1.838400 0.000000 -0.013330 
#    y 0.000000 1.822830 0.000000 
#    z -0.013330 0.000000 1.827890 
# 
# From -- ./inp_files/22836.got.cif
#   From: 2010.03.12/outbox.cif.g09.slc.cpg/sg5_12_cif.got.tgz:22836.got - 2010.03.31 09:47:26.
