data_PCOD8049439
_publ_section_title
;
Structure prediction by ZEFSAII (Michael W. Deem and Ramdas Pophale) SiO2 
 PCOD8049439
Probable space group: C 2
;
_chemical_formula_sum "Si O2"
_cell_formula_units_Z 22
_cell_length_a 17.514482
_cell_length_b 7.268474
_cell_length_c 7.888024
_cell_angle_alpha 90.000000
_cell_angle_beta 105.014772
_cell_angle_gamma 90.000000
_cell_volume 969.890091
_symmetry_space_group_name_H-M "C 2"
_symmetry_group_IT_number 5
_symmetry_cell_setting 'monoclinic'
loop_
_space_group_symop_operation_xyz
x,y,z
-x,y,-z
1/2+x,1/2+y,z
1/2-x,1/2+y,-z
loop_
_atom_site_type_symbol
_atom_site_label
_atom_site_fract_x
_atom_site_fract_y
_atom_site_fract_z
Si Si1 0.443810 0.160930 0.816969
Si Si2 0.759229 0.211886 0.717023
Si Si3 0.732689 0.139275 0.315699
Si Si4 0.854750 0.425051 0.243330
Si Si5 0.500000 0.083829 0.500000
Si Si6 0.418126 0.776417 0.931005
O O1 0.352545 0.225558 0.784442
O O2 0.480165 0.213245 0.652573
O O3 0.442721 0.938174 0.815178
O O4 0.500000 0.239987 0.000000
O O5 0.739042 0.137056 0.521160
O O6 0.754992 0.430714 0.740768
O O7 0.849023 0.148892 0.815549
O O8 0.697707 0.111439 0.807036
O O9 0.801443 0.257599 0.274456
O O10 0.924293 0.455970 0.418726
O O11 0.889836 0.380070 0.082726
O O12 0.500000 0.658585 0.000000
#
# Coordination Sequence:
#
# PCOD8049439 Si02
#       6
#     4   4   4   4   2   4
#     4  10  20  39  65  99 130 169 227 268 332 403
#     4  11  23  42  69  97 132 176 225 275 335 401
#     4  11  23  42  67 100 132 176 222 278 335 398
#     4  12  24  41  71  95 135 178 223 274 340 395
#     4  12  20  40  72  94 126 188 208 276 346 390
#     4  10  22  40  65  99 133 176 226 272 333 401
#
# _framework density 22.682983
#
# number of rings (size 3 to 8) (size 9 to 14) (size 15 to 20)
#    0.000    1.091    7.273    1.091    5.091    0.000 
#    0.000    1.818    4.000    1.091    0.000    0.000 
#    0.000    0.000    0.000    0.000    0.000    0.000 
#
# Total GULP energy -136350.246566 kJ/mol
# GULP energy per Si atom -12395.476961 kJ/mol
# Density = 2.263136 g / cm^3
# Si number density = 22.682983 Si / 1000 Ang^3
#
#
#
# Elastic Constant Matrix: (Units=GPa)
#
#
# Indices 1 2 3 4 5 6 
#
# 1 187.6582 46.6508 58.6633 0.0000 34.9312 0.0000
# 2 46.6508 69.0638 11.1788 0.0000 0.7669 0.0000
# 3 58.6633 11.1788 115.5887 0.0000 17.0035 0.0000
# 4 0.0000 0.0000 0.0000 16.0883 0.0000 -2.5079
# 5 34.9312 0.7669 17.0035 0.0000 61.3771 0.0000
# 6 0.0000 0.0000 0.0000 -2.5079 0.0000 19.4435
#
#
#
# Elastic Compliance Matrix: (Units=1/GPa)
#
#
# Indices 1 2 3 4 5 6 
#
# 1 0.008267 -0.005032 -0.003155 0.000000 -0.003768 0.000000
# 2 -0.005032 0.017775 0.000465 0.000000 0.002513 0.000000
# 3 -0.003155 0.000465 0.010367 0.000000 -0.001082 0.000000
# 4 0.000000 0.000000 0.000000 0.063433 0.000000 0.008182
# 5 -0.003768 0.002513 -0.001082 0.000000 0.018706 0.000000
# 6 0.000000 0.000000 0.000000 0.008182 0.000000 0.052486
#
#
# Mechanical properties :
#
#
# Convention : Reuss Voigt Hill
#
# Bulk Modulus (GPa) = 47.69671 67.25519 57.47595
# Shear Modulus (GPa) = 25.84433 36.43630 31.14031
#
# Velocity S-wave (km/s) = 3.37912 4.01225 3.70922
# Velocity P-wave (km/s) = 6.02476 7.15392 6.61349
#
# Compressibility (1/GPa) = 0.02096581
#
# Stress axis : x y z
#
# Youngs Moduli (GPa) = 120.95656 56.25842 96.46230
#
# Poissons Ratio (x) = 0.28309 0.30433
# Poissons Ratio (y) = 0.60865 -0.04486
# Poissons Ratio (z) = 0.38160 -0.02616
#
# Static dielectric constant tensor:
#      x y z
#    x 4.823270 0.000000 0.294720 
#    y 0.000000 3.648830 0.000000 
#    z 0.294720 0.000000 4.400070 
# 
# 
# High freq. dielectric constant tensor:
#      x y z
#    x 1.924240 0.000000 0.013080 
#    y 0.000000 1.840200 0.000000 
#    z 0.013080 0.000000 1.908720 
# 
# From -- ./inp_files/22889.got.cif
#   From: 2010.03.12/outbox.cif.g09.slc.cpg/sg5_12_cif.got.tgz:22889.got - 2010.03.31 09:47:26.
