data_PCOD8049433
_publ_section_title
;
Structure prediction by ZEFSAII (Michael W. Deem and Ramdas Pophale) SiO2 
 PCOD8049433
Probable space group: C 2
;
_chemical_formula_sum "Si O2"
_cell_formula_units_Z 26
_cell_length_a 8.886053
_cell_length_b 18.412002
_cell_length_c 12.359860
_cell_angle_alpha 90.000000
_cell_angle_beta 143.185077
_cell_angle_gamma 90.000000
_cell_volume 1211.765428
_symmetry_space_group_name_H-M "C 2"
_symmetry_group_IT_number 5
_symmetry_cell_setting 'monoclinic'
loop_
_space_group_symop_operation_xyz
x,y,z
-x,y,-z
1/2+x,1/2+y,z
1/2-x,1/2+y,-z
loop_
_atom_site_type_symbol
_atom_site_label
_atom_site_fract_x
_atom_site_fract_y
_atom_site_fract_z
Si Si1 0.828573 0.835430 0.604299
Si Si2 0.983736 0.027205 0.868788
Si Si3 0.500000 0.269225 0.500000
Si Si4 0.000000 0.457826 0.500000
Si Si5 0.315219 0.900899 0.981628
Si Si6 0.006843 0.252742 0.128706
Si Si7 0.000000 0.209794 0.500000
Si Si8 0.709044 0.644761 0.840791
O O1 0.653538 0.905800 0.508755
O O2 0.733121 0.762826 0.609819
O O3 0.840045 0.820512 0.485385
O O4 0.106765 0.850833 0.805210
O O5 0.694908 0.005432 0.681355
O O6 0.178293 0.958992 0.979424
O O7 0.060328 0.081049 0.816927
O O8 0.000000 0.060176 0.000000
O O9 0.714997 0.221588 0.680835
O O10 0.500000 0.939835 0.000000
O O11 0.480906 0.839497 0.137651
O O12 0.802298 0.214614 0.087578
O O13 0.000000 0.231212 0.000000
O O14 0.921134 0.159552 0.351524
O O15 0.000000 0.622600 0.000000
#
# Coordination Sequence:
#
# PCOD8049433 Si02
#       8
#     4   4   2   2   4   4   2   4
#     4  10  20  39  65 101 128 160 214 264 319 388
#     4  11  26  45  65  92 128 175 218 268 320 387
#     4  12  20  35  65 105 131 166 208 262 322 387
#     4   9  24  43  66  92 131 167 214 264 328 378
#     4  10  20  39  65  95 132 165 211 263 322 376
#     4  11  23  39  66 101 133 168 207 267 323 378
#     4  11  24  44  65  93 130 169 214 268 326 375
#     4  12  27  44  66  93 130 174 219 265 323 388
#
# _framework density 21.456299000000001
#
# number of rings (size 3 to 8) (size 9 to 14) (size 15 to 20)
#    0.000    1.231    4.615    1.846    2.154    3.692 
#    0.000    3.077    0.000    0.000    0.000    0.000 
#    0.000    0.000    0.000    0.000    0.000    0.000 
#
# Total GULP energy -161073.938244 kJ/mol
# GULP energy per Si atom -12390.302942 kJ/mol
# Density = 2.140746 g / cm^3
# Si number density = 21.456299 Si / 1000 Ang^3
#
#
#
# Elastic Constant Matrix: (Units=GPa)
#
#
# Indices 1 2 3 4 5 6 
#
# 1 124.3723 32.0586 56.3400 -0.0140 -8.6528 0.0122
# 2 32.0586 75.3950 36.2787 -0.0073 -8.0871 0.0065
# 3 56.3400 36.2787 131.0328 -0.0291 -1.6387 0.0242
# 4 -0.0140 -0.0073 -0.0291 -172.5444 -0.0188 199.5324
# 5 -8.6528 -8.0871 -1.6387 -0.0188 45.6014 0.0160
# 6 0.0122 0.0065 0.0242 199.5324 0.0160 -178.8986
#
#
#
# Elastic Compliance Matrix: (Units=1/GPa)
#
#
# Indices 1 2 3 4 5 6 
#
# 1 0.010505 -0.002481 -0.003812 0.000000 0.001416 0.000000
# 2 -0.002481 0.016193 -0.003388 0.000000 0.002279 0.000000
# 3 -0.003812 -0.003388 0.010197 0.000000 -0.000958 0.000001
# 4 0.000000 0.000000 0.000000 0.019999 0.000000 0.022306
# 5 0.001416 0.002279 -0.000958 0.000000 0.022568 0.000003
# 6 0.000000 0.000000 0.000001 0.022306 0.000003 0.019289
#
#
# Mechanical properties :
#
#
# Convention : Reuss Voigt Hill
#
# Bulk Modulus (GPa) = 57.03565 64.46165 60.74865
# Shear Modulus (GPa) = 40.33611 -47.42680 -3.54535
#
# Velocity S-wave (km/s) = 4.34051 -4.70658 -1.28683
# Velocity P-wave (km/s) = 7.19444 0.75670 5.11530
#
# Compressibility (1/GPa) = 0.01753289
#
# Stress axis : x y z
#
# Youngs Moduli (GPa) = 95.18960 61.75477 98.06762
#
# Poissons Ratio (x) = 0.15319 0.37388
# Poissons Ratio (y) = 0.23612 0.33228
# Poissons Ratio (z) = 0.36291 0.20924
#
# Static dielectric constant tensor:
#      x y z
#    x 4.163730 0.000000 0.062960 
#    y 0.000000 3.672230 0.000020 
#    z 0.062960 0.000020 5.015980 
# 
# 
# High freq. dielectric constant tensor:
#      x y z
#    x 1.859950 0.000000 0.012290 
#    y 0.000000 1.820120 0.000000 
#    z 0.012290 0.000000 1.848320 
# 
# From -- ./inp_files/37427.got.cif
#   From: 2010.03.12/outbox.cif.g09.slc.cpg/sg5_19_cif.got.tgz:37427.got - 2010.03.31 09:47:26.
