data_PCOD8049459
_publ_section_title
;
Structure prediction by ZEFSAII (Michael W. Deem and Ramdas Pophale) SiO2 
 PCOD8049459
Probable space group: C 2
;
_chemical_formula_sum "Si O2"
_cell_formula_units_Z 20
_cell_length_a 11.952121
_cell_length_b 11.196460
_cell_length_c 9.919666
_cell_angle_alpha 90.000000
_cell_angle_beta 139.293882
_cell_angle_gamma 90.000000
_cell_volume 865.744636
_symmetry_space_group_name_H-M "C 2"
_symmetry_group_IT_number 5
_symmetry_cell_setting 'monoclinic'
loop_
_space_group_symop_operation_xyz
x,y,z
-x,y,-z
1/2+x,1/2+y,z
1/2-x,1/2+y,-z
loop_
_atom_site_type_symbol
_atom_site_label
_atom_site_fract_x
_atom_site_fract_y
_atom_site_fract_z
Si Si1 0.533544 0.696780 0.178443
Si Si2 0.128835 0.822590 0.505787
Si Si3 0.297309 0.028501 0.824850
Si Si4 0.103634 0.944000 0.905515
Si Si5 0.346133 0.781079 0.265977
O O1 0.729668 0.723045 0.398257
O O2 0.505348 0.555741 0.142215
O O3 0.406351 0.757103 0.168100
O O4 0.500000 0.755287 0.000000
O O5 0.000000 0.769409 0.500000
O O6 0.026653 0.846779 0.275060
O O7 0.210949 0.947015 0.631473
O O8 0.228614 0.161861 0.734144
O O9 0.242657 0.985491 0.922587
O O10 0.500000 0.024512 0.000000
O O11 0.200714 0.883360 0.121227
O O12 0.500000 0.829566 0.500000
#
# Coordination Sequence:
#
# PCOD8049459 Si02
#       5
#     4   4   4   4   4
#     4  11  23  42  66  93 129 170 214 264 317 379
#     4  10  20  40  66  94 128 172 215 255 313 394
#     4  10  20  39  68  95 126 172 214 252 316 397
#     4  10  23  40  63  96 130 164 215 271 319 368
#     4  11  24  43  64  94 131 168 212 266 322 380
#
# _framework density 23.101500000000001
#
# number of rings (size 3 to 8) (size 9 to 14) (size 15 to 20)
#    0.000    1.600    0.000    7.200    0.000    5.600 
#    0.000    9.000    0.000    0.000    0.000    0.000 
#    0.000    0.000    0.000    0.000    0.000    0.000 
#
# Total GULP energy -124059.940377 kJ/mol
# GULP energy per Si atom -12405.994038 kJ/mol
# Density = 2.304892 g / cm^3
# Si number density = 23.101500 Si / 1000 Ang^3
#
#
#
# Elastic Constant Matrix: (Units=GPa)
#
#
# Indices 1 2 3 4 5 6 
#
# 1 72.7681 30.4305 29.8322 0.0000 14.0669 0.0000
# 2 30.4305 127.1860 68.3459 0.0000 16.0086 0.0000
# 3 29.8322 68.3459 163.4269 0.0000 11.1649 0.0000
# 4 0.0000 0.0000 0.0000 33.9834 0.0000 13.7785
# 5 14.0669 16.0086 11.1649 0.0000 47.9079 0.0000
# 6 0.0000 0.0000 0.0000 13.7785 0.0000 21.4737
#
#
#
# Elastic Compliance Matrix: (Units=1/GPa)
#
#
# Indices 1 2 3 4 5 6 
#
# 1 0.016158 -0.002538 -0.001648 0.000000 -0.003512 0.000000
# 2 -0.002538 0.010829 -0.003932 0.000000 -0.001957 0.000000
# 3 -0.001648 -0.003932 0.008070 0.000000 -0.000083 0.000000
# 4 0.000000 0.000000 0.000000 0.039773 0.000000 -0.025520
# 5 -0.003512 -0.001957 -0.000083 0.000000 0.022578 0.000000
# 6 0.000000 0.000000 0.000000 -0.025520 0.000000 0.062944
#
#
# Mechanical properties :
#
#
# Convention : Reuss Voigt Hill
#
# Bulk Modulus (GPa) = 53.13267 68.95536 61.04401
# Shear Modulus (GPa) = 27.34310 36.32449 31.83379
#
# Velocity S-wave (km/s) = 3.44409 3.96964 3.71617
# Velocity P-wave (km/s) = 6.23420 7.13613 6.70036
#
# Compressibility (1/GPa) = 0.01882081
#
# Stress axis : x y z
#
# Youngs Moduli (GPa) = 61.88731 92.34563 123.92050
#
# Poissons Ratio (x) = 0.23440 0.20423
# Poissons Ratio (y) = 0.15709 0.48721
# Poissons Ratio (z) = 0.10200 0.36307
#
# Static dielectric constant tensor:
#      x y z
#    x 4.189770 0.000000 0.123990 
#    y 0.000000 4.034600 0.000000 
#    z 0.123990 0.000000 4.266110 
# 
# 
# High freq. dielectric constant tensor:
#      x y z
#    x 1.916510 0.000000 0.006340 
#    y 0.000000 1.901400 0.000000 
#    z 0.006340 0.000000 1.917850 
# 
# From -- ./inp_files/20203.got.cif
#   From: 2010.03.12/outbox.cif.g09.slc.cpg/sg5_11_cif.got.tgz:20203.got - 2010.03.31 09:47:26.
