data_PCOD8049872
_publ_section_title
;
Structure prediction by ZEFSAII (Michael W. Deem and Ramdas Pophale) SiO2 
 PCOD8049872
Probable space group: C 2
;
_chemical_formula_sum "Si O2"
_cell_formula_units_Z 30
_cell_length_a 18.932276
_cell_length_b 12.917701
_cell_length_c 6.366327
_cell_angle_alpha 90.000000
_cell_angle_beta 96.912242
_cell_angle_gamma 90.000000
_cell_volume 1545.641840
_symmetry_space_group_name_H-M "C 2"
_symmetry_group_IT_number 5
_symmetry_cell_setting 'monoclinic'
loop_
_space_group_symop_operation_xyz
x,y,z
-x,y,-z
1/2+x,1/2+y,z
1/2-x,1/2+y,-z
loop_
_atom_site_type_symbol
_atom_site_label
_atom_site_fract_x
_atom_site_fract_y
_atom_site_fract_z
Si Si1 0.755173 0.186600 0.548601
Si Si2 0.813047 0.021696 0.269721
Si Si3 0.917579 0.001087 0.955698
Si Si4 0.706988 0.021859 0.854369
Si Si5 0.567121 0.917071 0.900613
Si Si6 0.194662 0.880510 0.354370
Si Si7 0.000000 0.318051 0.500000
Si Si8 0.605769 0.731663 0.211715
O O1 0.808162 0.118644 0.423706
O O2 0.702506 0.256295 0.385680
O O3 0.812290 0.255461 0.697722
O O4 0.708279 0.118113 0.692596
O O5 0.802536 0.919820 0.405222
O O6 0.888873 0.006336 0.183779
O O7 0.754244 0.043150 0.073455
O O8 0.876386 0.915236 0.797792
O O9 0.903814 0.113097 0.854895
O O10 0.000000 0.970303 0.000000
O O11 0.628430 0.002842 0.915539
O O12 0.736216 0.920424 0.746109
O O13 0.548308 0.893597 0.654982
O O14 0.500000 0.966266 0.000000
O O15 0.588977 0.809010 0.016288
O O16 0.949086 0.246698 0.619284
#
# Coordination Sequence:
#
# PCOD8049872 Si02
#       8
#     4   4   4   4   4   4   2   4
#     4  11  22  37  62  88 117 156 208 246 300 355
#     4  10  21  39  60  89 114 153 198 252 303 347
#     4  11  23  37  57  90 126 159 201 243 308 371
#     4  10  21  38  58  89 117 152 201 248 299 359
#     4  10  22  37  58  87 119 155 190 245 311 361
#     4  10  22  38  58  88 118 163 200 246 303 355
#     4  10  22  34  58  84 120 154 186 236 312 364
#     4  11  21  35  55  94 117 157 196 246 308 366
#
# _framework density 19.409414000000002
#
# number of rings (size 3 to 8) (size 9 to 14) (size 15 to 20)
#    0.000    1.600    4.000    2.800    5.600    5.867 
#    0.000    0.000    0.000    8.000    0.000    0.000 
#    0.000    0.000    0.000    0.000    0.000    0.000 
#
# Total GULP energy -185951.949531 kJ/mol
# GULP energy per Si atom -12396.796635 kJ/mol
# Density = 1.936524 g / cm^3
# Si number density = 19.409414 Si / 1000 Ang^3
#
#
#
# Elastic Constant Matrix: (Units=GPa)
#
#
# Indices 1 2 3 4 5 6 
#
# 1 137.9438 41.9956 38.9892 0.0000 -3.9610 0.0000
# 2 41.9956 61.3003 22.5289 0.0000 1.0234 0.0000
# 3 38.9892 22.5289 101.4280 0.0000 -7.1211 0.0000
# 4 0.0000 0.0000 0.0000 17.5678 0.0000 5.0638
# 5 -3.9610 1.0234 -7.1211 0.0000 26.6546 0.0000
# 6 0.0000 0.0000 0.0000 5.0638 0.0000 24.9358
#
#
#
# Elastic Compliance Matrix: (Units=1/GPa)
#
#
# Indices 1 2 3 4 5 6 
#
# 1 0.009716 -0.005801 -0.002374 0.000000 0.001032 0.000000
# 2 -0.005801 0.021309 -0.002671 0.000000 -0.002394 0.000000
# 3 -0.002374 -0.002671 0.011564 0.000000 0.002839 0.000000
# 4 0.000000 0.000000 0.000000 0.060461 0.000000 -0.012278
# 5 0.001032 -0.002394 0.002839 0.000000 0.038521 0.000000
# 6 0.000000 0.000000 0.000000 -0.012278 0.000000 0.042596
#
#
# Mechanical properties :
#
#
# Convention : Reuss Voigt Hill
#
# Bulk Modulus (GPa) = 47.85342 56.41104 52.13223
# Shear Modulus (GPa) = 23.49338 26.97555 25.23446
#
# Velocity S-wave (km/s) = 3.48287 3.73207 3.60962
# Velocity P-wave (km/s) = 6.39391 6.90637 6.65508
#
# Compressibility (1/GPa) = 0.02089715
#
# Stress axis : x y z
#
# Youngs Moduli (GPa) = 102.92304 46.92856 86.47222
#
# Poissons Ratio (x) = 0.27223 0.20527
# Poissons Ratio (y) = 0.59706 0.23099
# Poissons Ratio (z) = 0.24433 0.12536
#
# Static dielectric constant tensor:
#      x y z
#    x 3.621930 0.000000 -0.082680 
#    y 0.000000 3.226530 0.000000 
#    z -0.082680 0.000000 3.902010 
# 
# 
# High freq. dielectric constant tensor:
#      x y z
#    x 1.750380 0.000000 -0.003660 
#    y 0.000000 1.727160 0.000000 
#    z -0.003660 0.000000 1.777150 
# 
# From -- ./inp_files/8557.got.cif
#   From: 2010.03.12/outbox.cif.g09.slc.cpg/sg5_5_cif.got.tgz:8557.got - 2010.03.31 09:47:26.
