data_PCOD8049686
_publ_section_title
;
Structure prediction by ZEFSAII (Michael W. Deem and Ramdas Pophale) SiO2 
 PCOD8049686
Probable space group: C 2
;
_chemical_formula_sum "Si O2"
_cell_formula_units_Z 18
_cell_length_a 5.273189
_cell_length_b 24.198212
_cell_length_c 5.429653
_cell_angle_alpha 90.000000
_cell_angle_beta 88.985408
_cell_angle_gamma 90.000000
_cell_volume 692.724576
_symmetry_space_group_name_H-M "C 2"
_symmetry_group_IT_number 5
_symmetry_cell_setting 'monoclinic'
loop_
_space_group_symop_operation_xyz
x,y,z
-x,y,-z
1/2+x,1/2+y,z
1/2-x,1/2+y,-z
loop_
_atom_site_type_symbol
_atom_site_label
_atom_site_fract_x
_atom_site_fract_y
_atom_site_fract_z
Si Si1 0.749910 0.522350 0.863664
Si Si2 0.848977 0.170083 0.762906
Si Si3 0.746616 0.286581 0.660546
Si Si4 0.500000 0.093601 0.500000
Si Si5 0.253935 0.406430 0.337976
O O1 0.740994 0.455822 0.856757
O O2 0.772290 0.553479 0.599881
O O3 0.500000 0.545098 0.000000
O O4 0.000000 0.541253 0.000000
O O5 0.760543 0.232827 0.835925
O O6 0.604428 0.131678 0.721372
O O7 0.000000 0.170121 0.500000
O O8 0.000000 0.147607 0.000000
O O9 0.500000 0.278903 0.500000
O O10 0.732904 0.346304 0.800262
O O11 0.000000 0.288862 0.500000
O O12 0.500000 0.413917 0.500000
O O13 0.000000 0.412413 0.500000
#
# Coordination Sequence:
#
# PCOD8049686 Si02
#       5
#     4   4   4   2   4
#     4  12  29  47  76 113 152 209 268 327 399 475
#     4  11  27  49  79 115 159 211 271 331 406 478
#     4   9  19  42  73 110 152 200 253 326 396 477
#     4  12  30  50  76 110 166 210 274 332 396 482
#     4  10  20  42  74 107 155 198 253 324 400 471
#
# _framework density 25.984354
#
# number of rings (size 3 to 8) (size 9 to 14) (size 15 to 20)
#    0.000    1.333    2.222    1.333    6.222    0.889 
#    0.000    4.444    0.000    0.000    0.000    0.000 
#    0.000    0.000    0.000    0.000    0.000    0.000 
#
# Total GULP energy -111534.434290 kJ/mol
# GULP energy per Si atom -12392.714921 kJ/mol
# Density = 2.592521 g / cm^3
# Si number density = 25.984354 Si / 1000 Ang^3
#
#
#
# Elastic Constant Matrix: (Units=GPa)
#
#
# Indices 1 2 3 4 5 6 
#
# 1 192.0816 36.5689 46.3019 0.0000 -0.7826 0.0000
# 2 36.5689 204.7263 43.0341 0.0000 4.2470 0.0000
# 3 46.3019 43.0341 97.8910 0.0000 1.5676 0.0000
# 4 0.0000 0.0000 0.0000 -299.0400 0.0000 -146.7634
# 5 -0.7826 4.2470 1.5676 0.0000 48.2951 0.0000
# 6 0.0000 0.0000 0.0000 -146.7634 0.0000 -47.7763
#
#
#
# Elastic Compliance Matrix: (Units=1/GPa)
#
#
# Indices 1 2 3 4 5 6 
#
# 1 0.005928 -0.000522 -0.002578 0.000000 0.000226 0.000000
# 2 -0.000522 0.005435 -0.002136 0.000000 -0.000417 0.000000
# 3 -0.002578 -0.002136 0.012378 0.000000 -0.000256 0.000000
# 4 0.000000 0.000000 0.000000 0.006588 0.000000 -0.020236
# 5 0.000226 -0.000417 -0.000256 0.000000 0.020755 0.000000
# 6 0.000000 0.000000 0.000000 -0.020236 0.000000 0.041233
#
#
# Mechanical properties :
#
#
# Convention : Reuss Voigt Hill
#
# Bulk Modulus (GPa) = 75.36009 82.94542 79.15275
# Shear Modulus (GPa) = 46.63698 -35.11796 5.75951
#
# Velocity S-wave (km/s) = 4.24112 -3.68027 1.49042
# Velocity P-wave (km/s) = 7.28339 3.73248 5.78702
#
# Compressibility (1/GPa) = 0.01326962
#
# Stress axis : x y z
#
# Youngs Moduli (GPa) = 168.69644 183.97904 80.78831
#
# Poissons Ratio (x) = 0.09596 0.20828
# Poissons Ratio (y) = 0.08799 0.17257
# Poissons Ratio (z) = 0.43492 0.39299
#
# Static dielectric constant tensor:
#      x y z
#    x 4.835490 0.000000 0.061450 
#    y 0.000000 5.672990 0.000000 
#    z 0.061450 0.000000 4.388160 
# 
# 
# High freq. dielectric constant tensor:
#      x y z
#    x 2.058660 0.000000 -0.003370 
#    y 0.000000 2.082400 0.000000 
#    z -0.003370 0.000000 1.988460 
# 
# From -- ./inp_files/850.got.cif
#   From: 2010.03.12/outbox.cif.g09.slc.cpg/sg5_1_cif.got.tgz:850.got - 2010.03.31 09:47:26.
