data_PCOD8049697
_publ_section_title
;
Structure prediction by ZEFSAII (Michael W. Deem and Ramdas Pophale) SiO2 
 PCOD8049697
Probable space group: C 2
;
_chemical_formula_sum "Si O2"
_cell_formula_units_Z 30
_cell_length_a 16.161820
_cell_length_b 8.487950
_cell_length_c 10.825572
_cell_angle_alpha 90.000000
_cell_angle_beta 75.107478
_cell_angle_gamma 90.000000
_cell_volume 1435.176057
_symmetry_space_group_name_H-M "C 2"
_symmetry_group_IT_number 5
_symmetry_cell_setting 'monoclinic'
loop_
_space_group_symop_operation_xyz
x,y,z
-x,y,-z
1/2+x,1/2+y,z
1/2-x,1/2+y,-z
loop_
_atom_site_type_symbol
_atom_site_label
_atom_site_fract_x
_atom_site_fract_y
_atom_site_fract_z
Si Si1 0.620524 0.497050 0.870010
Si Si2 0.447584 0.350346 0.868013
Si Si3 0.901757 0.348072 0.207045
Si Si4 0.460112 0.789650 0.641977
Si Si5 0.754233 0.511682 0.415775
Si Si6 0.926463 0.933084 0.612436
Si Si7 0.500000 0.067665 0.000000
Si Si8 0.771959 0.362650 0.662771
O O1 0.543649 0.418144 0.823106
O O2 0.622257 0.682025 0.843719
O O3 0.708070 0.417146 0.793615
O O4 0.608770 0.463859 0.021152
O O5 0.408770 0.337741 0.745692
O O6 0.450473 0.174176 0.919251
O O7 0.819794 0.412726 0.309333
O O8 0.983478 0.344472 0.265083
O O9 0.925143 0.463467 0.087068
O O10 0.500000 0.857016 0.500000
O O11 0.462106 0.601772 0.640114
O O12 0.363922 0.852808 0.693116
O O13 0.659793 0.442522 0.432108
O O14 0.775339 0.491219 0.552069
O O15 0.757367 0.695513 0.382271
O O16 0.000000 0.850543 0.500000
#
# Coordination Sequence:
#
# PCOD8049697 Si02
#       8
#     4   4   4   4   4   4   2   4
#     4  10  21  38  71  87 124 173 215 256 323 388
#     4  10  20  43  64  96 127 165 219 262 326 380
#     4  12  22  43  63  96 126 174 217 265 325 383
#     4  10  21  40  66  95 130 162 217 262 320 381
#     4  11  23  38  65  94 133 161 225 264 327 378
#     4  10  21  39  68  97 124 170 213 265 318 392
#     4  10  24  40  66  90 132 172 212 274 316 392
#     4  11  22  41  64  97 126 176 207 275 321 383
#
# _framework density 20.903358999999998
#
# number of rings (size 3 to 8) (size 9 to 14) (size 15 to 20)
#    0.000    1.600    2.667    4.000    1.867    0.000 
#    7.200    0.667    0.000    0.000    0.000    0.000 
#    0.000    0.000    0.000    0.000    0.000    0.000 
#
# Total GULP energy -186046.258986 kJ/mol
# GULP energy per Si atom -12403.083932 kJ/mol
# Density = 2.085578 g / cm^3
# Si number density = 20.903359 Si / 1000 Ang^3
#
#
#
# Elastic Constant Matrix: (Units=GPa)
#
#
# Indices 1 2 3 4 5 6 
#
# 1 85.0214 49.1656 52.6599 0.0000 -20.1556 0.0000
# 2 49.1656 94.6058 38.1517 0.0000 -8.8789 0.0000
# 3 52.6599 38.1517 130.7569 0.0000 -19.0212 0.0000
# 4 0.0000 0.0000 0.0000 34.0744 0.0000 -4.2294
# 5 -20.1556 -8.8789 -19.0212 0.0000 40.1792 0.0000
# 6 0.0000 0.0000 0.0000 -4.2294 0.0000 26.0986
#
#
#
# Elastic Compliance Matrix: (Units=1/GPa)
#
#
# Indices 1 2 3 4 5 6 
#
# 1 0.021370 -0.008399 -0.005226 0.000000 0.006390 0.000000
# 2 -0.008399 0.015323 -0.001298 0.000000 -0.001442 0.000000
# 3 -0.005226 -0.001298 0.010426 0.000000 0.002027 0.000000
# 4 0.000000 0.000000 0.000000 0.029950 0.000000 0.004854
# 5 0.006390 -0.001442 0.002027 0.000000 0.028735 0.000000
# 6 0.000000 0.000000 0.000000 0.004854 0.000000 0.039103
#
#
# Mechanical properties :
#
#
# Convention : Reuss Voigt Hill
#
# Bulk Modulus (GPa) = 57.89288 65.59316 61.74302
# Shear Modulus (GPa) = 27.69896 31.43089 29.56493
#
# Velocity S-wave (km/s) = 3.64414 3.88187 3.76488
# Velocity P-wave (km/s) = 6.74255 7.17909 6.96424
#
# Compressibility (1/GPa) = 0.01727328
#
# Stress axis : x y z
#
# Youngs Moduli (GPa) = 46.79365 65.26110 95.91095
#
# Poissons Ratio (x) = 0.54810 0.50128
# Poissons Ratio (y) = 0.39300 0.12452
# Poissons Ratio (z) = 0.24457 0.08472
#
# Static dielectric constant tensor:
#      x y z
#    x 3.627650 0.000000 -0.144440 
#    y 0.000000 3.772960 0.000000 
#    z -0.144440 0.000000 3.929410 
# 
# 
# High freq. dielectric constant tensor:
#      x y z
#    x 1.809400 0.000000 -0.011490 
#    y 0.000000 1.814780 0.000000 
#    z -0.011490 0.000000 1.829130 
# 
# From -- ./inp_files/41933.got.cif
#   From: 2010.03.12/outbox.cif.g09.slc.cpg/sg5_21_cif.got.tgz:41933.got - 2010.03.31 09:47:26.
