data_PCOD8049344
_publ_section_title
;
Structure prediction by ZEFSAII (Michael W. Deem and Ramdas Pophale) SiO2 
 PCOD8049344
Probable space group: C 2
;
_chemical_formula_sum "Si O2"
_cell_formula_units_Z 26
_cell_length_a 15.522076
_cell_length_b 11.371583
_cell_length_c 10.499069
_cell_angle_alpha 90.000000
_cell_angle_beta 133.687494
_cell_angle_gamma 90.000000
_cell_volume 1340.079767
_symmetry_space_group_name_H-M "C 2"
_symmetry_group_IT_number 5
_symmetry_cell_setting 'monoclinic'
loop_
_space_group_symop_operation_xyz
x,y,z
-x,y,-z
1/2+x,1/2+y,z
1/2-x,1/2+y,-z
loop_
_atom_site_type_symbol
_atom_site_label
_atom_site_fract_x
_atom_site_fract_y
_atom_site_fract_z
Si Si1 0.000000 0.257210 0.000000
Si Si2 0.575621 0.274963 0.696832
Si Si3 0.637072 0.172766 0.126645
Si Si4 0.616726 0.107600 0.375138
Si Si5 0.723533 0.616245 0.226490
Si Si6 0.417379 0.952198 0.094678
Si Si7 0.792283 0.894909 0.952800
O O1 0.891887 0.180517 0.834230
O O2 0.067020 0.331684 0.962664
O O3 0.500000 0.326510 0.500000
O O4 0.487105 0.197080 0.690039
O O5 0.689176 0.197860 0.769046
O O6 0.623286 0.380382 0.835731
O O7 0.686889 0.155562 0.321747
O O8 0.500000 0.211687 0.000000
O O9 0.709866 0.275271 0.131273
O O10 0.647254 0.051317 0.058123
O O11 0.705699 0.073140 0.577556
O O12 0.550289 0.988308 0.269168
O O13 0.669880 0.506372 0.093014
O O14 0.341852 0.923513 0.142365
#
# Coordination Sequence:
#
# PCOD8049344 Si02
#       7
#     2   4   4   4   4   4   4
#     4  12  24  40  58  96 124 162 200 266 318 356
#     4  10  20  38  64  91 124 167 212 249 304 378
#     4  10  20  38  63  91 118 173 210 247 303 375
#     4  10  20  42  62  91 121 167 219 244 300 386
#     4  11  25  37  62  97 130 157 205 267 317 354
#     4  11  21  39  66  87 127 169 210 240 315 379
#     4  12  21  38  62  97 124 163 206 263 304 373
#
# _framework density 19.401828999999999
#
# number of rings (size 3 to 8) (size 9 to 14) (size 15 to 20)
#    0.000    1.231    8.462    0.000    1.077    1.231 
#    0.000    3.077    0.000    1.846    0.000    0.000 
#    0.000    0.000    0.000    0.000    0.000    0.000 
#
# Total GULP energy -161146.775980 kJ/mol
# GULP energy per Si atom -12395.905845 kJ/mol
# Density = 1.935767 g / cm^3
# Si number density = 19.401829 Si / 1000 Ang^3
#
#
#
# Elastic Constant Matrix: (Units=GPa)
#
#
# Indices 1 2 3 4 5 6 
#
# 1 98.5133 42.0647 23.7739 0.0000 -12.7354 0.0000
# 2 42.0647 93.0900 48.0192 0.0000 -4.2340 0.0000
# 3 23.7739 48.0192 113.7380 0.0000 -19.1060 0.0000
# 4 0.0000 0.0000 0.0000 23.2742 0.0000 -2.8868
# 5 -12.7354 -4.2340 -19.1060 0.0000 29.1189 0.0000
# 6 0.0000 0.0000 0.0000 -2.8868 0.0000 39.5928
#
#
#
# Elastic Compliance Matrix: (Units=1/GPa)
#
#
# Indices 1 2 3 4 5 6 
#
# 1 0.013293 -0.006131 0.000715 0.000000 0.005392 0.000000
# 2 -0.006131 0.016668 -0.006517 0.000000 -0.004534 0.000000
# 3 0.000715 -0.006517 0.012686 0.000000 0.007689 0.000000
# 4 0.000000 0.000000 0.000000 0.043358 0.000000 0.003161
# 5 0.005392 -0.004534 0.007689 0.000000 0.041086 0.000000
# 6 0.000000 0.000000 0.000000 0.003161 0.000000 0.025488
#
#
# Mechanical properties :
#
#
# Convention : Reuss Voigt Hill
#
# Bulk Modulus (GPa) = 53.24234 59.22855 56.23545
# Shear Modulus (GPa) = 27.36668 31.16277 29.26472
#
# Velocity S-wave (km/s) = 3.75976 4.01206 3.88796
# Velocity P-wave (km/s) = 6.80803 7.21497 7.01445
#
# Compressibility (1/GPa) = 0.01878204
#
# Stress axis : x y z
#
# Youngs Moduli (GPa) = 75.22755 59.99456 78.82864
#
# Poissons Ratio (x) = 0.36780 -0.05640
# Poissons Ratio (y) = 0.46119 0.51375
# Poissons Ratio (z) = -0.05382 0.39101
#
# Static dielectric constant tensor:
#      x y z
#    x 3.682420 0.000000 -0.227670 
#    y 0.000000 3.413340 0.000000 
#    z -0.227670 0.000000 3.673670 
# 
# 
# High freq. dielectric constant tensor:
#      x y z
#    x 1.764340 0.000000 -0.016600 
#    y 0.000000 1.742250 0.000000 
#    z -0.016600 0.000000 1.741790 
# 
# From -- ./inp_files/44626.got.cif
#   From: 2010.03.12/outbox.cif.g09.slc.cpg/sg5_23_cif.got.tgz:44626.got - 2010.03.31 09:47:26.
