data_PCOD8049079
_publ_section_title
;
Structure prediction by ZEFSAII (Michael W. Deem and Ramdas Pophale) SiO2 
 PCOD8049079
Probable space group: C 2
;
_chemical_formula_sum "Si O2"
_cell_formula_units_Z 30
_cell_length_a 22.126628
_cell_length_b 5.874683
_cell_length_c 22.645514
_cell_angle_alpha 90.000000
_cell_angle_beta 30.833580
_cell_angle_gamma 90.000000
_cell_volume 1508.741616
_symmetry_space_group_name_H-M "C 2"
_symmetry_group_IT_number 5
_symmetry_cell_setting 'monoclinic'
loop_
_space_group_symop_operation_xyz
x,y,z
-x,y,-z
1/2+x,1/2+y,z
1/2-x,1/2+y,-z
loop_
_atom_site_type_symbol
_atom_site_label
_atom_site_fract_x
_atom_site_fract_y
_atom_site_fract_z
Si Si1 0.500000 0.707670 0.000000
Si Si2 0.096204 0.901313 0.510539
Si Si3 0.105099 0.517876 0.593920
Si Si4 0.301384 0.204790 0.369141
Si Si5 0.416727 0.784371 0.683688
Si Si6 0.857819 0.649492 0.639842
Si Si7 0.207275 0.521804 0.825222
Si Si8 0.370354 0.388686 0.195928
O O1 0.465559 0.555615 0.085862
O O2 0.391833 0.856609 0.063579
O O3 0.221066 0.030027 0.398499
O O4 0.990190 0.076067 0.596956
O O5 0.096725 0.764680 0.571196
O O6 0.066729 0.731692 0.480680
O O7 0.217208 0.380976 0.474336
O O8 0.120460 0.560307 0.650558
O O9 0.982086 0.377799 0.687901
O O10 0.392308 0.326845 0.246789
O O11 0.279480 0.698018 0.808298
O O12 0.425456 0.986351 0.628703
O O13 0.755410 0.505231 0.696194
O O14 0.810113 0.870613 0.712189
O O15 0.133734 0.658561 0.838245
#
# Coordination Sequence:
#
# PCOD8049079 Si02
#       8
#     2   4   4   4   4   4   4   4
#     4  10  22  38  62  90 128 148 204 266 332 368
#     4  11  21  36  53  84 127 172 199 246 296 364
#     4  11  22  36  54  84 127 176 208 245 288 372
#     4  11  21  37  58  83 128 170 213 246 294 366
#     4  10  24  35  52  86 127 166 207 243 305 371
#     4  10  20  36  54  81 122 160 200 246 311 368
#     4  10  20  38  58  85 126 151 195 261 319 378
#     4  10  20  37  60  90 122 154 204 261 313 370
#
# _framework density 19.884119999999999
#
# number of rings (size 3 to 8) (size 9 to 14) (size 15 to 20)
#    0.000    1.600    4.000    1.200    0.000    3.200 
#    2.400    0.000    0.000    0.000    0.000    0.000 
#  180.000    0.000    0.000    0.000    0.000    0.000 
#
# Total GULP energy -185872.136818 kJ/mol
# GULP energy per Si atom -12391.475788 kJ/mol
# Density = 1.983886 g / cm^3
# Si number density = 19.884120 Si / 1000 Ang^3
#
#
#
# Elastic Constant Matrix: (Units=GPa)
#
#
# Indices 1 2 3 4 5 6 
#
# 1 127.1735 46.1934 53.5530 0.0431 -2.5597 -0.0313
# 2 46.1934 106.0436 45.8703 0.1124 -4.5611 -0.0583
# 3 53.5530 45.8703 91.8086 0.2495 -4.0345 -0.1112
# 4 0.0431 0.1124 0.2495 39.9147 -0.2218 -11.8250
# 5 -2.5597 -4.5611 -4.0345 -0.2218 18.7166 0.0869
# 6 -0.0313 -0.0583 -0.1112 -11.8250 0.0869 38.6781
#
#
#
# Elastic Compliance Matrix: (Units=1/GPa)
#
#
# Indices 1 2 3 4 5 6 
#
# 1 0.010943 -0.002566 -0.005111 0.000026 -0.000230 -0.000001
# 2 -0.002566 0.012682 -0.004765 0.000007 0.001713 0.000002
# 3 -0.005111 -0.004765 0.016327 -0.000071 0.001658 0.000010
# 4 0.000026 0.000007 -0.000071 0.027551 0.000277 0.008422
# 5 -0.000230 0.001713 0.001658 0.000277 0.054175 -0.000030
# 6 -0.000001 0.000002 0.000010 0.008422 -0.000030 0.028429
#
#
# Mechanical properties :
#
#
# Convention : Reuss Voigt Hill
#
# Bulk Modulus (GPa) = 66.36060 68.47325 67.41692
# Shear Modulus (GPa) = 27.77548 31.42248 29.59898
#
# Velocity S-wave (km/s) = 3.74152 3.97959 3.86239
# Velocity P-wave (km/s) = 7.21883 7.45835 7.33957
#
# Compressibility (1/GPa) = 0.01506918
#
# Stress axis : x y z
#
# Youngs Moduli (GPa) = 91.38223 78.84937 61.24661
#
# Poissons Ratio (x) = 0.20231 0.31306
# Poissons Ratio (y) = 0.23447 0.29182
# Poissons Ratio (z) = 0.46710 0.37569
#
# Static dielectric constant tensor:
#      x y z
#    x 3.554820 0.000030 -0.257770 
#    y 0.000030 4.091720 0.000080 
#    z -0.257770 0.000080 3.429240 
# 
# 
# High freq. dielectric constant tensor:
#      x y z
#    x 1.755090 0.000000 -0.026730 
#    y 0.000000 1.809880 0.000010 
#    z -0.026730 0.000010 1.739350 
# 
# From -- ./inp_files/67268.got.cif
#   From: 2010.03.12/outbox.cif.g09.slc.cpg/sg5_34_cif.got.tgz:67268.got - 2010.03.31 09:47:26.
