data_PCOD8049543
_publ_section_title
;
Structure prediction by ZEFSAII (Michael W. Deem and Ramdas Pophale) SiO2 
 PCOD8049543
Probable space group: C 2
;
_chemical_formula_sum "Si O2"
_cell_formula_units_Z 32
_cell_length_a 8.543348
_cell_length_b 18.006324
_cell_length_c 18.684422
_cell_angle_alpha 90.000000
_cell_angle_beta 149.469473
_cell_angle_gamma 90.000000
_cell_volume 1460.139278
_symmetry_space_group_name_H-M "C 2"
_symmetry_group_IT_number 5
_symmetry_cell_setting 'monoclinic'
loop_
_space_group_symop_operation_xyz
x,y,z
-x,y,-z
1/2+x,1/2+y,z
1/2-x,1/2+y,-z
loop_
_atom_site_type_symbol
_atom_site_label
_atom_site_fract_x
_atom_site_fract_y
_atom_site_fract_z
Si Si1 0.864565 0.914980 0.780327
Si Si2 0.237436 0.195088 0.451052
Si Si3 0.697891 0.368453 0.509366
Si Si4 0.619814 0.295890 0.970115
Si Si5 0.556960 0.558920 0.938915
Si Si6 0.033658 0.670341 0.711847
Si Si7 0.687979 0.340854 0.775389
Si Si8 0.088421 0.652130 0.179911
O O1 0.502714 0.919100 0.616520
O O2 0.870343 0.856002 0.846883
O O3 0.096199 0.887561 0.809366
O O4 0.986880 0.992911 0.857442
O O5 0.500000 0.174445 0.500000
O O6 0.195044 0.283071 0.443313
O O7 0.315271 0.156004 0.557391
O O8 0.938813 0.161693 0.292945
O O9 0.500000 0.393873 0.500000
O O10 0.475717 0.381965 0.354840
O O11 0.619023 0.225017 0.917483
O O12 0.500000 0.268734 0.000000
O O13 0.947798 0.337767 0.096283
O O14 0.360940 0.629371 0.833918
O O15 0.500000 0.538956 0.000000
O O16 0.918395 0.582358 0.075632
O O17 0.069639 0.757764 0.735569
O O18 0.874776 0.639383 0.720479
#
# Coordination Sequence:
#
# PCOD8049543 Si02
#       8
#     4   4   4   4   4   4   4   4
#     4  12  23  42  66 101 139 181 232 296 353 416
#     4  10  21  37  64 104 137 174 235 295 338 411
#     4  10  21  39  66  99 139 179 229 290 352 415
#     4  12  24  38  65  98 133 181 236 289 347 413
#     4  10  24  43  67 100 146 187 229 285 362 425
#     4  10  20  40  67  97 134 178 234 283 343 422
#     4  11  22  39  69 101 134 175 239 294 340 414
#     4  11  21  40  68  98 133 187 229 288 345 417
#
# _framework density 21.915717000000001
#
# number of rings (size 3 to 8) (size 9 to 14) (size 15 to 20)
#    0.000    1.250    3.750    2.250    3.500    2.000 
#    0.000    8.750    0.000    0.000    0.000    0.000 
#    0.000    0.000    0.000    0.000    0.000    0.000 
#
# Total GULP energy -198344.525634 kJ/mol
# GULP energy per Si atom -12396.532852 kJ/mol
# Density = 2.186584 g / cm^3
# Si number density = 21.915717 Si / 1000 Ang^3
#
#
#
# Elastic Constant Matrix: (Units=GPa)
#
#
# Indices 1 2 3 4 5 6 
#
# 1 102.3204 41.0026 69.5202 -0.0027 7.1276 -0.0013
# 2 41.0026 81.6068 57.4097 0.0011 -4.8570 -0.0026
# 3 69.5202 57.4097 163.1510 -0.0141 4.5985 -0.0144
# 4 -0.0027 0.0011 -0.0141 39.1269 -0.0100 -7.1515
# 5 7.1276 -4.8570 4.5985 -0.0100 36.9237 -0.0039
# 6 -0.0013 -0.0026 -0.0144 -7.1515 -0.0039 22.2459
#
#
#
# Elastic Compliance Matrix: (Units=1/GPa)
#
#
# Indices 1 2 3 4 5 6 
#
# 1 0.014943 -0.004327 -0.004764 -0.000002 -0.002860 -0.000004
# 2 -0.004327 0.017846 -0.004542 -0.000002 0.003748 -0.000001
# 3 -0.004764 -0.004542 0.009783 0.000004 -0.000896 0.000007
# 4 -0.000002 -0.000002 0.000004 0.027153 0.000008 0.008729
# 5 -0.002860 0.003748 -0.000896 0.000008 0.028240 0.000007
# 6 -0.000004 -0.000001 0.000007 0.008729 0.000007 0.047758
#
#
# Mechanical properties :
#
#
# Convention : Reuss Voigt Hill
#
# Bulk Modulus (GPa) = 65.33118 75.88257 70.60688
# Shear Modulus (GPa) = 28.07552 31.60236 29.83894
#
# Velocity S-wave (km/s) = 3.58308 3.80148 3.69390
# Velocity P-wave (km/s) = 6.85514 7.34631 7.10497
#
# Compressibility (1/GPa) = 0.01530663
#
# Stress axis : x y z
#
# Youngs Moduli (GPa) = 66.91904 56.03542 102.21989
#
# Poissons Ratio (x) = 0.24245 0.48702
# Poissons Ratio (y) = 0.28954 0.46424
# Poissons Ratio (z) = 0.31883 0.25449
#
# Static dielectric constant tensor:
#      x y z
#    x 3.842280 0.000000 -0.164630 
#    y 0.000000 3.581580 -0.000070 
#    z -0.164630 -0.000070 4.275330 
# 
# 
# High freq. dielectric constant tensor:
#      x y z
#    x 1.857660 0.000000 -0.005950 
#    y 0.000000 1.823780 0.000000 
#    z -0.005950 0.000000 1.884180 
# 
# From -- ./inp_files/64798.got.cif
#   From: 2010.03.12/outbox.cif.g09.slc.cpg/sg5_33_cif.got.tgz:64798.got - 2010.03.31 09:47:26.
