data_PCOD8049610
_publ_section_title
;
Structure prediction by ZEFSAII (Michael W. Deem and Ramdas Pophale) SiO2 
 PCOD8049610
Probable space group: C 2
;
_chemical_formula_sum "Si O2"
_cell_formula_units_Z 26
_cell_length_a 15.270679
_cell_length_b 7.509007
_cell_length_c 21.986147
_cell_angle_alpha 90.000000
_cell_angle_beta 151.519422
_cell_angle_gamma 90.000000
_cell_volume 1202.213604
_symmetry_space_group_name_H-M "C 2"
_symmetry_group_IT_number 5
_symmetry_cell_setting 'monoclinic'
loop_
_space_group_symop_operation_xyz
x,y,z
-x,y,-z
1/2+x,1/2+y,z
1/2-x,1/2+y,-z
loop_
_atom_site_type_symbol
_atom_site_label
_atom_site_fract_x
_atom_site_fract_y
_atom_site_fract_z
Si Si1 0.330219 0.053330 0.126302
Si Si2 0.301768 0.701965 0.163838
Si Si3 0.896094 0.407057 0.033606
Si Si4 0.000000 0.825597 0.500000
Si Si5 0.689080 0.450748 0.729905
Si Si6 0.708188 0.618491 0.399134
Si Si7 0.398395 0.250311 0.632596
O O1 0.530983 0.104344 0.275852
O O2 0.236305 0.905437 0.113540
O O3 0.352393 0.961123 0.075201
O O4 0.204494 0.225795 0.045308
O O5 0.303880 0.650155 0.236951
O O6 0.506299 0.691332 0.260177
O O7 0.164882 0.565589 0.047672
O O8 0.110283 0.368765 0.155629
O O9 0.086223 0.956779 0.602592
O O10 0.152026 0.696285 0.564270
O O11 0.578594 0.325988 0.708957
O O12 0.706450 0.404065 0.393874
O O13 0.759257 0.662386 0.500150
#
# Coordination Sequence:
#
# PCOD8049610 Si02
#       7
#     4   4   4   2   4   4   4
#     4  12  24  42  68  98 134 182 223 275 346 388
#     4  11  23  42  69  97 133 183 225 274 337 404
#     4  12  24  44  65 103 139 175 227 285 329 407
#     4  10  22  40  74 104 134 186 212 296 330 396
#     4  10  23  44  66  97 141 172 227 278 338 395
#     4  10  20  41  67  99 138 175 233 270 343 395
#     4  10  22  42  69  95 134 187 217 283 336 404
#
# _framework density 21.626771000000002
#
# number of rings (size 3 to 8) (size 9 to 14) (size 15 to 20)
#    0.000    1.231    4.615    2.308    0.000    2.462 
#    5.538    4.615    0.000    1.846    0.000    0.000 
#    0.000    0.000    0.000    0.000    0.000    0.000 
#
# Total GULP energy -161208.139958 kJ/mol
# GULP energy per Si atom -12400.626151 kJ/mol
# Density = 2.157755 g / cm^3
# Si number density = 21.626771 Si / 1000 Ang^3
#
#
#
# Elastic Constant Matrix: (Units=GPa)
#
#
# Indices 1 2 3 4 5 6 
#
# 1 75.7865 27.6184 33.0673 0.0001 -15.1486 0.0000
# 2 27.6184 139.5803 32.0244 0.0006 -27.2627 -0.0003
# 3 33.0673 32.0244 104.9366 0.0017 -15.4919 -0.0005
# 4 0.0001 0.0006 0.0017 36.0590 -0.0003 -9.4134
# 5 -15.1486 -27.2627 -15.4919 -0.0003 42.0691 0.0001
# 6 0.0000 -0.0003 -0.0005 -9.4134 0.0001 21.5182
#
#
#
# Elastic Compliance Matrix: (Units=1/GPa)
#
#
# Indices 1 2 3 4 5 6 
#
# 1 0.016248 -0.001626 -0.004141 0.000000 0.003272 0.000000
# 2 -0.001626 0.008707 -0.001479 0.000000 0.004512 0.000000
# 3 -0.004141 -0.001479 0.011552 -0.000001 0.001805 0.000000
# 4 0.000000 0.000000 -0.000001 0.031308 0.000000 0.013696
# 5 0.003272 0.004512 0.001805 0.000000 0.028538 0.000000
# 6 0.000000 0.000000 0.000000 0.013696 0.000000 0.052464
#
#
# Mechanical properties :
#
#
# Convention : Reuss Voigt Hill
#
# Bulk Modulus (GPa) = 45.42046 56.19150 50.80598
# Shear Modulus (GPa) = 29.30055 35.10217 32.20136
#
# Velocity S-wave (km/s) = 3.68479 4.03313 3.86289
# Velocity P-wave (km/s) = 6.25709 6.90847 6.59083
#
# Compressibility (1/GPa) = 0.02201651
#
# Stress axis : x y z
#
# Youngs Moduli (GPa) = 61.54494 114.85523 86.56445
#
# Poissons Ratio (x) = 0.18673 0.35845
# Poissons Ratio (y) = 0.10006 0.12799
# Poissons Ratio (z) = 0.25485 0.16982
#
# Static dielectric constant tensor:
#      x y z
#    x 3.812480 0.000000 -0.190550 
#    y 0.000000 3.966870 0.000000 
#    z -0.190550 0.000000 4.269020 
# 
# 
# High freq. dielectric constant tensor:
#      x y z
#    x 1.833450 0.000000 -0.008660 
#    y 0.000000 1.846190 0.000000 
#    z -0.008660 0.000000 1.872410 
# 
# From -- ./inp_files/65931.got.cif
#   From: 2010.03.12/outbox.cif.g09.slc.cpg/sg5_33_cif.got.tgz:65931.got - 2010.03.31 09:47:26.
