data_PCOD8049209
_publ_section_title
;
Structure prediction by ZEFSAII (Michael W. Deem and Ramdas Pophale) SiO2 
 PCOD8049209
Probable space group: C 2
;
_chemical_formula_sum "Si O2"
_cell_formula_units_Z 32
_cell_length_a 12.732439
_cell_length_b 18.995547
_cell_length_c 9.512253
_cell_angle_alpha 90.000000
_cell_angle_beta 134.630224
_cell_angle_gamma 90.000000
_cell_volume 1637.256205
_symmetry_space_group_name_H-M "C 2"
_symmetry_group_IT_number 5
_symmetry_cell_setting 'monoclinic'
loop_
_space_group_symop_operation_xyz
x,y,z
-x,y,-z
1/2+x,1/2+y,z
1/2-x,1/2+y,-z
loop_
_atom_site_type_symbol
_atom_site_label
_atom_site_fract_x
_atom_site_fract_y
_atom_site_fract_z
Si Si1 0.999509 0.566960 0.343815
Si Si2 0.183413 0.097474 0.053479
Si Si3 0.909445 0.982619 0.554768
Si Si4 0.391784 0.435015 0.025226
Si Si5 0.085030 0.351270 0.723092
Si Si6 0.023835 0.192966 0.678763
Si Si7 0.078405 0.441042 0.221653
Si Si8 0.693524 0.621518 0.375804
O O1 0.012695 0.507223 0.241507
O O2 0.131303 0.622524 0.453756
O O3 0.000000 0.531512 0.500000
O O4 0.854787 0.613533 0.186035
O O5 0.132602 0.124630 0.158898
O O6 0.167061 0.013836 0.041403
O O7 0.104155 0.134606 0.849720
O O8 0.873328 0.051395 0.613317
O O9 0.000000 0.003037 0.500000
O O10 0.755499 0.943471 0.372457
O O11 0.012127 0.928890 0.741339
O O12 0.247853 0.384792 0.888061
O O13 0.500000 0.413950 0.000000
O O14 0.106097 0.267181 0.755716
O O15 0.000000 0.371213 0.500000
O O16 0.975384 0.372275 0.745713
O O17 0.000000 0.163648 0.500000
O O18 0.860152 0.192527 0.594980
O O19 0.000000 0.440475 0.000000
#
# Coordination Sequence:
#
# PCOD8049209 Si02
#       8
#     4   4   4   4   4   4   4   4
#     4   9  20  35  60  90 122 152 203 259 306 367
#     4  11  20  37  64  94 119 158 207 261 314 367
#     4  11  22  35  57  93 128 155 201 266 316 365
#     4  12  21  37  66  96 121 160 215 269 313 365
#     4  11  25  43  63  86 125 176 212 255 310 389
#     4  11  24  41  60  88 126 168 207 247 313 377
#     4  11  22  37  58  89 124 165 203 254 319 366
#     4  10  20  37  60  92 119 159 205 254 312 366
#
# _framework density 19.544895
#
# number of rings (size 3 to 8) (size 9 to 14) (size 15 to 20)
#    0.000    1.250    3.750    2.625    1.750    2.000 
#    0.000    3.750    0.000    3.000    0.000    0.000 
#    0.000    0.000    0.000    0.000    0.000    0.000 
#
# Total GULP energy -198281.849730 kJ/mol
# GULP energy per Si atom -12392.615608 kJ/mol
# Density = 1.950041 g / cm^3
# Si number density = 19.544895 Si / 1000 Ang^3
#
#
#
# Elastic Constant Matrix: (Units=GPa)
#
#
# Indices 1 2 3 4 5 6 
#
# 1 145.4966 41.6919 75.1248 0.0000 1.1404 0.0000
# 2 41.6919 69.7889 40.2266 0.0000 -1.7484 0.0000
# 3 75.1248 40.2266 151.8229 0.0000 -7.7840 0.0000
# 4 0.0000 0.0000 0.0000 21.9779 0.0000 1.8331
# 5 1.1404 -1.7484 -7.7840 0.0000 39.4464 0.0000
# 6 0.0000 0.0000 0.0000 1.8331 0.0000 22.7570
#
#
#
# Elastic Compliance Matrix: (Units=1/GPa)
#
#
# Indices 1 2 3 4 5 6 
#
# 1 0.010031 -0.003689 -0.004050 0.000000 -0.001253 0.000000
# 2 -0.003689 0.018269 -0.002998 0.000000 0.000325 0.000000
# 3 -0.004050 -0.002998 0.009480 0.000000 0.001855 0.000000
# 4 0.000000 0.000000 0.000000 0.045808 0.000000 -0.003690
# 5 -0.001253 0.000325 0.001855 0.000000 0.025767 0.000000
# 6 0.000000 0.000000 0.000000 -0.003690 0.000000 0.044240
#
#
# Mechanical properties :
#
#
# Convention : Reuss Voigt Hill
#
# Bulk Modulus (GPa) = 61.33182 75.68831 68.51006
# Shear Modulus (GPa) = 27.69965 30.84062 29.27013
#
# Velocity S-wave (km/s) = 3.76870 3.97664 3.87406
# Velocity P-wave (km/s) = 7.09828 7.73914 7.42562
#
# Compressibility (1/GPa) = 0.01630475
#
# Stress axis : x y z
#
# Youngs Moduli (GPa) = 99.68692 54.73628 105.48109
#
# Poissons Ratio (x) = 0.20195 0.42724
# Poissons Ratio (y) = 0.36779 0.31627
# Poissons Ratio (z) = 0.40377 0.16412
#
# Static dielectric constant tensor:
#      x y z
#    x 4.173820 0.000000 0.158290 
#    y 0.000000 3.196940 0.000000 
#    z 0.158290 0.000000 3.892140 
# 
# 
# High freq. dielectric constant tensor:
#      x y z
#    x 1.784010 0.000000 0.003200 
#    y 0.000000 1.713960 0.000000 
#    z 0.003200 0.000000 1.782050 
# 
# From -- ./inp_files/21979.got.cif
#   From: 2010.03.12/outbox.cif.g09.slc.cpg/sg5_11_cif.got.tgz:21979.got - 2010.03.31 09:47:26.
