data_PCOD8049204
_publ_section_title
;
Structure prediction by ZEFSAII (Michael W. Deem and Ramdas Pophale) SiO2 
 PCOD8049204
Probable space group: C 2
;
_chemical_formula_sum "Si O2"
_cell_formula_units_Z 24
_cell_length_a 8.683115
_cell_length_b 13.817849
_cell_length_c 9.393474
_cell_angle_alpha 90.000000
_cell_angle_beta 88.542591
_cell_angle_gamma 90.000000
_cell_volume 1126.682942
_symmetry_space_group_name_H-M "C 2"
_symmetry_group_IT_number 5
_symmetry_cell_setting 'monoclinic'
loop_
_space_group_symop_operation_xyz
x,y,z
-x,y,-z
1/2+x,1/2+y,z
1/2-x,1/2+y,-z
loop_
_atom_site_type_symbol
_atom_site_label
_atom_site_fract_x
_atom_site_fract_y
_atom_site_fract_z
Si Si1 0.868126 0.365440 0.892115
Si Si2 0.178735 0.128712 0.710576
Si Si3 0.177672 0.168402 0.248861
Si Si4 0.679024 0.265353 0.498593
Si Si5 0.856605 0.452371 0.597342
Si Si6 0.319281 0.536985 0.999921
O O1 0.799984 0.262703 0.849465
O O2 0.924251 0.422156 0.749842
O O3 0.743332 0.429522 0.977832
O O4 0.000000 0.343436 0.000000
O O5 0.270383 0.223409 0.655542
O O6 0.997464 0.149642 0.697250
O O7 0.228322 0.035918 0.614774
O O8 0.229404 0.110126 0.872266
O O9 0.283838 0.182091 0.384962
O O10 0.237488 0.078909 0.150950
O O11 0.500000 0.291153 0.500000
O O12 0.775927 0.361275 0.525188
O O13 0.000000 0.489273 0.500000
O O14 0.500000 0.527549 0.000000
#
# Coordination Sequence:
#
# PCOD8049204 Si02
#       6
#     4   4   4   4   4   4
#     4  10  20  37  60  86 115 151 189 236 295 349
#     4  10  20  39  63  85 114 153 196 242 293 347
#     4  10  21  40  60  83 116 157 196 240 291 346
#     4  11  23  38  58  88 121 158 198 239 287 344
#     4  10  22  40  61  88 119 152 196 243 291 348
#     4   9  20  38  60  86 115 151 195 240 291 346
#
# _framework density 21.301466999999999
#
# number of rings (size 3 to 8) (size 9 to 14) (size 15 to 20)
#    0.000    2.000    0.000    4.500    0.000    5.333 
#    0.000   19.167    0.000    0.000    0.000    0.000 
#    0.000    0.000    0.000    0.000    0.000    0.000 
#
# Total GULP energy -148781.096113 kJ/mol
# GULP energy per Si atom -12398.424676 kJ/mol
# Density = 2.125298 g / cm^3
# Si number density = 21.301467 Si / 1000 Ang^3
#
#
#
# Elastic Constant Matrix: (Units=GPa)
#
#
# Indices 1 2 3 4 5 6 
#
# 1 69.1026 22.4089 32.8193 0.0000 -9.9063 0.0000
# 2 22.4089 82.6541 18.3079 0.0000 -21.5367 0.0000
# 3 32.8193 18.3079 58.5018 0.0000 -15.6711 0.0000
# 4 0.0000 0.0000 0.0000 36.7329 0.0000 -11.6171
# 5 -9.9063 -21.5367 -15.6711 0.0000 36.2321 0.0000
# 6 0.0000 0.0000 0.0000 -11.6171 0.0000 29.4787
#
#
#
# Elastic Compliance Matrix: (Units=1/GPa)
#
#
# Indices 1 2 3 4 5 6 
#
# 1 0.020536 -0.003476 -0.010725 0.000000 -0.001090 0.000000
# 2 -0.003476 0.015232 -0.000731 0.000000 0.007788 0.000000
# 3 -0.010725 -0.000731 0.025377 0.000000 0.007610 0.000000
# 4 0.000000 0.000000 0.000000 0.031100 0.000000 0.012256
# 5 -0.001090 0.007788 0.007610 0.000000 0.035222 0.000000
# 6 0.000000 0.000000 0.000000 0.012256 0.000000 0.038753
#
#
# Mechanical properties :
#
#
# Convention : Reuss Voigt Hill
#
# Bulk Modulus (GPa) = 31.96722 39.70340 35.83531
# Shear Modulus (GPa) = 24.21197 29.60355 26.90776
#
# Velocity S-wave (km/s) = 3.37506 3.73197 3.55799
# Velocity P-wave (km/s) = 5.49797 6.10323 5.80849
#
# Compressibility (1/GPa) = 0.03128205
#
# Stress axis : x y z
#
# Youngs Moduli (GPa) = 48.69559 65.65098 39.40571
#
# Poissons Ratio (x) = 0.22821 0.42261
# Poissons Ratio (y) = 0.16927 0.02879
# Poissons Ratio (z) = 0.52224 0.04797
#
# Static dielectric constant tensor:
#      x y z
#    x 3.668190 0.000000 -0.209260 
#    y 0.000000 3.982450 0.000000 
#    z -0.209260 0.000000 4.288430 
# 
# 
# High freq. dielectric constant tensor:
#      x y z
#    x 1.814190 0.000000 -0.009630 
#    y 0.000000 1.840980 0.000000 
#    z -0.009630 0.000000 1.848890 
# 
# From -- ./inp_files/15025.got.cif
#   From: 2010.03.12/outbox.cif.g09.slc.cpg/sg5_8_cif.got.tgz:15025.got - 2010.03.31 09:47:26.
