data_PCOD8049636
_publ_section_title
;
Structure prediction by ZEFSAII (Michael W. Deem and Ramdas Pophale) SiO2 
 PCOD8049636
Probable space group: C 2
;
_chemical_formula_sum "Si O2"
_cell_formula_units_Z 28
_cell_length_a 26.678708
_cell_length_b 6.628597
_cell_length_c 8.441388
_cell_angle_alpha 90.000000
_cell_angle_beta 114.619404
_cell_angle_gamma 90.000000
_cell_volume 1357.092901
_symmetry_space_group_name_H-M "C 2"
_symmetry_group_IT_number 5
_symmetry_cell_setting 'monoclinic'
loop_
_space_group_symop_operation_xyz
x,y,z
-x,y,-z
1/2+x,1/2+y,z
1/2-x,1/2+y,-z
loop_
_atom_site_type_symbol
_atom_site_label
_atom_site_fract_x
_atom_site_fract_y
_atom_site_fract_z
Si Si1 0.302713 0.751210 0.718644
Si Si2 0.500000 0.858014 0.500000
Si Si3 0.806451 0.950988 0.448525
Si Si4 0.368683 0.139555 0.739080
Si Si5 0.500000 0.461471 0.000000
Si Si6 0.412535 0.516073 0.383797
Si Si7 0.890729 0.986536 0.987801
Si Si8 0.970528 0.695406 0.674180
O O1 0.246615 0.854937 0.712493
O O2 0.288971 0.640542 0.534463
O O3 0.332997 0.603414 0.883073
O O4 0.346058 0.924744 0.750015
O O5 0.444941 0.726065 0.448997
O O6 0.507021 0.007537 0.660119
O O7 0.826306 0.775591 0.588185
O O8 0.852923 0.026774 0.388197
O O9 0.385307 0.256392 0.921400
O O10 0.419945 0.093123 0.695576
O O11 0.442065 0.583908 0.947537
O O12 0.502874 0.331634 0.842368
O O13 0.449534 0.334952 0.500756
O O14 0.403807 0.479326 0.188417
#
# Coordination Sequence:
#
# PCOD8049636 Si02
#       8
#     4   2   4   4   2   4   4   4
#     4  11  20  39  64  89 116 163 214 254 300 362
#     4  12  22  38  64  90 122 170 198 238 318 376
#     4  10  21  39  64  87 120 162 206 261 302 351
#     4   9  20  39  61  87 115 157 211 251 296 360
#     4  10  20  42  64  88 128 162 200 256 296 360
#     4  11  24  42  59  94 134 158 198 255 311 365
#     4  10  23  38  59  91 127 161 200 249 311 364
#     4  10  22  38  62  89 121 165 201 246 306 362
#
# _framework density 20.632337
#
# number of rings (size 3 to 8) (size 9 to 14) (size 15 to 20)
#    0.000    1.714    1.429    3.857    0.000    4.571 
#    2.571    1.429    0.000    0.000    0.000    0.000 
#    0.000    0.000    0.000    0.000    0.000    0.000 
#
# Total GULP energy -173479.450797 kJ/mol
# GULP energy per Si atom -12391.389343 kJ/mol
# Density = 2.058538 g / cm^3
# Si number density = 20.632337 Si / 1000 Ang^3
#
#
#
# Elastic Constant Matrix: (Units=GPa)
#
#
# Indices 1 2 3 4 5 6 
#
# 1 122.3103 45.5675 37.7513 0.0000 8.3222 0.0000
# 2 45.5675 81.8142 27.8606 0.0000 -7.3469 0.0000
# 3 37.7513 27.8606 111.6428 0.0000 -9.0219 0.0000
# 4 0.0000 0.0000 0.0000 17.8190 0.0000 2.9759
# 5 8.3222 -7.3469 -9.0219 0.0000 30.2320 0.0000
# 6 0.0000 0.0000 0.0000 2.9759 0.0000 38.9478
#
#
#
# Elastic Compliance Matrix: (Units=1/GPa)
#
#
# Indices 1 2 3 4 5 6 
#
# 1 0.011692 -0.006023 -0.002899 0.000000 -0.005547 0.000000
# 2 -0.006023 0.016620 -0.001691 0.000000 0.005192 0.000000
# 3 -0.002899 -0.001691 0.010647 0.000000 0.003564 0.000000
# 4 0.000000 0.000000 0.000000 0.056845 0.000000 -0.004343
# 5 -0.005547 0.005192 0.003564 0.000000 0.036930 0.000000
# 6 0.000000 0.000000 0.000000 -0.004343 0.000000 0.026007
#
#
# Mechanical properties :
#
#
# Convention : Reuss Voigt Hill
#
# Bulk Modulus (GPa) = 56.39220 59.79181 58.09200
# Shear Modulus (GPa) = 26.89928 31.03896 28.96912
#
# Velocity S-wave (km/s) = 3.61466 3.88285 3.75115
# Velocity P-wave (km/s) = 6.69420 7.01032 6.85408
#
# Compressibility (1/GPa) = 0.01773295
#
# Stress axis : x y z
#
# Youngs Moduli (GPa) = 85.52846 60.16991 93.91935
#
# Poissons Ratio (x) = 0.36241 0.27225
# Poissons Ratio (y) = 0.51514 0.15884
# Poissons Ratio (z) = 0.24793 0.10176
#
# Static dielectric constant tensor:
#      x y z
#    x 3.894720 0.000000 0.144190 
#    y 0.000000 3.728670 0.000000 
#    z 0.144190 0.000000 3.673180 
# 
# 
# High freq. dielectric constant tensor:
#      x y z
#    x 1.819240 0.000000 0.009650 
#    y 0.000000 1.801120 0.000000 
#    z 0.009650 0.000000 1.797220 
# 
# From -- ./inp_files/31437.got.cif
#   From: 2010.03.12/outbox.cif.g09.slc.cpg/sg5_16_cif.got.tgz:31437.got - 2010.03.31 09:47:26.
