data_PCOD8049942
_publ_section_title
;
Structure prediction by ZEFSAII (Michael W. Deem and Ramdas Pophale) SiO2 
 PCOD8049942
Probable space group: C 2
;
_chemical_formula_sum "Si O2"
_cell_formula_units_Z 32
_cell_length_a 13.633058
_cell_length_b 13.533295
_cell_length_c 8.732159
_cell_angle_alpha 90.000000
_cell_angle_beta 102.173318
_cell_angle_gamma 90.000000
_cell_volume 1574.858508
_symmetry_space_group_name_H-M "C 2"
_symmetry_group_IT_number 5
_symmetry_cell_setting 'monoclinic'
loop_
_space_group_symop_operation_xyz
x,y,z
-x,y,-z
1/2+x,1/2+y,z
1/2-x,1/2+y,-z
loop_
_atom_site_type_symbol
_atom_site_label
_atom_site_fract_x
_atom_site_fract_y
_atom_site_fract_z
Si Si1 0.896837 0.138570 0.888317
Si Si2 0.928143 0.567968 0.606882
Si Si3 0.758674 0.969973 0.938107
Si Si4 0.103601 0.069652 0.455055
Si Si5 0.577992 0.095394 0.903036
Si Si6 0.269833 0.925450 0.417700
Si Si7 0.227010 0.754384 0.971888
Si Si8 0.745666 0.206243 0.335277
O O1 0.910382 0.125572 0.711245
O O2 0.855321 0.040182 0.958740
O O3 0.822951 0.229908 0.898923
O O4 0.000000 0.167402 0.000000
O O5 0.865902 0.470492 0.537756
O O6 0.856002 0.655785 0.638445
O O7 0.000000 0.611856 0.500000
O O8 0.009801 0.536633 0.759980
O O9 0.716307 0.951617 0.755128
O O10 0.791413 0.871895 0.039553
O O11 0.665948 0.022868 0.996092
O O12 0.158932 0.139776 0.594206
O O13 0.000000 0.038710 0.500000
O O14 0.167388 0.970669 0.450518
O O15 0.500000 0.133836 0.000000
O O16 0.633285 0.196132 0.864141
O O17 0.261616 0.808165 0.432886
O O18 0.241032 0.720067 0.151863
#
# Coordination Sequence:
#
# PCOD8049942 Si02
#       8
#     4   4   4   4   4   4   4   4
#     4  10  21  39  59  84 118 156 194 242 299 348
#     4  11  21  38  62  86 120 158 194 245 298 354
#     4   9  20  39  60  84 115 154 197 241 289 347
#     4  10  21  39  60  84 118 157 194 242 293 357
#     4  11  21  38  59  90 119 153 197 242 299 354
#     4   9  20  39  60  83 115 154 198 240 287 348
#     4  10  21  39  60  85 119 154 196 249 291 351
#     4  10  21  39  60  86 116 155 200 243 294 348
#
# _framework density 20.319286999999999
#
# number of rings (size 3 to 8) (size 9 to 14) (size 15 to 20)
#    0.000    2.000    2.500    0.750    1.750    2.000 
#    6.750    0.000    0.000    0.000    0.000    0.000 
#    0.000    0.000    0.000    0.000    0.000    0.000 
#
# Total GULP energy -198321.238391 kJ/mol
# GULP energy per Si atom -12395.077399 kJ/mol
# Density = 2.027304 g / cm^3
# Si number density = 20.319287 Si / 1000 Ang^3
#
#
#
# Elastic Constant Matrix: (Units=GPa)
#
#
# Indices 1 2 3 4 5 6 
#
# 1 131.3307 20.2985 22.5900 0.0000 -13.6162 0.0000
# 2 20.2985 94.2879 -2.3069 0.0000 -5.8855 0.0000
# 3 22.5900 -2.3069 42.4344 0.0000 -1.0084 0.0000
# 4 0.0000 0.0000 0.0000 26.3194 0.0000 -4.4743
# 5 -13.6162 -5.8855 -1.0084 0.0000 33.5187 0.0000
# 6 0.0000 0.0000 0.0000 -4.4743 0.0000 -7.0669
#
#
#
# Elastic Compliance Matrix: (Units=1/GPa)
#
#
# Indices 1 2 3 4 5 6 
#
# 1 0.009071 -0.001871 -0.004855 0.000000 0.003210 0.000000
# 2 -0.001871 0.011126 0.001631 0.000000 0.001243 0.000000
# 3 -0.004855 0.001631 0.026217 0.000000 -0.000897 0.000000
# 4 0.000000 0.000000 0.000000 0.034303 0.000000 -0.021718
# 5 0.003210 0.001243 -0.000897 0.000000 0.031329 0.000000
# 6 0.000000 0.000000 0.000000 -0.021718 0.000000 -0.127754
#
#
# Mechanical properties :
#
#
# Convention : Reuss Voigt Hill
#
# Bulk Modulus (GPa) = 27.60574 38.80179 33.20376
# Shear Modulus (GPa) = 762.31152 25.71900 394.01526
#
# Velocity S-wave (km/s) = 19.39023 3.56159 13.94033
# Velocity P-wave (km/s) = 22.69192 6.00422 16.59780
#
# Compressibility (1/GPa) = 0.03622435
#
# Stress axis : x y z
#
# Youngs Moduli (GPa) = 110.23547 89.87853 38.14247
#
# Poissons Ratio (x) = 0.16819 0.18517
# Poissons Ratio (y) = 0.20628 -0.06219
# Poissons Ratio (z) = 0.53516 -0.14655
#
# Static dielectric constant tensor:
#      x y z
#    x 3.748880 0.000000 0.028860 
#    y 0.000000 3.643900 0.000000 
#    z 0.028860 0.000000 5.387070 
# 
# 
# High freq. dielectric constant tensor:
#      x y z
#    x 1.806540 0.000000 -0.005040 
#    y 0.000000 1.779860 0.000000 
#    z -0.005040 0.000000 1.787360 
# 
# From -- ./inp_files/20674.got.cif
#   From: 2010.03.12/outbox.cif.g09.slc.cpg/sg5_11_cif.got.tgz:20674.got - 2010.03.31 09:47:26.
