data_PCOD8049338
_publ_section_title
;
Structure prediction by ZEFSAII (Michael W. Deem and Ramdas Pophale) SiO2 
 PCOD8049338
Probable space group: C 2
;
_chemical_formula_sum "Si O2"
_cell_formula_units_Z 24
_cell_length_a 12.968938
_cell_length_b 7.507185
_cell_length_c 12.680531
_cell_angle_alpha 90.000000
_cell_angle_beta 118.564887
_cell_angle_gamma 90.000000
_cell_volume 1084.301534
_symmetry_space_group_name_H-M "C 2"
_symmetry_group_IT_number 5
_symmetry_cell_setting 'monoclinic'
loop_
_space_group_symop_operation_xyz
x,y,z
-x,y,-z
1/2+x,1/2+y,z
1/2-x,1/2+y,-z
loop_
_atom_site_type_symbol
_atom_site_label
_atom_site_fract_x
_atom_site_fract_y
_atom_site_fract_z
Si Si1 0.500000 0.005471 0.500000
Si Si2 0.649473 0.234642 0.847013
Si Si3 0.098804 0.653296 0.338087
Si Si4 0.748980 0.924398 0.674076
Si Si5 0.299005 0.416115 0.921258
Si Si6 0.179488 0.317678 0.243861
Si Si7 0.500000 0.678365 0.000000
O O1 0.557013 0.124275 0.436437
O O2 0.607850 0.893749 0.601873
O O3 0.509287 0.242734 0.778995
O O4 0.712980 0.354524 0.786847
O O5 0.678980 0.026938 0.844824
O O6 0.706047 0.274010 0.989060
O O7 0.197161 0.807184 0.393919
O O8 0.157125 0.475955 0.315462
O O9 0.809089 0.832736 0.808665
O O10 0.787797 0.131630 0.681545
O O11 0.401641 0.552778 0.003477
O O12 0.057964 0.299107 0.119138
#
# Coordination Sequence:
#
# PCOD8049338 Si02
#       7
#     2   4   4   4   4   4   2
#     4  12  26  50  68 100 138 172 246 286 316 420
#     4  10  22  40  65 105 137 173 224 279 332 418
#     4  12  26  46  74  94 136 186 224 288 344 387
#     4  10  25  48  65 101 139 176 229 283 336 404
#     4  10  20  38  62  99 140 172 218 278 335 407
#     4  10  23  43  66 105 135 177 227 274 341 406
#     4   8  18  36  62  94 142 168 214 276 328 416
#
# _framework density 22.134065
#
# number of rings (size 3 to 8) (size 9 to 14) (size 15 to 20)
#    0.000    2.000    3.333    2.000    9.333    0.000 
#    3.000    1.667    0.000    0.000    0.000    0.000 
#    0.000    0.000    0.000    0.000    0.000    0.000 
#
# Total GULP energy -148664.002245 kJ/mol
# GULP energy per Si atom -12388.666854 kJ/mol
# Density = 2.208369 g / cm^3
# Si number density = 22.134065 Si / 1000 Ang^3
#
#
#
# Elastic Constant Matrix: (Units=GPa)
#
#
# Indices 1 2 3 4 5 6 
#
# 1 137.3064 56.9831 55.1111 0.0000 -2.7929 0.0000
# 2 56.9831 70.0301 39.5769 0.0000 -5.1366 0.0000
# 3 55.1111 39.5769 93.6065 0.0000 -7.7014 0.0000
# 4 0.0000 0.0000 0.0000 20.3887 0.0000 -9.8704
# 5 -2.7929 -5.1366 -7.7014 0.0000 40.8045 0.0000
# 6 0.0000 0.0000 0.0000 -9.8704 0.0000 31.0013
#
#
#
# Elastic Compliance Matrix: (Units=1/GPa)
#
#
# Indices 1 2 3 4 5 6 
#
# 1 0.011996 -0.007612 -0.003916 0.000000 -0.000876 0.000000
# 2 -0.007612 0.023624 -0.005388 0.000000 0.001436 0.000000
# 3 -0.003916 -0.005388 0.015429 0.000000 0.001966 0.000000
# 4 0.000000 0.000000 0.000000 0.057984 0.000000 0.018461
# 5 -0.000876 0.001436 0.001966 0.000000 0.024999 0.000000
# 6 0.000000 0.000000 0.000000 0.018461 0.000000 0.038135
#
#
# Mechanical properties :
#
#
# Convention : Reuss Voigt Hill
#
# Bulk Modulus (GPa) = 58.08915 67.14280 62.61597
# Shear Modulus (GPa) = 23.61392 28.39035 26.00214
#
# Velocity S-wave (km/s) = 3.26982 3.58530 3.43119
# Velocity P-wave (km/s) = 6.36843 6.89490 6.63689
#
# Compressibility (1/GPa) = 0.01721492
#
# Stress axis : x y z
#
# Youngs Moduli (GPa) = 83.35949 42.32965 64.81372
#
# Poissons Ratio (x) = 0.32222 0.25384
# Poissons Ratio (y) = 0.63455 0.34925
# Poissons Ratio (z) = 0.32648 0.22809
#
# Static dielectric constant tensor:
#      x y z
#    x 4.269380 0.000000 0.144570 
#    y 0.000000 3.579360 0.000000 
#    z 0.144570 0.000000 4.148820 
# 
# 
# High freq. dielectric constant tensor:
#      x y z
#    x 1.883270 0.000000 0.005390 
#    y 0.000000 1.835690 0.000000 
#    z 0.005390 0.000000 1.875580 
# 
# From -- ./inp_files/38449.got.cif
#   From: 2010.03.12/outbox.cif.g09.slc.cpg/sg5_20_cif.got.tgz:38449.got - 2010.03.31 09:47:26.
