data_PCOD8049944
_publ_section_title
;
Structure prediction by ZEFSAII (Michael W. Deem and Ramdas Pophale) SiO2 
 PCOD8049944
Probable space group: C 2
;
_chemical_formula_sum "Si O2"
_cell_formula_units_Z 28
_cell_length_a 5.190643
_cell_length_b 30.935569
_cell_length_c 8.618204
_cell_angle_alpha 90.000000
_cell_angle_beta 115.781853
_cell_angle_gamma 90.000000
_cell_volume 1246.116975
_symmetry_space_group_name_H-M "C 2"
_symmetry_group_IT_number 5
_symmetry_cell_setting 'monoclinic'
loop_
_space_group_symop_operation_xyz
x,y,z
-x,y,-z
1/2+x,1/2+y,z
1/2-x,1/2+y,-z
loop_
_atom_site_type_symbol
_atom_site_label
_atom_site_fract_x
_atom_site_fract_y
_atom_site_fract_z
Si Si1 0.872805 0.713350 0.798020
Si Si2 0.378718 0.857888 0.694828
Si Si3 0.249561 0.032715 0.688744
Si Si4 0.867667 0.261875 0.794087
Si Si5 0.857394 0.987273 0.805132
Si Si6 0.375896 0.395603 0.690250
Si Si7 0.173397 0.627263 0.385470
O O1 0.542990 0.728295 0.729604
O O2 0.932012 0.664981 0.754551
O O3 0.043179 0.744930 0.725294
O O4 0.000000 0.716781 0.000000
O O5 0.362252 0.806548 0.700531
O O6 0.705167 0.874585 0.790367
O O7 0.249693 0.875600 0.500354
O O8 0.204757 0.880221 0.790146
O O9 0.358231 0.081910 0.712085
O O10 0.000000 0.023009 0.500000
O O11 0.531893 0.003816 0.736937
O O12 0.085435 0.023556 0.807150
O O13 0.000000 0.267691 0.000000
O O14 0.851052 0.947463 0.683090
O O15 0.000000 0.970105 0.000000
O O16 0.500000 0.637969 0.500000
O O17 0.000000 0.625382 0.500000
#
# Coordination Sequence:
#
# PCOD8049944 Si02
#       7
#     4   4   4   4   4   4   4
#     4  10  22  41  65  94 132 173 209 262 333 387
#     4  10  21  39  59  87 126 166 224 262 329 390
#     4  11  25  44  72  95 136 181 220 272 337 399
#     4  10  21  39  62  91 127 170 218 269 325 389
#     4  12  26  43  67 103 136 172 226 283 335 397
#     4  10  23  39  58  90 126 163 222 266 331 391
#     4  11  23  45  64 102 132 167 221 269 316 390
#
# _framework density 22.469802999999999
#
# number of rings (size 3 to 8) (size 9 to 14) (size 15 to 20)
#    0.000    1.429    0.000    5.143    6.000    2.286 
#   15.429    1.429    0.000    0.000    0.000    0.000 
#    0.000    0.000    0.000    0.000    0.000    0.000 
#
# Total GULP energy -173518.471585 kJ/mol
# GULP energy per Si atom -12394.176542 kJ/mol
# Density = 2.241866 g / cm^3
# Si number density = 22.469803 Si / 1000 Ang^3
#
#
#
# Elastic Constant Matrix: (Units=GPa)
#
#
# Indices 1 2 3 4 5 6 
#
# 1 221.4486 65.1918 25.9509 0.0000 -5.5872 0.0000
# 2 65.1918 151.4306 39.3240 0.0000 -6.2530 0.0000
# 3 25.9509 39.3240 35.8761 0.0000 -7.3548 0.0000
# 4 0.0000 0.0000 0.0000 24.5878 0.0000 -5.2962
# 5 -5.5872 -6.2530 -7.3548 0.0000 23.5792 0.0000
# 6 0.0000 0.0000 0.0000 -5.2962 0.0000 46.9699
#
#
#
# Elastic Compliance Matrix: (Units=1/GPa)
#
#
# Indices 1 2 3 4 5 6 
#
# 1 0.005258 -0.001787 -0.001801 0.000000 0.000210 0.000000
# 2 -0.001787 0.009851 -0.009675 0.000000 -0.000829 0.000000
# 3 -0.001801 -0.009675 0.041844 0.000000 0.010059 0.000000
# 4 0.000000 0.000000 0.000000 0.041683 0.000000 0.004700
# 5 0.000210 -0.000829 0.010059 0.000000 0.045378 0.000000
# 6 0.000000 0.000000 0.000000 0.004700 0.000000 0.021820
#
#
# Mechanical properties :
#
#
# Convention : Reuss Voigt Hill
#
# Bulk Modulus (GPa) = 32.86686 74.40985 53.63835
# Shear Modulus (GPa) = 24.69077 37.57997 31.13537
#
# Velocity S-wave (km/s) = 3.31848 4.09402 3.72648
# Velocity P-wave (km/s) = 5.41682 7.45220 6.51449
#
# Compressibility (1/GPa) = 0.03042579
#
# Stress axis : x y z
#
# Youngs Moduli (GPa) = 190.17665 101.50848 23.89817
#
# Poissons Ratio (x) = 0.18142 0.04305
# Poissons Ratio (y) = 0.33989 0.23122
# Poissons Ratio (z) = 0.34260 0.98213
#
# Static dielectric constant tensor:
#      x y z
#    x 5.566340 0.000000 -0.254980 
#    y 0.000000 4.026890 0.000000 
#    z -0.254980 0.000000 3.700930 
# 
# 
# High freq. dielectric constant tensor:
#      x y z
#    x 1.923700 0.000000 -0.005330 
#    y 0.000000 1.890850 0.000000 
#    z -0.005330 0.000000 1.853990 
# 
# From -- ./inp_files/13393.got.cif
#   From: 2010.03.12/outbox.cif.g09.slc.cpg/sg5_7_cif.got.tgz:13393.got - 2010.03.31 09:47:26.
