data_PCOD8049468
_publ_section_title
;
Structure prediction by ZEFSAII (Michael W. Deem and Ramdas Pophale) SiO2 
 PCOD8049468
Probable space group: C 2
;
_chemical_formula_sum "Si O2"
_cell_formula_units_Z 30
_cell_length_a 15.322485
_cell_length_b 11.637564
_cell_length_c 15.099215
_cell_angle_alpha 90.000000
_cell_angle_beta 143.138362
_cell_angle_gamma 90.000000
_cell_volume 1615.152069
_symmetry_space_group_name_H-M "C 2"
_symmetry_group_IT_number 5
_symmetry_cell_setting 'monoclinic'
loop_
_space_group_symop_operation_xyz
x,y,z
-x,y,-z
1/2+x,1/2+y,z
1/2-x,1/2+y,-z
loop_
_atom_site_type_symbol
_atom_site_label
_atom_site_fract_x
_atom_site_fract_y
_atom_site_fract_z
Si Si1 0.500000 0.390880 0.500000
Si Si2 0.014130 0.599323 0.257065
Si Si3 0.721331 0.535124 0.942624
Si Si4 0.819769 0.099323 0.409884
Si Si5 0.395780 0.703543 0.291558
Si Si6 0.652785 0.599322 0.076393
Si Si7 0.921471 0.463380 0.342905
Si Si8 0.857273 0.799463 0.214509
O O1 0.371417 0.469038 0.436105
O O2 0.436130 0.309304 0.372831
O O3 0.166847 0.599323 0.333423
O O4 0.025802 0.531357 0.359536
O O5 0.963149 0.729940 0.234231
O O6 0.895185 0.536671 0.098300
O O7 0.676372 0.649098 0.853317
O O8 0.675320 0.424003 0.850640
O O9 0.639651 0.536246 0.970826
O O10 0.805879 0.164068 0.305028
O O11 0.936162 0.164861 0.565596
O O12 0.386355 0.839566 0.273280
O O13 0.770190 0.531861 0.231902
O O14 0.707112 0.729861 0.105749
O O15 0.500000 0.599322 0.000000
O O16 0.000000 0.449963 0.500000
#
# Coordination Sequence:
#
# PCOD8049468 Si02
#       8
#     2   4   4   4   4   4   4   4
#     4  10  20  40  62  84 124 156 192 244 294 344
#     4  10  26  34  61  92 118 151 203 241 292 353
#     4  10  21  42  62  82 125 158 191 242 299 346
#     4  10  20  40  55  98 112 151 209 238 286 344
#     4  10  20  40  62  84 124 156 192 244 294 344
#     4  10  26  40  61  92 118 154 200 241 292 353
#     4  10  21  42  62  82 125 158 191 242 299 346
#     4  10  21  42  62  82 125 158 191 242 299 346
#
# _framework density 18.574103000000001
#
# number of rings (size 3 to 8) (size 9 to 14) (size 15 to 20)
#    0.000    2.400    4.000    0.000   11.200    4.800 
#    0.000    0.000    0.000    0.000    0.000    0.000 
#    0.000    0.000    0.000    0.000    0.000    0.000 
#
# Total GULP energy -186005.420027 kJ/mol
# GULP energy per Si atom -12400.361335 kJ/mol
# Density = 1.853183 g / cm^3
# Si number density = 18.574103 Si / 1000 Ang^3
#
#
#
# Elastic Constant Matrix: (Units=GPa)
#
#
# Indices 1 2 3 4 5 6 
#
# 1 135.9337 37.4507 71.2518 0.0000 39.5440 0.0000
# 2 37.4507 103.3159 36.2675 0.0000 -0.1182 0.0000
# 3 71.2518 36.2675 92.1889 0.0000 -0.2769 0.0000
# 4 0.0000 0.0000 0.0000 26.9243 0.0000 -10.4799
# 5 39.5440 -0.1182 -0.2769 0.0000 44.0163 0.0000
# 6 0.0000 0.0000 0.0000 -10.4799 0.0000 16.2164
#
#
#
# Elastic Compliance Matrix: (Units=1/GPa)
#
#
# Indices 1 2 3 4 5 6 
#
# 1 0.022751 -0.002409 -0.016698 0.000000 -0.020551 0.000000
# 2 -0.002409 0.011485 -0.002650 0.000000 0.002178 0.000000
# 3 -0.016698 -0.002650 0.024841 0.000000 0.015151 0.000000
# 4 0.000000 0.000000 0.000000 0.049624 0.000000 0.032070
# 5 -0.020551 0.002178 0.015151 0.000000 0.041283 0.000000
# 6 0.000000 0.000000 0.000000 0.032070 0.000000 0.082391
#
#
# Mechanical properties :
#
#
# Convention : Reuss Voigt Hill
#
# Bulk Modulus (GPa) = 64.25362 69.04206 66.64784
# Shear Modulus (GPa) = 17.78870 29.86264 23.82567
#
# Velocity S-wave (km/s) = 3.09805 4.01403 3.58542
# Velocity P-wave (km/s) = 6.88952 7.66388 7.28700
#
# Compressibility (1/GPa) = 0.01556333
#
# Stress axis : x y z
#
# Youngs Moduli (GPa) = 43.95349 87.07059 40.25573
#
# Poissons Ratio (x) = 0.20974 0.67220
# Poissons Ratio (y) = 0.10588 0.10667
# Poissons Ratio (z) = 0.73395 0.23073
#
# Static dielectric constant tensor:
#      x y z
#    x 3.221530 0.000000 -0.153040 
#    y 0.000000 3.485780 0.000000 
#    z -0.153040 0.000000 3.397150 
# 
# 
# High freq. dielectric constant tensor:
#      x y z
#    x 1.706870 0.000000 -0.014960 
#    y 0.000000 1.732690 0.000000 
#    z -0.014960 0.000000 1.724030 
# 
# From -- ./inp_files/62333.got.cif
#   From: 2010.03.12/outbox.cif.g09.slc.cpg/sg5_32_cif.got.tgz:62333.got - 2010.03.31 09:47:26.
