data_PCOD8049236
_publ_section_title
;
Structure prediction by ZEFSAII (Michael W. Deem and Ramdas Pophale) SiO2 
 PCOD8049236
Probable space group: C 2
;
_chemical_formula_sum "Si O2"
_cell_formula_units_Z 32
_cell_length_a 12.859644
_cell_length_b 13.550364
_cell_length_c 9.350280
_cell_angle_alpha 90.000000
_cell_angle_beta 99.749091
_cell_angle_gamma 90.000000
_cell_volume 1605.783681
_symmetry_space_group_name_H-M "C 2"
_symmetry_group_IT_number 5
_symmetry_cell_setting 'monoclinic'
loop_
_space_group_symop_operation_xyz
x,y,z
-x,y,-z
1/2+x,1/2+y,z
1/2-x,1/2+y,-z
loop_
_atom_site_type_symbol
_atom_site_label
_atom_site_fract_x
_atom_site_fract_y
_atom_site_fract_z
Si Si1 0.788553 0.907630 0.424898
Si Si2 0.270927 0.126158 0.121201
Si Si3 0.700860 0.595923 0.409709
Si Si4 0.487431 0.162183 0.839339
Si Si5 0.395459 0.794762 0.909664
Si Si6 0.091688 0.291898 0.414558
Si Si7 0.896015 0.718378 0.541678
Si Si8 0.176791 0.496647 0.125108
O O1 0.690787 0.857905 0.486648
O O2 0.873353 0.818235 0.444609
O O3 0.757563 0.951651 0.262520
O O4 0.836678 0.994499 0.530200
O O5 0.216594 0.075074 0.245138
O O6 0.393720 0.142868 0.188790
O O7 0.208260 0.229110 0.088352
O O8 0.257371 0.061650 0.974278
O O9 0.610292 0.674661 0.423970
O O10 0.806436 0.636233 0.508588
O O11 0.423225 0.234957 0.717427
O O12 0.419544 0.060664 0.832693
O O13 0.500000 0.210697 0.000000
O O14 0.427633 0.817985 0.754142
O O15 0.371467 0.902682 0.971037
O O16 0.500000 0.744942 0.000000
O O17 0.000000 0.322686 0.500000
O O18 0.000000 0.668903 0.500000
#
# Coordination Sequence:
#
# PCOD8049236 Si02
#       8
#     4   4   4   4   4   4   4   4
#     4  10  22  37  57  90 120 151 206 248 302 358
#     4  10  21  38  62  88 121 158 204 252 300 362
#     4  10  20  38  57  85 117 152 204 249 299 360
#     4  10  20  37  62  89 120 155 205 250 304 361
#     4  10  21  39  60  86 122 160 198 246 307 362
#     4   9  21  37  57  82 118 154 195 248 295 363
#     4  11  21  38  61  85 122 163 198 254 308 359
#     4  10  21  39  61  91 121 158 204 252 302 366
#
# _framework density 19.927965
#
# number of rings (size 3 to 8) (size 9 to 14) (size 15 to 20)
#    0.000    2.000    2.500    1.875    0.000    5.000 
#    6.750    1.250    0.000    0.000    0.000    0.000 
#    0.000    0.000    0.000    0.000    0.000    0.000 
#
# Total GULP energy -198228.644649 kJ/mol
# GULP energy per Si atom -12389.290291 kJ/mol
# Density = 1.988261 g / cm^3
# Si number density = 19.927965 Si / 1000 Ang^3
#
#
#
# Elastic Constant Matrix: (Units=GPa)
#
#
# Indices 1 2 3 4 5 6 
#
# 1 52.9047 12.7451 28.4097 0.0000 3.0314 0.0000
# 2 12.7451 81.4738 35.1474 0.0000 4.4871 0.0000
# 3 28.4097 35.1474 81.6238 0.0000 3.5941 0.0000
# 4 0.0000 0.0000 0.0000 34.7929 0.0000 8.2667
# 5 3.0314 4.4871 3.5941 0.0000 30.5338 0.0000
# 6 0.0000 0.0000 0.0000 8.2667 0.0000 18.3747
#
#
#
# Elastic Compliance Matrix: (Units=1/GPa)
#
#
# Indices 1 2 3 4 5 6 
#
# 1 0.023304 -0.000120 -0.008000 0.000000 -0.001354 0.000000
# 2 -0.000120 0.015140 -0.006413 0.000000 -0.001458 0.000000
# 3 -0.008000 -0.006413 0.017813 0.000000 -0.000360 0.000000
# 4 0.000000 0.000000 0.000000 0.032182 0.000000 -0.014478
# 5 -0.001354 -0.001458 -0.000360 0.000000 0.033142 0.000000
# 6 0.000000 0.000000 0.000000 -0.014478 0.000000 0.060936
#
#
# Mechanical properties :
#
#
# Convention : Reuss Voigt Hill
#
# Bulk Modulus (GPa) = 36.77681 40.95629 38.86655
# Shear Modulus (GPa) = 22.66068 26.05361 24.35715
#
# Velocity S-wave (km/s) = 3.37579 3.61971 3.49988
# Velocity P-wave (km/s) = 5.80427 6.16980 5.98983
#
# Compressibility (1/GPa) = 0.02719104
#
# Stress axis : x y z
#
# Youngs Moduli (GPa) = 42.91045 66.05216 56.13813
#
# Poissons Ratio (x) = 0.00791 0.44911
# Poissons Ratio (y) = 0.00514 0.36003
# Poissons Ratio (z) = 0.34328 0.42361
#
# Static dielectric constant tensor:
#      x y z
#    x 3.607530 0.000000 0.180220 
#    y 0.000000 3.554790 0.000000 
#    z 0.180220 0.000000 3.723600 
# 
# 
# High freq. dielectric constant tensor:
#      x y z
#    x 1.766100 0.000000 0.008870 
#    y 0.000000 1.765980 0.000000 
#    z 0.008870 0.000000 1.778470 
# 
# From -- ./inp_files/20646.got.cif
#   From: 2010.03.12/outbox.cif.g09.slc.cpg/sg5_11_cif.got.tgz:20646.got - 2010.03.31 09:47:26.
