data_PCOD8049001
_publ_section_title
;
Structure prediction by ZEFSAII (Michael W. Deem and Ramdas Pophale) SiO2 
 PCOD8049001
Probable space group: C 2
;
_chemical_formula_sum "Si O2"
_cell_formula_units_Z 20
_cell_length_a 21.637908
_cell_length_b 4.876627
_cell_length_c 9.969483
_cell_angle_alpha 90.000000
_cell_angle_beta 107.720576
_cell_angle_gamma 90.000000
_cell_volume 1002.065815
_symmetry_space_group_name_H-M "C 2"
_symmetry_group_IT_number 5
_symmetry_cell_setting 'monoclinic'
loop_
_space_group_symop_operation_xyz
x,y,z
-x,y,-z
1/2+x,1/2+y,z
1/2-x,1/2+y,-z
loop_
_atom_site_type_symbol
_atom_site_label
_atom_site_fract_x
_atom_site_fract_y
_atom_site_fract_z
Si Si1 0.051999 0.487190 0.138980
Si Si2 0.967497 0.416536 0.339862
Si Si3 0.113633 0.908412 0.778679
Si Si4 0.874976 0.967151 0.904672
Si Si5 0.753671 0.694483 0.094435
O O1 0.110094 0.712846 0.186284
O O2 0.023145 0.416493 0.264586
O O3 0.075270 0.205299 0.092530
O O4 0.000000 0.613178 0.000000
O O5 0.938473 0.720111 0.330713
O O6 0.000000 0.329238 0.500000
O O7 0.906583 0.218432 0.267831
O O8 0.186691 0.824858 0.780739
O O9 0.113504 0.858389 0.937573
O O10 0.801376 0.079939 0.840457
O O11 0.777216 0.437722 0.017664
#
# Coordination Sequence:
#
# PCOD8049001 Si02
#       5
#     4   4   4   4   4
#     4  12  21  36  59  86 124 152 189 250 296 342
#     4  12  25  38  57  86 122 163 197 233 295 360
#     4  11  20  38  59  84 122 153 194 248 289 350
#     4  11  20  35  60  91 116 148 195 247 302 342
#     4  10  20  34  57  92 122 151 191 249 306 346
#
# _framework density 19.958767000000002
#
# number of rings (size 3 to 8) (size 9 to 14) (size 15 to 20)
#    0.000    0.800    4.000    7.200    0.000    0.000 
#    0.000    0.000    0.000    4.800    0.000    2.800 
#    0.000    0.000    0.000    0.000    0.000    0.000 
#
# Total GULP energy -123979.788428 kJ/mol
# GULP energy per Si atom -12397.978843 kJ/mol
# Density = 1.991334 g / cm^3
# Si number density = 19.958767 Si / 1000 Ang^3
#
#
#
# Elastic Constant Matrix: (Units=GPa)
#
#
# Indices 1 2 3 4 5 6 
#
# 1 119.6012 36.7386 58.7993 0.0000 -3.4464 0.0000
# 2 36.7386 105.6146 16.0458 0.0000 -3.7603 0.0000
# 3 58.7993 16.0458 63.2945 0.0000 -0.3329 0.0000
# 4 0.0000 0.0000 0.0000 18.3682 0.0000 7.1172
# 5 -3.4464 -3.7603 -0.3329 0.0000 16.3518 0.0000
# 6 0.0000 0.0000 0.0000 7.1172 0.0000 52.9117
#
#
#
# Elastic Compliance Matrix: (Units=1/GPa)
#
#
# Indices 1 2 3 4 5 6 
#
# 1 0.016682 -0.003499 -0.014598 0.000000 0.002414 0.000000
# 2 -0.003499 0.010662 0.000557 0.000000 0.001726 0.000000
# 3 -0.014598 0.000557 0.029206 0.000000 -0.002354 0.000000
# 4 0.000000 0.000000 0.000000 0.057435 0.000000 -0.007726
# 5 0.002414 0.001726 -0.002354 0.000000 0.062013 0.000000
# 6 0.000000 0.000000 0.000000 -0.007726 0.000000 0.019939
#
#
# Mechanical properties :
#
#
# Convention : Reuss Voigt Hill
#
# Bulk Modulus (GPa) = 46.57450 56.85307 51.71379
# Shear Modulus (GPa) = 20.99295 29.32144 25.15720
#
# Velocity S-wave (km/s) = 3.24669 3.83704 3.55415
# Velocity P-wave (km/s) = 6.11888 6.94101 6.54287
#
# Compressibility (1/GPa) = 0.02147098
#
# Stress axis : x y z
#
# Youngs Moduli (GPa) = 59.94440 93.78680 34.23901
#
# Poissons Ratio (x) = 0.32818 0.49981
# Poissons Ratio (y) = 0.20976 -0.01906
# Poissons Ratio (z) = 0.87504 -0.05222
#
# Static dielectric constant tensor:
#      x y z
#    x 3.980690 0.000000 -0.009790 
#    y 0.000000 3.859470 0.000000 
#    z -0.009790 0.000000 3.081830 
# 
# 
# High freq. dielectric constant tensor:
#      x y z
#    x 1.791210 0.000000 0.005320 
#    y 0.000000 1.808760 0.000000 
#    z 0.005320 0.000000 1.707050 
# 
# From -- ./inp_files/28164.got.cif
#   From: 2010.03.12/outbox.cif.g09.slc.cpg/sg5_15_cif.got.tgz:28164.got - 2010.03.31 09:47:26.
