data_PCOD8049532
_publ_section_title
;
Structure prediction by ZEFSAII (Michael W. Deem and Ramdas Pophale) SiO2 
 PCOD8049532
Probable space group: C 2
;
_chemical_formula_sum "Si O2"
_cell_formula_units_Z 30
_cell_length_a 8.824256
_cell_length_b 11.620488
_cell_length_c 28.136149
_cell_angle_alpha 90.000000
_cell_angle_beta 30.287446
_cell_angle_gamma 90.000000
_cell_volume 1455.087757
_symmetry_space_group_name_H-M "C 2"
_symmetry_group_IT_number 5
_symmetry_cell_setting 'monoclinic'
loop_
_space_group_symop_operation_xyz
x,y,z
-x,y,-z
1/2+x,1/2+y,z
1/2-x,1/2+y,-z
loop_
_atom_site_type_symbol
_atom_site_label
_atom_site_fract_x
_atom_site_fract_y
_atom_site_fract_z
Si Si1 0.500000 0.790140 0.500000
Si Si2 0.252009 0.026295 0.225740
Si Si3 0.733282 0.669181 0.034383
Si Si4 0.807812 0.008003 0.428194
Si Si5 0.738214 0.996192 0.171722
Si Si6 0.949891 0.759788 0.143391
Si Si7 0.819666 0.820993 0.820004
Si Si8 0.302019 0.154617 0.339409
O O1 0.739169 0.710020 0.407539
O O2 0.708888 0.879612 0.474903
O O3 0.569532 0.015519 0.167395
O O4 0.219377 0.160775 0.222341
O O5 0.987861 0.984334 0.331060
O O6 0.221810 0.952463 0.185561
O O7 0.579008 0.543008 0.074197
O O8 0.474534 0.757282 0.120522
O O9 0.000000 0.671168 0.000000
O O10 0.839867 0.703897 0.953328
O O11 0.500000 0.077128 0.500000
O O12 0.993131 0.087771 0.412989
O O13 0.568634 0.059843 0.262025
O O14 0.742860 0.860780 0.179238
O O15 0.156449 0.812459 0.129562
O O16 0.118221 0.759073 0.718096
#
# Coordination Sequence:
#
# PCOD8049532 Si02
#       8
#     2   4   4   4   4   4   4   4
#     4  10  20  40  66  92 132 174 210 270 330 380
#     4  11  22  45  68  92 134 179 212 277 341 387
#     4  11  25  43  65  99 133 177 224 282 329 394
#     4   9  19  40  63  95 128 166 217 266 327 394
#     4  10  25  46  65  95 139 170 228 273 331 411
#     4  12  25  43  68  98 130 174 226 272 337 391
#     4  11  22  43  71  91 137 172 222 276 333 402
#     4  10  20  45  64  96 133 171 216 271 329 396
#
# _framework density 20.617312999999999
#
# number of rings (size 3 to 8) (size 9 to 14) (size 15 to 20)
#    0.400    1.067    5.333    1.200    3.733    0.000 
#    9.600    0.000    0.000    0.000    0.000    0.000 
#    0.000    0.000    0.000    0.000    0.000    0.000 
#
# Total GULP energy -185838.862645 kJ/mol
# GULP energy per Si atom -12389.257510 kJ/mol
# Density = 2.057039 g / cm^3
# Si number density = 20.617313 Si / 1000 Ang^3
#
#
#
# Elastic Constant Matrix: (Units=GPa)
#
#
# Indices 1 2 3 4 5 6 
#
# 1 85.4482 32.7263 32.0250 -0.0576 0.6908 0.0530
# 2 32.7263 137.3187 24.4306 0.0094 0.9903 0.0374
# 3 32.0250 24.4306 80.7026 -0.2576 -3.1792 0.0479
# 4 -0.0576 0.0094 -0.2576 18.7349 -0.1674 4.3602
# 5 0.6908 0.9903 -3.1792 -0.1674 29.7813 -0.0479
# 6 0.0530 0.0374 0.0479 4.3602 -0.0479 32.4513
#
#
#
# Elastic Compliance Matrix: (Units=1/GPa)
#
#
# Indices 1 2 3 4 5 6 
#
# 1 0.014584 -0.002573 -0.005039 -0.000028 -0.000791 -0.000011
# 2 -0.002573 0.008159 -0.001463 -0.000036 -0.000368 0.000001
# 3 -0.005039 -0.001463 0.014904 0.000215 0.001758 -0.000038
# 4 -0.000028 -0.000036 0.000215 0.055105 0.000323 -0.007404
# 5 -0.000791 -0.000368 0.001758 0.000323 0.033798 0.000006
# 6 -0.000011 0.000001 -0.000038 -0.007404 0.000006 0.031810
#
#
# Mechanical properties :
#
#
# Convention : Reuss Voigt Hill
#
# Bulk Modulus (GPa) = 51.29754 53.53704 52.41729
# Shear Modulus (GPa) = 27.32096 30.47935 28.90016
#
# Velocity S-wave (km/s) = 3.64421 3.84909 3.74805
# Velocity P-wave (km/s) = 6.53007 6.76590 6.64903
#
# Compressibility (1/GPa) = 0.01949411
#
# Stress axis : x y z
#
# Youngs Moduli (GPa) = 68.56982 122.56999 67.09676
#
# Poissons Ratio (x) = 0.31542 0.33813
# Poissons Ratio (y) = 0.17645 0.09818
# Poissons Ratio (z) = 0.34555 0.17935
#
# Static dielectric constant tensor:
#      x y z
#    x 3.424140 0.000000 -0.010980 
#    y 0.000000 3.852040 0.000020 
#    z -0.010980 0.000020 3.806810 
# 
# 
# High freq. dielectric constant tensor:
#      x y z
#    x 1.775260 0.000000 -0.001440 
#    y 0.000000 1.816720 0.000000 
#    z -0.001440 0.000000 1.810840 
# 
# From -- ./inp_files/71555.got.cif
#   From: 2010.03.12/outbox.cif.g09.slc.cpg/sg5_36_cif.got.tgz:71555.got - 2010.03.31 09:47:26.
