data_PCOD8049775
_publ_section_title
;
Structure prediction by ZEFSAII (Michael W. Deem and Ramdas Pophale) SiO2 
 PCOD8049775
Probable space group: C 2
;
_chemical_formula_sum "Si O2"
_cell_formula_units_Z 28
_cell_length_a 14.572024
_cell_length_b 8.638700
_cell_length_c 12.166275
_cell_angle_alpha 90.000000
_cell_angle_beta 66.441157
_cell_angle_gamma 90.000000
_cell_volume 1403.878351
_symmetry_space_group_name_H-M "C 2"
_symmetry_group_IT_number 5
_symmetry_cell_setting 'monoclinic'
loop_
_space_group_symop_operation_xyz
x,y,z
-x,y,-z
1/2+x,1/2+y,z
1/2-x,1/2+y,-z
loop_
_atom_site_type_symbol
_atom_site_label
_atom_site_fract_x
_atom_site_fract_y
_atom_site_fract_z
Si Si1 0.392002 0.323180 0.236678
Si Si2 0.254347 0.883967 0.240839
Si Si3 0.385352 0.114052 0.043450
Si Si4 0.594580 0.171344 0.208362
Si Si5 0.221651 0.596542 0.575305
Si Si6 0.018423 0.421434 0.617585
Si Si7 0.620340 0.661621 0.688034
O O1 0.375089 0.275395 0.117039
O O2 0.485793 0.232108 0.236309
O O3 0.299755 0.261990 0.355390
O O4 0.415593 0.502940 0.239838
O O5 0.155151 0.800529 0.245510
O O6 0.335705 0.755483 0.231439
O O7 0.306474 0.990258 0.125341
O O8 0.224791 0.983036 0.362716
O O9 0.500000 0.052218 0.000000
O O10 0.352026 0.137609 0.933420
O O11 0.577646 0.014699 0.287968
O O12 0.120412 0.517932 0.580417
O O13 0.294546 0.629006 0.441327
O O14 0.028981 0.257361 0.676897
O O15 0.000000 0.383096 0.500000
#
# Coordination Sequence:
#
# PCOD8049775 Si02
#       7
#     4   4   4   4   4   4   4
#     4   9  19  35  57  80 109 147 183 225 274 323
#     4  10  21  36  58  83 106 145 186 225 275 327
#     4   9  19  40  59  76 109 147 183 226 275 328
#     4  10  21  39  57  79 111 145 182 227 277 327
#     4   9  19  36  56  79 112 148 185 225 273 325
#     4  10  21  36  55  81 113 149 181 223 275 327
#     4  11  20  34  55  84 113 145 184 225 271 325
#
# _framework density 19.944749000000002
#
# number of rings (size 3 to 8) (size 9 to 14) (size 15 to 20)
#    0.000    2.286    0.000    5.143    0.000    3.429 
#    0.000   12.857    0.000    0.000    0.000    0.000 
#    0.000    0.000    0.000    0.000    0.000    0.000 
#
# Total GULP energy -173551.064224 kJ/mol
# GULP energy per Si atom -12396.504587 kJ/mol
# Density = 1.989935 g / cm^3
# Si number density = 19.944749 Si / 1000 Ang^3
#
#
#
# Elastic Constant Matrix: (Units=GPa)
#
#
# Indices 1 2 3 4 5 6 
#
# 1 27.3653 4.6104 23.5267 0.0000 7.4578 0.0000
# 2 4.6104 115.9502 39.2409 0.0000 0.3009 0.0000
# 3 23.5267 39.2409 101.4764 0.0000 8.8038 0.0000
# 4 0.0000 0.0000 0.0000 22.5334 0.0000 0.0436
# 5 7.4578 0.3009 8.8038 0.0000 29.7981 0.0000
# 6 0.0000 0.0000 0.0000 0.0436 0.0000 27.6629
#
#
#
# Elastic Compliance Matrix: (Units=1/GPa)
#
#
# Indices 1 2 3 4 5 6 
#
# 1 0.048197 0.001875 -0.011137 0.000000 -0.008791 0.000000
# 2 0.001875 0.010029 -0.004376 0.000000 0.000722 0.000000
# 3 -0.011137 -0.004376 0.014248 0.000000 -0.001378 0.000000
# 4 0.000000 0.000000 0.000000 0.044379 0.000000 -0.000070
# 5 -0.008791 0.000722 -0.001378 0.000000 0.036159 0.000000
# 6 0.000000 0.000000 0.000000 -0.000070 0.000000 0.036150
#
#
# Mechanical properties :
#
#
# Convention : Reuss Voigt Hill
#
# Bulk Modulus (GPa) = 22.12381 42.17199 32.14790
# Shear Modulus (GPa) = 21.59808 27.82647 24.71228
#
# Velocity S-wave (km/s) = 3.29431 3.73926 3.52381
# Velocity P-wave (km/s) = 5.05832 6.31134 5.71925
#
# Compressibility (1/GPa) = 0.04520016
#
# Stress axis : x y z
#
# Youngs Moduli (GPa) = 20.74816 99.71306 70.18488
#
# Poissons Ratio (x) = -0.18700 0.78163
# Poissons Ratio (y) = -0.03891 0.30710
# Poissons Ratio (z) = 0.23107 0.43630
#
# Static dielectric constant tensor:
#      x y z
#    x 3.447770 0.000000 0.169880 
#    y 0.000000 3.911200 0.000000 
#    z 0.169880 0.000000 3.795680 
# 
# 
# High freq. dielectric constant tensor:
#      x y z
#    x 1.757630 0.000000 0.010680 
#    y 0.000000 1.780460 0.000000 
#    z 0.010680 0.000000 1.784160 
# 
# From -- ./inp_files/41687.got.cif
#   From: 2010.03.12/outbox.cif.g09.slc.cpg/sg5_21_cif.got.tgz:41687.got - 2010.03.31 09:47:26.
