data_PCOD8049706
_publ_section_title
;
Structure prediction by ZEFSAII (Michael W. Deem and Ramdas Pophale) SiO2 
 PCOD8049706
Probable space group: C 2
;
_chemical_formula_sum "Si O2"
_cell_formula_units_Z 22
_cell_length_a 9.674802
_cell_length_b 10.036591
_cell_length_c 12.257221
_cell_angle_alpha 90.000000
_cell_angle_beta 69.566112
_cell_angle_gamma 90.000000
_cell_volume 1115.308434
_symmetry_space_group_name_H-M "C 2"
_symmetry_group_IT_number 5
_symmetry_cell_setting 'monoclinic'
loop_
_space_group_symop_operation_xyz
x,y,z
-x,y,-z
1/2+x,1/2+y,z
1/2-x,1/2+y,-z
loop_
_atom_site_type_symbol
_atom_site_label
_atom_site_fract_x
_atom_site_fract_y
_atom_site_fract_z
Si Si1 0.187071 0.614750 0.624126
Si Si2 0.500000 0.920223 0.000000
Si Si3 0.843278 0.222203 0.193807
Si Si4 0.112110 0.520200 0.186148
Si Si5 0.221450 0.323747 0.565596
Si Si6 0.922936 0.240583 0.709279
O O1 0.243242 0.482993 0.543121
O O2 0.175027 0.740282 0.544944
O O3 0.300717 0.646035 0.690705
O O4 0.026737 0.589284 0.717217
O O5 0.623686 0.831796 0.906561
O O6 0.418823 0.012609 0.934092
O O7 0.760156 0.102511 0.160038
O O8 0.743605 0.290528 0.316811
O O9 0.996845 0.170775 0.207835
O O10 0.148764 0.377530 0.228182
O O11 0.051790 0.279987 0.586765
#
# Coordination Sequence:
#
# PCOD8049706 Si02
#       6
#     4   2   4   4   4   4
#     4  11  20  41  65  93 130 167 203 254 316 369
#     4  10  20  44  62  84 128 164 206 262 310 360
#     4   9  21  43  60  90 121 161 208 254 311 362
#     4  10  22  41  65  90 121 163 211 264 306 368
#     4   9  22  39  62  92 129 164 201 255 308 375
#     4   8  20  40  59  88 127 164 198 250 313 365
#
# _framework density 19.725486
#
# number of rings (size 3 to 8) (size 9 to 14) (size 15 to 20)
#    1.091    1.455    1.818    0.545    2.545    3.636 
#    9.818    0.000    0.000    0.000    0.000    0.000 
#    0.000    0.000    0.000    0.000    0.000    0.000 
#
# Total GULP energy -136286.980023 kJ/mol
# GULP energy per Si atom -12389.725457 kJ/mol
# Density = 1.968059 g / cm^3
# Si number density = 19.725486 Si / 1000 Ang^3
#
#
#
# Elastic Constant Matrix: (Units=GPa)
#
#
# Indices 1 2 3 4 5 6 
#
# 1 98.0823 69.0802 37.0065 0.0000 10.9136 0.0000
# 2 69.0802 113.5411 43.1169 0.0000 16.0953 0.0000
# 3 37.0065 43.1169 106.9416 0.0000 20.2878 0.0000
# 4 0.0000 0.0000 0.0000 36.2697 0.0000 5.0369
# 5 10.9136 16.0953 20.2878 0.0000 13.5264 0.0000
# 6 0.0000 0.0000 0.0000 5.0369 0.0000 45.4800
#
#
#
# Elastic Compliance Matrix: (Units=1/GPa)
#
#
# Indices 1 2 3 4 5 6 
#
# 1 0.018270 -0.010384 -0.002352 0.000000 0.001144 0.000000
# 2 -0.010384 0.017053 -0.001428 0.000000 -0.009771 0.000000
# 3 -0.002352 -0.001428 0.014058 0.000000 -0.017488 0.000000
# 4 0.000000 0.000000 0.000000 0.028002 0.000000 -0.003101
# 5 0.001144 -0.009771 -0.017488 0.000000 0.110862 0.000000
# 6 0.000000 0.000000 0.000000 -0.003101 0.000000 0.022331
#
#
# Mechanical properties :
#
#
# Convention : Reuss Voigt Hill
#
# Bulk Modulus (GPa) = 47.50440 68.55245 58.02843
# Shear Modulus (GPa) = 20.33155 30.34599 25.33877
#
# Velocity S-wave (km/s) = 3.21397 3.92652 3.58798
# Velocity P-wave (km/s) = 6.15694 7.44214 6.82983
#
# Compressibility (1/GPa) = 0.02105068
#
# Stress axis : x y z
#
# Youngs Moduli (GPa) = 54.73586 58.64116 71.13146
#
# Poissons Ratio (x) = 0.60895 0.16733
# Poissons Ratio (y) = 0.56840 0.10160
# Poissons Ratio (z) = 0.12876 0.08376
#
# Static dielectric constant tensor:
#      x y z
#    x 3.318990 0.000000 0.162550 
#    y 0.000000 3.474930 0.000000 
#    z 0.162550 0.000000 3.512230 
# 
# 
# High freq. dielectric constant tensor:
#      x y z
#    x 1.752380 0.000000 0.016080 
#    y 0.000000 1.758490 0.000000 
#    z 0.016080 0.000000 1.763360 
# 
# From -- ./inp_files/49989.got.cif
#   From: 2010.03.12/outbox.cif.g09.slc.cpg/sg5_25_cif.got.tgz:49989.got - 2010.03.31 09:47:26.
