data_PCOD8049046
_publ_section_title
;
Structure prediction by ZEFSAII (Michael W. Deem and Ramdas Pophale) SiO2 
 PCOD8049046
Probable space group: C 2
;
_chemical_formula_sum "Si O2"
_cell_formula_units_Z 28
_cell_length_a 25.405226
_cell_length_b 8.204451
_cell_length_c 8.997309
_cell_angle_alpha 90.000000
_cell_angle_beta 131.087714
_cell_angle_gamma 90.000000
_cell_volume 1413.468838
_symmetry_space_group_name_H-M "C 2"
_symmetry_group_IT_number 5
_symmetry_cell_setting 'monoclinic'
loop_
_space_group_symop_operation_xyz
x,y,z
-x,y,-z
1/2+x,1/2+y,z
1/2-x,1/2+y,-z
loop_
_atom_site_type_symbol
_atom_site_label
_atom_site_fract_x
_atom_site_fract_y
_atom_site_fract_z
Si Si1 0.500000 0.563510 0.000000
Si Si2 0.587978 0.651684 0.422119
Si Si3 0.283579 0.417894 0.398887
Si Si4 0.000000 0.979395 0.500000
Si Si5 0.692952 0.856928 0.730711
Si Si6 0.278850 0.654394 0.932194
Si Si7 0.903638 0.916036 0.071408
Si Si8 0.300155 0.223228 0.714698
O O1 0.444845 0.671674 0.803661
O O2 0.458182 0.456617 0.042206
O O3 0.652218 0.522879 0.545484
O O4 0.530609 0.595295 0.431358
O O5 0.613593 0.830692 0.525256
O O6 0.245209 0.308744 0.206246
O O7 0.316008 0.301448 0.584371
O O8 0.221813 0.535419 0.345151
O O9 0.941964 0.875230 0.300637
O O10 0.737490 0.826443 0.666429
O O11 0.711550 0.035384 0.825045
O O12 0.705164 0.715933 0.874287
O O13 0.346567 0.561823 0.988943
O O14 0.866154 0.749610 0.947820
#
# Coordination Sequence:
#
# PCOD8049046 Si02
#       8
#     2   4   4   2   4   4   4   4
#     4  10  20  36  60  84 120 164 210 226 280 360
#     4  10  20  37  60  88 115 163 200 238 286 350
#     4  11  22  37  60  92 116 149 191 253 308 348
#     4  10  20  36  60  84 120 164 210 226 280 360
#     4  10  20  35  57  88 117 147 191 244 300 342
#     4  11  22  37  60  92 116 149 191 253 308 348
#     4  10  20  37  60  88 115 163 200 238 286 350
#     4  10  20  35  57  88 117 147 191 244 300 342
#
# _framework density 19.809422000000001
#
# number of rings (size 3 to 8) (size 9 to 14) (size 15 to 20)
#    0.000    1.714    2.857    3.429    4.000    0.000 
#    0.000    0.000    0.000   10.286    0.000    0.000 
#    0.000    0.000    0.000    0.000    0.000    0.000 
#
# Total GULP energy -173448.007436 kJ/mol
# GULP energy per Si atom -12389.143388 kJ/mol
# Density = 1.976433 g / cm^3
# Si number density = 19.809422 Si / 1000 Ang^3
#
#
#
# Elastic Constant Matrix: (Units=GPa)
#
#
# Indices 1 2 3 4 5 6 
#
# 1 65.7046 14.0845 17.3341 0.0000 -4.6491 0.0000
# 2 14.0845 81.8884 42.4314 0.0000 6.4980 0.0000
# 3 17.3341 42.4314 164.3960 0.0000 -1.0635 0.0000
# 4 0.0000 0.0000 0.0000 24.9843 0.0000 -0.1548
# 5 -4.6491 6.4980 -1.0635 0.0000 29.7645 0.0000
# 6 0.0000 0.0000 0.0000 -0.1548 0.0000 18.9408
#
#
#
# Elastic Compliance Matrix: (Units=1/GPa)
#
#
# Indices 1 2 3 4 5 6 
#
# 1 0.016246 -0.002492 -0.001050 0.000000 0.003044 0.000000
# 2 -0.002492 0.014792 -0.003579 0.000000 -0.003746 0.000000
# 3 -0.001050 -0.003579 0.007123 0.000000 0.000872 0.000000
# 4 0.000000 0.000000 0.000000 0.040027 0.000000 0.000327
# 5 0.003044 -0.003746 0.000872 0.000000 0.034922 0.000000
# 6 0.000000 0.000000 0.000000 0.000327 0.000000 0.052799
#
#
# Mechanical properties :
#
#
# Convention : Reuss Voigt Hill
#
# Bulk Modulus (GPa) = 41.80784 51.07656 46.44220
# Shear Modulus (GPa) = 26.57808 30.61384 28.59596
#
# Velocity S-wave (km/s) = 3.66688 3.93545 3.80353
# Velocity P-wave (km/s) = 6.25131 6.81838 6.54099
#
# Compressibility (1/GPa) = 0.02391896
#
# Stress axis : x y z
#
# Youngs Moduli (GPa) = 61.55278 67.60251 140.38770
#
# Poissons Ratio (x) = 0.16844 0.14744
# Poissons Ratio (y) = 0.15337 0.50252
# Poissons Ratio (z) = 0.06464 0.24198
#
# Static dielectric constant tensor:
#      x y z
#    x 3.653620 0.000000 0.039050 
#    y 0.000000 3.468680 0.000000 
#    z 0.039050 0.000000 4.192820 
# 
# 
# High freq. dielectric constant tensor:
#      x y z
#    x 1.771020 0.000000 -0.013360 
#    y 0.000000 1.733350 0.000000 
#    z -0.013360 0.000000 1.796580 
# 
# From -- ./inp_files/26766.got.cif
#   From: 2010.03.12/outbox.cif.g09.slc.cpg/sg5_14_cif.got.tgz:26766.got - 2010.03.31 09:47:26.
