data_PCOD8049374
_publ_section_title
;
Structure prediction by ZEFSAII (Michael W. Deem and Ramdas Pophale) SiO2 
 PCOD8049374
Probable space group: C 2
;
_chemical_formula_sum "Si O2"
_cell_formula_units_Z 30
_cell_length_a 13.713156
_cell_length_b 10.653520
_cell_length_c 17.399628
_cell_angle_alpha 90.000000
_cell_angle_beta 31.568026
_cell_angle_gamma 90.000000
_cell_volume 1330.748288
_symmetry_space_group_name_H-M "C 2"
_symmetry_group_IT_number 5
_symmetry_cell_setting 'monoclinic'
loop_
_space_group_symop_operation_xyz
x,y,z
-x,y,-z
1/2+x,1/2+y,z
1/2-x,1/2+y,-z
loop_
_atom_site_type_symbol
_atom_site_label
_atom_site_fract_x
_atom_site_fract_y
_atom_site_fract_z
Si Si1 0.517257 0.094910 0.129956
Si Si2 0.640331 0.868067 0.698467
Si Si3 0.500000 0.944726 0.000000
Si Si4 0.439967 0.614834 0.819403
Si Si5 0.625950 0.509758 0.844600
Si Si6 0.118635 0.907152 0.601790
Si Si7 0.292286 0.272341 0.758182
Si Si8 0.787687 0.302386 0.636519
O O1 0.372078 0.197492 0.256602
O O2 0.522955 0.971047 0.179908
O O3 0.722016 0.148119 0.975024
O O4 0.430505 0.037823 0.111600
O O5 0.547865 0.742432 0.727433
O O6 0.767120 0.940334 0.551243
O O7 0.757175 0.831083 0.696886
O O8 0.667811 0.847187 0.905067
O O9 0.497216 0.553178 0.861046
O O10 0.484010 0.521559 0.718719
O O11 0.753921 0.624662 0.786317
O O12 0.757158 0.396170 0.728805
O O13 0.500000 0.462515 0.000000
O O14 0.261882 0.874623 0.573522
O O15 0.999350 0.787704 0.652043
O O16 0.000000 0.250060 0.500000
#
# Coordination Sequence:
#
# PCOD8049374 Si02
#       8
#     4   4   2   4   4   4   4   4
#     4  11  25  43  70  98 140 189 235 293 348 422
#     4  10  25  42  70 105 140 185 232 293 358 419
#     4  10  20  38  66 106 134 176 232 300 334 416
#     4  10  24  43  70 109 138 175 248 287 352 426
#     4  10  23  42  73 101 141 179 235 298 350 418
#     4  11  24  44  72 103 142 188 230 299 352 431
#     4  10  20  41  72 104 137 180 238 288 355 415
#     4  11  29  47  64 102 149 190 234 287 365 428
#
# _framework density 22.543707000000001
#
# number of rings (size 3 to 8) (size 9 to 14) (size 15 to 20)
#    0.000    1.600    2.000    0.400    8.400    7.467 
#    0.000    0.000    0.000    0.000    0.000    0.000 
#    0.000    0.000    0.000    0.000    0.000    0.000 
#
# Total GULP energy -185867.295606 kJ/mol
# GULP energy per Si atom -12391.153040 kJ/mol
# Density = 2.249240 g / cm^3
# Si number density = 22.543707 Si / 1000 Ang^3
#
#
#
# Elastic Constant Matrix: (Units=GPa)
#
#
# Indices 1 2 3 4 5 6 
#
# 1 59.0316 26.9596 40.9356 0.0005 -8.1856 -0.0002
# 2 26.9596 95.4871 35.0434 0.0009 -0.9737 -0.0002
# 3 40.9356 35.0434 131.7552 0.0019 -0.3144 -0.0006
# 4 0.0005 0.0009 0.0019 34.7389 -0.0004 0.2135
# 5 -8.1856 -0.9737 -0.3144 -0.0004 41.1821 0.0001
# 6 -0.0002 -0.0002 -0.0006 0.2135 0.0001 29.3454
#
#
#
# Elastic Compliance Matrix: (Units=1/GPa)
#
#
# Indices 1 2 3 4 5 6 
#
# 1 0.023928 -0.004416 -0.006249 0.000000 0.004604 0.000000
# 2 -0.004416 0.012423 -0.001934 0.000000 -0.000599 0.000000
# 3 -0.006249 -0.001934 0.010043 0.000000 -0.001211 0.000000
# 4 0.000000 0.000000 0.000000 0.028787 0.000000 -0.000209
# 5 0.004604 -0.000599 -0.001211 0.000000 0.025174 0.000000
# 6 0.000000 0.000000 0.000000 -0.000209 0.000000 0.034078
#
#
# Mechanical properties :
#
#
# Convention : Reuss Voigt Hill
#
# Bulk Modulus (GPa) = 47.17532 54.68347 50.92939
# Shear Modulus (GPa) = 29.99463 33.27564 31.63513
#
# Velocity S-wave (km/s) = 3.65157 3.84611 3.75010
# Velocity P-wave (km/s) = 6.22497 6.63571 6.43362
#
# Compressibility (1/GPa) = 0.02119752
#
# Stress axis : x y z
#
# Youngs Moduli (GPa) = 41.79119 80.49682 99.57392
#
# Poissons Ratio (x) = 0.35544 0.62224
# Poissons Ratio (y) = 0.18453 0.19254
# Poissons Ratio (z) = 0.26115 0.15566
#
# Static dielectric constant tensor:
#      x y z
#    x 3.879630 0.000000 0.247350 
#    y 0.000000 4.002220 0.000000 
#    z 0.247350 0.000000 4.360410 
# 
# 
# High freq. dielectric constant tensor:
#      x y z
#    x 1.876280 0.000000 0.009770 
#    y 0.000000 1.886120 0.000000 
#    z 0.009770 0.000000 1.898070 
# 
# From -- ./inp_files/61619.got.cif
#   From: 2010.03.12/outbox.cif.g09.slc.cpg/sg5_31_cif.got.tgz:61619.got - 2010.03.31 09:47:26.
