data_PCOD8049076
_publ_section_title
;
Structure prediction by ZEFSAII (Michael W. Deem and Ramdas Pophale) SiO2 
 PCOD8049076
Probable space group: C 2
;
_chemical_formula_sum "Si O2"
_cell_formula_units_Z 32
_cell_length_a 17.178303
_cell_length_b 5.882621
_cell_length_c 28.357526
_cell_angle_alpha 90.000000
_cell_angle_beta 145.599529
_cell_angle_gamma 90.000000
_cell_volume 1619.003414
_symmetry_space_group_name_H-M "C 2"
_symmetry_group_IT_number 5
_symmetry_cell_setting 'monoclinic'
loop_
_space_group_symop_operation_xyz
x,y,z
-x,y,-z
1/2+x,1/2+y,z
1/2-x,1/2+y,-z
loop_
_atom_site_type_symbol
_atom_site_label
_atom_site_fract_x
_atom_site_fract_y
_atom_site_fract_z
Si Si1 0.324812 0.421790 0.704129
Si Si2 0.084021 0.220459 0.821902
Si Si3 0.049018 0.418549 0.707128
Si Si4 0.935852 0.535537 0.821526
Si Si5 0.931018 0.031277 0.585409
Si Si6 0.292563 0.114100 0.999987
Si Si7 0.790920 0.722258 0.590066
Si Si8 0.310371 0.228273 0.291947
O O1 0.471488 0.522469 0.762007
O O2 0.348782 0.241168 0.757184
O O3 0.251191 0.322419 0.621099
O O4 0.220142 0.603053 0.674019
O O5 0.119849 0.296530 0.786868
O O6 0.226287 0.123386 0.914777
O O7 0.024202 0.424266 0.823552
O O8 0.165477 0.573679 0.741775
O O9 0.918876 0.555456 0.661816
O O10 0.998753 0.252075 0.641379
O O11 0.824797 0.370340 0.789838
O O12 0.040895 0.616207 0.915176
O O13 0.829018 0.919538 0.572407
O O14 0.051813 0.867662 0.628517
O O15 0.842736 0.090354 0.495203
O O16 0.250540 0.359451 0.002647
#
# Coordination Sequence:
#
# PCOD8049076 Si02
#       8
#     4   4   4   4   4   4   4   4
#     4  11  20  40  64  93 123 164 210 261 321 383
#     4  10  20  35  67 100 120 161 217 270 313 382
#     4  11  21  40  63  94 121 165 213 263 320 382
#     4  10  20  39  62  96 130 164 209 262 325 385
#     4  11  22  41  62  90 124 163 210 264 323 377
#     4  10  20  36  65 106 133 164 220 282 328 382
#     4  11  22  37  70  90 118 162 216 269 309 378
#     4  10  25  40  63  88 130 174 201 259 331 388
#
# _framework density 19.765245
#
# number of rings (size 3 to 8) (size 9 to 14) (size 15 to 20)
#    0.000    1.500    5.000    0.750    0.000    0.000 
#    0.000    3.750    0.000    4.500    0.000    0.000 
#    0.000    0.000    0.000    0.000    0.000    0.000 
#
# Total GULP energy -198323.705329 kJ/mol
# GULP energy per Si atom -12395.231583 kJ/mol
# Density = 1.972026 g / cm^3
# Si number density = 19.765245 Si / 1000 Ang^3
#
#
#
# Elastic Constant Matrix: (Units=GPa)
#
#
# Indices 1 2 3 4 5 6 
#
# 1 93.3894 34.2763 56.9834 0.0027 0.1425 0.0124
# 2 34.2763 95.4161 28.5140 0.0085 -0.2530 0.0102
# 3 56.9834 28.5140 116.3655 -0.0001 -12.2055 -0.0005
# 4 0.0027 0.0085 -0.0001 27.0932 -0.0014 -6.7855
# 5 0.1425 -0.2530 -12.2055 -0.0014 24.7391 0.0022
# 6 0.0124 0.0102 -0.0005 -6.7855 0.0022 18.9954
#
#
#
# Elastic Compliance Matrix: (Units=1/GPa)
#
#
# Indices 1 2 3 4 5 6 
#
# 1 0.016798 -0.003737 -0.007724 -0.000003 -0.003946 -0.000010
# 2 -0.003737 0.012181 -0.001202 -0.000005 -0.000447 -0.000006
# 3 -0.007724 -0.001202 0.013366 0.000003 0.006626 0.000006
# 4 -0.000003 -0.000005 0.000003 0.040536 0.000003 0.014480
# 5 -0.003946 -0.000447 0.006626 0.000003 0.043709 -0.000001
# 6 -0.000010 -0.000006 0.000006 0.014480 -0.000001 0.057817
#
#
# Mechanical properties :
#
#
# Convention : Reuss Voigt Hill
#
# Bulk Modulus (GPa) = 58.75691 60.52426 59.64058
# Shear Modulus (GPa) = 23.21199 26.52537 24.86868
#
# Velocity S-wave (km/s) = 3.43065 3.66733 3.55096
# Velocity P-wave (km/s) = 6.74421 6.97284 6.85948
#
# Compressibility (1/GPa) = 0.01701928
#
# Stress axis : x y z
#
# Youngs Moduli (GPa) = 59.52913 82.09719 74.81827
#
# Poissons Ratio (x) = 0.30677 0.57792
# Poissons Ratio (y) = 0.22244 0.08992
# Poissons Ratio (z) = 0.45983 0.09866
#
# Static dielectric constant tensor:
#      x y z
#    x 3.315150 0.000000 0.035610 
#    y 0.000000 3.970660 0.000010 
#    z 0.035610 0.000010 3.764770 
# 
# 
# High freq. dielectric constant tensor:
#      x y z
#    x 1.741310 0.000000 -0.001890 
#    y 0.000000 1.790880 0.000000 
#    z -0.001890 0.000000 1.773480 
# 
# From -- ./inp_files/63745.got.cif
#   From: 2010.03.12/outbox.cif.g09.slc.cpg/sg5_32_cif.got.tgz:63745.got - 2010.03.31 09:47:26.
