data_PCOD8049747
_publ_section_title
;
Structure prediction by ZEFSAII (Michael W. Deem and Ramdas Pophale) SiO2 
 PCOD8049747
Probable space group: C 2
;
_chemical_formula_sum "Si O2"
_cell_formula_units_Z 28
_cell_length_a 20.949167
_cell_length_b 6.827608
_cell_length_c 19.394581
_cell_angle_alpha 90.000000
_cell_angle_beta 151.517653
_cell_angle_gamma 90.000000
_cell_volume 1322.915507
_symmetry_space_group_name_H-M "C 2"
_symmetry_group_IT_number 5
_symmetry_cell_setting 'monoclinic'
loop_
_space_group_symop_operation_xyz
x,y,z
-x,y,-z
1/2+x,1/2+y,z
1/2-x,1/2+y,-z
loop_
_atom_site_type_symbol
_atom_site_label
_atom_site_fract_x
_atom_site_fract_y
_atom_site_fract_z
Si Si1 0.293564 0.743610 0.448570
Si Si2 0.095100 0.545079 0.848656
Si Si3 0.091750 0.279148 0.718703
Si Si4 0.691760 0.546459 0.131257
Si Si5 0.804064 0.883484 0.146638
Si Si6 0.672715 0.874482 0.366900
Si Si7 0.401897 0.529385 0.806298
O O1 0.435432 0.824048 0.553852
O O2 0.273860 0.790170 0.510733
O O3 0.285206 0.505886 0.435015
O O4 0.174860 0.836949 0.291395
O O5 0.129008 0.369506 0.828164
O O6 0.115651 0.757363 0.833678
O O7 0.943659 0.532530 0.729579
O O8 0.188652 0.514004 0.003041
O O9 0.193817 0.377479 0.761021
O O10 0.100234 0.043669 0.727259
O O11 0.746293 0.746366 0.151083
O O12 0.655792 0.596600 0.175219
O O13 0.559864 0.479024 0.963144
O O14 0.620221 0.701022 0.269319
#
# Coordination Sequence:
#
# PCOD8049747 Si02
#       7
#     4   4   4   4   4   4   4
#     4  11  25  40  65  96 132 172 214 268 337 389
#     4  10  21  33  60  96 127 172 206 274 327 383
#     4  10  24  40  60  95 133 172 221 262 325 394
#     4  10  25  44  67  94 129 180 220 270 325 390
#     4  11  20  37  63  94 134 166 220 269 330 387
#     4  11  23  39  65  97 131 169 218 272 334 389
#     4  11  24  45  67  95 133 172 223 273 325 392
#
# _framework density 21.165371
#
# number of rings (size 3 to 8) (size 9 to 14) (size 15 to 20)
#    0.000    1.429    4.286    0.000    4.000    2.857 
#    0.000    2.857    0.000    0.000    0.000    0.000 
#    0.000    0.000    0.000    0.000    0.000    0.000 
#
# Total GULP energy -173596.809176 kJ/mol
# GULP energy per Si atom -12399.772084 kJ/mol
# Density = 2.111720 g / cm^3
# Si number density = 21.165371 Si / 1000 Ang^3
#
#
#
# Elastic Constant Matrix: (Units=GPa)
#
#
# Indices 1 2 3 4 5 6 
#
# 1 70.3525 23.6727 21.1519 0.0000 6.0907 0.0000
# 2 23.6727 109.7520 24.6682 0.0000 9.7470 0.0000
# 3 21.1519 24.6682 81.9954 0.0000 3.6061 0.0000
# 4 0.0000 0.0000 0.0000 32.7849 0.0000 7.1325
# 5 6.0907 9.7470 3.6061 0.0000 28.4243 0.0000
# 6 0.0000 0.0000 0.0000 7.1325 0.0000 22.4715
#
#
#
# Elastic Compliance Matrix: (Units=1/GPa)
#
#
# Indices 1 2 3 4 5 6 
#
# 1 0.016268 -0.002567 -0.003328 0.000000 -0.002183 0.000000
# 2 -0.002567 0.010438 -0.002358 0.000000 -0.002730 0.000000
# 3 -0.003328 -0.002358 0.013774 0.000000 -0.000226 0.000000
# 4 0.000000 0.000000 0.000000 0.032764 0.000000 -0.010400
# 5 -0.002183 -0.002730 -0.000226 0.000000 0.036614 0.000000
# 6 0.000000 0.000000 0.000000 -0.010400 0.000000 0.047802
#
#
# Mechanical properties :
#
#
# Convention : Reuss Voigt Hill
#
# Bulk Modulus (GPa) = 41.71389 44.56507 43.13948
# Shear Modulus (GPa) = 27.44909 29.57659 28.51284
#
# Velocity S-wave (km/s) = 3.60514 3.74224 3.67433
# Velocity P-wave (km/s) = 6.08939 6.30665 6.19897
#
# Compressibility (1/GPa) = 0.02397283
#
# Stress axis : x y z
#
# Youngs Moduli (GPa) = 61.47222 95.80828 72.60232
#
# Poissons Ratio (x) = 0.24592 0.24164
# Poissons Ratio (y) = 0.15779 0.17119
# Poissons Ratio (z) = 0.20459 0.22591
#
# Static dielectric constant tensor:
#      x y z
#    x 3.760140 0.000000 0.182480 
#    y 0.000000 3.687110 0.000000 
#    z 0.182480 0.000000 3.850640 
# 
# 
# High freq. dielectric constant tensor:
#      x y z
#    x 1.817540 0.000000 0.015400 
#    y 0.000000 1.831650 0.000000 
#    z 0.015400 0.000000 1.831460 
# 
# From -- ./inp_files/67250.got.cif
#   From: 2010.03.12/outbox.cif.g09.slc.cpg/sg5_34_cif.got.tgz:67250.got - 2010.03.31 09:47:26.
