data_PCOD8049514
_publ_section_title
;
Structure prediction by ZEFSAII (Michael W. Deem and Ramdas Pophale) SiO2 
 PCOD8049514
Probable space group: C 2
;
_chemical_formula_sum "Si O2"
_cell_formula_units_Z 26
_cell_length_a 14.859556
_cell_length_b 12.316318
_cell_length_c 17.924139
_cell_angle_alpha 90.000000
_cell_angle_beta 158.751365
_cell_angle_gamma 90.000000
_cell_volume 1188.864048
_symmetry_space_group_name_H-M "C 2"
_symmetry_group_IT_number 5
_symmetry_cell_setting 'monoclinic'
loop_
_space_group_symop_operation_xyz
x,y,z
-x,y,-z
1/2+x,1/2+y,z
1/2-x,1/2+y,-z
loop_
_atom_site_type_symbol
_atom_site_label
_atom_site_fract_x
_atom_site_fract_y
_atom_site_fract_z
Si Si1 0.540369 0.787080 0.802322
Si Si2 0.712878 0.985985 0.855284
Si Si3 0.243073 0.936758 0.274686
Si Si4 0.596106 0.193731 0.371883
Si Si5 0.846646 0.340584 0.949362
Si Si6 0.086379 0.706831 0.197733
Si Si7 0.500000 0.051322 0.000000
O O1 0.538009 0.910142 0.770021
O O2 0.331493 0.709130 0.606591
O O3 0.499089 0.804730 0.858346
O O4 0.792963 0.726934 0.975267
O O5 0.751370 0.921228 0.809067
O O6 0.582028 0.098782 0.736580
O O7 0.992314 0.002396 0.106379
O O8 0.500000 0.994271 0.500000
O O9 0.237576 0.816649 0.304034
O O10 0.674147 0.164412 0.347021
O O11 0.436167 0.303605 0.256873
O O12 0.825399 0.470538 0.914984
O O13 0.000000 0.283706 0.000000
O O14 0.144045 0.624901 0.173167
#
# Coordination Sequence:
#
# PCOD8049514 Si02
#       7
#     4   4   4   4   4   4   2
#     4  10  21  41  61  89 127 164 207 263 320 377
#     4  10  22  38  61  93 122 161 213 263 310 383
#     4  10  21  38  62  90 126 163 208 263 315 372
#     4  11  23  39  64  88 125 165 210 260 323 384
#     4   9  23  40  59  87 124 164 209 263 319 377
#     4  10  21  39  62  91 124 164 209 258 310 384
#     4  10  20  40  64  90 128 168 204 268 322 362
#
# _framework density 21.869617000000002
#
# number of rings (size 3 to 8) (size 9 to 14) (size 15 to 20)
#    0.462    1.538    0.000    3.692    2.154    4.308 
#    0.000    3.077    0.000    0.000    0.000    0.000 
#    0.000    0.000    0.000    0.000    0.000    0.000 
#
# Total GULP energy -161070.026102 kJ/mol
# GULP energy per Si atom -12390.002008 kJ/mol
# Density = 2.181984 g / cm^3
# Si number density = 21.869617 Si / 1000 Ang^3
#
#
#
# Elastic Constant Matrix: (Units=GPa)
#
#
# Indices 1 2 3 4 5 6 
#
# 1 134.5244 27.4580 37.1874 0.0300 -13.2368 -0.0043
# 2 27.4580 80.0775 42.8289 0.0014 -3.2306 0.0337
# 3 37.1874 42.8289 136.0221 0.0080 -13.7698 -0.0269
# 4 0.0300 0.0014 0.0080 19.8580 -0.0166 0.4550
# 5 -13.2368 -3.2306 -13.7698 -0.0166 25.1251 0.0036
# 6 -0.0043 0.0337 -0.0269 0.4550 0.0036 30.6407
#
#
#
# Elastic Compliance Matrix: (Units=1/GPa)
#
#
# Indices 1 2 3 4 5 6 
#
# 1 0.008574 -0.002086 -0.001331 -0.000009 0.003519 0.000002
# 2 -0.002086 0.015536 -0.004479 0.000003 -0.001556 -0.000021
# 3 -0.001331 -0.004479 0.009525 0.000002 0.003943 0.000013
# 4 -0.000009 0.000003 0.000002 0.050375 0.000030 -0.000748
# 5 0.003519 -0.001556 0.003943 0.000030 0.043616 0.000000
# 6 0.000002 -0.000021 0.000013 -0.000748 0.000000 0.032648
#
#
# Mechanical properties :
#
#
# Convention : Reuss Voigt Hill
#
# Bulk Modulus (GPa) = 56.04495 62.84140 59.44317
# Shear Modulus (GPa) = 27.47068 31.33472 29.40270
#
# Velocity S-wave (km/s) = 3.54801 3.78934 3.67066
# Velocity P-wave (km/s) = 6.51667 6.92404 6.72344
#
# Compressibility (1/GPa) = 0.01784282
#
# Stress axis : x y z
#
# Youngs Moduli (GPa) = 116.63763 64.36671 104.98627
#
# Poissons Ratio (x) = 0.13427 0.13972
# Poissons Ratio (y) = 0.24331 0.47023
# Poissons Ratio (z) = 0.15523 0.28830
#
# Static dielectric constant tensor:
#      x y z
#    x 4.098050 0.000050 -0.052290 
#    y 0.000050 3.684490 -0.000070 
#    z -0.052290 -0.000070 3.846790 
# 
# 
# High freq. dielectric constant tensor:
#      x y z
#    x 1.871750 0.000000 -0.002290 
#    y 0.000000 1.843970 -0.000010 
#    z -0.002290 -0.000010 1.843750 
# 
# From -- ./inp_files/66126.got.cif
#   From: 2010.03.12/outbox.cif.g09.slc.cpg/sg5_34_cif.got.tgz:66126.got - 2010.03.31 09:47:26.
