data_PCOD8049916
_publ_section_title
;
Structure prediction by ZEFSAII (Michael W. Deem and Ramdas Pophale) SiO2 
 PCOD8049916
Probable space group: C 2
;
_chemical_formula_sum "Si O2"
_cell_formula_units_Z 24
_cell_length_a 8.093462
_cell_length_b 25.264841
_cell_length_c 5.272704
_cell_angle_alpha 90.000000
_cell_angle_beta 95.860394
_cell_angle_gamma 90.000000
_cell_volume 1072.527804
_symmetry_space_group_name_H-M "C 2"
_symmetry_group_IT_number 5
_symmetry_cell_setting 'monoclinic'
loop_
_space_group_symop_operation_xyz
x,y,z
-x,y,-z
1/2+x,1/2+y,z
1/2-x,1/2+y,-z
loop_
_atom_site_type_symbol
_atom_site_label
_atom_site_fract_x
_atom_site_fract_y
_atom_site_fract_z
Si Si1 0.809677 0.073040 0.996619
Si Si2 0.295602 0.687333 0.841754
Si Si3 0.190100 0.519045 0.488132
Si Si4 0.000000 0.874308 0.000000
Si Si5 0.500000 0.215770 0.500000
Si Si6 0.795898 0.779460 0.821081
Si Si7 0.000000 0.239790 0.500000
Si Si8 0.500000 0.442023 0.500000
O O1 0.804351 0.136700 0.026348
O O2 0.717046 0.059691 0.721617
O O3 0.715203 0.047747 0.220986
O O4 0.000000 0.052820 0.000000
O O5 0.469636 0.698305 0.726412
O O6 0.152823 0.678250 0.605101
O O7 0.264434 0.743274 0.963520
O O8 0.330926 0.474115 0.530232
O O9 0.000000 0.497386 0.500000
O O10 0.163558 0.838666 0.079910
O O11 0.961293 0.908411 0.242793
O O12 0.462021 0.253896 0.731642
O O13 0.654148 0.778772 0.580633
#
# Coordination Sequence:
#
# PCOD8049916 Si02
#       8
#     4   4   4   2   2   4   2   2
#     4  12  25  45  77 109 154 208 242 302 390 450
#     4  11  24  39  66 105 150 204 240 288 364 451
#     4  12  28  52  79 111 149 190 253 332 380 450
#     4  12  26  46  86 100 140 208 250 302 406 428
#     4  10  21  38  64  90 156 186 242 293 340 416
#     4  11  22  43  64 104 144 193 240 306 346 451
#     4  10  24  39  64  98 160 192 243 298 354 424
#     4  12  27  55  80 108 146 196 257 337 384 440
#
# _framework density 22.377043
#
# number of rings (size 3 to 8) (size 9 to 14) (size 15 to 20)
#    0.000    0.667    3.333    3.500   10.500    1.333 
#    1.500    0.000    0.000    0.000    0.000    0.000 
#    0.000    0.000    0.000    0.000    0.000    0.000 
#
# Total GULP energy -148735.137084 kJ/mol
# GULP energy per Si atom -12394.594757 kJ/mol
# Density = 2.232611 g / cm^3
# Si number density = 22.377043 Si / 1000 Ang^3
#
#
#
# Elastic Constant Matrix: (Units=GPa)
#
#
# Indices 1 2 3 4 5 6 
#
# 1 150.2814 45.1342 28.6075 0.0000 -6.3456 0.0000
# 2 45.1342 111.8005 47.0012 0.0000 -4.0789 0.0000
# 3 28.6075 47.0012 130.6035 0.0000 -22.7762 0.0000
# 4 0.0000 0.0000 0.0000 43.1040 0.0000 5.1148
# 5 -6.3456 -4.0789 -22.7762 0.0000 44.3318 0.0000
# 6 0.0000 0.0000 0.0000 5.1148 0.0000 19.3342
#
#
#
# Elastic Compliance Matrix: (Units=1/GPa)
#
#
# Indices 1 2 3 4 5 6 
#
# 1 0.007632 -0.002826 -0.000560 0.000000 0.000545 0.000000
# 2 -0.002826 0.011632 -0.003791 0.000000 -0.001282 0.000000
# 3 -0.000560 -0.003791 0.009961 0.000000 0.004689 0.000000
# 4 0.000000 0.000000 0.000000 0.023952 0.000000 -0.006336
# 5 0.000545 -0.001282 0.004689 0.000000 0.024926 0.000000
# 6 0.000000 0.000000 0.000000 -0.006336 0.000000 0.053398
#
#
# Mechanical properties :
#
#
# Convention : Reuss Voigt Hill
#
# Bulk Modulus (GPa) = 67.23608 70.46348 68.84978
# Shear Modulus (GPa) = 33.15373 39.48349 36.31861
#
# Velocity S-wave (km/s) = 3.85333 4.20511 4.03306
# Velocity P-wave (km/s) = 7.06467 7.42528 7.24722
#
# Compressibility (1/GPa) = 0.01487297
#
# Stress axis : x y z
#
# Youngs Moduli (GPa) = 131.01868 85.96792 100.38892
#
# Poissons Ratio (x) = 0.24295 0.05619
# Poissons Ratio (y) = 0.37027 0.38054
# Poissons Ratio (z) = 0.07334 0.32588
#
# Static dielectric constant tensor:
#      x y z
#    x 4.449190 0.000000 0.162630 
#    y 0.000000 3.747030 0.000000 
#    z 0.162630 0.000000 4.378090 
# 
# 
# High freq. dielectric constant tensor:
#      x y z
#    x 1.898020 0.000000 0.010390 
#    y 0.000000 1.849420 0.000000 
#    z 0.010390 0.000000 1.908100 
# 
# From -- ./inp_files/3431.got.cif
#   From: 2010.03.12/outbox.cif.g09.slc.cpg/sg5_2_cif.got.tgz:3431.got - 2010.03.31 09:47:26.
