data_PCOD8049381
_publ_section_title
;
Structure prediction by ZEFSAII (Michael W. Deem and Ramdas Pophale) SiO2 
 PCOD8049381
Probable space group: C 2
;
_chemical_formula_sum "Si O2"
_cell_formula_units_Z 32
_cell_length_a 11.259748
_cell_length_b 14.459368
_cell_length_c 14.662816
_cell_angle_alpha 90.000000
_cell_angle_beta 139.646025
_cell_angle_gamma 90.000000
_cell_volume 1545.754347
_symmetry_space_group_name_H-M "C 2"
_symmetry_group_IT_number 5
_symmetry_cell_setting 'monoclinic'
loop_
_space_group_symop_operation_xyz
x,y,z
-x,y,-z
1/2+x,1/2+y,z
1/2-x,1/2+y,-z
loop_
_atom_site_type_symbol
_atom_site_label
_atom_site_fract_x
_atom_site_fract_y
_atom_site_fract_z
Si Si1 0.850664 0.882930 0.094171
Si Si2 0.961152 0.086682 0.190457
Si Si3 0.483883 0.090706 0.740237
Si Si4 0.024889 0.448003 0.112024
Si Si5 0.089908 0.034893 0.461982
Si Si6 0.088814 0.855127 0.672174
Si Si7 0.351058 0.148050 0.343562
Si Si8 0.401416 0.205023 0.034265
O O1 0.944416 0.841782 0.239863
O O2 0.631810 0.869962 0.984141
O O3 0.895110 0.816989 0.034648
O O4 0.915377 0.988589 0.114987
O O5 0.978740 0.070743 0.309108
O O6 0.146415 0.129824 0.258143
O O7 0.799405 0.159042 0.077064
O O8 0.294911 0.072791 0.576581
O O9 0.633929 0.103853 0.748476
O O10 0.535216 0.005923 0.835330
O O11 0.478363 0.176787 0.806682
O O12 0.227549 0.411738 0.243866
O O13 0.000000 0.503395 0.000000
O O14 0.000000 0.078657 0.500000
O O15 0.077712 0.921616 0.460530
O O16 0.098106 0.756724 0.629253
O O17 0.500000 0.102881 0.500000
O O18 0.500000 0.174455 0.000000
#
# Coordination Sequence:
#
# PCOD8049381 Si02
#       8
#     4   4   4   4   4   4   4   4
#     4  10  22  41  63  97 133 169 216 271 337 394
#     4  11  25  44  68  97 134 177 221 270 337 399
#     4  12  23  40  64  97 129 175 213 274 331 390
#     4  10  20  38  66  99 127 167 229 274 321 387
#     4  11  21  39  67  95 125 172 220 272 331 381
#     4  10  21  39  67  93 130 173 221 277 320 387
#     4  12  25  43  63  97 137 173 222 274 325 400
#     4  12  25  44  69  99 134 172 222 280 332 399
#
# _framework density 20.701868000000001
#
# number of rings (size 3 to 8) (size 9 to 14) (size 15 to 20)
#    0.000    1.000    5.000    2.250    1.750    1.500 
#    0.000    0.000    0.000    0.750    0.000    0.000 
#    0.000    0.000    0.000    0.000    0.000    0.000 
#
# Total GULP energy -198265.352718 kJ/mol
# GULP energy per Si atom -12391.584545 kJ/mol
# Density = 2.065475 g / cm^3
# Si number density = 20.701868 Si / 1000 Ang^3
#
#
#
# Elastic Constant Matrix: (Units=GPa)
#
#
# Indices 1 2 3 4 5 6 
#
# 1 121.8857 43.2813 37.6378 0.0001 -6.2152 0.0001
# 2 43.2813 97.6161 43.1661 0.0001 -3.2595 0.0001
# 3 37.6378 43.1661 105.2435 0.0003 1.3148 0.0001
# 4 0.0001 0.0001 0.0003 16.7670 0.0002 -6.2510
# 5 -6.2152 -3.2595 1.3148 0.0002 39.1369 0.0001
# 6 0.0001 0.0001 0.0001 -6.2510 0.0001 25.0136
#
#
#
# Elastic Compliance Matrix: (Units=1/GPa)
#
#
# Indices 1 2 3 4 5 6 
#
# 1 0.010206 -0.003489 -0.002236 0.000000 0.001405 0.000000
# 2 -0.003489 0.013765 -0.004407 0.000000 0.000740 0.000000
# 3 -0.002236 -0.004407 0.012123 0.000000 -0.001129 0.000000
# 4 0.000000 0.000000 0.000000 0.065768 0.000000 0.016436
# 5 0.001405 0.000740 -0.001129 0.000000 0.025874 0.000000
# 6 0.000000 0.000000 0.000000 0.016436 0.000000 0.044086
#
#
# Mechanical properties :
#
#
# Convention : Reuss Voigt Hill
#
# Bulk Modulus (GPa) = 63.17703 63.65729 63.41716
# Shear Modulus (GPa) = 25.33403 29.56086 27.44744
#
# Velocity S-wave (km/s) = 3.50202 3.78290 3.64516
# Velocity P-wave (km/s) = 6.85098 7.06376 6.95819
#
# Compressibility (1/GPa) = 0.01582854
#
# Stress axis : x y z
#
# Youngs Moduli (GPa) = 97.98536 72.64891 82.48630
#
# Poissons Ratio (x) = 0.25349 0.18446
# Poissons Ratio (y) = 0.34189 0.36353
# Poissons Ratio (z) = 0.21912 0.32017
#
# Static dielectric constant tensor:
#      x y z
#    x 3.700860 0.000000 -0.119090 
#    y 0.000000 3.668670 0.000000 
#    z -0.119090 0.000000 3.932320 
# 
# 
# High freq. dielectric constant tensor:
#      x y z
#    x 1.804050 0.000000 -0.012470 
#    y 0.000000 1.795220 0.000000 
#    z -0.012470 0.000000 1.824770 
# 
# From -- ./inp_files/53206.got.cif
#   From: 2010.03.12/outbox.cif.g09.slc.cpg/sg5_27_cif.got.tgz:53206.got - 2010.03.31 09:47:26.
