data_PCOD8049595
_publ_section_title
;
Structure prediction by ZEFSAII (Michael W. Deem and Ramdas Pophale) SiO2 
 PCOD8049595
Probable space group: C 2
;
_chemical_formula_sum "Si O2"
_cell_formula_units_Z 28
_cell_length_a 19.190068
_cell_length_b 9.064702
_cell_length_c 13.644904
_cell_angle_alpha 90.000000
_cell_angle_beta 145.836023
_cell_angle_gamma 90.000000
_cell_volume 1332.905069
_symmetry_space_group_name_H-M "C 2"
_symmetry_group_IT_number 5
_symmetry_cell_setting 'monoclinic'
loop_
_space_group_symop_operation_xyz
x,y,z
-x,y,-z
1/2+x,1/2+y,z
1/2-x,1/2+y,-z
loop_
_atom_site_type_symbol
_atom_site_label
_atom_site_fract_x
_atom_site_fract_y
_atom_site_fract_z
Si Si1 0.181382 0.250000 0.960815
Si Si2 0.346631 0.067250 0.010661
Si Si3 0.114945 0.573886 0.389665
Si Si4 0.646992 0.375157 0.357461
Si Si5 0.036007 0.341302 0.432789
Si Si6 0.795629 0.759526 0.776004
Si Si7 0.927960 0.028621 0.017235
O O1 0.297016 0.181085 0.035955
O O2 0.144975 0.162601 0.017266
O O3 0.066346 0.261358 0.751916
O O4 0.219617 0.412179 0.042636
O O5 0.316809 0.114373 0.864841
O O6 0.495515 0.054193 0.181285
O O7 0.231554 0.475856 0.488018
O O8 0.149895 0.747019 0.443713
O O9 0.072178 0.507285 0.442982
O O10 0.625984 0.278417 0.232338
O O11 0.525115 0.476758 0.214674
O O12 0.157509 0.240947 0.573214
O O13 0.000000 0.364267 0.500000
O O14 0.824450 0.903685 0.876014
O O15 0.000000 0.075589 0.000000
#
# Coordination Sequence:
#
# PCOD8049595 Si02
#       7
#     4   4   4   4   4   4   4
#     4  11  24  40  68  94 130 171 220 273 325 388
#     4  11  22  40  64  95 126 172 220 268 323 385
#     4  10  23  38  65  92 125 173 216 267 319 394
#     4  10  22  40  65  92 130 169 218 266 333 383
#     4  10  21  40  65  92 128 171 213 259 332 387
#     4  10  20  41  65  91 125 172 211 268 327 386
#     4  10  22  42  67  93 129 171 218 271 329 385
#
# _framework density 21.006747000000001
#
# number of rings (size 3 to 8) (size 9 to 14) (size 15 to 20)
#    0.000    1.714    2.857    0.857    8.000    0.000 
#    5.143    0.000    0.000    7.714    0.000    0.000 
#    0.000    0.000    0.000    0.000    0.000    0.000 
#
# Total GULP energy -173446.182051 kJ/mol
# GULP energy per Si atom -12389.013004 kJ/mol
# Density = 2.095893 g / cm^3
# Si number density = 21.006747 Si / 1000 Ang^3
#
#
#
# Elastic Constant Matrix: (Units=GPa)
#
#
# Indices 1 2 3 4 5 6 
#
# 1 35.0642 8.3914 -1.5135 0.0000 -8.0411 0.0000
# 2 8.3914 91.6354 21.3082 0.0000 -0.8798 0.0000
# 3 -1.5135 21.3082 83.2346 0.0000 -6.4728 0.0000
# 4 0.0000 0.0000 0.0000 33.1027 0.0000 -5.0705
# 5 -8.0411 -0.8798 -6.4728 0.0000 22.7295 0.0000
# 6 0.0000 0.0000 0.0000 -5.0705 0.0000 45.1644
#
#
#
# Elastic Compliance Matrix: (Units=1/GPa)
#
#
# Indices 1 2 3 4 5 6 
#
# 1 0.032167 -0.003384 0.002379 0.000000 0.011926 0.000000
# 2 -0.003384 0.011963 -0.003253 0.000000 -0.001661 0.000000
# 3 0.002379 -0.003253 0.013239 0.000000 0.004486 0.000000
# 4 0.000000 0.000000 0.000000 0.030738 0.000000 0.003451
# 5 0.011926 -0.001661 0.004486 0.000000 0.049428 0.000000
# 6 0.000000 0.000000 0.000000 0.003451 0.000000 0.022529
#
#
# Mechanical properties :
#
#
# Convention : Reuss Voigt Hill
#
# Bulk Modulus (GPa) = 20.47022 29.58958 25.02990
# Shear Modulus (GPa) = 27.04680 32.31586 29.68133
#
# Velocity S-wave (km/s) = 3.59211 3.92644 3.76299
# Velocity P-wave (km/s) = 5.19327 5.88832 5.55168
#
# Compressibility (1/GPa) = 0.04885145
#
# Stress axis : x y z
#
# Youngs Moduli (GPa) = 31.08814 83.58918 75.53343
#
# Poissons Ratio (x) = 0.28288 -0.17967
# Poissons Ratio (y) = 0.10521 0.24573
# Poissons Ratio (z) = -0.07395 0.27194
#
# Static dielectric constant tensor:
#      x y z
#    x 3.751160 0.000000 0.034720 
#    y 0.000000 3.848430 0.000000 
#    z 0.034720 0.000000 4.017020 
# 
# 
# High freq. dielectric constant tensor:
#      x y z
#    x 1.817540 0.000000 0.012710 
#    y 0.000000 1.812290 0.000000 
#    z 0.012710 0.000000 1.824960 
# 
# From -- ./inp_files/41709.got.cif
#   From: 2010.03.12/outbox.cif.g09.slc.cpg/sg5_21_cif.got.tgz:41709.got - 2010.03.31 09:47:26.
