data_PCOD8049838
_publ_section_title
;
Structure prediction by ZEFSAII (Michael W. Deem and Ramdas Pophale) SiO2 
 PCOD8049838
Probable space group: C 2
;
_chemical_formula_sum "Si O2"
_cell_formula_units_Z 28
_cell_length_a 4.934386
_cell_length_b 31.466055
_cell_length_c 9.570107
_cell_angle_alpha 90.000000
_cell_angle_beta 64.300866
_cell_angle_gamma 90.000000
_cell_volume 1338.928188
_symmetry_space_group_name_H-M "C 2"
_symmetry_group_IT_number 5
_symmetry_cell_setting 'monoclinic'
loop_
_space_group_symop_operation_xyz
x,y,z
-x,y,-z
1/2+x,1/2+y,z
1/2-x,1/2+y,-z
loop_
_atom_site_type_symbol
_atom_site_label
_atom_site_fract_x
_atom_site_fract_y
_atom_site_fract_z
Si Si1 0.164525 0.041350 0.100226
Si Si2 0.399269 0.467650 0.673817
Si Si3 0.620535 0.324977 0.821157
Si Si4 0.174402 0.193068 0.602779
Si Si5 0.148371 0.135134 0.107237
Si Si6 0.610390 0.910889 0.324626
Si Si7 0.254426 0.286293 0.666062
O O1 0.019624 0.087293 0.168756
O O2 0.199858 0.008866 0.219922
O O3 0.500000 0.055285 0.000000
O O4 0.000000 0.021313 0.000000
O O5 0.500000 0.483901 0.500000
O O6 0.680626 0.451112 0.697362
O O7 0.157668 0.429206 0.712932
O O8 0.700752 0.374877 0.796192
O O9 0.343398 0.310031 0.788247
O O10 0.915971 0.299838 0.705510
O O11 0.500000 0.313458 0.000000
O O12 0.500000 0.170999 0.500000
O O13 0.253117 0.235342 0.674456
O O14 0.000000 0.205434 0.500000
O O15 0.954683 0.162936 0.738521
O O16 0.500000 0.139243 0.000000
O O17 0.000000 0.153075 0.000000
O O18 0.500000 0.893051 0.500000
O O19 0.500000 0.302918 0.500000
#
# Coordination Sequence:
#
# PCOD8049838 Si02
#       7
#     4   4   4   4   4   4   4
#     4  10  21  38  59  86 121 161 200 243 303 364
#     4  10  21  37  59  86 114 152 202 248 293 352
#     4  12  25  40  61  92 120 152 202 253 301 357
#     4  11  23  41  64  93 121 157 210 256 300 359
#     4  10  22  40  62  90 126 166 203 246 308 369
#     4  10  21  38  59  84 117 156 196 243 304 363
#     4  11  23  42  63  85 120 162 198 243 306 368
#
# _framework density 20.912248000000002
#
# number of rings (size 3 to 8) (size 9 to 14) (size 15 to 20)
#    0.000    1.429    0.000    6.000    0.000    5.143 
#    0.000    2.143    0.000    0.000    0.000    0.000 
#    0.000    0.000    0.000    0.000    0.000    0.000 
#
# Total GULP energy -173547.889155 kJ/mol
# GULP energy per Si atom -12396.277797 kJ/mol
# Density = 2.086465 g / cm^3
# Si number density = 20.912248 Si / 1000 Ang^3
#
#
#
# Elastic Constant Matrix: (Units=GPa)
#
#
# Indices 1 2 3 4 5 6 
#
# 1 99.9923 15.1070 21.9760 0.0000 2.5023 0.0000
# 2 15.1070 93.4127 53.5182 0.0000 4.6662 0.0000
# 3 21.9760 53.5182 91.7135 0.0000 1.0691 0.0000
# 4 0.0000 0.0000 0.0000 9.1573 0.0000 12.9831
# 5 2.5023 4.6662 1.0691 0.0000 37.1101 0.0000
# 6 0.0000 0.0000 0.0000 12.9831 0.0000 2.2261
#
#
#
# Elastic Compliance Matrix: (Units=1/GPa)
#
#
# Indices 1 2 3 4 5 6 
#
# 1 0.010579 -0.000349 -0.002324 0.000000 -0.000602 0.000000
# 2 -0.000349 0.016208 -0.009354 0.000000 -0.001745 0.000000
# 3 -0.002324 -0.009354 0.016909 0.000000 0.000846 0.000000
# 4 0.000000 0.000000 0.000000 -0.015024 0.000000 0.087620
# 5 -0.000602 -0.001745 0.000846 0.000000 0.027183 0.000000
# 6 0.000000 0.000000 0.000000 0.087620 0.000000 -0.061801
#
#
# Mechanical properties :
#
#
# Convention : Reuss Voigt Hill
#
# Bulk Modulus (GPa) = 50.91237 51.81342 51.36290
# Shear Modulus (GPa) = 202.79168 22.66653 112.72910
#
# Velocity S-wave (km/s) = 9.85815 3.29582 7.35002
# Velocity P-wave (km/s) = 12.40871 6.27005 9.83081
#
# Compressibility (1/GPa) = 0.01964159
#
# Stress axis : x y z
#
# Youngs Moduli (GPa) = 94.52322 61.69850 59.14062
#
# Poissons Ratio (x) = 0.02155 0.13745
# Poissons Ratio (y) = 0.03302 0.55319
# Poissons Ratio (z) = 0.21969 0.57712
#
# Static dielectric constant tensor:
#      x y z
#    x 3.990740 0.000000 0.030080 
#    y 0.000000 3.585750 0.000000 
#    z 0.030080 0.000000 3.749570 
# 
# 
# High freq. dielectric constant tensor:
#      x y z
#    x 1.840610 0.000000 -0.001070 
#    y 0.000000 1.813410 0.000000 
#    z -0.001070 0.000000 1.807420 
# 
# From -- ./inp_files/13286.got.cif
#   From: 2010.03.12/outbox.cif.g09.slc.cpg/sg5_7_cif.got.tgz:13286.got - 2010.03.31 09:47:26.
