data_PCOD8049213
_publ_section_title
;
Structure prediction by ZEFSAII (Michael W. Deem and Ramdas Pophale) SiO2 
 PCOD8049213
Probable space group: C 2
;
_chemical_formula_sum "Si O2"
_cell_formula_units_Z 30
_cell_length_a 21.653347
_cell_length_b 10.764114
_cell_length_c 19.293878
_cell_angle_alpha 90.000000
_cell_angle_beta 161.048688
_cell_angle_gamma 90.000000
_cell_volume 1460.466142
_symmetry_space_group_name_H-M "C 2"
_symmetry_group_IT_number 5
_symmetry_cell_setting 'monoclinic'
loop_
_space_group_symop_operation_xyz
x,y,z
-x,y,-z
1/2+x,1/2+y,z
1/2-x,1/2+y,-z
loop_
_atom_site_type_symbol
_atom_site_label
_atom_site_fract_x
_atom_site_fract_y
_atom_site_fract_z
Si Si1 0.498499 0.716320 0.780276
Si Si2 0.441876 0.261831 0.683857
Si Si3 0.786230 0.149605 0.125455
Si Si4 0.885264 0.500453 0.460978
Si Si5 0.681496 0.360887 0.816181
Si Si6 0.060031 0.976419 0.215230
Si Si7 0.731103 0.867905 0.794488
Si Si8 0.500000 0.226695 0.500000
O O1 0.271498 0.713258 0.545910
O O2 0.560033 0.704936 0.765475
O O3 0.559464 0.596907 0.889697
O O4 0.604107 0.830786 0.930110
O O5 0.529713 0.284911 0.701389
O O6 0.429486 0.395520 0.705300
O O7 0.575269 0.165945 0.868373
O O8 0.801234 0.227137 0.213163
O O9 0.837654 0.008816 0.198766
O O10 0.772097 0.503858 0.412474
O O11 0.814999 0.388091 0.335337
O O12 0.104146 0.462879 0.707438
O O13 0.867658 0.635816 0.406335
O O14 0.638838 0.315190 0.692673
O O15 0.949534 0.905868 0.036951
#
# Coordination Sequence:
#
# PCOD8049213 Si02
#       8
#     4   4   4   4   4   4   4   2
#     4  11  22  37  62  87 119 161 201 254 308 354
#     4  10  23  39  60  91 118 156 210 253 304 362
#     4  10  22  39  59  88 124 157 202 254 308 365
#     4  10  20  37  61  86 116 157 207 246 293 355
#     4  11  23  41  60  89 128 163 202 249 309 371
#     4  11  20  36  60  86 113 149 198 257 293 350
#     4   9  20  36  56  84 116 152 197 242 297 353
#     4  10  22  40  60  92 126 166 202 244 304 376
#
# _framework density 20.541387
#
# number of rings (size 3 to 8) (size 9 to 14) (size 15 to 20)
#    0.000    1.867    1.333    3.600    1.867    2.133 
#    0.000    2.000    0.000    8.000    0.000    0.000 
#    0.000    0.000    0.000    0.000    0.000    0.000 
#
# Total GULP energy -185911.664995 kJ/mol
# GULP energy per Si atom -12394.111000 kJ/mol
# Density = 2.049463 g / cm^3
# Si number density = 20.541387 Si / 1000 Ang^3
#
#
#
# Elastic Constant Matrix: (Units=GPa)
#
#
# Indices 1 2 3 4 5 6 
#
# 1 46.5722 17.0307 27.4947 0.0002 6.1445 0.0033
# 2 17.0307 102.5521 25.4828 0.0038 -15.9375 0.0097
# 3 27.4947 25.4828 91.4892 0.0014 4.3971 0.0045
# 4 0.0002 0.0038 0.0014 17.5600 0.0027 -0.5710
# 5 6.1445 -15.9375 4.3971 0.0027 32.5211 0.0057
# 6 0.0033 0.0097 0.0045 -0.5710 0.0057 32.0196
#
#
#
# Elastic Compliance Matrix: (Units=1/GPa)
#
#
# Indices 1 2 3 4 5 6 
#
# 1 0.027824 -0.003846 -0.006993 0.000002 -0.006196 0.000000
# 2 -0.003846 0.012114 -0.002555 -0.000004 0.007009 -0.000004
# 3 -0.006993 -0.002555 0.013830 0.000000 -0.001801 0.000000
# 4 0.000002 -0.000004 0.000000 0.056981 -0.000007 0.001016
# 5 -0.006196 0.007009 -0.001801 -0.000007 0.035598 -0.000008
# 6 0.000000 -0.000004 0.000000 0.001016 -0.000008 0.031249
#
#
# Mechanical properties :
#
#
# Convention : Reuss Voigt Hill
#
# Bulk Modulus (GPa) = 37.06418 42.29219 39.67819
# Shear Modulus (GPa) = 23.43259 27.79383 25.61321
#
# Velocity S-wave (km/s) = 3.38116 3.68239 3.53499
# Velocity P-wave (km/s) = 5.77285 6.22202 6.00164
#
# Compressibility (1/GPa) = 0.02698023
#
# Stress axis : x y z
#
# Youngs Moduli (GPa) = 35.93973 82.54902 72.30658
#
# Poissons Ratio (x) = 0.31749 0.50562
# Poissons Ratio (y) = 0.13823 0.18475
# Poissons Ratio (z) = 0.25132 0.21093
#
# Static dielectric constant tensor:
#      x y z
#    x 3.620230 -0.000010 0.076500 
#    y -0.000010 3.653510 0.000000 
#    z 0.076500 0.000000 3.749280 
# 
# 
# High freq. dielectric constant tensor:
#      x y z
#    x 1.794970 0.000000 0.003400 
#    y 0.000000 1.799570 0.000000 
#    z 0.003400 0.000000 1.801570 
# 
# From -- ./inp_files/67410.got.cif
#   From: 2010.03.12/outbox.cif.g09.slc.cpg/sg5_34_cif.got.tgz:67410.got - 2010.03.31 09:47:26.
