data_PCOD8049634
_publ_section_title
;
Structure prediction by ZEFSAII (Michael W. Deem and Ramdas Pophale) SiO2 
 PCOD8049634
Probable space group: C 2
;
_chemical_formula_sum "Si O2"
_cell_formula_units_Z 20
_cell_length_a 12.296145
_cell_length_b 15.359474
_cell_length_c 8.629525
_cell_angle_alpha 90.000000
_cell_angle_beta 36.488379
_cell_angle_gamma 90.000000
_cell_volume 969.171738
_symmetry_space_group_name_H-M "C 2"
_symmetry_group_IT_number 5
_symmetry_cell_setting 'monoclinic'
loop_
_space_group_symop_operation_xyz
x,y,z
-x,y,-z
1/2+x,1/2+y,z
1/2-x,1/2+y,-z
loop_
_atom_site_type_symbol
_atom_site_label
_atom_site_fract_x
_atom_site_fract_y
_atom_site_fract_z
Si Si1 0.470201 0.657250 0.713012
Si Si2 0.000000 0.474171 0.500000
Si Si3 0.084602 0.698130 0.233539
Si Si4 0.000000 0.443126 0.000000
Si Si5 0.817383 0.572577 0.435000
Si Si6 0.349729 0.839685 0.897202
O O1 0.500000 0.630480 0.500000
O O2 0.607358 0.602068 0.663683
O O3 0.499618 0.762227 0.698324
O O4 0.264921 0.635403 0.009324
O O5 0.130410 0.533122 0.457469
O O6 0.137169 0.414065 0.245664
O O7 0.000000 0.693817 0.500000
O O8 0.938852 0.660833 0.276479
O O9 0.145695 0.797115 0.123278
O O10 0.141266 0.502532 0.744151
O O11 0.878501 0.381226 0.032064
#
# Coordination Sequence:
#
# PCOD8049634 Si02
#       6
#     4   2   4   2   4   4
#     4  10  22  41  73  91 123 175 226 254 312 397
#     4  10  20  42  64 102 130 168 200 290 322 368
#     4  10  22  40  69  93 124 171 222 259 307 397
#     4  10  22  36  64 100 134 168 198 290 324 362
#     4  11  22  40  71  90 135 166 220 261 331 373
#     4   9  21  40  66  88 138 163 217 257 328 376
#
# _framework density 20.636177
#
# number of rings (size 3 to 8) (size 9 to 14) (size 15 to 20)
#    1.200    0.800    2.000    1.200    2.800    0.800 
#    0.000    5.000    4.400    0.000    0.000    0.000 
#    0.000    0.000    0.000    0.000    0.000    0.000 
#
# Total GULP energy -123898.812978 kJ/mol
# GULP energy per Si atom -12389.881298 kJ/mol
# Density = 2.058921 g / cm^3
# Si number density = 20.636177 Si / 1000 Ang^3
#
#
#
# Elastic Constant Matrix: (Units=GPa)
#
#
# Indices 1 2 3 4 5 6 
#
# 1 103.2975 38.8905 44.9822 0.0007 8.0063 0.0000
# 2 38.8905 83.0565 21.8856 0.0011 7.0734 -0.0001
# 3 44.9822 21.8856 113.6751 0.0016 0.9423 0.0001
# 4 0.0007 0.0011 0.0016 14.4480 -0.0006 -2.8056
# 5 8.0063 7.0734 0.9423 -0.0006 33.5618 -0.0002
# 6 0.0000 -0.0001 0.0001 -2.8056 -0.0002 29.2178
#
#
#
# Elastic Compliance Matrix: (Units=1/GPa)
#
#
# Indices 1 2 3 4 5 6 
#
# 1 0.013670 -0.005061 -0.004418 0.000000 -0.002071 0.000000
# 2 -0.005061 0.014789 -0.000829 -0.000001 -0.001886 0.000000
# 3 -0.004418 -0.000829 0.010697 -0.000001 0.000928 0.000000
# 4 0.000000 -0.000001 -0.000001 0.070529 0.000001 0.006772
# 5 -0.002071 -0.001886 0.000928 0.000001 0.030661 0.000000
# 6 0.000000 0.000000 0.000000 0.006772 0.000000 0.034876
#
#
# Mechanical properties :
#
#
# Convention : Reuss Voigt Hill
#
# Bulk Modulus (GPa) = 53.93478 56.83839 55.38658
# Shear Modulus (GPa) = 24.75027 28.39691 26.57359
#
# Velocity S-wave (km/s) = 3.46694 3.71357 3.59237
# Velocity P-wave (km/s) = 6.49761 6.78162 6.64114
#
# Compressibility (1/GPa) = 0.01854091
#
# Stress axis : x y z
#
# Youngs Moduli (GPa) = 73.15081 67.61939 93.48257
#
# Poissons Ratio (x) = 0.34219 0.41301
# Poissons Ratio (y) = 0.37018 0.07750
# Poissons Ratio (z) = 0.32318 0.05606
#
# Static dielectric constant tensor:
#      x y z
#    x 3.619510 0.000000 0.126300 
#    y 0.000000 3.924890 0.000000 
#    z 0.126300 0.000000 3.562270 
# 
# 
# High freq. dielectric constant tensor:
#      x y z
#    x 1.792570 0.000000 0.017080 
#    y 0.000000 1.812720 0.000000 
#    z 0.017080 0.000000 1.798500 
# 
# From -- ./inp_files/2470.got.cif
#   From: 2010.03.12/outbox.cif.g09.slc.cpg/sg5_2_cif.got.tgz:2470.got - 2010.03.31 09:47:26.
