data_PCOD8049569
_publ_section_title
;
Structure prediction by ZEFSAII (Michael W. Deem and Ramdas Pophale) SiO2 
 PCOD8049569
Probable space group: C 2
;
_chemical_formula_sum "Si O2"
_cell_formula_units_Z 26
_cell_length_a 11.213936
_cell_length_b 19.200029
_cell_length_c 8.426847
_cell_angle_alpha 90.000000
_cell_angle_beta 139.765350
_cell_angle_gamma 90.000000
_cell_volume 1171.934797
_symmetry_space_group_name_H-M "C 2"
_symmetry_group_IT_number 5
_symmetry_cell_setting 'monoclinic'
loop_
_space_group_symop_operation_xyz
x,y,z
-x,y,-z
1/2+x,1/2+y,z
1/2-x,1/2+y,-z
loop_
_atom_site_type_symbol
_atom_site_label
_atom_site_fract_x
_atom_site_fract_y
_atom_site_fract_z
Si Si1 0.339532 0.888110 0.547478
Si Si2 0.980398 0.980766 0.799823
Si Si3 0.258650 0.860300 0.111250
Si Si4 0.500000 0.684789 0.000000
Si Si5 0.171365 0.770625 0.580803
Si Si6 0.590759 0.215210 0.923280
Si Si7 0.419249 0.617777 0.244794
O O1 0.281203 0.855025 0.321868
O O2 0.560486 0.895670 0.783846
O O3 0.282029 0.834239 0.621803
O O4 0.235049 0.962906 0.459342
O O5 0.065799 0.034361 0.759281
O O6 0.085849 0.907637 0.888562
O O7 0.000000 0.010192 0.000000
O O8 0.222299 0.781712 0.016548
O O9 0.686046 0.729311 0.162510
O O10 0.527281 0.644869 0.196482
O O11 0.000000 0.804223 0.500000
O O12 0.083293 0.713901 0.371440
O O13 0.500000 0.222965 0.000000
O O14 0.708248 0.144157 0.026902
O O15 0.500000 0.640790 0.500000
#
# Coordination Sequence:
#
# PCOD8049569 Si02
#       7
#     4   4   4   2   4   4   4
#     4  10  21  38  71 103 135 182 231 292 361 413
#     4  10  21  46  68  98 143 188 234 295 356 419
#     4  10  20  40  73 106 134 178 241 294 354 422
#     4  12  26  48  68 104 146 186 238 294 358 428
#     4  12  24  41  67 102 141 181 226 298 359 412
#     4  12  22  44  72 107 141 181 243 299 357 429
#     4  12  27  46  72 102 147 196 238 291 358 426
#
# _framework density 22.185534000000001
#
# number of rings (size 3 to 8) (size 9 to 14) (size 15 to 20)
#    0.000    0.923    5.385    2.308    2.154    0.615 
#    5.538    1.538    0.000    0.000    0.000    0.000 
#    0.000    0.000    0.000    0.000    0.000    0.000 
#
# Total GULP energy -161130.447810 kJ/mol
# GULP energy per Si atom -12394.649832 kJ/mol
# Density = 2.213504 g / cm^3
# Si number density = 22.185534 Si / 1000 Ang^3
#
#
#
# Elastic Constant Matrix: (Units=GPa)
#
#
# Indices 1 2 3 4 5 6 
#
# 1 111.6342 39.4642 39.0211 0.0000 4.5064 0.0000
# 2 39.4642 83.5940 25.9587 0.0000 5.9177 0.0000
# 3 39.0211 25.9587 84.6296 0.0000 1.8177 0.0000
# 4 0.0000 0.0000 0.0000 20.1547 0.0000 2.7185
# 5 4.5064 5.9177 1.8177 0.0000 44.7349 0.0000
# 6 0.0000 0.0000 0.0000 2.7185 0.0000 40.7648
#
#
#
# Elastic Compliance Matrix: (Units=1/GPa)
#
#
# Indices 1 2 3 4 5 6 
#
# 1 0.011965 -0.004317 -0.004183 0.000000 -0.000464 0.000000
# 2 -0.004317 0.014893 -0.002547 0.000000 -0.001432 0.000000
# 3 -0.004183 -0.002547 0.014522 0.000000 0.000168 0.000000
# 4 0.000000 0.000000 0.000000 0.050067 0.000000 -0.003339
# 5 -0.000464 -0.001432 0.000168 0.000000 0.022583 0.000000
# 6 0.000000 0.000000 0.000000 -0.003339 0.000000 0.024754
#
#
# Mechanical properties :
#
#
# Convention : Reuss Voigt Hill
#
# Bulk Modulus (GPa) = 51.84814 54.30508 53.07661
# Shear Modulus (GPa) = 29.88557 32.82512 31.35534
#
# Velocity S-wave (km/s) = 3.67423 3.85069 3.76350
# Velocity P-wave (km/s) = 6.43591 6.65592 6.54684
#
# Compressibility (1/GPa) = 0.01928709
#
# Stress axis : x y z
#
# Youngs Moduli (GPa) = 83.57994 67.14675 68.85934
#
# Poissons Ratio (x) = 0.28985 0.28801
# Poissons Ratio (y) = 0.36079 0.17538
# Poissons Ratio (z) = 0.34958 0.17102
#
# Static dielectric constant tensor:
#      x y z
#    x 4.260610 0.000000 -0.103890 
#    y 0.000000 3.637360 0.000000 
#    z -0.103890 0.000000 4.252870 
# 
# 
# High freq. dielectric constant tensor:
#      x y z
#    x 1.889320 0.000000 -0.001220 
#    y 0.000000 1.842180 0.000000 
#    z -0.001220 0.000000 1.875210 
# 
# From -- ./inp_files/21884.got.cif
#   From: 2010.03.12/outbox.cif.g09.slc.cpg/sg5_11_cif.got.tgz:21884.got - 2010.03.31 09:47:26.
