data_PCOD8049976
_publ_section_title
;
Structure prediction by ZEFSAII (Michael W. Deem and Ramdas Pophale) SiO2 
 PCOD8049976
Probable space group: C 2
;
_chemical_formula_sum "Si O2"
_cell_formula_units_Z 24
_cell_length_a 18.315942
_cell_length_b 8.307732
_cell_length_c 18.934260
_cell_angle_alpha 90.000000
_cell_angle_beta 23.904470
_cell_angle_gamma 90.000000
_cell_volume 1167.463603
_symmetry_space_group_name_H-M "C 2"
_symmetry_group_IT_number 5
_symmetry_cell_setting 'monoclinic'
loop_
_space_group_symop_operation_xyz
x,y,z
-x,y,-z
1/2+x,1/2+y,z
1/2-x,1/2+y,-z
loop_
_atom_site_type_symbol
_atom_site_label
_atom_site_fract_x
_atom_site_fract_y
_atom_site_fract_z
Si Si1 0.262751 0.040860 0.312025
Si Si2 0.409262 0.688322 0.672552
Si Si3 0.908448 0.216549 0.148154
Si Si4 0.382051 0.052614 0.665974
Si Si5 0.836792 0.581502 0.992154
Si Si6 0.757313 0.713005 0.911562
O O1 0.215538 0.106970 0.276280
O O2 0.103292 0.098053 0.506234
O O3 0.272111 0.845959 0.303663
O O4 0.458393 0.104901 0.163198
O O5 0.300732 0.691310 0.841807
O O6 0.449820 0.873189 0.619218
O O7 0.815733 0.059795 0.195037
O O8 0.000000 0.310269 0.000000
O O9 0.053899 0.150568 0.075878
O O10 0.500000 0.134773 0.500000
O O11 0.389426 0.159537 0.730766
O O12 0.755947 0.404118 0.071793
O O13 0.833271 0.634450 0.914517
#
# Coordination Sequence:
#
# PCOD8049976 Si02
#       6
#     4   4   4   4   4   4
#     4  10  21  39  62  95 123 162 212 255 309 369
#     4  11  22  39  62  96 125 162 210 256 313 369
#     4   9  20  38  64  90 120 166 207 256 314 364
#     4  11  22  39  61  96 126 155 212 258 305 370
#     4  11  23  43  64  91 130 167 206 257 316 375
#     4  10  23  42  63  92 124 169 207 255 318 372
#
# _framework density 20.557386999999999
#
# number of rings (size 3 to 8) (size 9 to 14) (size 15 to 20)
#    0.000    1.667    1.667    4.500    4.667    5.333 
#    3.000    0.000    0.000    0.000    0.000    0.000 
#    0.000    0.000    0.000    0.000    0.000    0.000 
#
# Total GULP energy -148696.447447 kJ/mol
# GULP energy per Si atom -12391.370621 kJ/mol
# Density = 2.051060 g / cm^3
# Si number density = 20.557387 Si / 1000 Ang^3
#
#
#
# Elastic Constant Matrix: (Units=GPa)
#
#
# Indices 1 2 3 4 5 6 
#
# 1 107.7658 24.5201 64.7174 -0.0006 10.0833 0.0002
# 2 24.5201 64.6611 46.5042 -0.0012 -4.7319 -0.0004
# 3 64.7174 46.5042 143.5590 0.0013 9.6904 -0.0030
# 4 -0.0006 -0.0012 0.0013 28.6226 -0.0023 -0.5601
# 5 10.0833 -4.7319 9.6904 -0.0023 32.8811 0.0020
# 6 0.0002 -0.0004 -0.0030 -0.5601 0.0020 26.4924
#
#
#
# Elastic Compliance Matrix: (Units=1/GPa)
#
#
# Indices 1 2 3 4 5 6 
#
# 1 0.012976 -0.001348 -0.005236 0.000000 -0.002630 0.000000
# 2 -0.001348 0.021116 -0.006597 0.000002 0.005396 -0.000001
# 3 -0.005236 -0.006597 0.011651 -0.000001 -0.002777 0.000001
# 4 0.000000 0.000002 -0.000001 0.034952 0.000003 0.000739
# 5 -0.002630 0.005396 -0.002777 0.000003 0.032814 -0.000003
# 6 0.000000 -0.000001 0.000001 0.000739 -0.000003 0.037762
#
#
# Mechanical properties :
#
#
# Convention : Reuss Voigt Hill
#
# Bulk Modulus (GPa) = 51.59431 65.27435 58.43433
# Shear Modulus (GPa) = 27.16030 29.61551 28.38790
#
# Velocity S-wave (km/s) = 3.63877 3.79968 3.72009
# Velocity P-wave (km/s) = 6.54266 7.14641 6.85119
#
# Compressibility (1/GPa) = 0.01938198
#
# Stress axis : x y z
#
# Youngs Moduli (GPa) = 77.06315 47.35819 85.83310
#
# Poissons Ratio (x) = 0.06383 0.44940
# Poissons Ratio (y) = 0.10386 0.56623
# Poissons Ratio (z) = 0.40348 0.31242
#
# Static dielectric constant tensor:
#      x y z
#    x 3.857450 0.000000 -0.026220 
#    y 0.000000 3.557180 0.000000 
#    z -0.026220 0.000000 3.971830 
# 
# 
# High freq. dielectric constant tensor:
#      x y z
#    x 1.793320 0.000000 -0.000040 
#    y 0.000000 1.796840 0.000000 
#    z -0.000040 0.000000 1.809790 
# 
# From -- ./inp_files/67023.got.cif
#   From: 2010.03.12/outbox.cif.g09.slc.cpg/sg5_34_cif.got.tgz:67023.got - 2010.03.31 09:47:26.
