data_PCOD8049066
_publ_section_title
;
Structure prediction by ZEFSAII (Michael W. Deem and Ramdas Pophale) SiO2 
 PCOD8049066
Probable space group: C 2
;
_chemical_formula_sum "Si O2"
_cell_formula_units_Z 24
_cell_length_a 9.259965
_cell_length_b 27.791028
_cell_length_c 5.175794
_cell_angle_alpha 90.000000
_cell_angle_beta 53.083725
_cell_angle_gamma 90.000000
_cell_volume 1064.920172
_symmetry_space_group_name_H-M "C 2"
_symmetry_group_IT_number 5
_symmetry_cell_setting 'monoclinic'
loop_
_space_group_symop_operation_xyz
x,y,z
-x,y,-z
1/2+x,1/2+y,z
1/2-x,1/2+y,-z
loop_
_atom_site_type_symbol
_atom_site_label
_atom_site_fract_x
_atom_site_fract_y
_atom_site_fract_z
Si Si1 0.300434 0.515340 0.468502
Si Si2 0.203299 0.972934 0.031180
Si Si3 0.879986 0.270584 0.879022
Si Si4 0.298140 0.671314 0.108347
Si Si5 0.377270 0.875922 0.878190
Si Si6 0.697623 0.118043 0.703225
O O1 0.497498 0.490903 0.252530
O O2 0.194489 0.496124 0.833225
O O3 0.312133 0.573185 0.468308
O O4 0.197458 0.495647 0.326042
O O5 0.216643 0.915126 0.038590
O O6 0.784002 0.322810 0.951309
O O7 0.000000 0.257821 0.500000
O O8 0.743726 0.225838 0.077912
O O9 0.000000 0.277066 0.000000
O O10 0.174559 0.654817 0.484289
O O11 0.500000 0.670563 0.000000
O O12 0.293351 0.638907 0.855843
O O13 0.500000 0.885429 0.500000
O O14 0.500000 0.881660 0.000000
O O15 0.500000 0.101105 0.000000
#
# Coordination Sequence:
#
# PCOD8049066 Si02
#       6
#     4   4   4   4   4   4
#     4  10  23  39  59  82 123 163 219 254 310 380
#     4  10  21  38  60  85 119 164 215 257 302 380
#     4   9  18  36  59  97 124 159 213 265 315 386
#     4  11  23  40  70  94 124 173 225 262 319 391
#     4  10  20  35  62  93 129 162 204 265 326 368
#     4  12  26  42  63  93 133 175 213 273 332 373
#
# _framework density 22.536898000000001
#
# number of rings (size 3 to 8) (size 9 to 14) (size 15 to 20)
#    0.000    1.667    0.000    5.000    7.000    2.000 
#    0.000    0.000   11.000    0.000    0.000    0.000 
#    0.000    0.000    0.000    0.000    0.000    0.000 
#
# Total GULP energy -148657.893712 kJ/mol
# GULP energy per Si atom -12388.157809 kJ/mol
# Density = 2.248560 g / cm^3
# Si number density = 22.536898 Si / 1000 Ang^3
#
#
#
# Elastic Constant Matrix: (Units=GPa)
#
#
# Indices 1 2 3 4 5 6 
#
# 1 62.6739 52.0121 49.1163 0.0000 25.9410 0.0000
# 2 52.0121 216.9313 68.0737 0.0000 8.8650 0.0000
# 3 49.1163 68.0737 132.4648 0.0000 52.7084 0.0000
# 4 0.0000 0.0000 0.0000 43.0134 0.0000 4.2087
# 5 25.9410 8.8650 52.7084 0.0000 53.1249 0.0000
# 6 0.0000 0.0000 0.0000 4.2087 0.0000 34.3819
#
#
#
# Elastic Compliance Matrix: (Units=1/GPa)
#
#
# Indices 1 2 3 4 5 6 
#
# 1 0.026451 -0.004685 -0.004249 0.000000 -0.007918 0.000000
# 2 -0.004685 0.006657 -0.003556 0.000000 0.004705 0.000000
# 3 -0.004249 -0.003556 0.016342 0.000000 -0.013545 0.000000
# 4 0.000000 0.000000 0.000000 0.023530 0.000000 -0.002880
# 5 -0.007918 0.004705 -0.013545 0.000000 0.035344 0.000000
# 6 0.000000 0.000000 0.000000 -0.002880 0.000000 0.029438
#
#
# Mechanical properties :
#
#
# Convention : Reuss Voigt Hill
#
# Bulk Modulus (GPa) = 40.86745 83.38602 62.12674
# Shear Modulus (GPa) = 29.25710 42.29522 35.77616
#
# Velocity S-wave (km/s) = 3.60694 4.33680 3.98860
# Velocity P-wave (km/s) = 5.95984 7.88399 6.98845
#
# Compressibility (1/GPa) = 0.02446935
#
# Stress axis : x y z
#
# Youngs Moduli (GPa) = 37.80544 150.22754 61.19237
#
# Poissons Ratio (x) = 0.70381 0.26004
# Poissons Ratio (y) = 0.17712 0.21758
# Poissons Ratio (z) = 0.16065 0.53417
#
# Static dielectric constant tensor:
#      x y z
#    x 3.157130 0.000000 0.456710 
#    y 0.000000 4.659880 0.000000 
#    z 0.456710 0.000000 4.918080 
# 
# 
# High freq. dielectric constant tensor:
#      x y z
#    x 1.860430 0.000000 0.050200 
#    y 0.000000 1.904340 0.000000 
#    z 0.050200 0.000000 1.898610 
# 
# From -- ./inp_files/6084.got.cif
#   From: 2010.03.12/outbox.cif.g09.slc.cpg/sg5_4_cif.got.tgz:6084.got - 2010.03.31 09:47:26.
