data_PCOD8049934
_publ_section_title
;
Structure prediction by ZEFSAII (Michael W. Deem and Ramdas Pophale) SiO2 
 PCOD8049934
Probable space group: C 2
;
_chemical_formula_sum "Si O2"
_cell_formula_units_Z 30
_cell_length_a 15.237086
_cell_length_b 8.427468
_cell_length_c 11.744314
_cell_angle_alpha 90.000000
_cell_angle_beta 116.455761
_cell_angle_gamma 90.000000
_cell_volume 1350.158933
_symmetry_space_group_name_H-M "C 2"
_symmetry_group_IT_number 5
_symmetry_cell_setting 'monoclinic'
loop_
_space_group_symop_operation_xyz
x,y,z
-x,y,-z
1/2+x,1/2+y,z
1/2-x,1/2+y,-z
loop_
_atom_site_type_symbol
_atom_site_label
_atom_site_fract_x
_atom_site_fract_y
_atom_site_fract_z
Si Si1 0.900422 0.893390 0.999737
Si Si2 0.295307 0.471676 0.381494
Si Si3 0.224951 0.475114 0.751870
Si Si4 0.474543 0.792691 0.330583
Si Si5 0.722923 0.317860 0.860850
Si Si6 0.500000 0.514280 0.500000
Si Si7 0.809250 0.323927 0.483262
Si Si8 0.430714 0.761441 0.055655
O O1 0.808413 0.870889 0.862247
O O2 0.869615 0.819286 0.105165
O O3 0.000000 0.817615 0.000000
O O4 0.918281 0.076941 0.027890
O O5 0.279926 0.456284 0.236051
O O6 0.405598 0.411347 0.480422
O O7 0.225104 0.349860 0.407260
O O8 0.280286 0.651787 0.416153
O O9 0.225052 0.654507 0.793209
O O10 0.243324 0.457591 0.626444
O O11 0.117457 0.404292 0.704526
O O12 0.454780 0.617741 0.369389
O O13 0.573166 0.851167 0.450894
O O14 0.490648 0.785664 0.205384
O O15 0.823106 0.343373 0.991478
O O16 0.500000 0.839097 0.000000
#
# Coordination Sequence:
#
# PCOD8049934 Si02
#       8
#     4   4   4   4   4   2   4   4
#     4  10  23  41  66  98 131 171 221 275 331 390
#     4  11  23  43  64  98 132 168 223 273 323 404
#     4  11  22  42  65  93 136 174 217 276 325 399
#     4  11  19  42  66  90 126 177 219 260 326 397
#     4  11  23  40  66  99 133 172 218 280 339 381
#     4  10  22  40  70  90 120 182 218 264 330 394
#     4  11  24  41  70  97 132 176 223 271 330 396
#     4  10  21  38  68  95 123 173 221 262 320 408
#
# _framework density 22.219605999999999
#
# number of rings (size 3 to 8) (size 9 to 14) (size 15 to 20)
#    0.000    1.333    4.000    2.400    0.000    6.400 
#    7.200    0.667    0.000    0.000    0.000    0.000 
#    0.000    0.000    0.000    0.000    0.000    0.000 
#
# Total GULP energy -185872.073254 kJ/mol
# GULP energy per Si atom -12391.471550 kJ/mol
# Density = 2.216903 g / cm^3
# Si number density = 22.219606 Si / 1000 Ang^3
#
#
#
# Elastic Constant Matrix: (Units=GPa)
#
#
# Indices 1 2 3 4 5 6 
#
# 1 134.1104 32.6734 37.9938 0.0000 -9.8320 0.0000
# 2 32.6734 44.2054 37.3563 0.0000 10.2058 0.0000
# 3 37.9938 37.3563 139.7803 0.0000 -10.8131 0.0000
# 4 0.0000 0.0000 0.0000 23.2338 0.0000 1.0948
# 5 -9.8320 10.2058 -10.8131 0.0000 42.6988 0.0000
# 6 0.0000 0.0000 0.0000 1.0948 0.0000 26.7348
#
#
#
# Elastic Compliance Matrix: (Units=1/GPa)
#
#
# Indices 1 2 3 4 5 6 
#
# 1 0.009762 -0.007996 -0.000199 0.000000 0.004109 0.000000
# 2 -0.007996 0.039744 -0.009512 0.000000 -0.013750 0.000000
# 3 -0.000199 -0.009512 0.010121 0.000000 0.004791 0.000000
# 4 0.000000 0.000000 0.000000 0.043124 0.000000 -0.001766
# 5 0.004109 -0.013750 0.004791 0.000000 0.028866 0.000000
# 6 0.000000 0.000000 0.000000 -0.001766 0.000000 0.037477
#
#
# Mechanical properties :
#
#
# Convention : Reuss Voigt Hill
#
# Bulk Modulus (GPa) = 41.29872 59.34925 50.32399
# Shear Modulus (GPa) = 23.52070 32.53829 28.02950
#
# Velocity S-wave (km/s) = 3.25708 3.83089 3.55558
# Velocity P-wave (km/s) = 5.72466 6.80705 6.28918
#
# Compressibility (1/GPa) = 0.02421383
#
# Stress axis : x y z
#
# Youngs Moduli (GPa) = 102.43612 25.16073 98.80705
#
# Poissons Ratio (x) = 0.20119 0.01962
# Poissons Ratio (y) = 0.81911 0.93984
# Poissons Ratio (z) = 0.02035 0.23933
#
# Static dielectric constant tensor:
#      x y z
#    x 4.501970 0.000000 -0.148770 
#    y 0.000000 3.543050 0.000000 
#    z -0.148770 0.000000 5.048430 
# 
# 
# High freq. dielectric constant tensor:
#      x y z
#    x 1.890740 0.000000 -0.005570 
#    y 0.000000 1.833950 0.000000 
#    z -0.005570 0.000000 1.892060 
# 
# From -- ./inp_files/42056.got.cif
#   From: 2010.03.12/outbox.cif.g09.slc.cpg/sg5_22_cif.got.tgz:42056.got - 2010.03.31 09:47:26.
