data_PCOD8049130
_publ_section_title
;
Structure prediction by ZEFSAII (Michael W. Deem and Ramdas Pophale) SiO2 
 PCOD8049130
Probable space group: C 2
;
_chemical_formula_sum "Si O2"
_cell_formula_units_Z 32
_cell_length_a 16.457632
_cell_length_b 11.760225
_cell_length_c 8.523641
_cell_angle_alpha 90.000000
_cell_angle_beta 88.018002
_cell_angle_gamma 90.000000
_cell_volume 1648.725026
_symmetry_space_group_name_H-M "C 2"
_symmetry_group_IT_number 5
_symmetry_cell_setting 'monoclinic'
loop_
_space_group_symop_operation_xyz
x,y,z
-x,y,-z
1/2+x,1/2+y,z
1/2-x,1/2+y,-z
loop_
_atom_site_type_symbol
_atom_site_label
_atom_site_fract_x
_atom_site_fract_y
_atom_site_fract_z
Si Si1 0.400582 0.839780 0.832502
Si Si2 0.013053 0.954712 0.818407
Si Si3 0.335673 0.069493 0.703785
Si Si4 0.650507 0.594642 0.688478
Si Si5 0.076211 0.521947 0.599166
Si Si6 0.089431 0.328608 0.817884
Si Si7 0.983252 0.692355 0.822489
Si Si8 0.924624 0.132018 0.613778
O O1 0.495694 0.865322 0.835420
O O2 0.386602 0.728160 0.728349
O O3 0.351766 0.941642 0.758085
O O4 0.368271 0.828485 0.013779
O O5 0.105906 0.984685 0.765308
O O6 0.950500 0.025881 0.717979
O O7 0.997022 0.823676 0.784157
O O8 0.000000 0.986484 0.000000
O O9 0.242505 0.101179 0.740713
O O10 0.356318 0.076919 0.518206
O O11 0.389778 0.160116 0.794809
O O12 0.599407 0.703561 0.749049
O O13 0.646538 0.590481 0.499214
O O14 0.123117 0.423244 0.694269
O O15 0.000000 0.473618 0.500000
O O16 0.045024 0.621333 0.713230
O O17 0.000000 0.661395 0.000000
O O18 0.000000 0.175388 0.500000
#
# Coordination Sequence:
#
# PCOD8049130 Si02
#       8
#     4   4   4   4   4   4   4   4
#     4  11  20  37  67  92 116 159 207 247 296 369
#     4  10  21  41  66  87 119 168 211 240 297 378
#     4  11  24  40  60  95 128 152 201 262 308 346
#     4  11  24  40  60  95 128 152 201 262 308 346
#     4  10  20  36  62  89 118 163 201 244 292 373
#     4  11  20  37  67  92 116 159 207 247 296 369
#     4  10  21  41  66  87 119 168 211 240 297 378
#     4  10  20  36  62  89 118 163 201 244 292 373
#
# _framework density 19.408937999999999
#
# number of rings (size 3 to 8) (size 9 to 14) (size 15 to 20)
#    0.000    1.500    5.000    2.250    0.000    4.500 
#   13.500    2.500    0.000    0.000    0.000    0.000 
#    0.000    0.000    0.000    0.000    0.000    0.000 
#
# Total GULP energy -198384.909630 kJ/mol
# GULP energy per Si atom -12399.056852 kJ/mol
# Density = 1.936476 g / cm^3
# Si number density = 19.408938 Si / 1000 Ang^3
#
#
#
# Elastic Constant Matrix: (Units=GPa)
#
#
# Indices 1 2 3 4 5 6 
#
# 1 86.0826 39.6698 35.6169 0.0000 11.3513 0.0000
# 2 39.6698 111.3617 71.8339 0.0000 7.7142 0.0000
# 3 35.6169 71.8339 152.1560 0.0000 10.1148 0.0000
# 4 0.0000 0.0000 0.0000 32.8011 0.0000 2.0313
# 5 11.3513 7.7142 10.1148 0.0000 15.1853 0.0000
# 6 0.0000 0.0000 0.0000 2.0313 0.0000 15.3249
#
#
#
# Elastic Compliance Matrix: (Units=1/GPa)
#
#
# Indices 1 2 3 4 5 6 
#
# 1 0.015054 -0.004120 -0.001015 0.000000 -0.008484 0.000000
# 2 -0.004120 0.014140 -0.005690 0.000000 -0.000313 0.000000
# 3 -0.001015 -0.005690 0.009682 0.000000 -0.002800 0.000000
# 4 0.000000 0.000000 0.000000 0.030739 0.000000 -0.004074
# 5 -0.008484 -0.000313 -0.002800 0.000000 0.074219 0.000000
# 6 0.000000 0.000000 0.000000 -0.004074 0.000000 0.065793
#
#
# Mechanical properties :
#
#
# Convention : Reuss Voigt Hill
#
# Bulk Modulus (GPa) = 58.05301 71.53791 64.79546
# Shear Modulus (GPa) = 21.09527 26.16091 23.62809
#
# Velocity S-wave (km/s) = 3.30037 3.67533 3.49289
# Velocity P-wave (km/s) = 6.67073 7.41276 7.05151
#
# Compressibility (1/GPa) = 0.01722564
#
# Stress axis : x y z
#
# Youngs Moduli (GPa) = 66.42669 70.72319 103.28252
#
# Poissons Ratio (x) = 0.29141 0.10479
# Poissons Ratio (y) = 0.27371 0.58769
# Poissons Ratio (z) = 0.06740 0.40242
#
# Static dielectric constant tensor:
#      x y z
#    x 3.163970 0.000000 0.047110 
#    y 0.000000 3.447620 0.000000 
#    z 0.047110 0.000000 4.178850 
# 
# 
# High freq. dielectric constant tensor:
#      x y z
#    x 1.711110 0.000000 0.006060 
#    y 0.000000 1.757530 0.000000 
#    z 0.006060 0.000000 1.782240 
# 
# From -- ./inp_files/27277.got.cif
#   From: 2010.03.12/outbox.cif.g09.slc.cpg/sg5_14_cif.got.tgz:27277.got - 2010.03.31 09:47:26.
