data_PCOD8049292
_publ_section_title
;
Structure prediction by ZEFSAII (Michael W. Deem and Ramdas Pophale) SiO2 
 PCOD8049292
Probable space group: C 2
;
_chemical_formula_sum "Si O2"
_cell_formula_units_Z 24
_cell_length_a 22.184013
_cell_length_b 4.664560
_cell_length_c 15.686404
_cell_angle_alpha 90.000000
_cell_angle_beta 134.999690
_cell_angle_gamma 90.000000
_cell_volume 1147.787637
_symmetry_space_group_name_H-M "C 2"
_symmetry_group_IT_number 5
_symmetry_cell_setting 'monoclinic'
loop_
_space_group_symop_operation_xyz
x,y,z
-x,y,-z
1/2+x,1/2+y,z
1/2-x,1/2+y,-z
loop_
_atom_site_type_symbol
_atom_site_label
_atom_site_fract_x
_atom_site_fract_y
_atom_site_fract_z
Si Si1 0.800655 0.860450 0.741261
Si Si2 0.199345 0.360450 0.139952
Si Si3 0.291294 0.595055 0.499998
Si Si4 0.559392 0.329672 0.258745
Si Si5 0.708707 0.095063 0.917411
Si Si6 0.059393 0.329672 0.860041
O O1 0.795300 0.687811 0.824593
O O2 0.721560 0.754240 0.603267
O O3 0.795301 0.187811 0.766006
O O4 0.889150 0.845058 0.778294
O O5 0.278439 0.254241 0.160146
O O6 0.110850 0.345062 0.999996
O O7 0.219363 0.345050 0.438723
O O8 0.381706 0.435882 0.603260
O O9 0.529293 0.002313 0.234003
O O10 0.470706 0.502312 0.175416
O O11 0.618296 0.935880 0.839852
O O12 0.719360 0.345065 0.999998
#
# Coordination Sequence:
#
# PCOD8049292 Si02
#       6
#     4   4   4   4   4   4
#     4  11  22  36  57  84 115 151 189 238 295 350
#     4  11  22  36  57  84 115 151 189 238 295 350
#     4  10  20  38  58  79 112 157 204 236 278 358
#     4  11  22  36  57  84 115 151 189 238 295 350
#     4  10  20  38  58  79 112 157 204 236 278 358
#     4  11  22  36  57  84 115 151 189 238 295 350
#
# _framework density 20.909789
#
# number of rings (size 3 to 8) (size 9 to 14) (size 15 to 20)
#    0.000    1.333    0.000   10.000    0.000    4.000 
#    0.000    0.000    0.000    6.000    0.000    0.000 
#    0.000    0.000    0.000    0.000    0.000    0.000 
#
# Total GULP energy -148674.275820 kJ/mol
# GULP energy per Si atom -12389.522985 kJ/mol
# Density = 2.086220 g / cm^3
# Si number density = 20.909789 Si / 1000 Ang^3
#
#
#
# Elastic Constant Matrix: (Units=GPa)
#
#
# Indices 1 2 3 4 5 6 
#
# 1 101.3613 4.7358 18.4959 -0.0010 9.7872 -0.0009
# 2 4.7358 62.1672 4.7372 -0.0044 -0.0003 -0.0055
# 3 18.4959 4.7372 101.3663 -0.0004 -9.7805 -0.0010
# 4 -0.0010 -0.0044 -0.0004 48.5792 0.0001 -0.0007
# 5 9.7872 -0.0003 -9.7805 0.0001 12.3153 -0.0004
# 6 -0.0009 -0.0055 -0.0010 -0.0007 -0.0004 48.5779
#
#
#
# Elastic Compliance Matrix: (Units=1/GPa)
#
#
# Indices 1 2 3 4 5 6 
#
# 1 0.011625 -0.000639 -0.003230 0.000000 -0.011804 0.000000
# 2 -0.000639 0.016183 -0.000640 0.000001 0.000001 0.000002
# 3 -0.003230 -0.000640 0.011623 0.000000 0.011798 0.000000
# 4 0.000000 0.000001 0.000000 0.020585 0.000000 0.000000
# 5 -0.011804 0.000001 0.011798 0.000000 0.099950 0.000001
# 6 0.000000 0.000002 0.000000 0.000000 0.000001 0.020585
#
#
# Mechanical properties :
#
#
# Convention : Reuss Voigt Hill
#
# Bulk Modulus (GPa) = 32.88142 35.64809 34.26475
# Shear Modulus (GPa) = 25.03676 37.68955 31.36316
#
# Velocity S-wave (km/s) = 3.46406 4.25017 3.87709
# Velocity P-wave (km/s) = 5.63552 6.41645 6.03862
#
# Compressibility (1/GPa) = 0.03041231
#
# Stress axis : x y z
#
# Youngs Moduli (GPa) = 86.02347 61.79286 86.03779
#
# Poissons Ratio (x) = 0.03951 0.27791
# Poissons Ratio (y) = 0.05501 0.05503
# Poissons Ratio (z) = 0.27787 0.03952
#
# Static dielectric constant tensor:
#      x y z
#    x 3.455730 0.000000 0.000010 
#    y 0.000000 4.427320 0.000000 
#    z 0.000010 0.000000 3.455750 
# 
# 
# High freq. dielectric constant tensor:
#      x y z
#    x 1.792220 0.000000 0.000000 
#    y 0.000000 1.858920 0.000000 
#    z 0.000000 0.000000 1.792220 
# 
# From -- ./inp_files/62605.got.cif
#   From: 2010.03.12/outbox.cif.g09.slc.cpg/sg5_32_cif.got.tgz:62605.got - 2010.03.31 09:47:26.
