data_PCOD8049195
_publ_section_title
;
Structure prediction by ZEFSAII (Michael W. Deem and Ramdas Pophale) SiO2 
 PCOD8049195
Probable space group: C 2
;
_chemical_formula_sum "Si O2"
_cell_formula_units_Z 22
_cell_length_a 8.549945
_cell_length_b 10.565170
_cell_length_c 14.669983
_cell_angle_alpha 90.000000
_cell_angle_beta 48.324743
_cell_angle_gamma 90.000000
_cell_volume 989.798164
_symmetry_space_group_name_H-M "C 2"
_symmetry_group_IT_number 5
_symmetry_cell_setting 'monoclinic'
loop_
_space_group_symop_operation_xyz
x,y,z
-x,y,-z
1/2+x,1/2+y,z
1/2-x,1/2+y,-z
loop_
_atom_site_type_symbol
_atom_site_label
_atom_site_fract_x
_atom_site_fract_y
_atom_site_fract_z
Si Si1 0.783684 0.014830 0.030970
Si Si2 0.239349 0.736621 0.919728
Si Si3 0.457652 0.078412 0.303718
Si Si4 0.329353 0.314617 0.420872
Si Si5 0.000000 0.008462 0.500000
Si Si6 0.593664 0.822514 0.334332
O O1 0.593609 0.080912 0.159138
O O2 0.720614 0.866644 0.036153
O O3 0.832917 0.107898 0.927543
O O4 0.000000 0.005016 0.000000
O O5 0.336115 0.748863 0.782226
O O6 0.000000 0.707342 0.000000
O O7 0.503723 0.203467 0.346569
O O8 0.514672 0.961690 0.342382
O O9 0.202798 0.085703 0.382323
O O10 0.426684 0.426141 0.441941
O O11 0.279368 0.349359 0.334466
O O12 0.114222 0.254895 0.545952
#
# Coordination Sequence:
#
# PCOD8049195 Si02
#       6
#     4   4   4   4   2   4
#     4  10  23  41  62  88 123 162 208 254 299 359
#     4  10  21  41  62  89 123 163 207 252 302 358
#     4  10  21  39  59  87 120 154 198 249 300 358
#     4  10  20  37  59  87 119 156 195 243 303 362
#     4  10  22  36  60  94 120 152 198 246 302 364
#     4   9  20  38  58  84 124 160 195 244 303 361
#
# _framework density 22.226755000000001
#
# number of rings (size 3 to 8) (size 9 to 14) (size 15 to 20)
#    0.000    2.182    0.000    2.182    0.000    8.000 
#    0.000   27.273    0.000    0.000    0.000    0.000 
#    0.000    0.000    0.000    0.000    0.000    0.000 
#
# Total GULP energy -136272.864298 kJ/mol
# GULP energy per Si atom -12388.442209 kJ/mol
# Density = 2.217617 g / cm^3
# Si number density = 22.226755 Si / 1000 Ang^3
#
#
#
# Elastic Constant Matrix: (Units=GPa)
#
#
# Indices 1 2 3 4 5 6 
#
# 1 63.7076 14.5093 30.6202 0.0001 11.1078 0.0000
# 2 14.5093 38.0928 22.1358 0.0000 13.6528 0.0000
# 3 30.6202 22.1358 89.1565 0.0001 4.8019 0.0000
# 4 0.0001 0.0000 0.0001 40.1286 -0.0001 -5.0669
# 5 11.1078 13.6528 4.8019 -0.0001 37.6847 0.0000
# 6 0.0000 0.0000 0.0000 -5.0669 0.0000 10.7147
#
#
#
# Elastic Compliance Matrix: (Units=1/GPa)
#
#
# Indices 1 2 3 4 5 6 
#
# 1 0.019879 -0.002626 -0.005952 0.000000 -0.004150 0.000000
# 2 -0.002626 0.035498 -0.007311 0.000000 -0.011155 0.000000
# 3 -0.005952 -0.007311 0.014941 0.000000 0.002499 0.000000
# 4 0.000000 0.000000 0.000000 0.026502 0.000000 0.012533
# 5 -0.004150 -0.011155 0.002499 0.000000 0.031482 0.000000
# 6 0.000000 0.000000 0.000000 0.012533 0.000000 0.099256
#
#
# Mechanical properties :
#
#
# Convention : Reuss Voigt Hill
#
# Bulk Modulus (GPa) = 25.94640 36.16529 31.05584
# Shear Modulus (GPa) = 18.37001 25.95171 22.16086
#
# Velocity S-wave (km/s) = 2.87798 3.42071 3.16101
# Velocity P-wave (km/s) = 4.76891 5.64872 5.22736
#
# Compressibility (1/GPa) = 0.03854100
#
# Stress axis : x y z
#
# Youngs Moduli (GPa) = 50.30451 28.17035 66.93035
#
# Poissons Ratio (x) = 0.07397 0.39836
# Poissons Ratio (y) = 0.13209 0.48932
# Poissons Ratio (z) = 0.29940 0.20595
#
# Static dielectric constant tensor:
#      x y z
#    x 3.878630 0.000000 -0.031860 
#    y 0.000000 4.186300 0.000000 
#    z -0.031860 0.000000 5.142470 
# 
# 
# High freq. dielectric constant tensor:
#      x y z
#    x 1.854020 0.000000 -0.009510 
#    y 0.000000 1.889990 0.000000 
#    z -0.009510 0.000000 1.882920 
# 
# From -- ./inp_files/35480.got.cif
#   From: 2010.03.12/outbox.cif.g09.slc.cpg/sg5_18_cif.got.tgz:35480.got - 2010.03.31 09:47:26.
