data_PCOD8049632
_publ_section_title
;
Structure prediction by ZEFSAII (Michael W. Deem and Ramdas Pophale) SiO2 
 PCOD8049632
Probable space group: C 2
;
_chemical_formula_sum "Si O2"
_cell_formula_units_Z 28
_cell_length_a 21.449073
_cell_length_b 11.193067
_cell_length_c 12.181744
_cell_angle_alpha 90.000000
_cell_angle_beta 26.159584
_cell_angle_gamma 90.000000
_cell_volume 1289.378512
_symmetry_space_group_name_H-M "C 2"
_symmetry_group_IT_number 5
_symmetry_cell_setting 'monoclinic'
loop_
_space_group_symop_operation_xyz
x,y,z
-x,y,-z
1/2+x,1/2+y,z
1/2-x,1/2+y,-z
loop_
_atom_site_type_symbol
_atom_site_label
_atom_site_fract_x
_atom_site_fract_y
_atom_site_fract_z
Si Si1 0.105775 0.806750 0.240361
Si Si2 0.239908 0.856593 0.381436
Si Si3 0.122962 0.274563 0.054096
Si Si4 0.988861 0.018893 0.732749
Si Si5 0.588067 0.955130 0.701298
Si Si6 0.519010 0.211756 0.145321
Si Si7 0.370341 0.422786 0.134665
O O1 0.000000 0.755372 0.500000
O O2 0.079201 0.727364 0.173525
O O3 0.071371 0.947925 0.277816
O O4 0.268014 0.795588 0.019758
O O5 0.376225 0.893486 0.238088
O O6 0.133774 0.777471 0.622091
O O7 0.292079 0.776111 0.196296
O O8 0.153532 0.977528 0.484252
O O9 0.029542 0.160470 0.237928
O O10 0.008680 0.378081 0.226079
O O11 0.883299 0.976858 0.994455
O O12 0.731702 0.975792 0.408891
O O13 0.499948 0.075743 0.860428
O O14 0.621744 0.277451 0.894061
O O15 0.500000 0.473051 0.000000
#
# Coordination Sequence:
#
# PCOD8049632 Si02
#       7
#     4   4   4   4   4   4   4
#     4  10  21  47  66  92 134 181 236 278 346 398
#     4  10  22  45  63 101 134 171 223 278 351 406
#     4  12  25  40  68 102 129 176 235 279 333 414
#     4  10  23  41  69  93 131 183 222 282 342 399
#     4  12  25  39  66 104 134 172 226 274 348 416
#     4  10  23  42  67  93 133 183 218 282 339 398
#     4  10  20  42  63  91 134 176 214 269 346 405
#
# _framework density 21.715886999999999
#
# number of rings (size 3 to 8) (size 9 to 14) (size 15 to 20)
#    0.000    1.714    5.714    1.286    4.000    3.429 
#    0.000    2.857    0.000    0.000    0.000    0.000 
#    0.000    0.000    0.000    0.000    0.000    0.000 
#
# Total GULP energy -173482.659420 kJ/mol
# GULP energy per Si atom -12391.618530 kJ/mol
# Density = 2.166646 g / cm^3
# Si number density = 21.715887 Si / 1000 Ang^3
#
#
#
# Elastic Constant Matrix: (Units=GPa)
#
#
# Indices 1 2 3 4 5 6 
#
# 1 112.0272 26.0149 8.3494 0.0000 -23.1398 0.0000
# 2 26.0149 100.8648 -6.6527 0.0000 -20.0148 0.0000
# 3 8.3494 -6.6527 56.8884 0.0000 -13.8583 0.0000
# 4 0.0000 0.0000 0.0000 27.4074 0.0000 -6.1732
# 5 -23.1398 -20.0148 -13.8583 0.0000 38.5341 0.0000
# 6 0.0000 0.0000 0.0000 -6.1732 0.0000 25.4139
#
#
#
# Elastic Compliance Matrix: (Units=1/GPa)
#
#
# Indices 1 2 3 4 5 6 
#
# 1 0.010431 -0.001683 -0.000455 0.000000 0.005226 0.000000
# 2 -0.001683 0.011796 0.003149 0.000000 0.006248 0.000000
# 3 -0.000455 0.003149 0.020107 0.000000 0.008593 0.000000
# 4 0.000000 0.000000 0.000000 0.038598 0.000000 0.009376
# 5 0.005226 0.006248 0.008593 0.000000 0.035425 0.000000
# 6 0.000000 0.000000 0.000000 0.009376 0.000000 0.041626
#
#
# Mechanical properties :
#
#
# Convention : Reuss Voigt Hill
#
# Bulk Modulus (GPa) = 22.54558 36.13372 29.33965
# Shear Modulus (GPa) = 29.28326 34.40900 31.84613
#
# Velocity S-wave (km/s) = 3.67614 3.98491 3.83363
# Velocity P-wave (km/s) = 5.33135 6.15208 5.75636
#
# Compressibility (1/GPa) = 0.04435459
#
# Stress axis : x y z
#
# Youngs Moduli (GPa) = 95.87183 84.77472 49.73479
#
# Poissons Ratio (x) = 0.14270 0.02261
# Poissons Ratio (y) = 0.16138 -0.15660
# Poissons Ratio (z) = 0.04359 -0.26693
#
# Static dielectric constant tensor:
#      x y z
#    x 4.034600 0.000000 -0.033220 
#    y 0.000000 3.888740 0.000000 
#    z -0.033220 0.000000 4.209320 
# 
# 
# High freq. dielectric constant tensor:
#      x y z
#    x 1.858490 0.000000 -0.000380 
#    y 0.000000 1.833770 0.000000 
#    z -0.000380 0.000000 1.852680 
# 
# From -- ./inp_files/38867.got.cif
#   From: 2010.03.12/outbox.cif.g09.slc.cpg/sg5_20_cif.got.tgz:38867.got - 2010.03.31 09:47:26.
