data_PCOD8049546
_publ_section_title
;
Structure prediction by ZEFSAII (Michael W. Deem and Ramdas Pophale) SiO2 
 PCOD8049546
Probable space group: C 2
;
_chemical_formula_sum "Si O2"
_cell_formula_units_Z 32
_cell_length_a 23.145792
_cell_length_b 5.236702
_cell_length_c 11.078113
_cell_angle_alpha 90.000000
_cell_angle_beta 107.618527
_cell_angle_gamma 90.000000
_cell_volume 1279.766997
_symmetry_space_group_name_H-M "C 2"
_symmetry_group_IT_number 5
_symmetry_cell_setting 'monoclinic'
loop_
_space_group_symop_operation_xyz
x,y,z
-x,y,-z
1/2+x,1/2+y,z
1/2-x,1/2+y,-z
loop_
_atom_site_type_symbol
_atom_site_label
_atom_site_fract_x
_atom_site_fract_y
_atom_site_fract_z
Si Si1 0.290507 0.958730 0.021801
Si Si2 0.679110 0.593023 0.377300
Si Si3 0.930221 0.743391 0.738975
Si Si4 0.447808 0.476858 0.121294
Si Si5 0.907138 0.472048 0.960807
Si Si6 0.363259 0.694077 0.262365
Si Si7 0.611232 0.971631 0.497661
Si Si8 0.212117 0.843279 0.634809
O O1 0.336239 0.923536 0.164573
O O2 0.334090 0.955504 0.931233
O O3 0.242349 0.729133 0.981629
O O4 0.634107 0.387491 0.291190
O O5 0.642323 0.828625 0.406669
O O6 0.725182 0.690604 0.301452
O O7 0.720311 0.475395 0.509613
O O8 0.940665 0.628645 0.608560
O O9 0.926637 0.515076 0.834556
O O10 0.982462 0.951008 0.794428
O O11 0.431310 0.210993 0.050783
O O12 0.405614 0.511216 0.210940
O O13 0.439867 0.711820 0.024214
O O14 0.406336 0.781588 0.403350
O O15 0.302487 0.548220 0.270150
O O16 0.654992 0.159788 0.596131
#
# Coordination Sequence:
#
# PCOD8049546 Si02
#       8
#     4   4   4   4   4   4   4   4
#     4  11  25  48  76 113 155 203 258 313 382 472
#     4  10  21  41  64 110 148 194 246 311 384 461
#     4  11  27  47  77 113 147 199 274 331 378 468
#     4  11  27  52  82 104 153 211 266 319 388 463
#     4  11  27  51  78 111 150 208 259 327 395 452
#     4  10  25  46  75 108 155 210 250 316 398 472
#     4  10  23  43  74 106 152 193 248 317 390 456
#     4  10  20  40  68 103 151 201 238 304 394 465
#
# _framework density 25.004553999999999
#
# number of rings (size 3 to 8) (size 9 to 14) (size 15 to 20)
#    0.000    1.500    1.250    1.875    8.750    3.000 
#    2.250    6.875    0.000    0.000    0.000    0.000 
#    0.000    0.000    0.000    0.000    0.000    0.000 
#
# Total GULP energy -198325.064439 kJ/mol
# GULP energy per Si atom -12395.316527 kJ/mol
# Density = 2.494764 g / cm^3
# Si number density = 25.004554 Si / 1000 Ang^3
#
#
#
# Elastic Constant Matrix: (Units=GPa)
#
#
# Indices 1 2 3 4 5 6 
#
# 1 86.8938 17.8450 48.2758 0.0000 2.9344 0.0000
# 2 17.8450 83.9298 13.8304 0.0000 6.2441 0.0000
# 3 48.2758 13.8304 96.6634 0.0000 -6.1864 0.0000
# 4 0.0000 0.0000 0.0000 37.8311 0.0000 1.3276
# 5 2.9344 6.2441 -6.1864 0.0000 24.8897 0.0000
# 6 0.0000 0.0000 0.0000 1.3276 0.0000 12.8157
#
#
#
# Elastic Compliance Matrix: (Units=1/GPa)
#
#
# Indices 1 2 3 4 5 6 
#
# 1 0.016599 -0.001909 -0.008242 0.000000 -0.003527 0.000000
# 2 -0.001909 0.012739 -0.001077 0.000000 -0.003238 0.000000
# 3 -0.008242 -0.001077 0.014933 0.000000 0.004953 0.000000
# 4 0.000000 0.000000 0.000000 0.026530 0.000000 -0.002748
# 5 -0.003527 -0.003238 0.004953 0.000000 0.042637 0.000000
# 6 0.000000 0.000000 0.000000 -0.002748 0.000000 0.078314
#
#
# Mechanical properties :
#
#
# Convention : Reuss Voigt Hill
#
# Bulk Modulus (GPa) = 45.84035 47.48773 46.66404
# Shear Modulus (GPa) = 22.57570 27.60968 25.09269
#
# Velocity S-wave (km/s) = 3.00803 3.32653 3.17128
# Velocity P-wave (km/s) = 5.51697 5.81268 5.66675
#
# Compressibility (1/GPa) = 0.02181484
#
# Stress axis : x y z
#
# Youngs Moduli (GPa) = 60.24613 78.49989 66.96740
#
# Poissons Ratio (x) = 0.14982 0.55197
# Poissons Ratio (y) = 0.11498 0.07211
# Poissons Ratio (z) = 0.49657 0.08452
#
# Static dielectric constant tensor:
#      x y z
#    x 4.384670 0.000000 -0.015320 
#    y 0.000000 4.826370 0.000000 
#    z -0.015320 0.000000 4.850070 
# 
# 
# High freq. dielectric constant tensor:
#      x y z
#    x 1.975540 0.000000 -0.003360 
#    y 0.000000 2.011650 0.000000 
#    z -0.003360 0.000000 2.000970 
# 
# From -- ./inp_files/47047.got.cif
#   From: 2010.03.12/outbox.cif.g09.slc.cpg/sg5_24_cif.got.tgz:47047.got - 2010.03.31 09:47:26.
