data_PCOD8049581
_publ_section_title
;
Structure prediction by ZEFSAII (Michael W. Deem and Ramdas Pophale) SiO2 
 PCOD8049581
Probable space group: C 2
;
_chemical_formula_sum "Si O2"
_cell_formula_units_Z 30
_cell_length_a 15.089547
_cell_length_b 10.472061
_cell_length_c 10.974279
_cell_angle_alpha 90.000000
_cell_angle_beta 57.331663
_cell_angle_gamma 90.000000
_cell_volume 1459.815706
_symmetry_space_group_name_H-M "C 2"
_symmetry_group_IT_number 5
_symmetry_cell_setting 'monoclinic'
loop_
_space_group_symop_operation_xyz
x,y,z
-x,y,-z
1/2+x,1/2+y,z
1/2-x,1/2+y,-z
loop_
_atom_site_type_symbol
_atom_site_label
_atom_site_fract_x
_atom_site_fract_y
_atom_site_fract_z
Si Si1 0.896494 0.066560 0.139031
Si Si2 0.012798 0.017094 0.679518
Si Si3 0.315887 0.675414 0.575919
Si Si4 0.000000 0.810333 0.500000
Si Si5 0.386536 0.938433 0.601888
Si Si6 0.289297 0.630862 0.859673
Si Si7 0.255215 0.918597 0.921525
Si Si8 0.713830 0.170468 0.405209
O O1 0.934613 0.988022 0.229553
O O2 0.817316 0.182965 0.239363
O O3 0.845595 0.964654 0.082911
O O4 0.000000 0.129509 0.000000
O O5 0.102696 0.067370 0.522144
O O6 0.916400 0.116512 0.767930
O O7 0.975648 0.887848 0.642018
O O8 0.387014 0.796338 0.552530
O O9 0.252652 0.632547 0.744763
O O10 0.235379 0.712342 0.527555
O O11 0.891328 0.733094 0.568549
O O12 0.500000 0.001213 0.500000
O O13 0.359520 0.944374 0.765261
O O14 0.303053 0.017491 0.583975
O O15 0.252273 0.764914 0.951406
O O16 0.237909 0.506808 0.962913
#
# Coordination Sequence:
#
# PCOD8049581 Si02
#       8
#     4   4   4   2   4   4   4   4
#     4  10  21  44  63  93 125 180 217 262 328 401
#     4  11  22  39  67  94 127 170 221 263 324 396
#     4  10  21  38  65  89 123 168 220 263 316 389
#     4  12  24  40  62 106 130 164 214 288 326 374
#     4  10  20  41  62  87 124 169 211 260 327 388
#     4  11  21  40  62  98 127 175 215 274 321 396
#     4  10  23  38  67  91 129 172 221 267 323 390
#     4  10  24  38  64  99 130 165 215 273 324 386
#
# _framework density 20.550539000000001
#
# number of rings (size 3 to 8) (size 9 to 14) (size 15 to 20)
#    0.000    1.600    3.333    1.600    7.467    2.133 
#    0.000    0.000    0.000    0.000    0.000    0.000 
#    0.000    0.000    0.000    0.000    0.000    0.000 
#
# Total GULP energy -185842.842169 kJ/mol
# GULP energy per Si atom -12389.522811 kJ/mol
# Density = 2.050376 g / cm^3
# Si number density = 20.550539 Si / 1000 Ang^3
#
#
#
# Elastic Constant Matrix: (Units=GPa)
#
#
# Indices 1 2 3 4 5 6 
#
# 1 108.8687 36.6364 54.4604 0.0000 -2.7750 0.0000
# 2 36.6364 90.4615 55.7870 0.0000 2.2071 0.0000
# 3 54.4604 55.7870 123.1898 0.0000 -5.6319 0.0000
# 4 0.0000 0.0000 0.0000 32.9303 0.0000 2.5151
# 5 -2.7750 2.2071 -5.6319 0.0000 32.1194 0.0000
# 6 0.0000 0.0000 0.0000 2.5151 0.0000 18.5241
#
#
#
# Elastic Compliance Matrix: (Units=1/GPa)
#
#
# Indices 1 2 3 4 5 6 
#
# 1 0.012114 -0.002257 -0.004313 0.000000 0.000445 0.000000
# 2 -0.002257 0.015927 -0.006325 0.000000 -0.002398 0.000000
# 3 -0.004313 -0.006325 0.012995 0.000000 0.002341 0.000000
# 4 0.000000 0.000000 0.000000 0.030685 0.000000 -0.004166
# 5 0.000445 -0.002398 0.002341 0.000000 0.031748 0.000000
# 6 0.000000 0.000000 0.000000 -0.004166 0.000000 0.054549
#
#
# Mechanical properties :
#
#
# Convention : Reuss Voigt Hill
#
# Bulk Modulus (GPa) = 65.58513 68.47641 67.03077
# Shear Modulus (GPa) = 26.47038 28.42382 27.44710
#
# Velocity S-wave (km/s) = 3.59285 3.72306 3.65854
# Velocity P-wave (km/s) = 7.01390 7.20242 7.10879
#
# Compressibility (1/GPa) = 0.01524736
#
# Stress axis : x y z
#
# Youngs Moduli (GPa) = 82.55094 62.78481 76.95116
#
# Poissons Ratio (x) = 0.14172 0.33187
# Poissons Ratio (y) = 0.18634 0.48668
# Poissons Ratio (z) = 0.35602 0.39709
#
# Static dielectric constant tensor:
#      x y z
#    x 3.731190 0.000000 0.072340 
#    y 0.000000 3.607540 0.000000 
#    z 0.072340 0.000000 3.996060 
# 
# 
# High freq. dielectric constant tensor:
#      x y z
#    x 1.798980 0.000000 0.002480 
#    y 0.000000 1.784770 0.000000 
#    z 0.002480 0.000000 1.811040 
# 
# From -- ./inp_files/42449.got.cif
#   From: 2010.03.12/outbox.cif.g09.slc.cpg/sg5_22_cif.got.tgz:42449.got - 2010.03.31 09:47:26.
