data_PCOD8049733
_publ_section_title
;
Structure prediction by ZEFSAII (Michael W. Deem and Ramdas Pophale) SiO2 
 PCOD8049733
Probable space group: C 2
;
_chemical_formula_sum "Si O2"
_cell_formula_units_Z 32
_cell_length_a 16.725946
_cell_length_b 14.815364
_cell_length_c 11.240473
_cell_angle_alpha 90.000000
_cell_angle_beta 148.638195
_cell_angle_gamma 90.000000
_cell_volume 1449.635117
_symmetry_space_group_name_H-M "C 2"
_symmetry_group_IT_number 5
_symmetry_cell_setting 'monoclinic'
loop_
_space_group_symop_operation_xyz
x,y,z
-x,y,-z
1/2+x,1/2+y,z
1/2-x,1/2+y,-z
loop_
_atom_site_type_symbol
_atom_site_label
_atom_site_fract_x
_atom_site_fract_y
_atom_site_fract_z
Si Si1 0.673447 0.002790 0.679726
Si Si2 0.848118 0.130329 0.753701
Si Si3 0.184796 0.034772 0.894403
Si Si4 0.895847 0.829449 0.202558
Si Si5 0.842354 0.500353 0.861577
Si Si6 0.383531 0.634440 0.524030
Si Si7 0.319420 0.802159 0.291216
Si Si8 0.779161 0.804494 0.306411
O O1 0.500000 0.004556 0.500000
O O2 0.705595 0.063606 0.603866
O O3 0.726282 0.900508 0.714372
O O4 0.762731 0.047065 0.903960
O O5 0.869385 0.151685 0.644192
O O6 0.832870 0.225537 0.798670
O O7 0.000000 0.082292 0.000000
O O8 0.060981 0.115042 0.708207
O O9 0.108180 0.936835 0.786228
O O10 0.325434 0.036527 0.977307
O O11 0.837131 0.782543 0.247738
O O12 0.076711 0.806760 0.417633
O O13 0.788346 0.788891 0.961594
O O14 0.703600 0.542487 0.612361
O O15 0.824817 0.393604 0.827850
O O16 0.000000 0.531779 0.000000
O O17 0.296960 0.718949 0.352256
O O18 0.500000 0.805439 0.500000
#
# Coordination Sequence:
#
# PCOD8049733 Si02
#       8
#     4   4   4   4   4   4   4   4
#     4  10  24  46  71  99 133 182 235 291 341 409
#     4  12  27  43  64 100 137 186 239 284 347 410
#     4  10  20  45  72  97 138 185 227 276 354 418
#     4   9  20  41  73 101 131 180 236 281 347 415
#     4  11  24  41  69 106 137 173 229 297 342 411
#     4  12  25  43  68 100 145 183 224 281 357 424
#     4  10  23  43  70 103 134 178 229 286 350 413
#     4  10  22  42  68  99 138 180 232 286 345 412
#
# _framework density 22.074522000000002
#
# number of rings (size 3 to 8) (size 9 to 14) (size 15 to 20)
#    0.000    1.500    2.500    1.500    5.250    3.000 
#    2.250    0.625    0.000    0.000    0.000    0.000 
#    0.000    0.000    0.000    0.000    0.000    0.000 
#
# Total GULP energy -198313.577625 kJ/mol
# GULP energy per Si atom -12394.598602 kJ/mol
# Density = 2.202428 g / cm^3
# Si number density = 22.074522 Si / 1000 Ang^3
#
#
#
# Elastic Constant Matrix: (Units=GPa)
#
#
# Indices 1 2 3 4 5 6 
#
# 1 122.3471 48.1633 34.6878 0.0000 -1.2969 0.0000
# 2 48.1633 95.8956 22.4551 0.0000 -9.7138 0.0000
# 3 34.6878 22.4551 99.6479 0.0000 -9.8856 0.0000
# 4 0.0000 0.0000 0.0000 -5.2447 0.0000 22.4520
# 5 -1.2969 -9.7138 -9.8856 0.0000 34.4184 0.0000
# 6 0.0000 0.0000 0.0000 22.4520 0.0000 -1.6898
#
#
#
# Elastic Compliance Matrix: (Units=1/GPa)
#
#
# Indices 1 2 3 4 5 6 
#
# 1 0.010936 -0.005008 -0.002859 0.000000 -0.001822 0.000000
# 2 -0.005008 0.013509 -0.000969 0.000000 0.003346 0.000000
# 3 -0.002859 -0.000969 0.011540 0.000000 0.002933 0.000000
# 4 0.000000 0.000000 0.000000 0.003412 0.000000 0.045336
# 5 -0.001822 0.003346 0.002933 0.000000 0.030772 0.000000
# 6 0.000000 0.000000 0.000000 0.045336 0.000000 0.010590
#
#
# Mechanical properties :
#
#
# Convention : Reuss Voigt Hill
#
# Bulk Modulus (GPa) = 54.60593 58.72254 56.66424
# Shear Modulus (GPa) = 47.83023 19.66907 33.74965
#
# Velocity S-wave (km/s) = 4.65990 2.98825 3.91435
# Velocity P-wave (km/s) = 7.33101 6.21014 6.79373
#
# Compressibility (1/GPa) = 0.01831303
#
# Stress axis : x y z
#
# Youngs Moduli (GPa) = 91.43985 74.02513 86.65502
#
# Poissons Ratio (x) = 0.37070 0.24777
# Poissons Ratio (y) = 0.45791 0.08397
# Poissons Ratio (z) = 0.26145 0.07173
#
# Static dielectric constant tensor:
#      x y z
#    x 4.031120 0.000000 0.425100 
#    y 0.000000 4.067280 0.000000 
#    z 0.425100 0.000000 6.713020 
# 
# 
# High freq. dielectric constant tensor:
#      x y z
#    x 1.856410 0.000000 -0.000920 
#    y 0.000000 1.873820 0.000000 
#    z -0.000920 0.000000 1.869410 
# 
# From -- ./inp_files/45000.got.cif
#   From: 2010.03.12/outbox.cif.g09.slc.cpg/sg5_23_cif.got.tgz:45000.got - 2010.03.31 09:47:26.
