data_PCOD8049039
_publ_section_title
;
Structure prediction by ZEFSAII (Michael W. Deem and Ramdas Pophale) SiO2 
 PCOD8049039
Probable space group: C 2
;
_chemical_formula_sum "Si O2"
_cell_formula_units_Z 30
_cell_length_a 19.494774
_cell_length_b 10.913946
_cell_length_c 14.700584
_cell_angle_alpha 90.000000
_cell_angle_beta 147.820984
_cell_angle_gamma 90.000000
_cell_volume 1665.744162
_symmetry_space_group_name_H-M "C 2"
_symmetry_group_IT_number 5
_symmetry_cell_setting 'monoclinic'
loop_
_space_group_symop_operation_xyz
x,y,z
-x,y,-z
1/2+x,1/2+y,z
1/2-x,1/2+y,-z
loop_
_atom_site_type_symbol
_atom_site_label
_atom_site_fract_x
_atom_site_fract_y
_atom_site_fract_z
Si Si1 0.297811 0.222130 0.627258
Si Si2 0.000000 0.051190 0.000000
Si Si3 0.389549 0.667718 0.438048
Si Si4 0.710277 0.128160 0.080058
Si Si5 0.059357 0.075324 0.779517
Si Si6 0.595052 0.725514 0.252101
Si Si7 0.466086 0.002089 0.859458
Si Si8 0.556630 0.370876 0.914177
O O1 0.192489 0.257213 0.587429
O O2 0.234548 0.229112 0.456446
O O3 0.342728 0.081447 0.690817
O O4 0.414850 0.315095 0.768620
O O5 0.901307 0.136205 0.831548
O O6 0.083612 0.966137 0.026164
O O7 0.500000 0.736820 0.500000
O O8 0.292258 0.595517 0.262407
O O9 0.463851 0.570426 0.585642
O O10 0.796085 0.111816 0.086643
O O11 0.588383 0.038575 0.934475
O O12 0.666457 0.269099 0.038897
O O13 0.012814 0.177103 0.799224
O O14 0.060485 0.939779 0.822356
O O15 0.560462 0.860093 0.180271
O O16 0.500000 0.038886 0.000000
#
# Coordination Sequence:
#
# PCOD8049039 Si02
#       8
#     4   2   4   4   4   4   4   4
#     4  10  21  35  55  84 109 144 188 227 273 329
#     4  10  20  36  52  82 106 142 180 222 282 324
#     4   9  17  33  53  78 106 139 176 225 265 324
#     4  10  20  35  57  80 109 140 190 225 271 331
#     4   9  21  36  54  79 110 143 183 219 286 320
#     4  10  22  36  54  80 113 140 182 230 283 324
#     4  11  21  35  57  83 107 145 185 234 278 317
#     4  10  21  35  59  79 107 147 183 228 274 325
#
# _framework density 18.009969000000002
#
# number of rings (size 3 to 8) (size 9 to 14) (size 15 to 20)
#    0.000    2.133    2.000    0.800    9.333    0.000 
#    0.000    0.000    0.000    0.000    0.000    8.400 
#    0.000    0.000    0.000    0.000    0.000    0.000 
#
# Total GULP energy -185944.906348 kJ/mol
# GULP energy per Si atom -12396.327090 kJ/mol
# Density = 1.796898 g / cm^3
# Si number density = 18.009969 Si / 1000 Ang^3
#
#
#
# Elastic Constant Matrix: (Units=GPa)
#
#
# Indices 1 2 3 4 5 6 
#
# 1 103.3654 43.1826 48.2488 0.0000 7.8077 0.0000
# 2 43.1826 110.6627 36.4633 0.0000 0.1214 0.0000
# 3 48.2488 36.4633 87.4850 0.0000 -2.4723 0.0000
# 4 0.0000 0.0000 0.0000 20.6402 0.0000 -5.2643
# 5 7.8077 0.1214 -2.4723 0.0000 30.4304 0.0000
# 6 0.0000 0.0000 0.0000 -5.2643 0.0000 20.6639
#
#
#
# Elastic Compliance Matrix: (Units=1/GPa)
#
#
# Indices 1 2 3 4 5 6 
#
# 1 0.014583 -0.003473 -0.006716 0.000000 -0.004273 0.000000
# 2 -0.003473 0.011307 -0.002780 0.000000 0.000620 0.000000
# 3 -0.006716 -0.002780 0.016380 0.000000 0.003065 0.000000
# 4 0.000000 0.000000 0.000000 0.051816 0.000000 0.013200
# 5 -0.004273 0.000620 0.003065 0.000000 0.034205 0.000000
# 6 0.000000 0.000000 0.000000 0.013200 0.000000 0.051756
#
#
# Mechanical properties :
#
#
# Convention : Reuss Voigt Hill
#
# Bulk Modulus (GPa) = 61.22855 61.92249 61.57552
# Shear Modulus (GPa) = 23.64871 25.92146 24.78509
#
# Velocity S-wave (km/s) = 3.62759 3.79791 3.71372
# Velocity P-wave (km/s) = 7.18448 7.32728 7.25623
#
# Compressibility (1/GPa) = 0.01633225
#
# Stress axis : x y z
#
# Youngs Moduli (GPa) = 68.57332 88.44132 61.05149
#
# Poissons Ratio (x) = 0.30715 0.41001
# Poissons Ratio (y) = 0.23815 0.16971
# Poissons Ratio (z) = 0.46053 0.24585
#
# Static dielectric constant tensor:
#      x y z
#    x 3.526200 0.000000 -0.037640 
#    y 0.000000 3.133300 0.000000 
#    z -0.037640 0.000000 3.454340 
# 
# 
# High freq. dielectric constant tensor:
#      x y z
#    x 1.700670 0.000000 -0.004530 
#    y 0.000000 1.675420 0.000000 
#    z -0.004530 0.000000 1.703540 
# 
# From -- ./inp_files/55857.got.cif
#   From: 2010.03.12/outbox.cif.g09.slc.cpg/sg5_28_cif.got.tgz:55857.got - 2010.03.31 09:47:26.
