data_PCOD8049476
_publ_section_title
;
Structure prediction by ZEFSAII (Michael W. Deem and Ramdas Pophale) SiO2 
 PCOD8049476
Probable space group: C 2
;
_chemical_formula_sum "Si O2"
_cell_formula_units_Z 30
_cell_length_a 28.332265
_cell_length_b 8.806766
_cell_length_c 16.729437
_cell_angle_alpha 90.000000
_cell_angle_beta 158.495925
_cell_angle_gamma 90.000000
_cell_volume 1530.146158
_symmetry_space_group_name_H-M "C 2"
_symmetry_group_IT_number 5
_symmetry_cell_setting 'monoclinic'
loop_
_space_group_symop_operation_xyz
x,y,z
-x,y,-z
1/2+x,1/2+y,z
1/2-x,1/2+y,-z
loop_
_atom_site_type_symbol
_atom_site_label
_atom_site_fract_x
_atom_site_fract_y
_atom_site_fract_z
Si Si1 0.427110 0.092190 0.630842
Si Si2 0.161104 0.768749 0.799592
Si Si3 0.000000 0.487203 0.500000
Si Si4 0.985099 0.853035 0.844479
Si Si5 0.096161 0.841983 0.528161
Si Si6 0.441650 0.845132 0.252178
Si Si7 0.711558 0.348768 0.323088
Si Si8 0.903879 0.094876 0.592428
O O1 0.478744 0.199934 0.782410
O O2 0.370742 0.188874 0.468117
O O3 0.547843 0.992410 0.789003
O O4 0.313189 0.985521 0.483356
O O5 0.121044 0.593749 0.717033
O O6 0.170546 0.851781 0.728829
O O7 0.057637 0.844878 0.695960
O O8 0.299181 0.796948 0.056787
O O9 0.972792 0.379123 0.533442
O O10 0.867675 0.855926 0.720746
O O11 0.974129 0.002538 0.773148
O O12 0.121218 0.860133 0.103291
O O13 0.145052 0.982218 0.553341
O O14 0.492907 0.703989 0.284158
O O15 0.782318 0.186525 0.434387
#
# Coordination Sequence:
#
# PCOD8049476 Si02
#       8
#     4   4   2   4   4   4   4   4
#     4  10  20  40  60  87 118 155 194 246 288 353
#     4  10  21  38  61  79 122 162 193 236 298 344
#     4  10  22  44  52  88 124 156 200 250 280 346
#     4  10  22  41  63  86 120 155 190 242 313 350
#     4   9  20  39  57  84 122 155 195 245 287 336
#     4  11  23  37  63  87 117 163 199 238 301 333
#     4  10  22  40  63  88 117 156 191 246 302 357
#     4  10  23  37  58  96 114 148 206 247 279 361
#
# _framework density 19.605969999999999
#
# number of rings (size 3 to 8) (size 9 to 14) (size 15 to 20)
#    0.000    2.133    2.667    0.800    5.600    1.067 
#    4.800    0.000    0.000    8.000    0.000    0.000 
#    0.000    0.000    0.000    0.000    0.000    0.000 
#
# Total GULP energy -185938.583605 kJ/mol
# GULP energy per Si atom -12395.905574 kJ/mol
# Density = 1.956135 g / cm^3
# Si number density = 19.605970 Si / 1000 Ang^3
#
#
#
# Elastic Constant Matrix: (Units=GPa)
#
#
# Indices 1 2 3 4 5 6 
#
# 1 90.1330 46.2561 26.3508 0.0000 -10.0815 0.0000
# 2 46.2561 125.8575 35.2794 0.0000 -7.2178 0.0000
# 3 26.3508 35.2794 68.3530 0.0000 -0.6281 0.0000
# 4 0.0000 0.0000 0.0000 17.1947 0.0000 3.7744
# 5 -10.0815 -7.2178 -0.6281 0.0000 25.7605 0.0000
# 6 0.0000 0.0000 0.0000 3.7744 0.0000 9.6971
#
#
#
# Elastic Compliance Matrix: (Units=1/GPa)
#
#
# Indices 1 2 3 4 5 6 
#
# 1 0.014772 -0.004192 -0.003490 0.000000 0.004521 0.000000
# 2 -0.004192 0.010641 -0.003865 0.000000 0.001247 0.000000
# 3 -0.003490 -0.003865 0.017952 0.000000 -0.002011 0.000000
# 4 0.000000 0.000000 0.000000 0.063591 0.000000 -0.024751
# 5 0.004521 0.001247 -0.002011 0.000000 0.040889 0.000000
# 6 0.000000 0.000000 0.000000 -0.024751 0.000000 0.112757
#
#
# Mechanical properties :
#
#
# Convention : Reuss Voigt Hill
#
# Bulk Modulus (GPa) = 49.32890 55.56844 52.44867
# Shear Modulus (GPa) = 17.21463 22.29427 19.75445
#
# Velocity S-wave (km/s) = 2.96637 3.37577 3.17767
# Velocity P-wave (km/s) = 6.07842 6.60292 6.34610
#
# Compressibility (1/GPa) = 0.02027209
#
# Stress axis : x y z
#
# Youngs Moduli (GPa) = 67.69673 93.97749 55.70553
#
# Poissons Ratio (x) = 0.39391 0.19440
# Poissons Ratio (y) = 0.28375 0.21529
# Poissons Ratio (z) = 0.23624 0.36320
#
# Static dielectric constant tensor:
#      x y z
#    x 3.761560 0.000000 -0.023600 
#    y 0.000000 4.014370 0.000000 
#    z -0.023600 0.000000 3.306690 
# 
# 
# High freq. dielectric constant tensor:
#      x y z
#    x 1.780060 0.000000 -0.001160 
#    y 0.000000 1.771760 0.000000 
#    z -0.001160 0.000000 1.739120 
# 
# From -- ./inp_files/63817.got.cif
#   From: 2010.03.12/outbox.cif.g09.slc.cpg/sg5_32_cif.got.tgz:63817.got - 2010.03.31 09:47:26.
