data_PCOD8049585
_publ_section_title
;
Structure prediction by ZEFSAII (Michael W. Deem and Ramdas Pophale) SiO2 
 PCOD8049585
Probable space group: C 2
;
_chemical_formula_sum "Si O2"
_cell_formula_units_Z 30
_cell_length_a 19.597859
_cell_length_b 8.982944
_cell_length_c 7.851322
_cell_angle_alpha 90.000000
_cell_angle_beta 102.719228
_cell_angle_gamma 90.000000
_cell_volume 1348.279377
_symmetry_space_group_name_H-M "C 2"
_symmetry_group_IT_number 5
_symmetry_cell_setting 'monoclinic'
loop_
_space_group_symop_operation_xyz
x,y,z
-x,y,-z
1/2+x,1/2+y,z
1/2-x,1/2+y,-z
loop_
_atom_site_type_symbol
_atom_site_label
_atom_site_fract_x
_atom_site_fract_y
_atom_site_fract_z
Si Si1 0.808237 0.840830 0.234059
Si Si2 0.814735 0.148720 0.373447
Si Si3 0.187936 0.168118 0.249028
Si Si4 0.472151 0.347809 0.300536
Si Si5 0.962514 0.183967 0.308689
Si Si6 0.396846 0.893986 0.030049
Si Si7 0.257788 0.895731 0.140536
Si Si8 0.500000 0.142364 0.000000
O O1 0.767766 0.722945 0.330921
O O2 0.890071 0.820905 0.273692
O O3 0.779155 0.997341 0.290392
O O4 0.775363 0.803521 0.031995
O O5 0.843036 0.135874 0.581632
O O6 0.880627 0.164323 0.288351
O O7 0.763833 0.288372 0.308880
O O8 0.198653 0.019118 0.145677
O O9 0.135850 0.283425 0.129325
O O10 0.500000 0.298639 0.500000
O O11 0.492657 0.520875 0.272135
O O12 0.504686 0.246210 0.170351
O O13 0.962866 0.308808 0.159946
O O14 0.000000 0.244652 0.500000
O O15 0.335824 0.950604 0.126631
O O16 0.430120 0.041118 0.963891
#
# Coordination Sequence:
#
# PCOD8049585 Si02
#       8
#     4   4   4   4   4   4   4   2
#     4  10  20  41  63  86 130 165 205 261 329 381
#     4  10  21  36  61  98 119 161 214 264 318 380
#     4  11  21  38  61  96 125 161 214 258 323 388
#     4  10  23  47  65  96 131 175 220 273 329 390
#     4   9  20  42  67  88 131 172 218 268 329 387
#     4  10  24  41  65  97 127 176 212 270 325 392
#     4  10  20  41  65  88 128 165 205 265 324 380
#     4  12  26  44  64  98 132 178 226 262 332 400
#
# _framework density 22.250582000000001
#
# number of rings (size 3 to 8) (size 9 to 14) (size 15 to 20)
#    0.000    1.867    0.000    4.800    1.867    2.133 
#   24.000    0.000    0.000    0.000    0.000    0.000 
#    0.000    0.000    0.000    0.000    0.000    0.000 
#
# Total GULP energy -185892.161951 kJ/mol
# GULP energy per Si atom -12392.810797 kJ/mol
# Density = 2.219994 g / cm^3
# Si number density = 22.250582 Si / 1000 Ang^3
#
#
#
# Elastic Constant Matrix: (Units=GPa)
#
#
# Indices 1 2 3 4 5 6 
#
# 1 58.3910 26.4748 28.3757 0.0000 8.6232 0.0000
# 2 26.4748 89.5297 50.6250 0.0000 -6.7482 0.0000
# 3 28.3757 50.6250 134.6278 0.0000 4.0142 0.0000
# 4 0.0000 0.0000 0.0000 29.9691 0.0000 3.0711
# 5 8.6232 -6.7482 4.0142 0.0000 33.5183 0.0000
# 6 0.0000 0.0000 0.0000 3.0711 0.0000 34.1428
#
#
#
# Elastic Compliance Matrix: (Units=1/GPa)
#
#
# Indices 1 2 3 4 5 6 
#
# 1 0.021735 -0.005629 -0.002272 0.000000 -0.006453 0.000000
# 2 -0.005629 0.016067 -0.005013 0.000000 0.005283 0.000000
# 3 -0.002272 -0.005013 0.009840 0.000000 -0.001603 0.000000
# 4 0.000000 0.000000 0.000000 0.033678 0.000000 -0.003029
# 5 -0.006453 0.005283 -0.001603 0.000000 0.032750 0.000000
# 6 0.000000 0.000000 0.000000 -0.003029 0.000000 0.029561
#
#
# Mechanical properties :
#
#
# Convention : Reuss Voigt Hill
#
# Bulk Modulus (GPa) = 45.84227 54.83328 50.33777
# Shear Modulus (GPa) = 28.29173 31.33091 29.81132
#
# Velocity S-wave (km/s) = 3.56969 3.75653 3.66430
# Velocity P-wave (km/s) = 6.13495 6.59639 6.36985
#
# Compressibility (1/GPa) = 0.02181393
#
# Stress axis : x y z
#
# Youngs Moduli (GPa) = 46.00821 62.24035 101.63053
#
# Poissons Ratio (x) = 0.35035 0.23091
# Poissons Ratio (y) = 0.25898 0.50945
# Poissons Ratio (z) = 0.10453 0.31200
#
# Static dielectric constant tensor:
#      x y z
#    x 3.942500 0.000000 -0.019710 
#    y 0.000000 4.221920 0.000000 
#    z -0.019710 0.000000 3.915300 
# 
# 
# High freq. dielectric constant tensor:
#      x y z
#    x 1.867640 0.000000 0.002320 
#    y 0.000000 1.875290 0.000000 
#    z 0.002320 0.000000 1.874070 
# 
# From -- ./inp_files/28974.got.cif
#   From: 2010.03.12/outbox.cif.g09.slc.cpg/sg5_15_cif.got.tgz:28974.got - 2010.03.31 09:47:26.
