data_PCOD8049078
_publ_section_title
;
Structure prediction by ZEFSAII (Michael W. Deem and Ramdas Pophale) SiO2 
 PCOD8049078
Probable space group: C 2
;
_chemical_formula_sum "Si O2"
_cell_formula_units_Z 26
_cell_length_a 9.310055
_cell_length_b 10.117571
_cell_length_c 25.546369
_cell_angle_alpha 90.000000
_cell_angle_beta 145.918193
_cell_angle_gamma 90.000000
_cell_volume 1348.457433
_symmetry_space_group_name_H-M "C 2"
_symmetry_group_IT_number 5
_symmetry_cell_setting 'monoclinic'
loop_
_space_group_symop_operation_xyz
x,y,z
-x,y,-z
1/2+x,1/2+y,z
1/2-x,1/2+y,-z
loop_
_atom_site_type_symbol
_atom_site_label
_atom_site_fract_x
_atom_site_fract_y
_atom_site_fract_z
Si Si1 0.233081 0.091800 0.271781
Si Si2 0.342767 0.850602 0.240023
Si Si3 0.497856 0.846158 0.170243
Si Si4 0.500000 0.192070 0.000000
Si Si5 0.296394 0.551390 0.483904
Si Si6 0.302429 0.085827 0.837562
Si Si7 0.757103 0.264412 0.553006
O O1 0.210055 0.230552 0.234315
O O2 0.508369 0.092038 0.381958
O O3 0.004578 0.077108 0.245271
O O4 0.191783 0.974931 0.217572
O O5 0.448252 0.892151 0.214843
O O6 0.151520 0.725281 0.178403
O O7 0.571536 0.813867 0.347739
O O8 0.601218 0.966819 0.168067
O O9 0.242590 0.788407 0.066305
O O10 0.461902 0.093481 0.939504
O O11 0.500000 0.579893 0.500000
O O12 0.302343 0.395305 0.500615
O O13 0.384573 0.645590 0.558429
O O14 0.500000 0.205137 0.500000
#
# Coordination Sequence:
#
# PCOD8049078 Si02
#       7
#     4   4   4   2   4   4   4
#     4   9  20  38  54  81 116 145 185 231 272 323
#     4   9  20  36  54  80 113 145 182 228 275 323
#     4  10  21  38  61  83 110 146 182 224 276 334
#     4   8  20  38  54  84 118 136 176 232 276 328
#     4  10  22  36  54  81 113 149 189 233 274 320
#     4  10  21  37  60  82 109 148 183 223 277 333
#     4  10  20  36  54  77 111 147 186 233 277 319
#
# _framework density 19.281292000000001
#
# number of rings (size 3 to 8) (size 9 to 14) (size 15 to 20)
#    0.000    2.769    0.000    1.846    0.000   14.154 
#    0.000    0.000    0.000    0.000    0.000    0.000 
#    0.000    0.000    0.000    0.000    0.000    0.000 
#
# Total GULP energy -161126.863834 kJ/mol
# GULP energy per Si atom -12394.374141 kJ/mol
# Density = 1.923741 g / cm^3
# Si number density = 19.281292 Si / 1000 Ang^3
#
#
#
# Elastic Constant Matrix: (Units=GPa)
#
#
# Indices 1 2 3 4 5 6 
#
# 1 82.8216 59.6772 23.6269 0.0000 -7.9282 0.0000
# 2 59.6772 126.0450 10.5485 0.0000 -18.9499 0.0000
# 3 23.6269 10.5485 59.3963 0.0000 -0.5675 0.0000
# 4 0.0000 0.0000 0.0000 23.3483 0.0000 -9.4122
# 5 -7.9282 -18.9499 -0.5675 0.0000 23.8440 0.0000
# 6 0.0000 0.0000 0.0000 -9.4122 0.0000 46.5407
#
#
#
# Elastic Compliance Matrix: (Units=1/GPa)
#
#
# Indices 1 2 3 4 5 6 
#
# 1 0.020572 -0.009299 -0.006539 0.000000 -0.000706 0.000000
# 2 -0.009299 0.013355 0.001399 0.000000 0.007555 0.000000
# 3 -0.006539 0.001399 0.019183 0.000000 -0.000605 0.000000
# 4 0.000000 0.000000 0.000000 0.046631 0.000000 0.009431
# 5 -0.000706 0.007555 -0.000605 0.000000 0.047695 0.000000
# 6 0.000000 0.000000 0.000000 0.009431 0.000000 0.023394
#
#
# Mechanical properties :
#
#
# Convention : Reuss Voigt Hill
#
# Bulk Modulus (GPa) = 41.26495 50.66311 45.96403
# Shear Modulus (GPa) = 24.06339 30.37395 27.21867
#
# Velocity S-wave (km/s) = 3.53656 3.97332 3.76129
# Velocity P-wave (km/s) = 6.17449 6.88350 6.53861
#
# Compressibility (1/GPa) = 0.02423364
#
# Stress axis : x y z
#
# Youngs Moduli (GPa) = 48.60902 74.87747 52.13032
#
# Poissons Ratio (x) = 0.69629 0.34086
# Poissons Ratio (y) = 0.45202 -0.07295
# Poissons Ratio (z) = 0.31783 -0.10478
#
# Static dielectric constant tensor:
#      x y z
#    x 3.371230 0.000000 -0.052360 
#    y 0.000000 3.805600 0.000000 
#    z -0.052360 0.000000 3.524660 
# 
# 
# High freq. dielectric constant tensor:
#      x y z
#    x 1.733490 0.000000 -0.001810 
#    y 0.000000 1.761020 0.000000 
#    z -0.001810 0.000000 1.751150 
# 
# From -- ./inp_files/67930.got.cif
#   From: 2010.03.12/outbox.cif.g09.slc.cpg/sg5_34_cif.got.tgz:67930.got - 2010.03.31 09:47:26.
