data_PCOD8049122
_publ_section_title
;
Structure prediction by ZEFSAII (Michael W. Deem and Ramdas Pophale) SiO2 
 PCOD8049122
Probable space group: C 2
;
_chemical_formula_sum "Si O2"
_cell_formula_units_Z 32
_cell_length_a 8.919563
_cell_length_b 19.716446
_cell_length_c 14.366300
_cell_angle_alpha 90.000000
_cell_angle_beta 139.103301
_cell_angle_gamma 90.000000
_cell_volume 1654.084413
_symmetry_space_group_name_H-M "C 2"
_symmetry_group_IT_number 5
_symmetry_cell_setting 'monoclinic'
loop_
_space_group_symop_operation_xyz
x,y,z
-x,y,-z
1/2+x,1/2+y,z
1/2-x,1/2+y,-z
loop_
_atom_site_type_symbol
_atom_site_label
_atom_site_fract_x
_atom_site_fract_y
_atom_site_fract_z
Si Si1 0.264150 0.802710 0.602089
Si Si2 0.217868 0.564621 0.544985
Si Si3 0.217867 0.198887 0.544984
Si Si4 0.944662 0.073977 0.834152
Si Si5 0.264150 0.960798 0.602090
Si Si6 0.369443 0.050297 0.142825
Si Si7 0.369443 0.713211 0.142825
Si Si8 0.055339 0.689531 0.165848
O O1 0.316558 0.766797 0.529496
O O2 0.313313 0.881754 0.615357
O O3 0.440682 0.772867 0.761767
O O4 0.000000 0.786894 0.500000
O O5 0.249998 0.631754 0.499999
O O6 0.410922 0.547485 0.713081
O O7 0.183443 0.496710 0.470505
O O8 0.000000 0.585016 0.500000
O O9 0.410920 0.216023 0.713081
O O10 0.000000 0.178491 0.500000
O O11 0.718432 0.069519 0.793920
O O12 0.008227 0.152802 0.855180
O O13 0.149142 0.029823 0.976966
O O14 0.000000 0.976613 0.500000
O O15 0.440682 0.990641 0.761767
O O16 0.491773 0.110706 0.144821
O O17 0.281569 0.693989 0.206079
O O18 0.149141 0.733685 0.976966
#
# Coordination Sequence:
#
# PCOD8049122 Si02
#       8
#     4   4   4   4   4   4   4   4
#     4  11  25  42  59  84 123 165 204 248 303 359
#     4  12  21  36  63  93 119 153 201 253 300 354
#     4  12  21  36  63  93 119 153 201 253 300 354
#     4  10  20  36  60  94 117 150 197 247 304 350
#     4  11  25  42  59  84 123 165 204 248 303 359
#     4  10  21  38  59  89 122 152 196 249 301 357
#     4  10  21  38  59  89 122 152 196 249 301 357
#     4  10  20  36  60  94 117 150 197 247 304 350
#
# _framework density 19.346050999999999
#
# number of rings (size 3 to 8) (size 9 to 14) (size 15 to 20)
#    0.000    1.250    5.000    0.750    3.500    0.500 
#    0.000    3.750    0.000    3.000    0.000    0.000 
#    0.000    0.000    0.000    0.000    0.000    0.000 
#
# Total GULP energy -198263.922205 kJ/mol
# GULP energy per Si atom -12391.495138 kJ/mol
# Density = 1.930202 g / cm^3
# Si number density = 19.346051 Si / 1000 Ang^3
#
#
#
# Elastic Constant Matrix: (Units=GPa)
#
#
# Indices 1 2 3 4 5 6 
#
# 1 95.7463 46.5795 47.4310 -0.0001 6.0607 -0.0001
# 2 46.5795 110.8813 65.9379 0.0003 8.9559 0.0002
# 3 47.4310 65.9379 152.4318 0.0000 -10.5519 0.0001
# 4 -0.0001 0.0003 0.0000 29.3231 0.0000 0.7226
# 5 6.0607 8.9559 -10.5519 0.0000 37.3064 0.0000
# 6 -0.0001 0.0002 0.0001 0.7226 0.0000 22.6654
#
#
#
# Elastic Compliance Matrix: (Units=1/GPa)
#
#
# Indices 1 2 3 4 5 6 
#
# 1 0.013890 -0.004059 -0.002708 0.000000 -0.002048 0.000000
# 2 -0.004059 0.014113 -0.005131 0.000000 -0.004180 0.000000
# 3 -0.002708 -0.005131 0.009933 0.000000 0.004481 0.000000
# 4 0.000000 0.000000 0.000000 0.034130 0.000000 -0.001088
# 5 -0.002048 -0.004180 0.004481 0.000000 0.029409 0.000000
# 6 0.000000 0.000000 0.000000 -0.001088 0.000000 0.044155
#
#
# Mechanical properties :
#
#
# Convention : Reuss Voigt Hill
#
# Bulk Modulus (GPa) = 70.72597 75.43956 73.08276
# Shear Modulus (GPa) = 28.71284 31.13307 29.92295
#
# Velocity S-wave (km/s) = 3.85667 4.01593 3.93710
# Velocity P-wave (km/s) = 7.51463 7.78351 7.65025
#
# Compressibility (1/GPa) = 0.01413908
#
# Stress axis : x y z
#
# Youngs Moduli (GPa) = 71.99345 70.85767 100.67790
#
# Poissons Ratio (x) = 0.28763 0.27263
# Poissons Ratio (y) = 0.29224 0.51658
# Poissons Ratio (z) = 0.19495 0.36357
#
# Static dielectric constant tensor:
#      x y z
#    x 2.163450 0.000000 2.106400 
#    y 0.000000 3.152540 -0.000010 
#    z 2.106400 -0.000010 1.334650 
# 
# 
# High freq. dielectric constant tensor:
#      x y z
#    x 1.759390 0.000000 0.004450 
#    y 0.000000 1.706610 0.000000 
#    z 0.004450 0.000000 1.784680 
# 
# From -- ./inp_files/51579.got.cif
#   From: 2010.03.12/outbox.cif.g09.slc.cpg/sg5_26_cif.got.tgz:51579.got - 2010.03.31 09:47:26.
