data_PCOD8049905
_publ_section_title
;
Structure prediction by ZEFSAII (Michael W. Deem and Ramdas Pophale) SiO2 
 PCOD8049905
Probable space group: C 2
;
_chemical_formula_sum "Si O2"
_cell_formula_units_Z 32
_cell_length_a 9.118716
_cell_length_b 5.137189
_cell_length_c 25.941173
_cell_angle_alpha 90.000000
_cell_angle_beta 81.595580
_cell_angle_gamma 90.000000
_cell_volume 1202.153039
_symmetry_space_group_name_H-M "C 2"
_symmetry_group_IT_number 5
_symmetry_cell_setting 'monoclinic'
loop_
_space_group_symop_operation_xyz
x,y,z
-x,y,-z
1/2+x,1/2+y,z
1/2-x,1/2+y,-z
loop_
_atom_site_type_symbol
_atom_site_label
_atom_site_fract_x
_atom_site_fract_y
_atom_site_fract_z
Si Si1 0.035145 0.376240 0.712159
Si Si2 0.756385 0.745714 0.140230
Si Si3 0.654888 0.009693 0.517674
Si Si4 0.569888 0.238909 0.177269
Si Si5 0.325744 0.281825 0.019056
Si Si6 0.349540 0.669286 0.390518
Si Si7 0.331501 0.456461 0.730427
Si Si8 0.553261 0.249660 0.373109
O O1 0.110004 0.147265 0.672338
O O2 0.154013 0.448907 0.751089
O O3 0.892929 0.238377 0.746470
O O4 0.011184 0.579607 0.668787
O O5 0.677579 0.482861 0.162174
O O6 0.905658 0.797048 0.165390
O O7 0.640680 0.983594 0.148999
O O8 0.803369 0.706215 0.079183
O O9 0.500000 0.082652 0.500000
O O10 0.725463 0.738986 0.493592
O O11 0.610903 0.942658 0.580806
O O12 0.578705 0.226425 0.240899
O O13 0.500000 0.314077 0.000000
O O14 0.256618 0.053260 0.987983
O O15 0.435228 0.422527 0.412042
O O16 0.171994 0.619998 0.406677
O O17 0.344643 0.446577 0.667524
#
# Coordination Sequence:
#
# PCOD8049905 Si02
#       8
#     4   4   4   4   4   4   4   4
#     4  10  21  38  63  90 124 163 227 271 329 393
#     4  12  26  46  69 105 137 186 232 278 355 407
#     4  12  28  47  73 102 139 182 229 279 350 428
#     4  12  27  45  71  98 149 184 228 283 336 425
#     4  12  25  45  74 103 137 179 231 298 344 407
#     4  10  23  39  61  94 123 169 215 283 333 390
#     4  10  23  38  59  95 123 177 219 269 330 390
#     4  10  21  38  65  89 126 162 225 272 329 393
#
# _framework density 26.618908999999999
#
# number of rings (size 3 to 8) (size 9 to 14) (size 15 to 20)
#    0.000    1.000    0.000    6.000    7.000    0.000 
#    0.000    0.000    0.000    0.000    0.000    0.000 
#    0.000    0.000    0.000    0.000    0.000    0.000 
#
# Total GULP energy -198305.721225 kJ/mol
# GULP energy per Si atom -12394.107577 kJ/mol
# Density = 2.655832 g / cm^3
# Si number density = 26.618909 Si / 1000 Ang^3
#
#
#
# Elastic Constant Matrix: (Units=GPa)
#
#
# Indices 1 2 3 4 5 6 
#
# 1 172.1334 53.0747 -5.0729 0.0000 39.7880 0.0000
# 2 53.0747 102.4700 -22.7405 0.0000 -5.2036 0.0000
# 3 -5.0729 -22.7405 72.8466 0.0000 -4.1570 0.0000
# 4 0.0000 0.0000 0.0000 22.7232 0.0000 -5.8378
# 5 39.7880 -5.2036 -4.1570 0.0000 34.2017 0.0000
# 6 0.0000 0.0000 0.0000 -5.8378 0.0000 54.3363
#
#
#
# Elastic Compliance Matrix: (Units=1/GPa)
#
#
# Indices 1 2 3 4 5 6 
#
# 1 0.011261 -0.007065 -0.002246 0.000000 -0.014449 0.000000
# 2 -0.007065 0.015056 0.004841 0.000000 0.011098 0.000000
# 3 -0.002246 0.004841 0.015380 0.000000 0.005219 0.000000
# 4 0.000000 0.000000 0.000000 0.045257 0.000000 0.004862
# 5 -0.014449 0.011098 0.005219 0.000000 0.048370 0.000000
# 6 0.000000 0.000000 0.000000 0.004862 0.000000 0.018926
#
#
# Mechanical properties :
#
#
# Convention : Reuss Voigt Hill
#
# Bulk Modulus (GPa) = 30.52567 44.21918 37.37242
# Shear Modulus (GPa) = 28.71762 43.73149 36.22456
#
# Velocity S-wave (km/s) = 3.28814 4.05763 3.69298
# Velocity P-wave (km/s) = 5.09003 6.21293 5.67930
#
# Compressibility (1/GPa) = 0.03275931
#
# Stress axis : x y z
#
# Youngs Moduli (GPa) = 88.79922 66.41748 65.01848
#
# Poissons Ratio (x) = 0.46924 0.14602
# Poissons Ratio (y) = 0.62736 -0.31478
# Poissons Ratio (z) = 0.19942 -0.32156
#
# Static dielectric constant tensor:
#      x y z
#    x 5.791670 0.000000 -0.967800 
#    y 0.000000 5.059850 0.000000 
#    z -0.967800 0.000000 7.591110 
# 
# 
# High freq. dielectric constant tensor:
#      x y z
#    x 2.096830 0.000000 -0.010070 
#    y 0.000000 2.086090 0.000000 
#    z -0.010070 0.000000 2.080310 
# 
# From -- ./inp_files/71517.got.cif
#   From: 2010.03.12/outbox.cif.g09.slc.cpg/sg5_36_cif.got.tgz:71517.got - 2010.03.31 09:47:26.
