data_PCOD8049524
_publ_section_title
;
Structure prediction by ZEFSAII (Michael W. Deem and Ramdas Pophale) SiO2 
 PCOD8049524
Probable space group: C 2
;
_chemical_formula_sum "Si O2"
_cell_formula_units_Z 28
_cell_length_a 16.969592
_cell_length_b 8.946544
_cell_length_c 13.009853
_cell_angle_alpha 90.000000
_cell_angle_beta 137.474759
_cell_angle_gamma 90.000000
_cell_volume 1335.030350
_symmetry_space_group_name_H-M "C 2"
_symmetry_group_IT_number 5
_symmetry_cell_setting 'monoclinic'
loop_
_space_group_symop_operation_xyz
x,y,z
-x,y,-z
1/2+x,1/2+y,z
1/2-x,1/2+y,-z
loop_
_atom_site_type_symbol
_atom_site_label
_atom_site_fract_x
_atom_site_fract_y
_atom_site_fract_z
Si Si1 0.352675 0.619180 0.599553
Si Si2 0.920130 0.642962 0.097495
Si Si3 0.780146 0.458080 0.828245
Si Si4 0.489742 0.463378 0.108972
Si Si5 0.859920 0.445210 0.679620
Si Si6 0.057501 0.133144 0.656468
Si Si7 0.811044 0.198142 0.020899
O O1 0.390564 0.545569 0.743637
O O2 0.224505 0.571059 0.445833
O O3 0.355204 0.798132 0.605899
O O4 0.447414 0.559321 0.608416
O O5 0.981638 0.802655 0.154676
O O6 0.011783 0.511655 0.206870
O O7 0.856245 0.606404 0.927234
O O8 0.821368 0.643513 0.091030
O O9 0.821197 0.398754 0.757458
O O10 0.643217 0.500656 0.699263
O O11 0.812702 0.340412 0.948563
O O12 0.377818 0.561665 0.031360
O O13 0.500000 0.437196 0.000000
O O14 0.127266 0.235296 0.808051
O O15 0.000000 0.216066 0.500000
#
# Coordination Sequence:
#
# PCOD8049524 Si02
#       7
#     4   4   4   4   4   4   4
#     4  11  24  40  63  93 122 175 207 270 321 382
#     4  11  22  38  62  96 125 167 207 261 312 384
#     4  11  22  41  69  94 122 173 219 255 316 389
#     4  11  22  40  64  92 130 159 215 269 321 366
#     4  12  24  41  65  90 134 162 223 257 327 382
#     4  10  20  40  65  93 125 167 214 258 317 377
#     4  10  22  39  65  96 125 166 216 266 310 378
#
# _framework density 20.973305
#
# number of rings (size 3 to 8) (size 9 to 14) (size 15 to 20)
#    0.000    1.143    1.429    7.286    0.000    1.143 
#    0.000    0.000    3.143    0.000    0.000    0.000 
#    0.000    0.000    0.000    0.000    0.000    0.000 
#
# Total GULP energy -173524.300313 kJ/mol
# GULP energy per Si atom -12394.592879 kJ/mol
# Density = 2.092557 g / cm^3
# Si number density = 20.973305 Si / 1000 Ang^3
#
#
#
# Elastic Constant Matrix: (Units=GPa)
#
#
# Indices 1 2 3 4 5 6 
#
# 1 97.0472 34.2258 56.8510 0.0000 10.5581 0.0000
# 2 34.2258 103.9027 47.5026 0.0000 -0.1875 0.0000
# 3 56.8510 47.5026 112.0761 0.0000 8.7569 0.0000
# 4 0.0000 0.0000 0.0000 35.3830 0.0000 0.9319
# 5 10.5581 -0.1875 8.7569 0.0000 29.8691 0.0000
# 6 0.0000 0.0000 0.0000 0.9319 0.0000 23.0285
#
#
#
# Elastic Compliance Matrix: (Units=1/GPa)
#
#
# Indices 1 2 3 4 5 6 
#
# 1 0.015270 -0.002008 -0.006624 0.000000 -0.003468 0.000000
# 2 -0.002008 0.012276 -0.004346 0.000000 0.002061 0.000000
# 3 -0.006624 -0.004346 0.014270 0.000000 -0.001870 0.000000
# 4 0.000000 0.000000 0.000000 0.028292 0.000000 -0.001145
# 5 -0.003468 0.002061 -0.001870 0.000000 0.035266 0.000000
# 6 0.000000 0.000000 0.000000 -0.001145 0.000000 0.043471
#
#
# Mechanical properties :
#
#
# Convention : Reuss Voigt Hill
#
# Bulk Modulus (GPa) = 63.04402 65.57609 64.31005
# Shear Modulus (GPa) = 27.76417 29.28590 28.52503
#
# Velocity S-wave (km/s) = 3.64233 3.74082 3.69191
# Velocity P-wave (km/s) = 6.91471 7.07055 6.99306
#
# Compressibility (1/GPa) = 0.01586193
#
# Stress axis : x y z
#
# Youngs Moduli (GPa) = 65.48809 81.45766 70.07529
#
# Poissons Ratio (x) = 0.16357 0.46416
# Poissons Ratio (y) = 0.13150 0.30453
# Poissons Ratio (z) = 0.43377 0.35399
#
# Static dielectric constant tensor:
#      x y z
#    x 3.971080 0.000000 0.077330 
#    y 0.000000 3.625150 0.000000 
#    z 0.077330 0.000000 4.041040 
# 
# 
# High freq. dielectric constant tensor:
#      x y z
#    x 1.830370 0.000000 0.011490 
#    y 0.000000 1.803150 0.000000 
#    z 0.011490 0.000000 1.827860 
# 
# From -- ./inp_files/55765.got.cif
#   From: 2010.03.12/outbox.cif.g09.slc.cpg/sg5_28_cif.got.tgz:55765.got - 2010.03.31 09:47:26.
