data_PCOD8049723
_publ_section_title
;
Structure prediction by ZEFSAII (Michael W. Deem and Ramdas Pophale) SiO2 
 PCOD8049723
Probable space group: C 2
;
_chemical_formula_sum "Si O2"
_cell_formula_units_Z 30
_cell_length_a 9.446180
_cell_length_b 14.530089
_cell_length_c 12.254764
_cell_angle_alpha 90.000000
_cell_angle_beta 64.494337
_cell_angle_gamma 90.000000
_cell_volume 1518.088937
_symmetry_space_group_name_H-M "C 2"
_symmetry_group_IT_number 5
_symmetry_cell_setting 'monoclinic'
loop_
_space_group_symop_operation_xyz
x,y,z
-x,y,-z
1/2+x,1/2+y,z
1/2-x,1/2+y,-z
loop_
_atom_site_type_symbol
_atom_site_label
_atom_site_fract_x
_atom_site_fract_y
_atom_site_fract_z
Si Si1 0.536227 0.938110 0.107445
Si Si2 0.635449 0.092106 0.718116
Si Si3 0.641197 0.526674 0.520412
Si Si4 0.573430 0.739638 0.859719
Si Si5 0.000000 0.850469 0.500000
Si Si6 0.937763 0.083048 0.773545
Si Si7 0.614693 0.416578 0.059401
Si Si8 0.420188 0.259436 0.750666
O O1 0.430293 0.848273 0.166155
O O2 0.494759 0.015813 0.209223
O O3 0.500000 0.979235 0.000000
O O4 0.715808 0.906818 0.052231
O O5 0.695535 0.071785 0.574127
O O6 0.781316 0.084284 0.752489
O O7 0.556247 0.191870 0.748437
O O8 0.500000 0.575648 0.500000
O O9 0.643624 0.417046 0.491275
O O10 0.595239 0.544512 0.661285
O O11 0.476238 0.685663 0.800053
O O12 0.753907 0.706958 0.804687
O O13 0.500000 0.717627 0.000000
O O14 0.950928 0.787631 0.616422
O O15 0.909065 0.019427 0.888154
O O16 0.587994 0.346919 0.167735
O O17 0.500000 0.391947 0.000000
#
# Coordination Sequence:
#
# PCOD8049723 Si02
#       8
#     4   4   4   4   2   4   4   4
#     4  11  22  43  64  87 133 175 215 257 329 395
#     4  11  24  40  65  98 125 168 223 264 321 387
#     4   8  18  40  66  84 119 166 214 251 317 378
#     4  11  24  40  63  94 132 169 214 263 331 384
#     4  10  20  44  70  86 128 176 220 260 322 394
#     4  11  22  42  66  92 129 171 213 268 326 385
#     4  12  25  42  66  97 130 171 219 266 323 389
#     4  12  25  41  66 101 128 171 218 271 323 386
#
# _framework density 19.761687999999999
#
# number of rings (size 3 to 8) (size 9 to 14) (size 15 to 20)
#    0.400    0.800    5.333    1.200    7.467    0.533 
#    0.000    0.000    0.000    0.000    0.000    0.000 
#    0.000    0.000    0.000    0.000    0.000    0.000 
#
# Total GULP energy -185958.903042 kJ/mol
# GULP energy per Si atom -12397.260203 kJ/mol
# Density = 1.971671 g / cm^3
# Si number density = 19.761688 Si / 1000 Ang^3
#
#
#
# Elastic Constant Matrix: (Units=GPa)
#
#
# Indices 1 2 3 4 5 6 
#
# 1 84.3962 23.9303 44.7439 0.0000 -9.9011 0.0000
# 2 23.9303 91.8152 46.5357 0.0000 -6.2560 0.0000
# 3 44.7439 46.5357 112.8738 0.0000 -11.5270 0.0000
# 4 0.0000 0.0000 0.0000 1.2619 0.0000 -4.1229
# 5 -9.9011 -6.2560 -11.5270 0.0000 29.3137 0.0000
# 6 0.0000 0.0000 0.0000 -4.1229 0.0000 30.7435
#
#
#
# Elastic Compliance Matrix: (Units=1/GPa)
#
#
# Indices 1 2 3 4 5 6 
#
# 1 0.015319 -0.001098 -0.005330 0.000000 0.002844 0.000000
# 2 -0.001098 0.013862 -0.005226 0.000000 0.000533 0.000000
# 3 -0.005330 -0.005226 0.013366 0.000000 0.002340 0.000000
# 4 0.000000 0.000000 0.000000 1.410396 0.000000 0.189145
# 5 0.002844 0.000533 0.002340 0.000000 0.036108 0.000000
# 6 0.000000 0.000000 0.000000 0.189145 0.000000 0.057893
#
#
# Mechanical properties :
#
#
# Convention : Reuss Voigt Hill
#
# Bulk Modulus (GPa) = 51.97134 57.72278 54.84706
# Shear Modulus (GPa) = 3.17125 23.85552 13.51339
#
# Velocity S-wave (km/s) = 1.26816 3.47819 2.61783
# Velocity P-wave (km/s) = 5.33858 6.73819 6.07880
#
# Compressibility (1/GPa) = 0.01924137
#
# Stress axis : x y z
#
# Youngs Moduli (GPa) = 65.27661 72.13742 74.81880
#
# Poissons Ratio (x) = 0.07918 0.39876
# Poissons Ratio (y) = 0.07165 0.39098
# Poissons Ratio (z) = 0.34790 0.37697
#
# Static dielectric constant tensor:
#      x y z
#    x 3.496760 0.000000 -0.205020 
#    y 0.000000 3.460220 0.000000 
#    z -0.205020 0.000000 3.731770 
# 
# 
# High freq. dielectric constant tensor:
#      x y z
#    x 1.750520 0.000000 -0.016160 
#    y 0.000000 1.762950 0.000000 
#    z -0.016160 0.000000 1.781010 
# 
# From -- ./inp_files/36363.got.cif
#   From: 2010.03.12/outbox.cif.g09.slc.cpg/sg5_19_cif.got.tgz:36363.got - 2010.03.31 09:47:26.
