data_PCOD8049559
_publ_section_title
;
Structure prediction by ZEFSAII (Michael W. Deem and Ramdas Pophale) SiO2 
 PCOD8049559
Probable space group: C 2
;
_chemical_formula_sum "Si O2"
_cell_formula_units_Z 28
_cell_length_a 27.479120
_cell_length_b 8.300789
_cell_length_c 9.920290
_cell_angle_alpha 90.000000
_cell_angle_beta 35.711984
_cell_angle_gamma 90.000000
_cell_volume 1320.822569
_symmetry_space_group_name_H-M "C 2"
_symmetry_group_IT_number 5
_symmetry_cell_setting 'monoclinic'
loop_
_space_group_symop_operation_xyz
x,y,z
-x,y,-z
1/2+x,1/2+y,z
1/2-x,1/2+y,-z
loop_
_atom_site_type_symbol
_atom_site_label
_atom_site_fract_x
_atom_site_fract_y
_atom_site_fract_z
Si Si1 0.500000 0.820560 0.000000
Si Si2 0.594138 0.628989 0.573203
Si Si3 0.644364 0.916349 0.286847
Si Si4 0.994938 0.808674 0.245017
Si Si5 0.735492 0.937060 0.812141
Si Si6 0.112619 0.567746 0.875279
Si Si7 0.500000 0.137423 0.500000
Si Si8 0.674704 0.135933 0.456120
O O1 0.571107 0.718077 0.764567
O O2 0.541164 0.931944 0.022763
O O3 0.601104 0.748915 0.429521
O O4 0.518723 0.500822 0.721445
O O5 0.682789 0.544568 0.387969
O O6 0.575711 0.028945 0.376369
O O7 0.689377 0.992381 0.316777
O O8 0.715427 0.898740 0.013585
O O9 0.026658 0.753738 0.319574
O O10 0.910113 0.724427 0.391705
O O11 0.068923 0.745340 0.980071
O O12 0.749424 0.761778 0.715166
O O13 0.661618 0.028610 0.901706
O O14 0.172064 0.561611 0.611598
#
# Coordination Sequence:
#
# PCOD8049559 Si02
#       8
#     2   4   4   4   4   4   2   4
#     4  12  24  44  68 100 138 184 230 282 350 416
#     4  11  26  42  69 104 138 180 233 292 346 416
#     4  11  21  45  68  95 141 181 232 280 352 414
#     4  10  21  41  66  96 132 176 226 279 343 411
#     4  11  26  41  69 101 138 181 233 285 348 414
#     4  12  22  44  69  97 133 187 227 284 348 415
#     4  10  20  40  70 100 124 182 230 274 342 416
#     4  10  22  40  66  92 133 183 222 273 350 408
#
# _framework density 21.198912
#
# number of rings (size 3 to 8) (size 9 to 14) (size 15 to 20)
#    0.000    1.143    4.286    1.714    6.000    0.571 
#    0.000    1.429    0.000    0.000    0.000    0.000 
#    0.000    0.000    0.000    0.000    0.000    0.000 
#
# Total GULP energy -173580.444050 kJ/mol
# GULP energy per Si atom -12398.603146 kJ/mol
# Density = 2.115066 g / cm^3
# Si number density = 21.198912 Si / 1000 Ang^3
#
#
#
# Elastic Constant Matrix: (Units=GPa)
#
#
# Indices 1 2 3 4 5 6 
#
# 1 75.7959 42.1498 33.2758 0.0000 9.2519 0.0000
# 2 42.1498 133.1265 53.6817 0.0000 2.3561 0.0000
# 3 33.2758 53.6817 133.1155 0.0000 18.8011 0.0000
# 4 0.0000 0.0000 0.0000 48.2778 0.0000 -0.8409
# 5 9.2519 2.3561 18.8011 0.0000 33.3141 0.0000
# 6 0.0000 0.0000 0.0000 -0.8409 0.0000 23.8013
#
#
#
# Elastic Compliance Matrix: (Units=1/GPa)
#
#
# Indices 1 2 3 4 5 6 
#
# 1 0.016970 -0.004528 -0.001951 0.000000 -0.003291 0.000000
# 2 -0.004528 0.010251 -0.003344 0.000000 0.002420 0.000000
# 3 -0.001951 -0.003344 0.010039 0.000000 -0.004887 0.000000
# 4 0.000000 0.000000 0.000000 0.020726 0.000000 0.000732
# 5 -0.003291 0.002420 -0.004887 0.000000 0.033518 0.000000
# 6 0.000000 0.000000 0.000000 0.000732 0.000000 0.042040
#
#
# Mechanical properties :
#
#
# Convention : Reuss Voigt Hill
#
# Bulk Modulus (GPa) = 56.77435 66.69472 61.73453
# Shear Modulus (GPa) = 31.43459 35.27402 33.35431
#
# Velocity S-wave (km/s) = 3.85494 4.08358 3.97091
# Velocity P-wave (km/s) = 6.83037 7.33239 7.08583
#
# Compressibility (1/GPa) = 0.01761359
#
# Stress axis : x y z
#
# Youngs Moduli (GPa) = 58.92900 97.55434 99.61454
#
# Poissons Ratio (x) = 0.44170 0.19437
# Poissons Ratio (y) = 0.26682 0.33308
# Poissons Ratio (z) = 0.11498 0.32619
#
# Static dielectric constant tensor:
#      x y z
#    x 3.624970 0.000000 0.206370 
#    y 0.000000 4.096060 0.000000 
#    z 0.206370 0.000000 3.995330 
# 
# 
# High freq. dielectric constant tensor:
#      x y z
#    x 1.813780 0.000000 0.016030 
#    y 0.000000 1.833470 0.000000 
#    z 0.016030 0.000000 1.841490 
# 
# From -- ./inp_files/31759.got.cif
#   From: 2010.03.12/outbox.cif.g09.slc.cpg/sg5_16_cif.got.tgz:31759.got - 2010.03.31 09:47:26.
