data_PCOD8049898
_publ_section_title
;
Structure prediction by ZEFSAII (Michael W. Deem and Ramdas Pophale) SiO2 
 PCOD8049898
Probable space group: C 2
;
_chemical_formula_sum "Si O2"
_cell_formula_units_Z 28
_cell_length_a 8.973839
_cell_length_b 5.325235
_cell_length_c 23.406899
_cell_angle_alpha 90.000000
_cell_angle_beta 112.899952
_cell_angle_gamma 90.000000
_cell_volume 1030.405421
_symmetry_space_group_name_H-M "C 2"
_symmetry_group_IT_number 5
_symmetry_cell_setting 'monoclinic'
loop_
_space_group_symop_operation_xyz
x,y,z
-x,y,-z
1/2+x,1/2+y,z
1/2-x,1/2+y,-z
loop_
_atom_site_type_symbol
_atom_site_label
_atom_site_fract_x
_atom_site_fract_y
_atom_site_fract_z
Si Si1 0.923791 0.021750 0.130396
Si Si2 0.428366 0.937355 0.615449
Si Si3 0.950208 0.930675 0.427455
Si Si4 0.982186 0.811651 0.253120
Si Si5 0.185730 0.226073 0.724157
Si Si6 0.243592 0.437740 0.846908
Si Si7 0.811278 0.297226 0.979578
O O1 0.832447 0.291418 0.109804
O O2 0.791999 0.792066 0.096655
O O3 0.001793 0.023277 0.205462
O O4 0.074812 0.025085 0.108352
O O5 0.243304 0.896160 0.605505
O O6 0.496316 0.690833 0.593694
O O7 0.550360 0.947829 0.690046
O O8 0.454188 0.190007 0.583379
O O9 0.000000 0.951886 0.500000
O O10 0.164412 0.730069 0.298560
O O11 0.871904 0.621836 0.203247
O O12 0.902393 0.953426 0.295746
O O13 0.266872 0.228898 0.799275
O O14 0.718089 0.539066 0.992110
O O15 0.000000 0.355923 0.000000
#
# Coordination Sequence:
#
# PCOD8049898 Si02
#       7
#     4   4   4   4   4   4   4
#     4  10  23  39  61  93 120 175 218 266 339 394
#     4  12  26  44  74 100 142 182 226 293 344 403
#     4  12  26  47  71 102 136 185 238 285 342 405
#     4  10  21  38  62  88 130 165 217 266 324 414
#     4  10  23  37  58  98 125 170 217 267 338 395
#     4  10  21  38  64  87 129 166 216 267 323 415
#     4  12  28  47  73 102 138 177 231 294 343 404
#
# _framework density 27.173772
#
# number of rings (size 3 to 8) (size 9 to 14) (size 15 to 20)
#    0.000    1.143    0.000    5.143    8.000    0.000 
#    0.000    0.000    0.000    0.000    0.000    0.000 
#    0.000    0.000    0.000    0.000    0.000    0.000 
#
# Total GULP energy -173492.285487 kJ/mol
# GULP energy per Si atom -12392.306106 kJ/mol
# Density = 2.711192 g / cm^3
# Si number density = 27.173772 Si / 1000 Ang^3
#
#
#
# Elastic Constant Matrix: (Units=GPa)
#
#
# Indices 1 2 3 4 5 6 
#
# 1 192.3140 54.3641 -1.0338 0.0000 59.3715 0.0000
# 2 54.3641 114.9548 0.7314 0.0000 6.0249 0.0000
# 3 -1.0338 0.7314 98.4904 0.0000 22.2961 0.0000
# 4 0.0000 0.0000 0.0000 22.3157 0.0000 -14.0587
# 5 59.3715 6.0249 22.2961 0.0000 38.4514 0.0000
# 6 0.0000 0.0000 0.0000 -14.0587 0.0000 62.4515
#
#
#
# Elastic Compliance Matrix: (Units=1/GPa)
#
#
# Indices 1 2 3 4 5 6 
#
# 1 0.014490 -0.005586 0.005825 0.000000 -0.024875 0.000000
# 2 -0.005586 0.010931 -0.001962 0.000000 0.008050 0.000000
# 3 0.005825 -0.001962 0.014038 0.000000 -0.016826 0.000000
# 4 0.000000 0.000000 0.000000 0.052217 0.000000 0.011755
# 5 -0.024875 0.008050 -0.016826 0.000000 0.072911 0.000000
# 6 0.000000 0.000000 0.000000 0.011755 0.000000 0.018659
#
#
# Mechanical properties :
#
#
# Convention : Reuss Voigt Hill
#
# Bulk Modulus (GPa) = 27.76772 57.09807 42.43289
# Shear Modulus (GPa) = 25.16402 48.09022 36.62712
#
# Velocity S-wave (km/s) = 3.04639 4.21138 3.67534
# Velocity P-wave (km/s) = 4.75550 6.68621 5.80173
#
# Compressibility (1/GPa) = 0.03601304
#
# Stress axis : x y z
#
# Youngs Moduli (GPa) = 69.01466 91.48078 71.23451
#
# Poissons Ratio (x) = 0.51099 -0.41493
# Poissons Ratio (y) = 0.38550 0.13977
# Poissons Ratio (z) = -0.40200 0.17949
#
# Static dielectric constant tensor:
#      x y z
#    x 6.286140 0.000000 -0.297250 
#    y 0.000000 5.654340 0.000000 
#    z -0.297250 0.000000 8.992230 
# 
# 
# High freq. dielectric constant tensor:
#      x y z
#    x 2.112160 0.000000 0.003430 
#    y 0.000000 2.113390 0.000000 
#    z 0.003430 0.000000 2.113370 
# 
# From -- ./inp_files/71507.got.cif
#   From: 2010.03.12/outbox.cif.g09.slc.cpg/sg5_36_cif.got.tgz:71507.got - 2010.03.31 09:47:26.
