data_PCOD8049694
_publ_section_title
;
Structure prediction by ZEFSAII (Michael W. Deem and Ramdas Pophale) SiO2 
 PCOD8049694
Probable space group: C 2
;
_chemical_formula_sum "Si O2"
_cell_formula_units_Z 24
_cell_length_a 28.967372
_cell_length_b 4.912180
_cell_length_c 16.242813
_cell_angle_alpha 90.000000
_cell_angle_beta 154.382807
_cell_angle_gamma 90.000000
_cell_volume 999.278289
_symmetry_space_group_name_H-M "C 2"
_symmetry_group_IT_number 5
_symmetry_cell_setting 'monoclinic'
loop_
_space_group_symop_operation_xyz
x,y,z
-x,y,-z
1/2+x,1/2+y,z
1/2-x,1/2+y,-z
loop_
_atom_site_type_symbol
_atom_site_label
_atom_site_fract_x
_atom_site_fract_y
_atom_site_fract_z
Si Si1 0.195128 0.571470 0.374843
Si Si2 0.875808 0.059548 0.163433
Si Si3 0.220883 0.722327 0.239833
Si Si4 0.237012 0.550602 0.086979
Si Si5 0.492504 0.296441 0.827514
Si Si6 0.055238 0.298766 0.353778
O O1 0.215103 0.287717 0.452403
O O2 0.198205 0.524230 0.281286
O O3 0.078211 0.681969 0.211592
O O4 0.848704 0.096915 0.216731
O O5 0.854367 0.755678 0.094869
O O6 0.995190 0.166474 0.336254
O O7 0.795426 0.241564 0.980775
O O8 0.255680 0.561148 0.214343
O O9 0.325457 0.903553 0.430369
O O10 0.111237 0.889241 0.047840
O O11 0.434020 0.557596 0.696111
O O12 0.508424 0.055038 0.785672
#
# Coordination Sequence:
#
# PCOD8049694 Si02
#       6
#     4   4   4   4   4   4
#     4  12  25  46  67  97 135 173 220 278 328 387
#     4  10  20  43  62  99 133 170 211 284 317 387
#     4  12  25  43  74  97 131 183 220 268 337 401
#     4  10  22  38  70  93 132 172 222 261 338 385
#     4  12  25  46  64 103 130 176 218 280 325 390
#     4  12  24  42  71  95 140 166 227 272 326 392
#
# _framework density 24.017333000000001
#
# number of rings (size 3 to 8) (size 9 to 14) (size 15 to 20)
#    0.000    0.667    6.667    0.500    0.000    6.000 
#    0.000    3.333    0.000    8.000    0.000    0.000 
#    0.000    0.000    0.000    0.000    0.000    0.000 
#
# Total GULP energy -148721.736826 kJ/mol
# GULP energy per Si atom -12393.478069 kJ/mol
# Density = 2.396267 g / cm^3
# Si number density = 24.017333 Si / 1000 Ang^3
#
#
#
# Elastic Constant Matrix: (Units=GPa)
#
#
# Indices 1 2 3 4 5 6 
#
# 1 199.3902 12.7136 48.7769 0.0000 -10.4757 0.0001
# 2 12.7136 76.2827 11.0472 0.0006 -6.1169 -0.0004
# 3 48.7769 11.0472 129.3362 0.0002 18.7074 -0.0002
# 4 0.0000 0.0006 0.0002 14.1005 -0.0001 10.8641
# 5 -10.4757 -6.1169 18.7074 -0.0001 48.4107 0.0000
# 6 0.0001 -0.0004 -0.0002 10.8641 0.0000 31.1351
#
#
#
# Elastic Compliance Matrix: (Units=1/GPa)
#
#
# Indices 1 2 3 4 5 6 
#
# 1 0.005752 -0.000434 -0.002441 0.000000 0.002133 0.000000
# 2 -0.000434 0.013540 -0.001299 -0.000001 0.002119 0.000000
# 3 -0.002441 -0.001299 0.009388 0.000000 -0.004320 0.000000
# 4 0.000000 -0.000001 0.000000 0.096996 0.000000 -0.033845
# 5 0.002133 0.002119 -0.004320 0.000000 0.023055 0.000000
# 6 0.000000 0.000000 0.000000 -0.033845 0.000000 0.043928
#
#
# Mechanical properties :
#
#
# Convention : Reuss Voigt Hill
#
# Bulk Modulus (GPa) = 49.18468 61.12050 55.15259
# Shear Modulus (GPa) = 24.06334 40.89402 32.47868
#
# Velocity S-wave (km/s) = 3.16874 4.13084 3.68136
# Velocity P-wave (km/s) = 5.82333 6.94662 6.40963
#
# Compressibility (1/GPa) = 0.02033153
#
# Stress axis : x y z
#
# Youngs Moduli (GPa) = 173.84881 73.85765 106.51749
#
# Poissons Ratio (x) = 0.03207 0.25998
# Poissons Ratio (y) = 0.07548 0.13839
# Poissons Ratio (z) = 0.42432 0.09596
#
# Static dielectric constant tensor:
#      x y z
#    x 4.862580 0.000000 0.161960 
#    y 0.000000 3.988630 0.000000 
#    z 0.161960 0.000000 3.995870 
# 
# 
# High freq. dielectric constant tensor:
#      x y z
#    x 1.990080 0.000000 0.023380 
#    y 0.000000 1.929550 0.000000 
#    z 0.023380 0.000000 1.923510 
# 
# From -- ./inp_files/58012.got.cif
#   From: 2010.03.12/outbox.cif.g09.slc.cpg/sg5_30_cif.got.tgz:58012.got - 2010.03.31 09:47:26.
