data_PCOD8049144
_publ_section_title
;
Structure prediction by ZEFSAII (Michael W. Deem and Ramdas Pophale) SiO2 
 PCOD8049144
Probable space group: C 2
;
_chemical_formula_sum "Si O2"
_cell_formula_units_Z 30
_cell_length_a 8.526366
_cell_length_b 11.894451
_cell_length_c 16.628840
_cell_angle_alpha 90.000000
_cell_angle_beta 68.293397
_cell_angle_gamma 90.000000
_cell_volume 1566.852416
_symmetry_space_group_name_H-M "C 2"
_symmetry_group_IT_number 5
_symmetry_cell_setting 'monoclinic'
loop_
_space_group_symop_operation_xyz
x,y,z
-x,y,-z
1/2+x,1/2+y,z
1/2-x,1/2+y,-z
loop_
_atom_site_type_symbol
_atom_site_label
_atom_site_fract_x
_atom_site_fract_y
_atom_site_fract_z
Si Si1 0.500121 0.705670 0.406844
Si Si2 0.500000 0.871077 0.000000
Si Si3 0.036151 0.448651 0.624835
Si Si4 0.186016 0.986503 0.133295
Si Si5 0.269560 0.714115 0.953674
Si Si6 0.993314 0.763936 0.128347
Si Si7 0.676288 0.059011 0.453904
Si Si8 0.809345 0.590455 0.269686
O O1 0.500000 0.739272 0.500000
O O2 0.476454 0.815938 0.357217
O O3 0.344950 0.627243 0.412754
O O4 0.675526 0.646008 0.354902
O O5 0.368000 0.949759 0.068756
O O6 0.576958 0.795765 0.056037
O O7 0.183672 0.475758 0.530562
O O8 0.074813 0.504779 0.702744
O O9 0.854125 0.489091 0.623256
O O10 0.046004 0.888976 0.148581
O O11 0.144469 0.096264 0.087590
O O12 0.204088 0.022670 0.222468
O O13 0.163736 0.773217 0.902612
O O14 0.150477 0.702329 0.054971
O O15 0.935482 0.686222 0.212995
O O16 0.500000 0.132492 0.500000
#
# Coordination Sequence:
#
# PCOD8049144 Si02
#       8
#     4   2   4   4   4   4   4   4
#     4  12  20  39  62  79 110 151 195 240 286 349
#     4  10  20  36  64  84 116 154 200 232 276 344
#     4   9  21  39  57  82 112 146 187 242 296 330
#     4  10  21  39  57  89 118 155 193 233 292 335
#     4   9  19  38  63  86 112 155 200 231 273 347
#     4   9  20  39  58  84 125 154 184 240 290 331
#     4   8  19  40  56  83 104 137 197 239 280 345
#     4  11  23  37  57  88 120 150 192 240 289 347
#
# _framework density 19.146666
#
# number of rings (size 3 to 8) (size 9 to 14) (size 15 to 20)
#    0.800    1.333    2.667    1.600    0.000    6.400 
#    2.400    6.667    0.000    0.000    0.000    0.000 
#    0.000    0.000    0.000    0.000    0.000    0.000 
#
# Total GULP energy -185891.498803 kJ/mol
# GULP energy per Si atom -12392.766587 kJ/mol
# Density = 1.910309 g / cm^3
# Si number density = 19.146666 Si / 1000 Ang^3
#
#
#
# Elastic Constant Matrix: (Units=GPa)
#
#
# Indices 1 2 3 4 5 6 
#
# 1 43.4612 25.2705 12.4584 0.0000 2.2165 0.0000
# 2 25.2705 99.5395 25.9925 0.0000 8.4142 0.0000
# 3 12.4584 25.9925 69.3141 0.0000 10.6439 0.0000
# 4 0.0000 0.0000 0.0000 39.4357 0.0000 40.7941
# 5 2.2165 8.4142 10.6439 0.0000 22.8524 0.0000
# 6 0.0000 0.0000 0.0000 40.7941 0.0000 95.9417
#
#
#
# Elastic Compliance Matrix: (Units=1/GPa)
#
#
# Indices 1 2 3 4 5 6 
#
# 1 0.027418 -0.006336 -0.002695 0.000000 0.000929 0.000000
# 2 -0.006336 0.012716 -0.003237 0.000000 -0.002560 0.000000
# 3 -0.002695 -0.003237 0.017127 0.000000 -0.006524 0.000000
# 4 0.000000 0.000000 0.000000 0.045269 0.000000 -0.019248
# 5 0.000929 -0.002560 -0.006524 0.000000 0.047650 0.000000
# 6 0.000000 0.000000 0.000000 -0.019248 0.000000 0.018607
#
#
# Mechanical properties :
#
#
# Convention : Reuss Voigt Hill
#
# Bulk Modulus (GPa) = 30.55564 37.75083 34.15323
# Shear Modulus (GPa) = 24.48207 41.55220 33.01714
#
# Velocity S-wave (km/s) = 3.57971 4.66360 4.15713
# Velocity P-wave (km/s) = 5.75145 6.98272 6.39678
#
# Compressibility (1/GPa) = 0.03272719
#
# Stress axis : x y z
#
# Youngs Moduli (GPa) = 36.47247 78.63936 58.38717
#
# Poissons Ratio (x) = 0.49822 0.15734
# Poissons Ratio (y) = 0.23107 0.18898
# Poissons Ratio (z) = 0.09829 0.25453
#
# Static dielectric constant tensor:
#      x y z
#    x 3.363900 0.000000 0.100480 
#    y 0.000000 3.432950 0.000000 
#    z 0.100480 0.000000 3.381730 
# 
# 
# High freq. dielectric constant tensor:
#      x y z
#    x 1.737110 0.000000 0.008780 
#    y 0.000000 1.740420 0.000000 
#    z 0.008780 0.000000 1.738180 
# 
# From -- ./inp_files/59492.got.cif
#   From: 2010.03.12/outbox.cif.g09.slc.cpg/sg5_30_cif.got.tgz:59492.got - 2010.03.31 09:47:26.
