data_PCOD8049348
_publ_section_title
;
Structure prediction by ZEFSAII (Michael W. Deem and Ramdas Pophale) SiO2 
 PCOD8049348
Probable space group: C 2
;
_chemical_formula_sum "Si O2"
_cell_formula_units_Z 24
_cell_length_a 8.926910
_cell_length_b 17.406558
_cell_length_c 9.050700
_cell_angle_alpha 90.000000
_cell_angle_beta 51.684894
_cell_angle_gamma 90.000000
_cell_volume 1103.447546
_symmetry_space_group_name_H-M "C 2"
_symmetry_group_IT_number 5
_symmetry_cell_setting 'monoclinic'
loop_
_space_group_symop_operation_xyz
x,y,z
-x,y,-z
1/2+x,1/2+y,z
1/2-x,1/2+y,-z
loop_
_atom_site_type_symbol
_atom_site_label
_atom_site_fract_x
_atom_site_fract_y
_atom_site_fract_z
Si Si1 0.814528 0.427470 0.044451
Si Si2 0.210667 0.588339 0.828539
Si Si3 0.690572 0.981845 0.288832
Si Si4 0.049762 0.840908 0.804828
Si Si5 0.693811 0.708733 0.456887
Si Si6 0.059658 0.133377 0.811723
O O1 0.775322 0.496269 0.185175
O O2 0.644532 0.366694 0.155658
O O3 0.850002 0.463973 0.859270
O O4 0.000000 0.384956 0.000000
O O5 0.259321 0.624945 0.640049
O O6 0.361344 0.617346 0.853970
O O7 0.000000 0.616917 0.000000
O O8 0.500000 0.994787 0.500000
O O9 0.802587 0.910690 0.289928
O O10 0.822566 0.056522 0.222386
O O11 0.136180 0.768733 0.666766
O O12 0.000000 0.814232 0.000000
O O13 0.500000 0.742050 0.500000
O O14 0.677016 0.694218 0.642037
O O15 0.000000 0.174710 0.000000
#
# Coordination Sequence:
#
# PCOD8049348 Si02
#       6
#     4   4   4   4   4   4
#     4  10  21  39  69 104 132 173 224 285 336 391
#     4  10  20  38  64 102 134 170 222 277 338 395
#     4  11  22  38  68  99 134 176 229 277 335 401
#     4  10  20  43  70  98 137 179 223 271 345 406
#     4  10  23  38  68 103 133 184 223 276 340 405
#     4  11  21  40  63 103 135 175 229 281 330 393
#
# _framework density 21.750015000000001
#
# number of rings (size 3 to 8) (size 9 to 14) (size 15 to 20)
#    0.000    1.667    3.333    1.500    4.667    0.000 
#    0.000    0.833    0.000   66.000    0.000    0.000 
#    0.000    0.000    0.000    0.000    0.000    0.000 
#
# Total GULP energy -148770.094037 kJ/mol
# GULP energy per Si atom -12397.507836 kJ/mol
# Density = 2.170051 g / cm^3
# Si number density = 21.750015 Si / 1000 Ang^3
#
#
#
# Elastic Constant Matrix: (Units=GPa)
#
#
# Indices 1 2 3 4 5 6 
#
# 1 140.9211 58.1779 68.6016 0.0000 -11.4844 0.0000
# 2 58.1779 103.6429 71.9915 0.0000 -0.3260 0.0000
# 3 68.6016 71.9915 160.8360 0.0000 -1.3185 0.0000
# 4 0.0000 0.0000 0.0000 37.1713 0.0000 -9.2039
# 5 -11.4844 -0.3260 -1.3185 0.0000 34.6785 0.0000
# 6 0.0000 0.0000 0.0000 -9.2039 0.0000 12.8541
#
#
#
# Elastic Compliance Matrix: (Units=1/GPa)
#
#
# Indices 1 2 3 4 5 6 
#
# 1 0.010247 -0.003954 -0.002574 0.000000 0.003258 0.000000
# 2 -0.003954 0.015528 -0.005275 0.000000 -0.001364 0.000000
# 3 -0.002574 -0.005275 0.009672 0.000000 -0.000534 0.000000
# 4 0.000000 0.000000 0.000000 0.032700 0.000000 0.023414
# 5 0.003258 -0.001364 -0.000534 0.000000 0.029882 0.000000
# 6 0.000000 0.000000 0.000000 0.023414 0.000000 0.094561
#
#
# Mechanical properties :
#
#
# Convention : Reuss Voigt Hill
#
# Bulk Modulus (GPa) = 84.45251 89.21576 86.83413
# Shear Modulus (GPa) = 22.71244 30.71606 26.71425
#
# Velocity S-wave (km/s) = 3.23499 3.76204 3.50843
# Velocity P-wave (km/s) = 7.27094 7.74457 7.51149
#
# Compressibility (1/GPa) = 0.01184097
#
# Stress axis : x y z
#
# Youngs Moduli (GPa) = 97.58812 64.40106 103.38722
#
# Poissons Ratio (x) = 0.25462 0.26615
# Poissons Ratio (y) = 0.38583 0.54538
# Poissons Ratio (z) = 0.25123 0.33973
#
# Static dielectric constant tensor:
#      x y z
#    x 4.176120 0.000000 -0.110000 
#    y 0.000000 3.696080 0.000000 
#    z -0.110000 0.000000 4.187340 
# 
# 
# High freq. dielectric constant tensor:
#      x y z
#    x 1.862920 0.000000 -0.012600 
#    y 0.000000 1.835880 0.000000 
#    z -0.012600 0.000000 1.858410 
# 
# From -- ./inp_files/16698.got.cif
#   From: 2010.03.12/outbox.cif.g09.slc.cpg/sg5_9_cif.got.tgz:16698.got - 2010.03.31 09:47:26.
