data_PCOD8049038
_publ_section_title
;
Structure prediction by ZEFSAII (Michael W. Deem and Ramdas Pophale) SiO2 
 PCOD8049038
Probable space group: C 2
;
_chemical_formula_sum "Si O2"
_cell_formula_units_Z 26
_cell_length_a 11.264506
_cell_length_b 18.996451
_cell_length_c 5.865673
_cell_angle_alpha 90.000000
_cell_angle_beta 96.856903
_cell_angle_gamma 90.000000
_cell_volume 1246.192075
_symmetry_space_group_name_H-M "C 2"
_symmetry_group_IT_number 5
_symmetry_cell_setting 'monoclinic'
loop_
_space_group_symop_operation_xyz
x,y,z
-x,y,-z
1/2+x,1/2+y,z
1/2-x,1/2+y,-z
loop_
_atom_site_type_symbol
_atom_site_label
_atom_site_fract_x
_atom_site_fract_y
_atom_site_fract_z
Si Si1 0.896026 0.383250 0.112035
Si Si2 0.629838 0.552678 0.631400
Si Si3 0.000000 0.871011 0.000000
Si Si4 0.500000 0.786589 0.500000
Si Si5 0.823979 0.180489 0.625525
Si Si6 0.192789 0.918460 0.380122
Si Si7 0.500000 0.606253 0.000000
Si Si8 0.797288 0.807043 0.240616
O O1 0.812986 0.430973 0.258065
O O2 0.983064 0.332675 0.272491
O O3 0.812143 0.338346 0.926654
O O4 0.000000 0.428041 0.000000
O O5 0.500000 0.564031 0.500000
O O6 0.714973 0.614631 0.545208
O O7 0.685155 0.477867 0.574885
O O8 0.603660 0.559118 0.896673
O O9 0.919100 0.819800 0.132831
O O10 0.077508 0.921090 0.186411
O O11 0.380382 0.740782 0.482250
O O12 0.715340 0.221834 0.727410
O O13 0.927018 0.156785 0.820201
O O14 0.197989 0.844049 0.509669
#
# Coordination Sequence:
#
# PCOD8049038 Si02
#       8
#     4   4   2   2   4   4   2   4
#     4  11  21  34  61  90 118 153 193 246 296 350
#     4  10  22  35  56  83 123 154 189 244 294 355
#     4  10  24  39  60  84 118 163 204 238 288 353
#     4  12  18  36  56  96 124 140 192 244 304 352
#     4  11  20  33  58  88 120 152 186 249 294 351
#     4  11  23  40  57  88 121 159 198 244 294 348
#     4  10  20  35  56  88 122 151 192 236 306 357
#     4  11  22  36  60  87 121 156 199 245 291 345
#
# _framework density 20.863557
#
# number of rings (size 3 to 8) (size 9 to 14) (size 15 to 20)
#    0.000    1.231    5.385    2.308    0.000    8.000 
#    0.000    0.000    1.692    0.000    8.000    0.000 
#    0.000    0.000    0.000    0.000    0.000    0.000 
#
# Total GULP energy -161063.488785 kJ/mol
# GULP energy per Si atom -12389.499137 kJ/mol
# Density = 2.081607 g / cm^3
# Si number density = 20.863557 Si / 1000 Ang^3
#
#
#
# Elastic Constant Matrix: (Units=GPa)
#
#
# Indices 1 2 3 4 5 6 
#
# 1 120.9113 39.3082 35.2186 0.0000 -39.7329 0.0000
# 2 39.3082 98.8489 27.7084 0.0000 -19.8190 0.0000
# 3 35.2186 27.7084 88.2819 0.0000 -17.4542 0.0000
# 4 0.0000 0.0000 0.0000 20.6635 0.0000 -9.0181
# 5 -39.7329 -19.8190 -17.4542 0.0000 41.3397 0.0000
# 6 0.0000 0.0000 0.0000 -9.0181 0.0000 27.8294
#
#
#
# Elastic Compliance Matrix: (Units=1/GPa)
#
#
# Indices 1 2 3 4 5 6 
#
# 1 0.013236 -0.002476 -0.002425 0.000000 0.010510 0.000000
# 2 -0.002476 0.012266 -0.002368 0.000000 0.002501 0.000000
# 3 -0.002425 -0.002368 0.013478 0.000000 0.002225 0.000000
# 4 0.000000 0.000000 0.000000 0.056366 0.000000 0.018265
# 5 0.010510 0.002501 0.002225 0.000000 0.036430 0.000000
# 6 0.000000 0.000000 0.000000 0.018265 0.000000 0.041852
#
#
# Mechanical properties :
#
#
# Convention : Reuss Voigt Hill
#
# Bulk Modulus (GPa) = 40.91323 56.94584 48.92954
# Shear Modulus (GPa) = 25.46960 31.68700 28.57830
#
# Velocity S-wave (km/s) = 3.49774 3.90137 3.70506
# Velocity P-wave (km/s) = 5.99706 6.90275 6.46578
#
# Compressibility (1/GPa) = 0.02444197
#
# Stress axis : x y z
#
# Youngs Moduli (GPa) = 75.55346 81.52439 74.19670
#
# Poissons Ratio (x) = 0.20188 0.17992
# Poissons Ratio (y) = 0.18709 0.17567
# Poissons Ratio (z) = 0.18321 0.19302
#
# Static dielectric constant tensor:
#      x y z
#    x 4.105180 0.000000 -0.593770 
#    y 0.000000 3.623200 0.000000 
#    z -0.593770 0.000000 4.511670 
# 
# 
# High freq. dielectric constant tensor:
#      x y z
#    x 1.797500 0.000000 -0.028130 
#    y 0.000000 1.786910 0.000000 
#    z -0.028130 0.000000 1.833930 
# 
# From -- ./inp_files/5370.got.cif
#   From: 2010.03.12/outbox.cif.g09.slc.cpg/sg5_3_cif.got.tgz:5370.got - 2010.03.31 09:47:26.
