data_PCOD8049412
_publ_section_title
;
Structure prediction by ZEFSAII (Michael W. Deem and Ramdas Pophale) SiO2 
 PCOD8049412
Probable space group: C 2
;
_chemical_formula_sum "Si O2"
_cell_formula_units_Z 26
_cell_length_a 20.642954
_cell_length_b 8.428662
_cell_length_c 7.572959
_cell_angle_alpha 90.000000
_cell_angle_beta 106.085191
_cell_angle_gamma 90.000000
_cell_volume 1266.053459
_symmetry_space_group_name_H-M "C 2"
_symmetry_group_IT_number 5
_symmetry_cell_setting 'monoclinic'
loop_
_space_group_symop_operation_xyz
x,y,z
-x,y,-z
1/2+x,1/2+y,z
1/2-x,1/2+y,-z
loop_
_atom_site_type_symbol
_atom_site_label
_atom_site_fract_x
_atom_site_fract_y
_atom_site_fract_z
Si Si1 0.252689 0.677010 0.664079
Si Si2 0.681616 0.646973 0.916819
Si Si3 0.937223 0.538941 0.342661
Si Si4 0.535051 0.753058 0.845588
Si Si5 0.500000 0.536755 0.500000
Si Si6 0.131715 0.850282 0.689173
Si Si7 0.184594 0.356150 0.588012
O O1 0.186746 0.789408 0.588255
O O2 0.236380 0.498765 0.592041
O O3 0.312993 0.747024 0.587602
O O4 0.267062 0.668666 0.884060
O O5 0.612235 0.714534 0.933919
O O6 0.669821 0.462718 0.857498
O O7 0.708750 0.745695 0.768959
O O8 0.968451 0.438963 0.205536
O O9 0.896356 0.690112 0.236417
O O10 0.890520 0.421948 0.428742
O O11 0.000000 0.605942 0.500000
O O12 0.499282 0.646399 0.671109
O O13 0.500000 0.715436 0.000000
O O14 0.569225 0.436310 0.544800
#
# Coordination Sequence:
#
# PCOD8049412 Si02
#       7
#     4   4   4   4   2   4   4
#     4  11  22  39  63  91 127 162 211 255 310 377
#     4  10  22  39  61  88 126 160 206 260 308 366
#     4  10  20  39  63  85 125 163 204 257 308 364
#     4  10  22  36  62  91 117 166 205 251 314 368
#     4  10  20  40  62  90 130 160 210 258 306 372
#     4  10  21  39  66  91 121 170 206 258 317 362
#     4  10  23  38  61  94 118 167 206 250 319 364
#
# _framework density 20.536256999999999
#
# number of rings (size 3 to 8) (size 9 to 14) (size 15 to 20)
#    0.000    1.846    1.538    1.846    2.154    1.231 
#    0.000    4.615    3.385    0.000    0.000    0.000 
#    0.000    0.000    0.000    0.000    0.000    0.000 
#
# Total GULP energy -161129.813151 kJ/mol
# GULP energy per Si atom -12394.601012 kJ/mol
# Density = 2.048952 g / cm^3
# Si number density = 20.536257 Si / 1000 Ang^3
#
#
#
# Elastic Constant Matrix: (Units=GPa)
#
#
# Indices 1 2 3 4 5 6 
#
# 1 67.4181 40.1578 39.5800 0.0000 0.3433 0.0000
# 2 40.1578 132.6523 53.4998 0.0000 -3.2694 0.0000
# 3 39.5800 53.4998 107.2325 0.0000 -10.5026 0.0000
# 4 0.0000 0.0000 0.0000 20.8896 0.0000 -1.6629
# 5 0.3433 -3.2694 -10.5026 0.0000 22.0176 0.0000
# 6 0.0000 0.0000 0.0000 -1.6629 0.0000 33.4977
#
#
#
# Elastic Compliance Matrix: (Units=1/GPa)
#
#
# Indices 1 2 3 4 5 6 
#
# 1 0.020758 -0.003928 -0.006075 0.000000 -0.003805 0.000000
# 2 -0.003928 0.010197 -0.003654 0.000000 -0.000168 0.000000
# 3 -0.006075 -0.003654 0.014001 0.000000 0.006231 0.000000
# 4 0.000000 0.000000 0.000000 0.048061 0.000000 0.002386
# 5 -0.003805 -0.000168 0.006231 0.000000 0.048425 0.000000
# 6 0.000000 0.000000 0.000000 0.002386 0.000000 0.029971
#
#
# Mechanical properties :
#
#
# Convention : Reuss Voigt Hill
#
# Bulk Modulus (GPa) = 56.68049 63.75314 60.21681
# Shear Modulus (GPa) = 24.43693 26.88532 25.66112
#
# Velocity S-wave (km/s) = 3.45329 3.62216 3.53874
# Velocity P-wave (km/s) = 6.60003 6.97173 6.78843
#
# Compressibility (1/GPa) = 0.01764276
#
# Stress axis : x y z
#
# Youngs Moduli (GPa) = 48.17340 98.06607 71.42238
#
# Poissons Ratio (x) = 0.38519 0.43389
# Poissons Ratio (y) = 0.18922 0.26099
# Poissons Ratio (z) = 0.29265 0.35835
#
# Static dielectric constant tensor:
#      x y z
#    x 3.538700 0.000000 0.100340 
#    y 0.000000 4.012290 0.000000 
#    z 0.100340 0.000000 3.372810 
# 
# 
# High freq. dielectric constant tensor:
#      x y z
#    x 1.809060 0.000000 0.001770 
#    y 0.000000 1.823750 0.000000 
#    z 0.001770 0.000000 1.769570 
# 
# From -- ./inp_files/10176.got.cif
#   From: 2010.03.12/outbox.cif.g09.slc.cpg/sg5_6_cif.got.tgz:10176.got - 2010.03.31 09:47:26.
