data_PCOD8049094
_publ_section_title
;
Structure prediction by ZEFSAII (Michael W. Deem and Ramdas Pophale) SiO2 
 PCOD8049094
Probable space group: C 2
;
_chemical_formula_sum "Si O2"
_cell_formula_units_Z 28
_cell_length_a 10.926243
_cell_length_b 9.084349
_cell_length_c 26.905171
_cell_angle_alpha 90.000000
_cell_angle_beta 29.902987
_cell_angle_gamma 90.000000
_cell_volume 1331.356231
_symmetry_space_group_name_H-M "C 2"
_symmetry_group_IT_number 5
_symmetry_cell_setting 'monoclinic'
loop_
_space_group_symop_operation_xyz
x,y,z
-x,y,-z
1/2+x,1/2+y,z
1/2-x,1/2+y,-z
loop_
_atom_site_type_symbol
_atom_site_label
_atom_site_fract_x
_atom_site_fract_y
_atom_site_fract_z
Si Si1 0.000000 0.375000 0.500000
Si Si2 0.729065 0.946723 0.722341
Si Si3 0.937370 0.244649 0.676628
Si Si4 0.650312 0.247801 0.541759
Si Si5 0.008859 0.161825 0.837544
Si Si6 0.720875 0.945094 0.182159
Si Si7 0.787097 0.498175 0.664792
Si Si8 0.500000 0.275364 0.000000
O O1 0.148433 0.274612 0.486202
O O2 0.198676 0.476618 0.399969
O O3 0.624269 0.825384 0.797844
O O4 0.510460 0.014056 0.765412
O O5 0.944969 0.875432 0.612907
O O6 0.834305 0.080400 0.717067
O O7 0.905561 0.315676 0.741627
O O8 0.778389 0.339698 0.693660
O O9 0.219095 0.243888 0.558145
O O10 0.532384 0.088411 0.594897
O O11 0.055116 0.091127 0.766254
O O12 0.715609 0.171749 0.946317
O O13 0.136000 0.066688 0.835966
O O14 0.911843 0.877409 0.076091
#
# Coordination Sequence:
#
# PCOD8049094 Si02
#       8
#     2   4   4   4   4   4   4   2
#     4  10  20  36  58  82 126 162 196 248 282 332
#     4  10  22  39  60  88 121 159 201 237 287 353
#     4  10  20  36  58  87 120 157 199 238 285 341
#     4  10  21  35  55  88 122 162 205 238 283 341
#     4   9  21  42  63  87 118 151 193 247 302 355
#     4  10  23  43  63  86 121 154 192 249 300 352
#     4   9  20  36  56  87 118 154 200 235 285 349
#     4  10  22  40  64  90 114 146 196 248 306 364
#
# _framework density 21.031186999999999
#
# number of rings (size 3 to 8) (size 9 to 14) (size 15 to 20)
#    0.000    2.286    0.000    1.714    0.000   16.571 
#    0.000    7.143    0.000    1.714    0.000    0.000 
#    0.000    0.000    0.000    0.000    0.000    0.000 
#
# Total GULP energy -173511.400102 kJ/mol
# GULP energy per Si atom -12393.671436 kJ/mol
# Density = 2.098332 g / cm^3
# Si number density = 21.031187 Si / 1000 Ang^3
#
#
#
# Elastic Constant Matrix: (Units=GPa)
#
#
# Indices 1 2 3 4 5 6 
#
# 1 81.3444 30.1943 42.1077 0.0004 -2.1959 -0.0003
# 2 30.1943 99.2351 33.9680 -0.0002 -6.4171 0.0001
# 3 42.1077 33.9680 132.1577 0.0015 -3.8764 -0.0006
# 4 0.0004 -0.0002 0.0015 18.9012 -0.0005 -0.9683
# 5 -2.1959 -6.4171 -3.8764 -0.0005 40.3006 0.0002
# 6 -0.0003 0.0001 -0.0006 -0.9683 0.0002 28.8675
#
#
#
# Elastic Compliance Matrix: (Units=1/GPa)
#
#
# Indices 1 2 3 4 5 6 
#
# 1 0.015679 -0.003361 -0.004134 0.000000 -0.000078 0.000000
# 2 -0.003361 0.011859 -0.001933 0.000000 0.001519 0.000000
# 3 -0.004134 -0.001933 0.009392 -0.000001 0.000370 0.000000
# 4 0.000000 0.000000 -0.000001 0.052998 0.000001 0.001778
# 5 -0.000078 0.001519 0.000370 0.000001 0.025087 0.000000
# 6 0.000000 0.000000 0.000000 0.001778 0.000000 0.034701
#
#
# Mechanical properties :
#
#
# Convention : Reuss Voigt Hill
#
# Bulk Modulus (GPa) = 55.32590 58.36413 56.84502
# Shear Modulus (GPa) = 28.63773 31.37834 30.00804
#
# Velocity S-wave (km/s) = 3.69410 3.86682 3.78145
# Velocity P-wave (km/s) = 6.67524 6.90998 6.79363
#
# Compressibility (1/GPa) = 0.01807472
#
# Stress axis : x y z
#
# Youngs Moduli (GPa) = 63.78088 84.32076 106.47855
#
# Poissons Ratio (x) = 0.28336 0.44019
# Poissons Ratio (y) = 0.21434 0.20581
# Poissons Ratio (z) = 0.26367 0.16298
#
# Static dielectric constant tensor:
#      x y z
#    x 3.540440 0.000000 0.069690 
#    y 0.000000 3.807710 0.000000 
#    z 0.069690 0.000000 4.013370 
# 
# 
# High freq. dielectric constant tensor:
#      x y z
#    x 1.806760 0.000000 0.002250 
#    y 0.000000 1.827020 0.000000 
#    z 0.002250 0.000000 1.825790 
# 
# From -- ./inp_files/71669.got.cif
#   From: 2010.03.12/outbox.cif.g09.slc.cpg/sg5_36_cif.got.tgz:71669.got - 2010.03.31 09:47:26.
