data_PCOD8049591
_publ_section_title
;
Structure prediction by ZEFSAII (Michael W. Deem and Ramdas Pophale) SiO2 
 PCOD8049591
Probable space group: C 2
;
_chemical_formula_sum "Si O2"
_cell_formula_units_Z 32
_cell_length_a 15.065601
_cell_length_b 10.974423
_cell_length_c 18.561409
_cell_angle_alpha 90.000000
_cell_angle_beta 30.744500
_cell_angle_gamma 90.000000
_cell_volume 1568.841021
_symmetry_space_group_name_H-M "C 2"
_symmetry_group_IT_number 5
_symmetry_cell_setting 'monoclinic'
loop_
_space_group_symop_operation_xyz
x,y,z
-x,y,-z
1/2+x,1/2+y,z
1/2-x,1/2+y,-z
loop_
_atom_site_type_symbol
_atom_site_label
_atom_site_fract_x
_atom_site_fract_y
_atom_site_fract_z
Si Si1 0.893414 0.428700 0.000822
Si Si2 0.101587 0.761558 0.155452
Si Si3 0.082625 0.327048 0.734206
Si Si4 0.856755 0.332520 0.704683
Si Si5 0.644554 0.130449 0.459568
Si Si6 0.736406 0.692236 0.096204
Si Si7 0.031712 0.535530 0.284681
Si Si8 0.741143 0.865349 0.384702
O O1 0.736757 0.332206 0.112166
O O2 0.800814 0.555242 0.047269
O O3 0.000000 0.432712 0.000000
O O4 0.031505 0.391967 0.843901
O O5 0.122707 0.618610 0.161018
O O6 0.906874 0.806147 0.307446
O O7 0.143441 0.775160 0.040752
O O8 0.266860 0.261073 0.615071
O O9 0.956598 0.215292 0.799849
O O10 0.089225 0.432135 0.668609
O O11 0.766270 0.231194 0.818139
O O12 0.826561 0.462990 0.765554
O O13 0.760731 0.320591 0.696387
O O14 0.066424 0.320726 0.547433
O O15 0.500000 0.112863 0.500000
O O16 0.572584 0.128001 0.591160
O O17 0.765904 0.011130 0.367875
#
# Coordination Sequence:
#
# PCOD8049591 Si02
#       8
#     4   4   4   4   4   4   4   4
#     4  11  25  43  62  90 131 167 217 266 321 381
#     4  11  24  39  67  88 126 172 213 258 320 382
#     4  10  23  43  65  94 129 166 217 270 314 390
#     4   9  20  39  66  92 131 157 205 271 314 372
#     4  11  22  40  67  93 130 168 212 263 328 381
#     4  10  22  42  63  91 125 173 210 263 322 373
#     4  10  21  40  63  91 128 159 210 259 320 378
#     4  10  20  41  64 101 124 162 214 263 316 388
#
# _framework density 20.397223
#
# number of rings (size 3 to 8) (size 9 to 14) (size 15 to 20)
#    0.000    1.750    3.750    0.750    8.750    0.000 
#    0.000    0.000    2.750    0.000    0.000    0.000 
#    0.000    0.000    0.000    0.000    0.000    0.000 
#
# Total GULP energy -198280.383683 kJ/mol
# GULP energy per Si atom -12392.523980 kJ/mol
# Density = 2.035080 g / cm^3
# Si number density = 20.397223 Si / 1000 Ang^3
#
#
#
# Elastic Constant Matrix: (Units=GPa)
#
#
# Indices 1 2 3 4 5 6 
#
# 1 94.1516 35.1384 34.5652 -0.0005 13.5081 0.0002
# 2 35.1384 113.9658 41.1021 -0.0002 1.1874 0.0001
# 3 34.5652 41.1021 76.1133 -0.0013 10.5036 0.0007
# 4 -0.0005 -0.0002 -0.0013 39.9562 0.0006 2.7588
# 5 13.5081 1.1874 10.5036 0.0006 33.7761 -0.0002
# 6 0.0002 0.0001 0.0007 2.7588 -0.0002 27.4386
#
#
#
# Elastic Compliance Matrix: (Units=1/GPa)
#
#
# Indices 1 2 3 4 5 6 
#
# 1 0.013763 -0.002670 -0.004243 0.000000 -0.004091 0.000000
# 2 -0.002670 0.011489 -0.005311 0.000000 0.002316 0.000000
# 3 -0.004243 -0.005311 0.018466 0.000001 -0.003859 -0.000001
# 4 0.000000 0.000000 0.000001 0.025202 -0.000001 -0.002534
# 5 -0.004091 0.002316 -0.003859 -0.000001 0.032361 0.000000
# 6 0.000000 0.000000 -0.000001 -0.002534 0.000000 0.036700
#
#
# Mechanical properties :
#
#
# Convention : Reuss Voigt Hill
#
# Bulk Modulus (GPa) = 51.90008 56.20468 54.05238
# Shear Modulus (GPa) = 29.61142 31.79583 30.70363
#
# Velocity S-wave (km/s) = 3.81430 3.95249 3.88401
# Velocity P-wave (km/s) = 6.70063 6.96020 6.83165
#
# Compressibility (1/GPa) = 0.01926779
#
# Stress axis : x y z
#
# Youngs Moduli (GPa) = 72.66117 87.03780 54.15356
#
# Poissons Ratio (x) = 0.23242 0.22980
# Poissons Ratio (y) = 0.19403 0.28762
# Poissons Ratio (z) = 0.30834 0.46228
#
# Static dielectric constant tensor:
#      x y z
#    x 3.647620 0.000000 0.279020 
#    y 0.000000 3.621990 0.000000 
#    z 0.279020 0.000000 3.692130 
# 
# 
# High freq. dielectric constant tensor:
#      x y z
#    x 1.796980 0.000000 0.024260 
#    y 0.000000 1.792720 0.000000 
#    z 0.024260 0.000000 1.790580 
# 
# From -- ./inp_files/61698.got.cif
#   From: 2010.03.12/outbox.cif.g09.slc.cpg/sg5_31_cif.got.tgz:61698.got - 2010.03.31 09:47:26.
