data_PCOD8049425
_publ_section_title
;
Structure prediction by ZEFSAII (Michael W. Deem and Ramdas Pophale) SiO2 
 PCOD8049425
Probable space group: C 2
;
_chemical_formula_sum "Si O2"
_cell_formula_units_Z 24
_cell_length_a 15.556864
_cell_length_b 8.495661
_cell_length_c 11.992344
_cell_angle_alpha 90.000000
_cell_angle_beta 130.839103
_cell_angle_gamma 90.000000
_cell_volume 1199.113609
_symmetry_space_group_name_H-M "C 2"
_symmetry_group_IT_number 5
_symmetry_cell_setting 'monoclinic'
loop_
_space_group_symop_operation_xyz
x,y,z
-x,y,-z
1/2+x,1/2+y,z
1/2-x,1/2+y,-z
loop_
_atom_site_type_symbol
_atom_site_label
_atom_site_fract_x
_atom_site_fract_y
_atom_site_fract_z
Si Si1 0.171273 0.643610 0.316500
Si Si2 0.387968 0.156493 0.333939
Si Si3 0.266581 0.502977 0.615418
Si Si4 0.231416 0.441968 0.183237
Si Si5 0.554574 0.721102 0.154790
Si Si6 0.936714 0.505894 0.141717
O O1 0.191970 0.542083 0.445093
O O2 0.202391 0.822066 0.364361
O O3 0.255593 0.586411 0.288693
O O4 0.036461 0.618930 0.176024
O O5 0.500000 0.191357 0.500000
O O6 0.338808 0.327319 0.253960
O O7 0.299144 0.053852 0.328979
O O8 0.414387 0.051491 0.249572
O O9 0.385820 0.595905 0.714327
O O10 0.137693 0.347541 0.171842
O O11 0.181070 0.519975 0.027770
O O12 0.468430 0.820009 0.159677
O O13 0.500000 0.633901 0.000000
#
# Coordination Sequence:
#
# PCOD8049425 Si02
#       6
#     4   4   4   4   4   4
#     4  11  21  38  62  88 119 159 213 253 306 363
#     4  11  22  39  64  89 127 166 198 251 314 363
#     4  11  22  36  61  91 122 161 205 258 306 367
#     4   9  21  39  60  84 123 161 201 247 306 361
#     4   8  17  36  60  86 119 159 204 246 302 363
#     4  10  20  39  64  87 119 162 199 256 307 366
#
# _framework density 20.014783000000001
#
# number of rings (size 3 to 8) (size 9 to 14) (size 15 to 20)
#    0.000    2.000    1.667    4.500    0.000    2.667 
#    0.000    5.833    3.667    0.000    0.000    0.000 
#    0.000    0.000    0.000    0.000    0.000    0.000 
#
# Total GULP energy -148723.476455 kJ/mol
# GULP energy per Si atom -12393.623038 kJ/mol
# Density = 1.996923 g / cm^3
# Si number density = 20.014783 Si / 1000 Ang^3
#
#
#
# Elastic Constant Matrix: (Units=GPa)
#
#
# Indices 1 2 3 4 5 6 
#
# 1 71.4250 37.7758 41.3603 0.0000 -7.0377 0.0000
# 2 37.7758 110.9760 57.8536 0.0000 1.4548 0.0000
# 3 41.3603 57.8536 136.4240 0.0000 -7.0942 0.0000
# 4 0.0000 0.0000 0.0000 34.1667 0.0000 3.4197
# 5 -7.0377 1.4548 -7.0942 0.0000 24.4770 0.0000
# 6 0.0000 0.0000 0.0000 3.4197 0.0000 24.4034
#
#
#
# Elastic Compliance Matrix: (Units=1/GPa)
#
#
# Indices 1 2 3 4 5 6 
#
# 1 0.018984 -0.004688 -0.003522 0.000000 0.004716 0.000000
# 2 -0.004688 0.012838 -0.004196 0.000000 -0.003327 0.000000
# 3 -0.003522 -0.004196 0.010293 0.000000 0.002220 0.000000
# 4 0.000000 0.000000 0.000000 0.029685 0.000000 -0.004160
# 5 0.004716 -0.003327 0.002220 0.000000 0.043052 0.000000
# 6 0.000000 0.000000 0.000000 -0.004160 0.000000 0.041561
#
#
# Mechanical properties :
#
#
# Convention : Reuss Voigt Hill
#
# Bulk Modulus (GPa) = 57.79427 65.86716 61.83072
# Shear Modulus (GPa) = 26.73917 28.73179 27.73548
#
# Velocity S-wave (km/s) = 3.65906 3.79295 3.72660
# Velocity P-wave (km/s) = 6.84033 7.22237 7.03394
#
# Compressibility (1/GPa) = 0.01730275
#
# Stress axis : x y z
#
# Youngs Moduli (GPa) = 52.67473 77.89589 97.15551
#
# Poissons Ratio (x) = 0.36516 0.34222
# Poissons Ratio (y) = 0.24693 0.40765
# Poissons Ratio (z) = 0.18554 0.32684
#
# Static dielectric constant tensor:
#      x y z
#    x 3.529230 0.000000 0.065930 
#    y 0.000000 3.577660 0.000000 
#    z 0.065930 0.000000 4.102630 
# 
# 
# High freq. dielectric constant tensor:
#      x y z
#    x 1.755700 0.000000 -0.001130 
#    y 0.000000 1.769200 0.000000 
#    z -0.001130 0.000000 1.797940 
# 
# From -- ./inp_files/44096.got.cif
#   From: 2010.03.12/outbox.cif.g09.slc.cpg/sg5_23_cif.got.tgz:44096.got - 2010.03.31 09:47:26.
