data_PCOD8049797
_publ_section_title
;
Structure prediction by ZEFSAII (Michael W. Deem and Ramdas Pophale) SiO2 
 PCOD8049797
Probable space group: C 2
;
_chemical_formula_sum "Si O2"
_cell_formula_units_Z 32
_cell_length_a 19.282320
_cell_length_b 20.125046
_cell_length_c 5.081532
_cell_angle_alpha 90.000000
_cell_angle_beta 59.724402
_cell_angle_gamma 90.000000
_cell_volume 1702.976559
_symmetry_space_group_name_H-M "C 2"
_symmetry_group_IT_number 5
_symmetry_cell_setting 'monoclinic'
loop_
_space_group_symop_operation_xyz
x,y,z
-x,y,-z
1/2+x,1/2+y,z
1/2-x,1/2+y,-z
loop_
_atom_site_type_symbol
_atom_site_label
_atom_site_fract_x
_atom_site_fract_y
_atom_site_fract_z
Si Si1 0.681658 0.955560 0.073950
Si Si2 0.410416 0.315380 0.223516
Si Si3 0.190794 0.844511 0.082929
Si Si4 0.355380 0.174164 0.274843
Si Si5 0.449058 0.769613 0.334954
Si Si6 0.412705 0.916194 0.254092
Si Si7 0.683789 0.106879 0.143771
Si Si8 0.216938 0.216890 0.226651
O O1 0.610215 0.946838 0.421102
O O2 0.708534 0.031855 0.036974
O O3 0.759030 0.912066 0.994244
O O4 0.651956 0.936374 0.840852
O O5 0.377723 0.340834 0.564931
O O6 0.415520 0.234809 0.213983
O O7 0.500000 0.342389 0.000000
O O8 0.352459 0.345037 0.113996
O O9 0.251615 0.782231 0.988404
O O10 0.358815 0.118561 0.495421
O O11 0.266406 0.207666 0.406276
O O12 0.377501 0.134745 0.963597
O O13 0.500000 0.784568 0.500000
O O14 0.411978 0.836920 0.287299
O O15 0.377533 0.719758 0.541224
O O16 0.500000 0.736522 0.000000
O O17 0.500000 0.942639 0.000000
O O18 0.765196 0.151607 0.985068
#
# Coordination Sequence:
#
# PCOD8049797 Si02
#       8
#     4   4   4   4   4   4   4   4
#     4  12  23  38  62  86 116 157 203 232 282 354
#     4  11  21  38  60  90 119 143 188 248 298 341
#     4  11  22  36  63  88 109 153 199 238 287 335
#     4   9  19  36  57  83 112 147 192 232 285 337
#     4  11  23  34  58  92 121 152 190 243 306 338
#     4  11  23  38  56  84 126 155 189 236 290 343
#     4  10  21  36  59  81 116 147 200 232 281 330
#     4   9  21  36  61  82 118 149 196 248 269 345
#
# _framework density 18.790628999999999
#
# number of rings (size 3 to 8) (size 9 to 14) (size 15 to 20)
#    0.750    0.750    2.500    3.750    3.500    0.000 
#    0.000    3.750    0.000    2.250    0.000    0.000 
#    0.000    0.000    0.000    0.000    0.000    0.000 
#
# Total GULP energy -198330.532108 kJ/mol
# GULP energy per Si atom -12395.658257 kJ/mol
# Density = 1.874786 g / cm^3
# Si number density = 18.790629 Si / 1000 Ang^3
#
#
#
# Elastic Constant Matrix: (Units=GPa)
#
#
# Indices 1 2 3 4 5 6 
#
# 1 59.0392 18.2831 16.9418 0.0000 3.6527 0.0000
# 2 18.2831 79.5394 10.5095 0.0000 -4.0123 0.0000
# 3 16.9418 10.5095 100.4147 0.0000 3.4692 0.0000
# 4 0.0000 0.0000 0.0000 20.5137 0.0000 -0.7276
# 5 3.6527 -4.0123 3.4692 0.0000 39.2692 0.0000
# 6 0.0000 0.0000 0.0000 -0.7276 0.0000 14.7992
#
#
#
# Elastic Compliance Matrix: (Units=1/GPa)
#
#
# Indices 1 2 3 4 5 6 
#
# 1 0.019122 -0.004134 -0.002726 0.000000 -0.001960 0.000000
# 2 -0.004134 0.013722 -0.000803 0.000000 0.001858 0.000000
# 3 -0.002726 -0.000803 0.010529 0.000000 -0.000759 0.000000
# 4 0.000000 0.000000 0.000000 0.048833 0.000000 0.002401
# 5 -0.001960 0.001858 -0.000759 0.000000 0.025904 0.000000
# 6 0.000000 0.000000 0.000000 0.002401 0.000000 0.067689
#
#
# Mechanical properties :
#
#
# Convention : Reuss Voigt Hill
#
# Bulk Modulus (GPa) = 35.65389 36.71801 36.18595
# Shear Modulus (GPa) = 23.75589 27.80034 25.77812
#
# Velocity S-wave (km/s) = 3.55947 3.85057 3.70788
# Velocity P-wave (km/s) = 5.99238 6.27314 6.13436
#
# Compressibility (1/GPa) = 0.02804743
#
# Stress axis : x y z
#
# Youngs Moduli (GPa) = 52.29693 72.87337 94.97730
#
# Poissons Ratio (x) = 0.30126 0.25889
# Poissons Ratio (y) = 0.21620 0.07626
# Poissons Ratio (z) = 0.14255 0.05851
#
# Static dielectric constant tensor:
#      x y z
#    x 3.265590 0.000000 0.108710 
#    y 0.000000 3.222770 0.000000 
#    z 0.108710 0.000000 3.585940 
# 
# 
# High freq. dielectric constant tensor:
#      x y z
#    x 1.716260 0.000000 0.018270 
#    y 0.000000 1.704560 0.000000 
#    z 0.018270 0.000000 1.739460 
# 
# From -- ./inp_files/8930.got.cif
#   From: 2010.03.12/outbox.cif.g09.slc.cpg/sg5_5_cif.got.tgz:8930.got - 2010.03.31 09:47:26.
