data_PCOD8049064
_publ_section_title
;
Structure prediction by ZEFSAII (Michael W. Deem and Ramdas Pophale) SiO2 
 PCOD8049064
Probable space group: C 2
;
_chemical_formula_sum "Si O2"
_cell_formula_units_Z 30
_cell_length_a 11.822129
_cell_length_b 13.947543
_cell_length_c 18.153659
_cell_angle_alpha 90.000000
_cell_angle_beta 29.495305
_cell_angle_gamma 90.000000
_cell_volume 1473.782833
_symmetry_space_group_name_H-M "C 2"
_symmetry_group_IT_number 5
_symmetry_cell_setting 'monoclinic'
loop_
_space_group_symop_operation_xyz
x,y,z
-x,y,-z
1/2+x,1/2+y,z
1/2-x,1/2+y,-z
loop_
_atom_site_type_symbol
_atom_site_label
_atom_site_fract_x
_atom_site_fract_y
_atom_site_fract_z
Si Si1 0.177346 0.512300 0.731965
Si Si2 0.283133 0.452987 0.935232
Si Si3 0.479517 0.113086 0.319656
Si Si4 0.245001 0.610680 0.838324
Si Si5 0.697685 0.744127 0.943568
Si Si6 0.218068 0.186722 0.606450
Si Si7 0.000000 0.856327 0.500000
Si Si8 0.621773 0.589106 0.805125
O O1 0.167879 0.548883 0.652983
O O2 0.263387 0.594035 0.739958
O O3 0.348851 0.422026 0.639918
O O4 0.923289 0.482759 0.895834
O O5 0.265586 0.505669 0.865823
O O6 0.286236 0.338685 0.933620
O O7 0.518172 0.487628 0.840082
O O8 0.569679 0.207705 0.227221
O O9 0.314608 0.132159 0.481284
O O10 0.716309 0.066291 0.216827
O O11 0.441020 0.684676 0.753931
O O12 0.000000 0.656981 0.000000
O O13 0.500000 0.777953 0.000000
O O14 0.587984 0.663275 0.058925
O O15 0.324850 0.293044 0.549878
O O16 0.276060 0.134844 0.651645
#
# Coordination Sequence:
#
# PCOD8049064 Si02
#       8
#     4   4   4   4   4   4   2   4
#     4  11  22  39  60  93 126 164 212 262 319 377
#     4  10  20  35  64  95 123 170 220 260 311 376
#     4  11  22  38  62  93 130 168 207 266 319 376
#     4   9  21  40  65  92 126 169 211 259 319 378
#     4  10  20  35  62  91 123 166 220 263 306 384
#     4  11  22  39  64  95 126 165 213 258 319 379
#     4  12  24  38  64  94 126 166 216 260 320 382
#     4  10  20  40  62  92 132 171 211 261 322 378
#
# _framework density 20.355781
#
# number of rings (size 3 to 8) (size 9 to 14) (size 15 to 20)
#    0.000    1.600    2.667    2.800    3.733    0.000 
#    0.000    1.333    0.000    0.000    0.000    0.000 
#    0.000    0.000    0.000    0.000    0.000    0.000 
#
# Total GULP energy -185945.842717 kJ/mol
# GULP energy per Si atom -12396.389514 kJ/mol
# Density = 2.030945 g / cm^3
# Si number density = 20.355781 Si / 1000 Ang^3
#
#
#
# Elastic Constant Matrix: (Units=GPa)
#
#
# Indices 1 2 3 4 5 6 
#
# 1 119.1476 47.5674 36.1788 0.0446 1.7053 0.0225
# 2 47.5674 88.5957 30.9113 -0.0429 -8.3755 0.0147
# 3 36.1788 30.9113 89.7122 0.1217 6.0790 0.0815
# 4 0.0446 -0.0429 0.1217 25.9382 -0.0378 -8.7497
# 5 1.7053 -8.3755 6.0790 -0.0378 37.4308 -0.0251
# 6 0.0225 0.0147 0.0815 -8.7497 -0.0251 24.5908
#
#
#
# Elastic Compliance Matrix: (Units=1/GPa)
#
#
# Indices 1 2 3 4 5 6 
#
# 1 0.011324 -0.005269 -0.002666 -0.000020 -0.001262 -0.000007
# 2 -0.005269 0.015788 -0.003611 0.000071 0.004359 0.000037
# 3 -0.002666 -0.003611 0.013663 -0.000096 -0.002906 -0.000078
# 4 -0.000020 0.000071 -0.000096 0.043813 0.000087 0.015590
# 5 -0.001262 0.004359 -0.002906 0.000087 0.028221 0.000068
# 6 -0.000007 0.000037 -0.000078 0.015590 0.000068 0.046213
#
#
# Mechanical properties :
#
#
# Convention : Reuss Voigt Hill
#
# Bulk Modulus (GPa) = 56.54718 58.53005 57.53861
# Shear Modulus (GPa) = 26.59471 29.77848 28.18659
#
# Velocity S-wave (km/s) = 3.61847 3.82894 3.72519
# Velocity P-wave (km/s) = 6.73034 6.95440 6.84328
#
# Compressibility (1/GPa) = 0.01768435
#
# Stress axis : x y z
#
# Youngs Moduli (GPa) = 88.30759 63.33854 73.19106
#
# Poissons Ratio (x) = 0.33374 0.19510
# Poissons Ratio (y) = 0.46531 0.26426
# Poissons Ratio (z) = 0.23539 0.22869
#
# Static dielectric constant tensor:
#      x y z
#    x 3.784450 0.000020 0.015050 
#    y 0.000020 3.339680 0.000080 
#    z 0.015050 0.000080 3.878950 
# 
# 
# High freq. dielectric constant tensor:
#      x y z
#    x 1.798050 0.000000 0.002630 
#    y 0.000000 1.757050 0.000000 
#    z 0.002630 0.000000 1.812130 
# 
# From -- ./inp_files/60631.got.cif
#   From: 2010.03.12/outbox.cif.g09.slc.cpg/sg5_31_cif.got.tgz:60631.got - 2010.03.31 09:47:26.
