data_PCOD8049739
_publ_section_title
;
Structure prediction by ZEFSAII (Michael W. Deem and Ramdas Pophale) SiO2 
 PCOD8049739
Probable space group: C 2
;
_chemical_formula_sum "Si O2"
_cell_formula_units_Z 24
_cell_length_a 11.583480
_cell_length_b 7.255176
_cell_length_c 24.084120
_cell_angle_alpha 90.000000
_cell_angle_beta 150.386800
_cell_angle_gamma 90.000000
_cell_volume 1000.160518
_symmetry_space_group_name_H-M "C 2"
_symmetry_group_IT_number 5
_symmetry_cell_setting 'monoclinic'
loop_
_space_group_symop_operation_xyz
x,y,z
-x,y,-z
1/2+x,1/2+y,z
1/2-x,1/2+y,-z
loop_
_atom_site_type_symbol
_atom_site_label
_atom_site_fract_x
_atom_site_fract_y
_atom_site_fract_z
Si Si1 0.010348 0.740660 0.153517
Si Si2 0.495299 0.769021 0.656130
Si Si3 0.464780 0.857495 0.092258
Si Si4 0.564063 0.351330 0.405250
Si Si5 0.557752 0.297701 0.761033
Si Si6 0.606172 0.695653 0.264371
O O1 0.249262 0.861310 0.246599
O O2 0.034497 0.569982 0.122957
O O3 0.986992 0.657975 0.206808
O O4 0.784327 0.856766 0.041868
O O5 0.523057 0.555428 0.648179
O O6 0.307940 0.870102 0.538785
O O7 0.432022 0.802883 0.693642
O O8 0.669225 0.774534 0.139751
O O9 0.451159 0.766975 0.147861
O O10 0.595483 0.251960 0.357908
O O11 0.379711 0.233757 0.364206
O O12 0.470943 0.486457 0.755472
#
# Coordination Sequence:
#
# PCOD8049739 Si02
#       6
#     4   4   4   4   4   4
#     4  12  24  45  68  96 135 174 221 277 328 390
#     4  11  24  44  67 101 135 173 224 271 332 395
#     4  11  24  46  65  99 133 173 224 274 326 398
#     4  10  23  44  68  99 135 174 222 272 330 398
#     4  10  23  45  67  95 134 174 222 272 332 391
#     4  10  20  46  71  90 136 176 215 276 334 386
#
# _framework density 23.996148999999999
#
# number of rings (size 3 to 8) (size 9 to 14) (size 15 to 20)
#    0.000    1.333    5.000    2.000    2.333    2.667 
#   12.000    0.000    0.000    0.000    0.000    0.000 
#    0.000    0.000    0.000    0.000    0.000    0.000 
#
# Total GULP energy -148675.271886 kJ/mol
# GULP energy per Si atom -12389.605991 kJ/mol
# Density = 2.394153 g / cm^3
# Si number density = 23.996149 Si / 1000 Ang^3
#
#
#
# Elastic Constant Matrix: (Units=GPa)
#
#
# Indices 1 2 3 4 5 6 
#
# 1 179.2541 13.3694 83.0995 0.0001 -11.0024 0.0000
# 2 13.3694 15.3600 4.6372 -0.0001 7.9325 0.0001
# 3 83.0995 4.6372 176.6065 0.0002 0.7658 0.0000
# 4 0.0001 -0.0001 0.0002 29.2017 -0.0001 -5.5689
# 5 -11.0024 7.9325 0.7658 -0.0001 33.7423 0.0000
# 6 0.0000 0.0001 0.0000 -5.5689 0.0000 38.5349
#
#
#
# Elastic Compliance Matrix: (Units=1/GPa)
#
#
# Indices 1 2 3 4 5 6 
#
# 1 0.008198 -0.008485 -0.003655 0.000000 0.004751 0.000000
# 2 -0.008485 0.083506 0.001897 0.000000 -0.022441 0.000000
# 3 -0.003655 0.001897 0.007340 0.000000 -0.001804 0.000000
# 4 0.000000 0.000000 0.000000 0.035215 0.000000 0.005089
# 5 0.004751 -0.022441 -0.001804 0.000000 0.036502 0.000000
# 6 0.000000 0.000000 0.000000 0.005089 0.000000 0.026686
#
#
# Mechanical properties :
#
#
# Convention : Reuss Voigt Hill
#
# Bulk Modulus (GPa) = 12.72942 63.71475 38.22208
# Shear Modulus (GPa) = 20.48178 38.30340 29.39259
#
# Velocity S-wave (km/s) = 2.92472 3.99962 3.50364
# Velocity P-wave (km/s) = 4.08920 6.92380 5.68597
#
# Compressibility (1/GPa) = 0.07855818
#
# Stress axis : x y z
#
# Youngs Moduli (GPa) = 121.98784 11.97512 136.23733
#
# Poissons Ratio (x) = 0.10161 0.49795
# Poissons Ratio (y) = 1.03509 -0.25847
# Poissons Ratio (z) = 0.44587 -0.02272
#
# Static dielectric constant tensor:
#      x y z
#    x 4.672390 0.000000 -0.294590 
#    y 0.000000 4.023740 0.000000 
#    z -0.294590 0.000000 4.772180 
# 
# 
# High freq. dielectric constant tensor:
#      x y z
#    x 1.970820 0.000000 -0.010870 
#    y 0.000000 1.934600 0.000000 
#    z -0.010870 0.000000 1.957920 
# 
# From -- ./inp_files/70325.got.cif
#   From: 2010.03.12/outbox.cif.g09.slc.cpg/sg5_36_cif.got.tgz:70325.got - 2010.03.31 09:47:26.
