data_PCOD8049875
_publ_section_title
;
Structure prediction by ZEFSAII (Michael W. Deem and Ramdas Pophale) SiO2 
 PCOD8049875
Probable space group: C 2
;
_chemical_formula_sum "Si O2"
_cell_formula_units_Z 28
_cell_length_a 15.143332
_cell_length_b 7.814798
_cell_length_c 17.653048
_cell_angle_alpha 90.000000
_cell_angle_beta 141.355951
_cell_angle_gamma 90.000000
_cell_volume 1304.600700
_symmetry_space_group_name_H-M "C 2"
_symmetry_group_IT_number 5
_symmetry_cell_setting 'monoclinic'
loop_
_space_group_symop_operation_xyz
x,y,z
-x,y,-z
1/2+x,1/2+y,z
1/2-x,1/2+y,-z
loop_
_atom_site_type_symbol
_atom_site_label
_atom_site_fract_x
_atom_site_fract_y
_atom_site_fract_z
Si Si1 0.883671 0.995540 0.367687
Si Si2 0.567979 0.603316 0.842524
Si Si3 0.823581 0.290805 0.227903
Si Si4 0.928801 0.796487 0.256423
Si Si5 0.099570 0.490883 0.413009
Si Si6 0.269311 0.755242 0.619066
Si Si7 0.349792 0.605108 0.932965
O O1 0.974072 0.899863 0.362372
O O2 0.795516 0.855493 0.354082
O O3 0.000000 0.082063 0.500000
O O4 0.786038 0.143500 0.264486
O O5 0.661874 0.709181 0.845701
O O6 0.547962 0.409383 0.801871
O O7 0.417779 0.693035 0.751227
O O8 0.647608 0.589956 0.975006
O O9 0.697766 0.428141 0.139455
O O10 0.972248 0.370796 0.356857
O O11 0.764468 0.750978 0.160813
O O12 0.026286 0.630776 0.308910
O O13 0.177227 0.588303 0.534142
O O14 0.212380 0.379144 0.441575
O O15 0.500000 0.661238 0.000000
#
# Coordination Sequence:
#
# PCOD8049875 Si02
#       7
#     4   4   4   4   4   4   4
#     4  11  22  41  60  89 126 167 205 257 311 363
#     4  10  21  40  65  89 123 168 204 256 306 371
#     4   9  23  42  60  89 124 166 211 251 314 367
#     4  10  21  41  63  89 125 165 209 251 315 367
#     4  10  21  38  59  90 124 163 201 259 300 377
#     4  11  22  37  63  93 126 160 212 246 313 368
#     4  11  22  40  62  93 125 160 213 259 306 362
#
# _framework density 21.462505
#
# number of rings (size 3 to 8) (size 9 to 14) (size 15 to 20)
#    0.000    1.714    1.429    2.571    4.000    1.143 
#    7.714    7.143    0.000    0.000    0.000    0.000 
#    0.000    0.000    0.000    0.000    0.000    0.000 
#
# Total GULP energy -173603.278624 kJ/mol
# GULP energy per Si atom -12400.234187 kJ/mol
# Density = 2.141366 g / cm^3
# Si number density = 21.462505 Si / 1000 Ang^3
#
#
#
# Elastic Constant Matrix: (Units=GPa)
#
#
# Indices 1 2 3 4 5 6 
#
# 1 58.0736 18.8366 28.0442 0.0000 -7.3391 0.0000
# 2 18.8366 92.3494 23.8084 0.0000 -12.7686 0.0000
# 3 28.0442 23.8084 86.2771 0.0000 -17.0342 0.0000
# 4 0.0000 0.0000 0.0000 36.6733 0.0000 -6.7144
# 5 -7.3391 -12.7686 -17.0342 0.0000 29.6668 0.0000
# 6 0.0000 0.0000 0.0000 -6.7144 0.0000 30.0995
#
#
#
# Elastic Compliance Matrix: (Units=1/GPa)
#
#
# Indices 1 2 3 4 5 6 
#
# 1 0.021053 -0.002665 -0.005984 0.000000 0.000625 0.000000
# 2 -0.002665 0.012341 -0.001828 0.000000 0.003603 0.000000
# 3 -0.005984 -0.001828 0.015331 0.000000 0.006535 0.000000
# 4 0.000000 0.000000 0.000000 0.028429 0.000000 0.006342
# 5 0.000625 0.003603 0.006535 0.000000 0.039165 0.000000
# 6 0.000000 0.000000 0.000000 0.006342 0.000000 0.034638
#
#
# Mechanical properties :
#
#
# Convention : Reuss Voigt Hill
#
# Bulk Modulus (GPa) = 36.01010 42.00871 39.00941
# Shear Modulus (GPa) = 27.59862 30.35530 28.97696
#
# Velocity S-wave (km/s) = 3.58983 3.76485 3.67838
# Velocity P-wave (km/s) = 5.83070 6.20600 6.02127
#
# Compressibility (1/GPa) = 0.02776998
#
# Stress axis : x y z
#
# Youngs Moduli (GPa) = 47.49962 81.02775 65.22930
#
# Poissons Ratio (x) = 0.21593 0.39036
# Poissons Ratio (y) = 0.12658 0.11925
# Poissons Ratio (z) = 0.28426 0.14813
#
# Static dielectric constant tensor:
#      x y z
#    x 3.568710 0.000000 -0.037160 
#    y 0.000000 4.055160 0.000000 
#    z -0.037160 0.000000 3.873640 
# 
# 
# High freq. dielectric constant tensor:
#      x y z
#    x 1.822880 0.000000 -0.002970 
#    y 0.000000 1.852610 0.000000 
#    z -0.002970 0.000000 1.845270 
# 
# From -- ./inp_files/61472.got.cif
#   From: 2010.03.12/outbox.cif.g09.slc.cpg/sg5_31_cif.got.tgz:61472.got - 2010.03.31 09:47:26.
