data_PCOD8049996
_publ_section_title
;
Structure prediction by ZEFSAII (Michael W. Deem and Ramdas Pophale) SiO2 
 PCOD8049996
Probable space group: C 2
;
_chemical_formula_sum "Si O2"
_cell_formula_units_Z 26
_cell_length_a 14.071797
_cell_length_b 8.000741
_cell_length_c 11.057905
_cell_angle_alpha 90.000000
_cell_angle_beta 113.119184
_cell_angle_gamma 90.000000
_cell_volume 1144.970060
_symmetry_space_group_name_H-M "C 2"
_symmetry_group_IT_number 5
_symmetry_cell_setting 'monoclinic'
loop_
_space_group_symop_operation_xyz
x,y,z
-x,y,-z
1/2+x,1/2+y,z
1/2-x,1/2+y,-z
loop_
_atom_site_type_symbol
_atom_site_label
_atom_site_fract_x
_atom_site_fract_y
_atom_site_fract_z
Si Si1 0.810792 0.495520 0.221102
Si Si2 0.830613 0.299462 0.469198
Si Si3 0.326549 0.048131 0.684146
Si Si4 0.893623 0.886710 0.999918
Si Si5 0.459698 0.028025 0.096944
Si Si6 0.000000 0.041245 0.500000
Si Si7 0.156800 0.890193 0.757690
O O1 0.854101 0.418396 0.366635
O O2 0.882967 0.426727 0.146617
O O3 0.818405 0.694480 0.231259
O O4 0.694718 0.436297 0.139528
O O5 0.827856 0.396987 0.591633
O O6 0.718704 0.214364 0.399276
O O7 0.916742 0.156890 0.525770
O O8 0.256276 0.993802 0.763078
O O9 0.442686 0.093528 0.778044
O O10 0.899996 0.686168 0.010057
O O11 0.867992 0.957859 0.120234
O O12 0.000000 0.963253 0.000000
O O13 0.500000 0.919636 0.000000
O O14 0.056804 0.923760 0.625226
#
# Coordination Sequence:
#
# PCOD8049996 Si02
#       7
#     4   4   4   4   4   2   4
#     4  11  23  41  67  95 127 169 217 267 322 383
#     4  11  23  40  66  96 131 170 216 265 320 384
#     4  11  23  41  66  95 130 169 211 265 323 386
#     4  10  22  40  64  90 122 164 213 266 317 375
#     4  10  21  39  64  90 124 165 211 262 317 376
#     4  10  24  42  62  92 134 174 216 266 314 380
#     4  10  24  42  64  94 132 169 214 266 319 384
#
# _framework density 22.708017000000002
#
# number of rings (size 3 to 8) (size 9 to 14) (size 15 to 20)
#    0.000    1.538    0.000    4.615    0.000   15.385 
#    0.000    5.385    0.000    0.000    0.000    0.000 
#    0.000    0.000    0.000    0.000    0.000    0.000 
#
# Total GULP energy -161219.860059 kJ/mol
# GULP energy per Si atom -12401.527697 kJ/mol
# Density = 2.265633 g / cm^3
# Si number density = 22.708017 Si / 1000 Ang^3
#
#
#
# Elastic Constant Matrix: (Units=GPa)
#
#
# Indices 1 2 3 4 5 6 
#
# 1 128.1972 15.3863 44.5685 0.0000 0.1056 0.0000
# 2 15.3863 72.0494 29.5532 0.0000 7.6302 0.0000
# 3 44.5685 29.5532 89.6571 0.0000 0.3511 0.0000
# 4 0.0000 0.0000 0.0000 35.3875 0.0000 -1.6935
# 5 0.1056 7.6302 0.3511 0.0000 48.2570 0.0000
# 6 0.0000 0.0000 0.0000 -1.6935 0.0000 24.2066
#
#
#
# Elastic Compliance Matrix: (Units=1/GPa)
#
#
# Indices 1 2 3 4 5 6 
#
# 1 0.009431 -0.000109 -0.004652 0.000000 0.000030 0.000000
# 2 -0.000109 0.016358 -0.005328 0.000000 -0.002547 0.000000
# 3 -0.004652 -0.005328 0.015220 0.000000 0.000742 0.000000
# 4 0.000000 0.000000 0.000000 0.028354 0.000000 0.001984
# 5 0.000030 -0.002547 0.000742 0.000000 0.021120 0.000000
# 6 0.000000 0.000000 0.000000 0.001984 0.000000 0.041450
#
#
# Mechanical properties :
#
#
# Convention : Reuss Voigt Hill
#
# Bulk Modulus (GPa) = 48.00736 52.10218 50.05477
# Shear Modulus (GPa) = 31.43609 34.92992 33.18301
#
# Velocity S-wave (km/s) = 3.72474 3.92627 3.82683
# Velocity P-wave (km/s) = 6.29962 6.59912 6.45111
#
# Compressibility (1/GPa) = 0.02083014
#
# Stress axis : x y z
#
# Youngs Moduli (GPa) = 106.03390 61.13304 65.70493
#
# Poissons Ratio (x) = 0.00666 0.30568
# Poissons Ratio (y) = 0.01155 0.35006
# Poissons Ratio (z) = 0.49331 0.32570
#
# Static dielectric constant tensor:
#      x y z
#    x 4.522350 0.000000 -0.201040 
#    y 0.000000 3.778750 0.000000 
#    z -0.201040 0.000000 4.294120 
# 
# 
# High freq. dielectric constant tensor:
#      x y z
#    x 1.913460 0.000000 -0.002540 
#    y 0.000000 1.871790 0.000000 
#    z -0.002540 0.000000 1.909220 
# 
# From -- ./inp_files/41814.got.cif
#   From: 2010.03.12/outbox.cif.g09.slc.cpg/sg5_21_cif.got.tgz:41814.got - 2010.03.31 09:47:26.
