data_PCOD8049613
_publ_section_title
;
Structure prediction by ZEFSAII (Michael W. Deem and Ramdas Pophale) SiO2 
 PCOD8049613
Probable space group: C 2
;
_chemical_formula_sum "Si O2"
_cell_formula_units_Z 30
_cell_length_a 11.502328
_cell_length_b 8.762379
_cell_length_c 13.833665
_cell_angle_alpha 90.000000
_cell_angle_beta 92.385049
_cell_angle_gamma 90.000000
_cell_volume 1393.056252
_symmetry_space_group_name_H-M "C 2"
_symmetry_group_IT_number 5
_symmetry_cell_setting 'monoclinic'
loop_
_space_group_symop_operation_xyz
x,y,z
-x,y,-z
1/2+x,1/2+y,z
1/2-x,1/2+y,-z
loop_
_atom_site_type_symbol
_atom_site_label
_atom_site_fract_x
_atom_site_fract_y
_atom_site_fract_z
Si Si1 0.121034 0.517820 0.043158
Si Si2 0.716100 0.515080 0.264825
Si Si3 0.057420 0.257148 0.175856
Si Si4 0.873043 0.039738 0.542311
Si Si5 0.000000 0.047020 0.000000
Si Si6 0.946539 0.414448 0.341713
Si Si7 0.660714 0.878594 0.460455
Si Si8 0.706903 0.345954 0.074116
O O1 0.101078 0.421736 0.140149
O O2 0.202570 0.663765 0.062163
O O3 0.170221 0.402551 0.963786
O O4 0.000000 0.583304 0.000000
O O5 0.673484 0.672168 0.216007
O O6 0.638380 0.456407 0.353888
O O7 0.854261 0.537715 0.296417
O O8 0.699427 0.379591 0.187336
O O9 0.968978 0.284208 0.261973
O O10 0.991079 0.155751 0.093702
O O11 0.783270 0.966128 0.462646
O O12 0.000000 0.031114 0.500000
O O13 0.828912 0.206176 0.577041
O O14 0.889297 0.936198 0.991440
O O15 0.884954 0.342794 0.433158
O O16 0.071210 0.475483 0.388255
#
# Coordination Sequence:
#
# PCOD8049613 Si02
#       8
#     4   4   4   4   2   4   4   4
#     4  12  25  43  68  95 130 178 222 273 341 395
#     4  10  22  39  68  94 131 175 222 275 330 394
#     4  11  21  40  64  98 132 176 221 271 336 392
#     4  11  21  45  65  98 132 173 217 269 334 393
#     4  10  22  40  70  94 132 182 220 272 334 384
#     4  10  20  41  68  94 132 173 217 267 330 393
#     4  10  21  42  70  94 132 176 211 272 335 386
#     4  11  24  45  65  97 136 173 230 279 326 399
#
# _framework density 21.535381999999998
#
# number of rings (size 3 to 8) (size 9 to 14) (size 15 to 20)
#    0.000    1.333    4.000    2.400    1.867    0.000 
#    9.600    4.000    0.000    0.000    0.000    0.000 
#    0.000    0.000    0.000    0.000    0.000    0.000 
#
# Total GULP energy -185886.835344 kJ/mol
# GULP energy per Si atom -12392.455690 kJ/mol
# Density = 2.148637 g / cm^3
# Si number density = 21.535382 Si / 1000 Ang^3
#
#
#
# Elastic Constant Matrix: (Units=GPa)
#
#
# Indices 1 2 3 4 5 6 
#
# 1 142.6754 53.0365 51.4209 0.0000 18.6484 0.0000
# 2 53.0365 101.6779 39.1563 0.0000 7.1009 0.0000
# 3 51.4209 39.1563 110.7396 0.0000 19.9467 0.0000
# 4 0.0000 0.0000 0.0000 18.3995 0.0000 1.5665
# 5 18.6484 7.1009 19.9467 0.0000 24.6617 0.0000
# 6 0.0000 0.0000 0.0000 1.5665 0.0000 33.0173
#
#
#
# Elastic Compliance Matrix: (Units=1/GPa)
#
#
# Indices 1 2 3 4 5 6 
#
# 1 0.009920 -0.003934 -0.002421 0.000000 -0.004411 0.000000
# 2 -0.003934 0.012946 -0.003061 0.000000 0.001723 0.000000
# 3 -0.002421 -0.003061 0.012581 0.000000 -0.007464 0.000000
# 4 0.000000 0.000000 0.000000 0.054570 0.000000 -0.002589
# 5 -0.004411 0.001723 -0.007464 0.000000 0.049424 0.000000
# 6 0.000000 0.000000 0.000000 -0.002589 0.000000 0.030410
#
#
# Mechanical properties :
#
#
# Convention : Reuss Voigt Hill
#
# Bulk Modulus (GPa) = 60.18751 71.36892 65.77821
# Shear Modulus (GPa) = 25.74377 29.31430 27.52904
#
# Velocity S-wave (km/s) = 3.46123 3.69347 3.57923
# Velocity P-wave (km/s) = 6.63192 7.16946 6.90592
#
# Compressibility (1/GPa) = 0.01661474
#
# Stress axis : x y z
#
# Youngs Moduli (GPa) = 100.80245 77.24643 79.48497
#
# Poissons Ratio (x) = 0.30391 0.19242
# Poissons Ratio (y) = 0.39659 0.24330
# Poissons Ratio (z) = 0.24403 0.23645
#
# Static dielectric constant tensor:
#      x y z
#    x 4.019750 0.000000 0.189020 
#    y 0.000000 3.636450 0.000000 
#    z 0.189020 0.000000 4.178010 
# 
# 
# High freq. dielectric constant tensor:
#      x y z
#    x 1.850220 0.000000 0.008510 
#    y 0.000000 1.816550 0.000000 
#    z 0.008510 0.000000 1.861370 
# 
# From -- ./inp_files/52272.got.cif
#   From: 2010.03.12/outbox.cif.g09.slc.cpg/sg5_27_cif.got.tgz:52272.got - 2010.03.31 09:47:26.
