data_PCOD8049073
_publ_section_title
;
Structure prediction by ZEFSAII (Michael W. Deem and Ramdas Pophale) SiO2 
 PCOD8049073
Probable space group: C 2
;
_chemical_formula_sum "Si O2"
_cell_formula_units_Z 28
_cell_length_a 17.145912
_cell_length_b 5.129361
_cell_length_c 15.103625
_cell_angle_alpha 90.000000
_cell_angle_beta 98.401540
_cell_angle_gamma 90.000000
_cell_volume 1314.072085
_symmetry_space_group_name_H-M "C 2"
_symmetry_group_IT_number 5
_symmetry_cell_setting 'monoclinic'
loop_
_space_group_symop_operation_xyz
x,y,z
-x,y,-z
1/2+x,1/2+y,z
1/2-x,1/2+y,-z
loop_
_atom_site_type_symbol
_atom_site_label
_atom_site_fract_x
_atom_site_fract_y
_atom_site_fract_z
Si Si1 0.507953 0.378750 0.716808
Si Si2 0.701598 0.829884 0.007216
Si Si3 0.697134 0.964090 0.503895
Si Si4 0.373755 0.666722 0.173143
Si Si5 0.138956 0.551810 0.683885
Si Si6 0.593954 0.890298 0.322195
Si Si7 0.772263 0.339735 0.797190
O O1 0.557398 0.446478 0.815161
O O2 0.578981 0.298435 0.658754
O O3 0.450810 0.613795 0.677753
O O4 0.457917 0.121939 0.725519
O O5 0.677945 0.768965 0.105559
O O6 0.772585 0.629825 0.998049
O O7 0.629669 0.786021 0.926424
O O8 0.739656 0.242570 0.507702
O O9 0.660713 0.920329 0.594805
O O10 0.623779 0.958463 0.425167
O O11 0.286349 0.574519 0.186664
O O12 0.405917 0.853398 0.257417
O O13 0.218496 0.607400 0.751972
O O14 0.668702 0.898083 0.271217
#
# Coordination Sequence:
#
# PCOD8049073 Si02
#       7
#     4   4   4   4   4   4   4
#     4  11  26  44  65  91 136 179 206 262 322 387
#     4  10  20  35  66 102 125 159 220 272 313 375
#     4  12  26  43  69 102 128 163 218 276 317 374
#     4  10  21  43  69  95 131 169 221 262 319 384
#     4  11  22  45  69  94 130 175 213 262 326 378
#     4  12  25  45  65  98 133 169 217 264 321 385
#     4  10  22  39  71  98 127 169 215 273 322 368
#
# _framework density 21.307811999999998
#
# number of rings (size 3 to 8) (size 9 to 14) (size 15 to 20)
#    0.000    1.143    4.286    1.714    4.000    0.571 
#    2.571    0.714    3.143    0.000    0.000    0.000 
#    0.000    0.000    0.000    0.000    0.000    0.000 
#
# Total GULP energy -173439.489534 kJ/mol
# GULP energy per Si atom -12388.534967 kJ/mol
# Density = 2.125931 g / cm^3
# Si number density = 21.307812 Si / 1000 Ang^3
#
#
#
# Elastic Constant Matrix: (Units=GPa)
#
#
# Indices 1 2 3 4 5 6 
#
# 1 63.2605 20.5087 11.8472 0.0000 10.5238 0.0000
# 2 20.5087 86.6897 8.3481 0.0000 5.4586 0.0000
# 3 11.8472 8.3481 99.0045 0.0000 -9.2984 0.0000
# 4 0.0000 0.0000 0.0000 31.1560 0.0000 6.9146
# 5 10.5238 5.4586 -9.2984 0.0000 19.5863 0.0000
# 6 0.0000 0.0000 0.0000 6.9146 0.0000 29.7867
#
#
#
# Elastic Compliance Matrix: (Units=1/GPa)
#
#
# Indices 1 2 3 4 5 6 
#
# 1 0.019344 -0.003603 -0.003028 0.000000 -0.010827 0.000000
# 2 -0.003603 0.012590 -0.000814 0.000000 -0.001959 0.000000
# 3 -0.003028 -0.000814 0.011205 0.000000 0.007173 0.000000
# 4 0.000000 0.000000 0.000000 0.033840 0.000000 -0.007855
# 5 -0.010827 -0.001959 0.007173 0.000000 0.060825 0.000000
# 6 0.000000 0.000000 0.000000 -0.007855 0.000000 0.035396
#
#
# Mechanical properties :
#
#
# Convention : Reuss Voigt Hill
#
# Bulk Modulus (GPa) = 35.40038 36.70696 36.05367
# Shear Modulus (GPa) = 25.31576 29.98920 27.65248
#
# Velocity S-wave (km/s) = 3.45062 3.75564 3.60636
# Velocity P-wave (km/s) = 5.70312 6.00590 5.85647
#
# Compressibility (1/GPa) = 0.02824828
#
# Stress axis : x y z
#
# Youngs Moduli (GPa) = 51.69597 79.43076 89.24387
#
# Poissons Ratio (x) = 0.28619 0.27021
# Poissons Ratio (y) = 0.18626 0.07268
# Poissons Ratio (z) = 0.15652 0.06469
#
# Static dielectric constant tensor:
#      x y z
#    x 3.930060 0.000000 0.318120 
#    y 0.000000 3.979200 0.000000 
#    z 0.318120 0.000000 4.151700 
# 
# 
# High freq. dielectric constant tensor:
#      x y z
#    x 1.814480 0.000000 0.020850 
#    y 0.000000 1.848130 0.000000 
#    z 0.020850 0.000000 1.838240 
# 
# From -- ./inp_files/55325.got.cif
#   From: 2010.03.12/outbox.cif.g09.slc.cpg/sg5_28_cif.got.tgz:55325.got - 2010.03.31 09:47:26.
