data_PCOD8049572
_publ_section_title
;
Structure prediction by ZEFSAII (Michael W. Deem and Ramdas Pophale) SiO2 
 PCOD8049572
Probable space group: C 2
;
_chemical_formula_sum "Si O2"
_cell_formula_units_Z 26
_cell_length_a 17.839206
_cell_length_b 5.009625
_cell_length_c 19.728295
_cell_angle_alpha 90.000000
_cell_angle_beta 140.691397
_cell_angle_gamma 90.000000
_cell_volume 1116.901551
_symmetry_space_group_name_H-M "C 2"
_symmetry_group_IT_number 5
_symmetry_cell_setting 'monoclinic'
loop_
_space_group_symop_operation_xyz
x,y,z
-x,y,-z
1/2+x,1/2+y,z
1/2-x,1/2+y,-z
loop_
_atom_site_type_symbol
_atom_site_label
_atom_site_fract_x
_atom_site_fract_y
_atom_site_fract_z
Si Si1 0.852408 0.689360 0.507908
Si Si2 0.500000 0.970348 0.500000
Si Si3 0.375677 0.911014 0.035139
Si Si4 0.641491 0.944120 0.203470
Si Si5 0.715194 0.916293 0.735933
Si Si6 0.795949 0.680958 0.613606
Si Si7 0.777235 0.413781 0.107760
O O1 0.967171 0.651883 0.541768
O O2 0.880442 0.640715 0.606956
O O3 0.747259 0.487925 0.409688
O O4 0.819813 0.998335 0.476996
O O5 0.614437 0.814264 0.610718
O O6 0.505358 0.883145 0.092794
O O7 0.377629 0.912555 0.119264
O O8 0.306743 0.160249 0.957200
O O9 0.308733 0.658725 0.960799
O O10 0.689738 0.179760 0.189758
O O11 0.635293 0.072900 0.273968
O O12 0.724312 0.684645 0.251610
O O13 0.663356 0.944839 0.775971
#
# Coordination Sequence:
#
# PCOD8049572 Si02
#       7
#     4   2   4   4   4   4   4
#     4  10  22  37  64  78 128 162 214 250 313 354
#     4  12  24  44  60 100 124 180 196 284 292 394
#     4  10  23  43  73  89 133 157 222 254 325 370
#     4  12  23  42  63  98 126 170 207 267 304 398
#     4  12  27  40  66  92 137 162 220 251 332 358
#     4  10  20  41  56  91 116 168 206 258 299 381
#     4  10  23  46  64 102 121 171 202 273 311 389
#
# _framework density 23.278687000000001
#
# number of rings (size 3 to 8) (size 9 to 14) (size 15 to 20)
#    0.000    1.231    3.077    1.846    2.154    6.154 
#    0.000    0.000    0.000    0.000    0.000    0.000 
#    0.000    0.000    0.000    0.000    0.000    0.000 
#
# Total GULP energy -161086.234689 kJ/mol
# GULP energy per Si atom -12391.248822 kJ/mol
# Density = 2.322570 g / cm^3
# Si number density = 23.278687 Si / 1000 Ang^3
#
#
#
# Elastic Constant Matrix: (Units=GPa)
#
#
# Indices 1 2 3 4 5 6 
#
# 1 127.1996 11.8302 34.6817 -0.1202 -18.0167 0.0028
# 2 11.8302 122.7245 17.7669 -0.3937 3.9843 0.0242
# 3 34.6817 17.7669 76.6039 -0.0342 -13.9828 0.0054
# 4 -0.1202 -0.3937 -0.0342 269.0425 -0.0626 -41.0572
# 5 -18.0167 3.9843 -13.9828 -0.0626 47.3595 0.0083
# 6 0.0028 0.0242 0.0054 -41.0572 0.0083 29.3621
#
#
#
# Elastic Compliance Matrix: (Units=1/GPa)
#
#
# Indices 1 2 3 4 5 6 
#
# 1 0.009244 -0.000446 -0.003628 0.000004 0.002483 0.000006
# 2 -0.000446 0.008537 -0.002050 0.000014 -0.001493 0.000013
# 3 -0.003628 -0.002050 0.015804 -0.000003 0.003458 -0.000006
# 4 0.000004 0.000014 -0.000003 0.004725 0.000005 0.006607
# 5 0.002483 -0.001493 0.003458 0.000005 0.023206 0.000001
# 6 0.000006 0.000013 -0.000006 0.006607 0.000001 0.043297
#
#
# Mechanical properties :
#
#
# Convention : Reuss Voigt Hill
#
# Bulk Modulus (GPa) = 46.87346 50.56510 48.71928
# Shear Modulus (GPa) = 40.26589 86.63611 63.45100
#
# Velocity S-wave (km/s) = 4.16352 6.10719 5.22650
# Velocity P-wave (km/s) = 6.57972 8.45571 7.57601
#
# Compressibility (1/GPa) = 0.02133403
#
# Stress axis : x y z
#
# Youngs Moduli (GPa) = 108.17602 117.14088 63.27634
#
# Poissons Ratio (x) = 0.05229 0.22960
# Poissons Ratio (y) = 0.04829 0.12974
# Poissons Ratio (z) = 0.39251 0.24019
#
# Static dielectric constant tensor:
#      x y z
#    x 2.586510 -0.000140 0.771700 
#    y -0.000140 4.121540 0.000070 
#    z 0.771700 0.000070 3.266290 
# 
# 
# High freq. dielectric constant tensor:
#      x y z
#    x 1.944210 0.000000 -0.025060 
#    y 0.000000 1.923900 0.000000 
#    z -0.025060 0.000000 1.891400 
# 
# From -- ./inp_files/66441.got.cif
#   From: 2010.03.12/outbox.cif.g09.slc.cpg/sg5_34_cif.got.tgz:66441.got - 2010.03.31 09:47:26.
