data_PCOD8049891
_publ_section_title
;
Structure prediction by ZEFSAII (Michael W. Deem and Ramdas Pophale) SiO2 
 PCOD8049891
Probable space group: C 2
;
_chemical_formula_sum "Si O2"
_cell_formula_units_Z 28
_cell_length_a 12.628248
_cell_length_b 22.680036
_cell_length_c 5.016410
_cell_angle_alpha 90.000000
_cell_angle_beta 76.128761
_cell_angle_gamma 90.000000
_cell_volume 1394.845684
_symmetry_space_group_name_H-M "C 2"
_symmetry_group_IT_number 5
_symmetry_cell_setting 'monoclinic'
loop_
_space_group_symop_operation_xyz
x,y,z
-x,y,-z
1/2+x,1/2+y,z
1/2-x,1/2+y,-z
loop_
_atom_site_type_symbol
_atom_site_label
_atom_site_fract_x
_atom_site_fract_y
_atom_site_fract_z
Si Si1 0.875047 0.466300 0.071461
Si Si2 0.880811 0.704531 0.056897
Si Si3 0.233817 0.662483 0.374534
Si Si4 0.127261 0.541967 0.429507
Si Si5 0.244398 0.352737 0.641229
Si Si6 0.620382 0.337495 0.930334
Si Si7 0.923456 0.246217 0.291643
O O1 0.847151 0.518637 0.291871
O O2 0.810848 0.408369 0.188910
O O3 0.846910 0.489472 0.793474
O O4 0.000000 0.447428 0.000000
O O5 0.802047 0.668559 0.298022
O O6 0.888129 0.770442 0.167405
O O7 0.835831 0.703107 0.783821
O O8 0.000000 0.674631 0.000000
O O9 0.211414 0.594640 0.308981
O O10 0.359497 0.684202 0.283571
O O11 0.000000 0.562566 0.500000
O O12 0.301088 0.371096 0.327011
O O13 0.160732 0.300076 0.626454
O O14 0.335932 0.334106 0.796304
O O15 0.500000 0.366978 0.000000
O O16 0.000000 0.240730 0.500000
O O17 0.000000 0.260551 0.000000
#
# Coordination Sequence:
#
# PCOD8049891 Si02
#       7
#     4   4   4   4   4   4   4
#     4  10  22  39  61  91 121 159 206 253 300 359
#     4  11  20  34  57  90 123 155 191 237 306 376
#     4  12  22  39  60  88 125 161 197 249 313 363
#     4  10  21  38  61  91 121 154 203 256 310 365
#     4  12  22  41  63  88 126 168 200 251 313 363
#     4  11  22  37  59  91 127 157 197 249 303 372
#     4  12  25  40  59  89 124 162 211 251 296 368
#
# _framework density 20.073903000000001
#
# number of rings (size 3 to 8) (size 9 to 14) (size 15 to 20)
#    0.000    0.857    2.857    5.571    0.000    5.143 
#    0.000    0.000    0.000    8.571    0.000    0.000 
#    0.000    0.000    0.000    0.000    0.000    0.000 
#
# Total GULP energy -173600.859918 kJ/mol
# GULP energy per Si atom -12400.061423 kJ/mol
# Density = 2.002821 g / cm^3
# Si number density = 20.073903 Si / 1000 Ang^3
#
#
#
# Elastic Constant Matrix: (Units=GPa)
#
#
# Indices 1 2 3 4 5 6 
#
# 1 127.1658 31.7495 35.6455 0.0000 5.9543 0.0000
# 2 31.7495 78.9004 9.4994 0.0000 -11.9854 0.0000
# 3 35.6455 9.4994 101.1936 0.0000 0.0749 0.0000
# 4 0.0000 0.0000 0.0000 26.1790 0.0000 -6.6328
# 5 5.9543 -11.9854 0.0749 0.0000 37.5871 0.0000
# 6 0.0000 0.0000 0.0000 -6.6328 0.0000 17.1189
#
#
#
# Elastic Compliance Matrix: (Units=1/GPa)
#
#
# Indices 1 2 3 4 5 6 
#
# 1 0.009871 -0.004031 -0.003097 0.000000 -0.002843 0.000000
# 2 -0.004031 0.015127 -0.000004 0.000000 0.005462 0.000000
# 3 -0.003097 -0.000004 0.010973 0.000000 0.000467 0.000000
# 4 0.000000 0.000000 0.000000 0.042357 0.000000 0.016411
# 5 -0.002843 0.005462 0.000467 0.000000 0.028796 0.000000
# 6 0.000000 0.000000 0.000000 0.016411 0.000000 0.064773
#
#
# Mechanical properties :
#
#
# Convention : Reuss Voigt Hill
#
# Bulk Modulus (GPa) = 46.06824 51.22763 48.64794
# Shear Modulus (GPa) = 25.85362 31.53469 28.69415
#
# Velocity S-wave (km/s) = 3.59266 3.96780 3.78488
# Velocity P-wave (km/s) = 6.34103 6.82394 6.58691
#
# Compressibility (1/GPa) = 0.02170693
#
# Stress axis : x y z
#
# Youngs Moduli (GPa) = 101.30301 66.10878 91.13381
#
# Poissons Ratio (x) = 0.26650 0.28221
# Poissons Ratio (y) = 0.40838 0.00037
# Poissons Ratio (z) = 0.31370 0.00027
#
# Static dielectric constant tensor:
#      x y z
#    x 3.687190 0.000000 -0.049400 
#    y 0.000000 3.420190 0.000000 
#    z -0.049400 0.000000 3.762070 
# 
# 
# High freq. dielectric constant tensor:
#      x y z
#    x 1.774030 0.000000 0.009300 
#    y 0.000000 1.762690 0.000000 
#    z 0.009300 0.000000 1.803400 
# 
# From -- ./inp_files/5608.got.cif
#   From: 2010.03.12/outbox.cif.g09.slc.cpg/sg5_3_cif.got.tgz:5608.got - 2010.03.31 09:47:26.
