data_PCOD8049328
_publ_section_title
;
Structure prediction by ZEFSAII (Michael W. Deem and Ramdas Pophale) SiO2 
 PCOD8049328
Probable space group: C 2
;
_chemical_formula_sum "Si O2"
_cell_formula_units_Z 22
_cell_length_a 12.530116
_cell_length_b 13.713735
_cell_length_c 10.386131
_cell_angle_alpha 90.000000
_cell_angle_beta 137.754311
_cell_angle_gamma 90.000000
_cell_volume 1199.872029
_symmetry_space_group_name_H-M "C 2"
_symmetry_group_IT_number 5
_symmetry_cell_setting 'monoclinic'
loop_
_space_group_symop_operation_xyz
x,y,z
-x,y,-z
1/2+x,1/2+y,z
1/2-x,1/2+y,-z
loop_
_atom_site_type_symbol
_atom_site_label
_atom_site_fract_x
_atom_site_fract_y
_atom_site_fract_z
Si Si1 0.939048 0.844710 0.652168
Si Si2 0.065009 0.050831 0.290862
Si Si3 0.500000 0.617010 0.500000
Si Si4 0.000000 0.509198 0.000000
Si Si5 0.500000 0.680652 0.000000
Si Si6 0.813031 0.651512 0.659054
Si Si7 0.250263 0.346796 0.225559
O O1 0.894997 0.751401 0.695677
O O2 0.819756 0.867616 0.428655
O O3 0.116477 0.828467 0.761305
O O4 0.926640 0.936833 0.738415
O O5 0.975214 0.111849 0.101858
O O6 0.240488 0.097636 0.468185
O O7 0.970374 0.052336 0.344641
O O8 0.663952 0.677316 0.622701
O O9 0.056186 0.579092 0.165314
O O10 0.144104 0.438684 0.085440
O O11 0.654218 0.746741 0.150022
#
# Coordination Sequence:
#
# PCOD8049328 Si02
#       7
#     4   4   2   2   2   4   4
#     4  11  20  38  60  86 123 159 194 246 304 346
#     4  10  20  38  62  87 119 157 192 250 296 349
#     4   8  18  40  62  82 116 168 190 242 292 356
#     4  11  20  35  60  90 110 159 212 235 282 366
#     4  11  22  39  62  92 122 151 198 253 306 340
#     4  10  21  36  63  87 117 149 206 248 287 344
#     4  10  21  36  62  88 115 162 208 234 283 375
#
# _framework density 18.335287999999998
#
# number of rings (size 3 to 8) (size 9 to 14) (size 15 to 20)
#    1.091    0.727    3.636    2.182    0.000    3.636 
#    0.000    0.000    4.000    0.000    0.000    0.000 
#    0.000    0.000    0.000    0.000    0.000    0.000 
#
# Total GULP energy -136308.436872 kJ/mol
# GULP energy per Si atom -12391.676079 kJ/mol
# Density = 1.829356 g / cm^3
# Si number density = 18.335288 Si / 1000 Ang^3
#
#
#
# Elastic Constant Matrix: (Units=GPa)
#
#
# Indices 1 2 3 4 5 6 
#
# 1 85.3117 68.1155 40.7358 0.0000 12.4596 0.0000
# 2 68.1155 148.3900 31.9149 0.0000 6.9572 0.0000
# 3 40.7358 31.9149 66.5896 0.0000 7.9876 0.0000
# 4 0.0000 0.0000 0.0000 35.1729 0.0000 -6.9778
# 5 12.4596 6.9572 7.9876 0.0000 30.2801 0.0000
# 6 0.0000 0.0000 0.0000 -6.9778 0.0000 26.3134
#
#
#
# Elastic Compliance Matrix: (Units=1/GPa)
#
#
# Indices 1 2 3 4 5 6 
#
# 1 0.024250 -0.008728 -0.010012 0.000000 -0.005332 0.000000
# 2 -0.008728 0.010674 0.000090 0.000000 0.001115 0.000000
# 3 -0.010012 0.000090 0.021281 0.000000 -0.001515 0.000000
# 4 0.000000 0.000000 0.000000 0.030010 0.000000 0.007958
# 5 -0.005332 0.001115 -0.001515 0.000000 0.035362 0.000000
# 6 0.000000 0.000000 0.000000 0.007958 0.000000 0.040114
#
#
# Mechanical properties :
#
#
# Convention : Reuss Voigt Hill
#
# Bulk Modulus (GPa) = 52.89882 64.64708 58.77295
# Shear Modulus (GPa) = 24.35554 28.98826 26.67190
#
# Velocity S-wave (km/s) = 3.64860 3.98050 3.81816
# Velocity P-wave (km/s) = 6.83104 7.51403 7.18066
#
# Compressibility (1/GPa) = 0.01890401
#
# Stress axis : x y z
#
# Youngs Moduli (GPa) = 41.23735 93.68689 46.99084
#
# Poissons Ratio (x) = 0.81771 0.47047
# Poissons Ratio (y) = 0.35992 -0.00422
# Poissons Ratio (z) = 0.41287 -0.00842
#
# Static dielectric constant tensor:
#      x y z
#    x 3.103520 0.000000 0.148910 
#    y 0.000000 3.340480 0.000000 
#    z 0.148910 0.000000 3.388370 
# 
# 
# High freq. dielectric constant tensor:
#      x y z
#    x 1.684900 0.000000 0.014370 
#    y 0.000000 1.718310 0.000000 
#    z 0.014370 0.000000 1.709640 
# 
# From -- ./inp_files/42164.got.cif
#   From: 2010.03.12/outbox.cif.g09.slc.cpg/sg5_22_cif.got.tgz:42164.got - 2010.03.31 09:47:26.
