data_PCOD8049922
_publ_section_title
;
Structure prediction by ZEFSAII (Michael W. Deem and Ramdas Pophale) SiO2 
 PCOD8049922
Probable space group: C 2
;
_chemical_formula_sum "Si O2"
_cell_formula_units_Z 20
_cell_length_a 12.896828
_cell_length_b 8.699812
_cell_length_c 9.655741
_cell_angle_alpha 90.000000
_cell_angle_beta 60.361225
_cell_angle_gamma 90.000000
_cell_volume 941.625784
_symmetry_space_group_name_H-M "C 2"
_symmetry_group_IT_number 5
_symmetry_cell_setting 'monoclinic'
loop_
_space_group_symop_operation_xyz
x,y,z
-x,y,-z
1/2+x,1/2+y,z
1/2-x,1/2+y,-z
loop_
_atom_site_type_symbol
_atom_site_label
_atom_site_fract_x
_atom_site_fract_y
_atom_site_fract_z
Si Si1 0.211224 0.928710 0.147994
Si Si2 0.097514 0.682061 0.048696
Si Si3 0.424690 0.992637 0.686250
Si Si4 0.687047 0.648178 0.811992
Si Si5 0.543467 0.667205 0.194387
O O1 0.178927 0.830768 0.028762
O O2 0.241589 0.810831 0.252573
O O3 0.096287 0.034438 0.260041
O O4 0.325538 0.036557 0.050969
O O5 0.033723 0.624060 0.232191
O O6 0.000000 0.730993 0.000000
O O7 0.500000 0.018571 0.500000
O O8 0.450338 0.826558 0.731352
O O9 0.282862 0.010406 0.746851
O O10 0.593446 0.626513 0.750434
O O11 0.623060 0.664705 0.003079
#
# Coordination Sequence:
#
# PCOD8049922 Si02
#       5
#     4   4   4   4   4
#     4  11  20  34  60  94 117 151 216 257 290 357
#     4  11  22  36  62  92 119 164 207 251 304 374
#     4  11  23  43  63  94 135 162 199 271 324 361
#     4  10  21  38  65  89 122 165 212 250 304 376
#     4  11  20  38  65  90 120 167 211 254 300 374
#
# _framework density 21.239861000000001
#
# number of rings (size 3 to 8) (size 9 to 14) (size 15 to 20)
#    0.000    1.200    6.000    1.200    2.800    0.000 
#    0.000   14.000    0.000    0.000    0.000    0.000 
#    0.000    0.000    0.000    0.000    0.000    0.000 
#
# Total GULP energy -123922.069078 kJ/mol
# GULP energy per Si atom -12392.206908 kJ/mol
# Density = 2.119152 g / cm^3
# Si number density = 21.239861 Si / 1000 Ang^3
#
#
#
# Elastic Constant Matrix: (Units=GPa)
#
#
# Indices 1 2 3 4 5 6 
#
# 1 140.8598 9.3903 26.1568 0.0000 -22.8363 0.0000
# 2 9.3903 40.3163 1.2455 0.0000 -6.5175 0.0000
# 3 26.1568 1.2455 70.1802 0.0000 -0.0093 0.0000
# 4 0.0000 0.0000 0.0000 13.1319 0.0000 -2.5561
# 5 -22.8363 -6.5175 -0.0093 0.0000 14.1106 0.0000
# 6 0.0000 0.0000 0.0000 -2.5561 0.0000 35.3585
#
#
#
# Elastic Compliance Matrix: (Units=1/GPa)
#
#
# Indices 1 2 3 4 5 6 
#
# 1 0.010628 0.000462 -0.003967 0.000000 0.017410 0.000000
# 2 0.000462 0.026841 -0.000647 0.000000 0.013144 0.000000
# 3 -0.003967 -0.000647 0.015738 0.000000 -0.006708 0.000000
# 4 0.000000 0.000000 0.000000 0.077237 0.000000 0.005584
# 5 0.017410 0.013144 -0.006708 0.000000 0.105112 0.000000
# 6 0.000000 0.000000 0.000000 0.005584 0.000000 0.028685
#
#
# Mechanical properties :
#
#
# Convention : Reuss Voigt Hill
#
# Bulk Modulus (GPa) = 22.27010 36.10459 29.18734
# Shear Modulus (GPa) = 17.39050 26.82445 22.10747
#
# Velocity S-wave (km/s) = 2.86451 3.55763 3.22972
# Velocity P-wave (km/s) = 4.63124 5.82332 5.26115
#
# Compressibility (1/GPa) = 0.04490326
#
# Stress axis : x y z
#
# Youngs Moduli (GPa) = 94.09388 37.25614 63.53994
#
# Poissons Ratio (x) = -0.01720 0.25206
# Poissons Ratio (y) = -0.04345 0.04109
# Poissons Ratio (z) = 0.37326 0.02409
#
# Static dielectric constant tensor:
#      x y z
#    x 4.287810 0.000000 -0.169010 
#    y 0.000000 4.196330 0.000000 
#    z -0.169010 0.000000 3.356800 
# 
# 
# High freq. dielectric constant tensor:
#      x y z
#    x 1.846650 0.000000 -0.017980 
#    y 0.000000 1.854030 0.000000 
#    z -0.017980 0.000000 1.762990 
# 
# From -- ./inp_files/41397.got.cif
#   From: 2010.03.12/outbox.cif.g09.slc.cpg/sg5_21_cif.got.tgz:41397.got - 2010.03.31 09:47:26.
