data_PCOD8049013
_publ_section_title
;
Structure prediction by ZEFSAII (Michael W. Deem and Ramdas Pophale) SiO2 
 PCOD8049013
Probable space group: C 2
;
_chemical_formula_sum "Si O2"
_cell_formula_units_Z 28
_cell_length_a 21.385747
_cell_length_b 8.768993
_cell_length_c 22.353520
_cell_angle_alpha 90.000000
_cell_angle_beta 19.282804
_cell_angle_gamma 90.000000
_cell_volume 1384.325005
_symmetry_space_group_name_H-M "C 2"
_symmetry_group_IT_number 5
_symmetry_cell_setting 'monoclinic'
loop_
_space_group_symop_operation_xyz
x,y,z
-x,y,-z
1/2+x,1/2+y,z
1/2-x,1/2+y,-z
loop_
_atom_site_type_symbol
_atom_site_label
_atom_site_fract_x
_atom_site_fract_y
_atom_site_fract_z
Si Si1 0.474708 0.023210 0.593622
Si Si2 0.331965 0.682192 0.849727
Si Si3 0.931450 0.741858 0.391156
Si Si4 0.167541 0.844756 0.690631
Si Si5 0.159287 0.896158 0.095059
Si Si6 0.884755 0.835091 0.048333
Si Si7 0.255910 0.566410 0.540640
O O1 0.500000 0.046213 0.500000
O O2 0.518870 0.183019 0.587108
O O3 0.619334 0.898659 0.490107
O O4 0.261176 0.968712 0.800908
O O5 0.240703 0.550331 0.973355
O O6 0.227145 0.694810 0.880766
O O7 0.547493 0.653750 0.643580
O O8 0.298735 0.835848 0.917961
O O9 0.852214 0.599399 0.424029
O O10 0.129050 0.793047 0.181658
O O11 0.783658 0.886268 0.529538
O O12 0.160603 0.661418 0.682255
O O13 0.058115 0.924181 0.733002
O O14 0.043001 0.895381 0.859751
O O15 0.000000 0.768835 0.000000
#
# Coordination Sequence:
#
# PCOD8049013 Si02
#       7
#     4   4   4   4   4   4   4
#     4  12  23  41  66  86 123 176 211 262 313 362
#     4  10  20  34  60  89 126 163 197 260 314 367
#     4  10  22  38  61  94 128 161 209 262 320 379
#     4  10  21  40  63  94 121 163 207 259 314 377
#     4   9  21  35  58  96 126 156 207 256 323 376
#     4  11  23  39  62  90 121 164 219 252 294 378
#     4  10  20  39  64  95 127 161 206 261 328 377
#
# _framework density 20.226464
#
# number of rings (size 3 to 8) (size 9 to 14) (size 15 to 20)
#    0.000    1.714    2.857    2.571    4.000    2.286 
#    0.000    3.571    0.000    3.429    0.000    0.000 
#    0.000    0.000    0.000    0.000    0.000    0.000 
#
# Total GULP energy -173436.534027 kJ/mol
# GULP energy per Si atom -12388.323859 kJ/mol
# Density = 2.018043 g / cm^3
# Si number density = 20.226464 Si / 1000 Ang^3
#
#
#
# Elastic Constant Matrix: (Units=GPa)
#
#
# Indices 1 2 3 4 5 6 
#
# 1 144.3186 59.4098 26.8035 -0.0099 1.6729 0.0006
# 2 59.4098 77.9836 18.6203 0.0830 0.6709 -0.0019
# 3 26.8035 18.6203 69.1204 0.0688 5.9055 0.0033
# 4 -0.0099 0.0830 0.0688 31.5105 -0.0055 -1.7928
# 5 1.6729 0.6709 5.9055 -0.0055 27.1863 -0.0029
# 6 0.0006 -0.0019 0.0033 -1.7928 -0.0029 27.4311
#
#
#
# Elastic Compliance Matrix: (Units=1/GPa)
#
#
# Indices 1 2 3 4 5 6 
#
# 1 0.010352 -0.007405 -0.002018 0.000027 -0.000016 0.000001
# 2 -0.007405 0.019007 -0.002290 -0.000047 0.000484 -0.000001
# 3 -0.002018 -0.002290 0.016151 -0.000031 -0.003328 -0.000004
# 4 0.000027 -0.000047 -0.000031 0.031854 0.000013 0.002082
# 5 -0.000016 0.000484 -0.003328 0.000013 0.037495 0.000005
# 6 0.000001 -0.000001 -0.000004 0.002082 0.000005 0.036591
#
#
# Mechanical properties :
#
#
# Convention : Reuss Voigt Hill
#
# Bulk Modulus (GPa) = 45.28090 55.67663 50.47877
# Shear Modulus (GPa) = 27.43650 29.66483 28.55066
#
# Velocity S-wave (km/s) = 3.68702 3.83382 3.76114
# Velocity P-wave (km/s) = 6.36875 6.86906 6.62363
#
# Compressibility (1/GPa) = 0.02208437
#
# Stress axis : x y z
#
# Youngs Moduli (GPa) = 96.59672 52.61237 61.91376
#
# Poissons Ratio (x) = 0.38957 0.12496
# Poissons Ratio (y) = 0.71526 0.14180
# Poissons Ratio (z) = 0.19497 0.12049
#
# Static dielectric constant tensor:
#      x y z
#    x 3.853740 -0.000020 0.026420 
#    y -0.000020 3.641490 0.000000 
#    z 0.026420 0.000000 3.759310 
# 
# 
# High freq. dielectric constant tensor:
#      x y z
#    x 1.784800 0.000000 0.006200 
#    y 0.000000 1.766340 0.000000 
#    z 0.006200 0.000000 1.801210 
# 
# From -- ./inp_files/69416.got.cif
#   From: 2010.03.12/outbox.cif.g09.slc.cpg/sg5_35_cif.got.tgz:69416.got - 2010.03.31 09:47:26.
