data_PCOD8049164
_publ_section_title
;
Structure prediction by ZEFSAII (Michael W. Deem and Ramdas Pophale) SiO2 
 PCOD8049164
Probable space group: C 2
;
_chemical_formula_sum "Si O2"
_cell_formula_units_Z 32
_cell_length_a 11.528995
_cell_length_b 14.166660
_cell_length_c 15.353003
_cell_angle_alpha 90.000000
_cell_angle_beta 36.709254
_cell_angle_gamma 90.000000
_cell_volume 1498.908802
_symmetry_space_group_name_H-M "C 2"
_symmetry_group_IT_number 5
_symmetry_cell_setting 'monoclinic'
loop_
_space_group_symop_operation_xyz
x,y,z
-x,y,-z
1/2+x,1/2+y,z
1/2-x,1/2+y,-z
loop_
_atom_site_type_symbol
_atom_site_label
_atom_site_fract_x
_atom_site_fract_y
_atom_site_fract_z
Si Si1 0.003130 0.419580 0.283143
Si Si2 0.292955 0.166602 0.166737
Si Si3 0.217481 0.806328 0.343722
Si Si4 0.328899 0.004633 0.544889
Si Si5 0.015309 0.142264 0.789763
Si Si6 0.214504 0.453883 0.842612
Si Si7 0.797619 0.851898 0.247753
Si Si8 0.837367 0.968312 0.958954
O O1 0.157090 0.370656 0.252051
O O2 0.828851 0.352799 0.357752
O O3 0.897405 0.499718 0.403734
O O4 0.121730 0.460212 0.128814
O O5 0.290128 0.236830 0.253145
O O6 0.133954 0.191940 0.187414
O O7 0.271914 0.057807 0.210013
O O8 0.500000 0.181906 0.000000
O O9 0.350594 0.716346 0.238622
O O10 0.199223 0.877600 0.274671
O O11 0.000000 0.775298 0.500000
O O12 0.500000 0.049686 0.500000
O O13 0.276730 0.900819 0.618381
O O14 0.149041 0.074103 0.651270
O O15 0.907656 0.077468 0.927785
O O16 0.340600 0.449866 0.853732
O O17 0.000000 0.426091 0.000000
O O18 0.009261 0.893744 0.093727
#
# Coordination Sequence:
#
# PCOD8049164 Si02
#       8
#     4   4   4   4   4   4   4   4
#     4  11  21  40  67  99 124 171 215 270 327 383
#     4  10  20  36  66  94 129 161 219 277 330 373
#     4  12  26  41  67  93 141 179 215 259 335 400
#     4   9  21  40  67  92 130 167 215 265 322 387
#     4  10  22  43  65  94 129 174 213 271 323 388
#     4  10  22  43  63  95 131 176 214 271 324 393
#     4  10  20  38  68  96 124 163 215 275 324 375
#     4  10  21  40  75  94 128 168 219 271 329 379
#
# _framework density 21.348863000000001
#
# number of rings (size 3 to 8) (size 9 to 14) (size 15 to 20)
#    0.000    1.750    2.500    1.500    5.250    0.000 
#    0.000    8.125    8.250    0.000    0.000    0.000 
#    0.000    0.000    0.000    0.000    0.000    0.000 
#
# Total GULP energy -198268.813906 kJ/mol
# GULP energy per Si atom -12391.800869 kJ/mol
# Density = 2.130027 g / cm^3
# Si number density = 21.348863 Si / 1000 Ang^3
#
#
#
# Elastic Constant Matrix: (Units=GPa)
#
#
# Indices 1 2 3 4 5 6 
#
# 1 94.7121 39.7346 33.8757 0.0015 -14.3022 -0.0002
# 2 39.7346 117.3656 40.7885 0.0041 1.7670 -0.0010
# 3 33.8757 40.7885 80.6887 0.0049 -12.0073 -0.0030
# 4 0.0015 0.0041 0.0049 20.3324 -0.0016 -8.3957
# 5 -14.3022 1.7670 -12.0073 -0.0016 38.7951 0.0004
# 6 -0.0002 -0.0010 -0.0030 -8.3957 0.0004 32.9986
#
#
#
# Elastic Compliance Matrix: (Units=1/GPa)
#
#
# Indices 1 2 3 4 5 6 
#
# 1 0.013923 -0.003598 -0.003395 0.000001 0.004246 0.000000
# 2 -0.003598 0.011446 -0.004770 -0.000001 -0.003324 0.000000
# 3 -0.003395 -0.004770 0.016852 -0.000002 0.004182 0.000001
# 4 0.000001 -0.000001 -0.000002 0.054956 0.000002 0.013982
# 5 0.004246 -0.003324 0.004182 0.000002 0.028787 0.000000
# 6 0.000000 0.000000 0.000001 0.013982 0.000000 0.033862
#
#
# Mechanical properties :
#
#
# Convention : Reuss Voigt Hill
#
# Bulk Modulus (GPa) = 53.48814 57.95156 55.71985
# Shear Modulus (GPa) = 26.37338 30.31638 28.34488
#
# Velocity S-wave (km/s) = 3.51857 3.77244 3.64771
# Velocity P-wave (km/s) = 6.45103 6.79551 6.62551
#
# Compressibility (1/GPa) = 0.01869573
#
# Stress axis : x y z
#
# Youngs Moduli (GPa) = 71.82301 87.36398 59.33929
#
# Poissons Ratio (x) = 0.31432 0.20144
# Poissons Ratio (y) = 0.25841 0.28307
# Poissons Ratio (z) = 0.24382 0.41676
#
# Static dielectric constant tensor:
#      x y z
#    x 3.933400 -0.000010 -0.307820 
#    y -0.000010 4.009310 0.000000 
#    z -0.307820 0.000000 3.850490 
# 
# 
# High freq. dielectric constant tensor:
#      x y z
#    x 1.841390 0.000000 -0.031890 
#    y 0.000000 1.827560 0.000000 
#    z -0.031890 0.000000 1.826650 
# 
# From -- ./inp_files/53191.got.cif
#   From: 2010.03.12/outbox.cif.g09.slc.cpg/sg5_27_cif.got.tgz:53191.got - 2010.03.31 09:47:26.
