data_PCOD8049463
_publ_section_title
;
Structure prediction by ZEFSAII (Michael W. Deem and Ramdas Pophale) SiO2 
 PCOD8049463
Probable space group: C 2
;
_chemical_formula_sum "Si O2"
_cell_formula_units_Z 22
_cell_length_a 19.422457
_cell_length_b 9.102093
_cell_length_c 13.145418
_cell_angle_alpha 90.000000
_cell_angle_beta 25.396994
_cell_angle_gamma 90.000000
_cell_volume 996.697730
_symmetry_space_group_name_H-M "C 2"
_symmetry_group_IT_number 5
_symmetry_cell_setting 'monoclinic'
loop_
_space_group_symop_operation_xyz
x,y,z
-x,y,-z
1/2+x,1/2+y,z
1/2-x,1/2+y,-z
loop_
_atom_site_type_symbol
_atom_site_label
_atom_site_fract_x
_atom_site_fract_y
_atom_site_fract_z
Si Si1 0.257510 0.572030 0.168388
Si Si2 0.500000 0.442547 0.000000
Si Si3 0.665447 0.200003 0.651058
Si Si4 0.000000 0.469167 0.000000
Si Si5 0.500000 0.828263 0.500000
Si Si6 0.671147 0.314173 0.420225
Si Si7 0.483210 0.612672 0.334914
O O1 0.392977 0.544293 0.071819
O O2 0.158090 0.426133 0.277236
O O3 0.141584 0.701070 0.366421
O O4 0.343304 0.620518 0.949570
O O5 0.380133 0.347661 0.229106
O O6 0.648392 0.224393 0.554494
O O7 0.846122 0.152939 0.436464
O O8 0.543748 0.070007 0.844427
O O9 0.851817 0.370674 0.165171
O O10 0.479363 0.728333 0.429727
O O11 0.546658 0.448983 0.580885
#
# Coordination Sequence:
#
# PCOD8049463 Si02
#       7
#     4   2   4   2   2   4   4
#     4  12  26  45  73 102 135 181 232 285 342 409
#     4  11  19  42  74 104 134 172 224 280 348 400
#     4  10  20  39  70 104 136 170 218 283 346 401
#     4   9  21  34  58 104 138 162 206 274 342 398
#     4  12  30  48  66  96 142 192 230 280 342 406
#     4  11  23  39  69 104 134 172 225 286 340 403
#     4  11  25  46  69  95 140 187 227 281 340 411
#
# _framework density 22.072890000000001
#
# number of rings (size 3 to 8) (size 9 to 14) (size 15 to 20)
#    0.000    1.091    3.636    2.727    2.545    5.091 
#    0.000    0.000    0.000    0.000    0.000    0.000 
#    0.000    0.000    0.000    0.000    0.000    0.000 
#
# Total GULP energy -136458.206124 kJ/mol
# GULP energy per Si atom -12405.291466 kJ/mol
# Density = 2.202265 g / cm^3
# Si number density = 22.072890 Si / 1000 Ang^3
#
#
#
# Elastic Constant Matrix: (Units=GPa)
#
#
# Indices 1 2 3 4 5 6 
#
# 1 23.6820 21.6904 31.5125 0.0000 -1.5531 0.0000
# 2 21.6904 119.2091 48.3304 0.0000 16.2348 0.0000
# 3 31.5125 48.3304 130.6596 0.0000 31.1596 0.0000
# 4 0.0000 0.0000 0.0000 36.7968 0.0000 4.6402
# 5 -1.5531 16.2348 31.1596 0.0000 25.7702 0.0000
# 6 0.0000 0.0000 0.0000 4.6402 0.0000 8.1093
#
#
#
# Elastic Compliance Matrix: (Units=1/GPa)
#
#
# Indices 1 2 3 4 5 6 
#
# 1 0.099291 -0.012260 -0.031871 0.000000 0.052244 0.000000
# 2 -0.012260 0.011501 0.000852 0.000000 -0.009015 0.000000
# 3 -0.031871 0.000852 0.021936 0.000000 -0.028982 0.000000
# 4 0.000000 0.000000 0.000000 0.029290 0.000000 -0.016760
# 5 0.052244 -0.009015 -0.028982 0.000000 0.082676 0.000000
# 6 0.000000 0.000000 0.000000 -0.016760 0.000000 0.132906
#
#
# Mechanical properties :
#
#
# Convention : Reuss Voigt Hill
#
# Bulk Modulus (GPa) = 21.65838 52.95750 37.30794
# Shear Modulus (GPa) = 10.42650 25.60307 18.01479
#
# Velocity S-wave (km/s) = 2.17576 3.40947 2.85993
# Velocity P-wave (km/s) = 4.01813 6.28836 5.27679
#
# Compressibility (1/GPa) = 0.04617151
#
# Stress axis : x y z
#
# Youngs Moduli (GPa) = 10.07144 86.94521 45.58621
#
# Poissons Ratio (x) = 1.06593 1.45289
# Poissons Ratio (y) = 0.12347 -0.03886
# Poissons Ratio (z) = 0.32099 -0.07411
#
# Static dielectric constant tensor:
#      x y z
#    x 3.679370 0.000000 0.077800 
#    y 0.000000 4.279630 0.000000 
#    z 0.077800 0.000000 4.265780 
# 
# 
# High freq. dielectric constant tensor:
#      x y z
#    x 1.842860 0.000000 0.011710 
#    y 0.000000 1.888090 0.000000 
#    z 0.011710 0.000000 1.882730 
# 
# From -- ./inp_files/28861.got.cif
#   From: 2010.03.12/outbox.cif.g09.slc.cpg/sg5_15_cif.got.tgz:28861.got - 2010.03.31 09:47:26.
