data_PCOD8049887
_publ_section_title
;
Structure prediction by ZEFSAII (Michael W. Deem and Ramdas Pophale) SiO2 
 PCOD8049887
Probable space group: C 2
;
_chemical_formula_sum "Si O2"
_cell_formula_units_Z 28
_cell_length_a 20.538863
_cell_length_b 7.970406
_cell_length_c 16.343655
_cell_angle_alpha 90.000000
_cell_angle_beta 151.488174
_cell_angle_gamma 90.000000
_cell_volume 1277.126701
_symmetry_space_group_name_H-M "C 2"
_symmetry_group_IT_number 5
_symmetry_cell_setting 'monoclinic'
loop_
_space_group_symop_operation_xyz
x,y,z
-x,y,-z
1/2+x,1/2+y,z
1/2-x,1/2+y,-z
loop_
_atom_site_type_symbol
_atom_site_label
_atom_site_fract_x
_atom_site_fract_y
_atom_site_fract_z
Si Si1 0.648150 0.405170 0.660386
Si Si2 0.798920 0.436281 0.668436
Si Si3 0.713128 0.133471 0.849510
Si Si4 0.382573 0.861731 0.140783
Si Si5 0.081838 0.572462 0.974466
Si Si6 0.375569 0.647351 0.636969
Si Si7 0.966555 0.958962 0.058461
O O1 0.500000 0.498451 0.500000
O O2 0.694178 0.364145 0.619539
O O3 0.621687 0.235194 0.683712
O O4 0.771003 0.518196 0.830056
O O5 0.733295 0.594445 0.550646
O O6 0.807264 0.292595 0.612107
O O7 0.945854 0.494916 0.869060
O O8 0.643814 0.960609 0.803462
O O9 0.746886 0.262019 0.961600
O O10 0.850540 0.093089 0.951868
O O11 0.497264 0.718601 0.275658
O O12 0.430655 0.006384 0.131608
O O13 0.081217 0.771144 0.978979
O O14 0.412798 0.501410 0.744044
O O15 0.000000 0.988402 0.000000
#
# Coordination Sequence:
#
# PCOD8049887 Si02
#       7
#     4   4   4   4   4   4   4
#     4  11  25  41  61  89 125 168 209 258 317 373
#     4  11  22  42  64  92 128 164 212 258 311 374
#     4  10  21  38  61  88 124 167 204 259 317 371
#     4   9  20  38  62  92 121 159 213 257 311 374
#     4  10  22  41  66  90 123 168 207 260 315 370
#     4  10  23  37  63  96 124 163 211 264 305 364
#     4  11  21  37  63  95 128 165 209 254 311 376
#
# _framework density 21.924213999999999
#
# number of rings (size 3 to 8) (size 9 to 14) (size 15 to 20)
#    0.000    1.714    0.000    4.714    0.000    9.143 
#    0.000    3.571    0.000    0.000    0.000    0.000 
#    0.000    0.000    0.000    0.000    0.000    0.000 
#
# Total GULP energy -173511.849484 kJ/mol
# GULP energy per Si atom -12393.703535 kJ/mol
# Density = 2.187431 g / cm^3
# Si number density = 21.924214 Si / 1000 Ang^3
#
#
#
# Elastic Constant Matrix: (Units=GPa)
#
#
# Indices 1 2 3 4 5 6 
#
# 1 88.7626 38.8150 53.2988 0.0000 11.0705 0.0000
# 2 38.8150 109.1149 42.5762 0.0000 -4.5132 0.0000
# 3 53.2988 42.5762 127.6717 0.0000 11.8732 0.0000
# 4 0.0000 0.0000 0.0000 24.7255 0.0000 2.5256
# 5 11.0705 -4.5132 11.8732 0.0000 28.0291 0.0000
# 6 0.0000 0.0000 0.0000 2.5256 0.0000 37.7740
#
#
#
# Elastic Compliance Matrix: (Units=1/GPa)
#
#
# Indices 1 2 3 4 5 6 
#
# 1 0.016833 -0.004190 -0.005152 0.000000 -0.005141 0.000000
# 2 -0.004190 0.011883 -0.002650 0.000000 0.004691 0.000000
# 3 -0.005152 -0.002650 0.011157 0.000000 -0.003118 0.000000
# 4 0.000000 0.000000 0.000000 0.040722 0.000000 -0.002723
# 5 -0.005141 0.004691 -0.003118 0.000000 0.039784 0.000000
# 6 0.000000 0.000000 0.000000 -0.002723 0.000000 0.026655
#
#
# Mechanical properties :
#
#
# Convention : Reuss Voigt Hill
#
# Bulk Modulus (GPa) = 62.93498 66.10323 64.51911
# Shear Modulus (GPa) = 28.35844 30.82970 29.59407
#
# Velocity S-wave (km/s) = 3.60039 3.75399 3.67800
# Velocity P-wave (km/s) = 6.78615 7.00044 6.89413
#
# Compressibility (1/GPa) = 0.01588941
#
# Stress axis : x y z
#
# Youngs Moduli (GPa) = 59.40703 84.15235 89.63090
#
# Poissons Ratio (x) = 0.35263 0.46175
# Poissons Ratio (y) = 0.24894 0.23750
# Poissons Ratio (z) = 0.30605 0.22298
#
# Static dielectric constant tensor:
#      x y z
#    x 4.112710 0.000000 0.050890 
#    y 0.000000 3.907060 0.000000 
#    z 0.050890 0.000000 3.930910 
# 
# 
# High freq. dielectric constant tensor:
#      x y z
#    x 1.866780 0.000000 0.004270 
#    y 0.000000 1.861890 0.000000 
#    z 0.004270 0.000000 1.851340 
# 
# From -- ./inp_files/56935.got.cif
#   From: 2010.03.12/outbox.cif.g09.slc.cpg/sg5_29_cif.got.tgz:56935.got - 2010.03.31 09:47:26.
