data_PCOD8049156
_publ_section_title
;
Structure prediction by ZEFSAII (Michael W. Deem and Ramdas Pophale) SiO2 
 PCOD8049156
Probable space group: C 2
;
_chemical_formula_sum "Si O2"
_cell_formula_units_Z 26
_cell_length_a 5.198306
_cell_length_b 18.620885
_cell_length_c 13.754110
_cell_angle_alpha 90.000000
_cell_angle_beta 118.865180
_cell_angle_gamma 90.000000
_cell_volume 1165.946972
_symmetry_space_group_name_H-M "C 2"
_symmetry_group_IT_number 5
_symmetry_cell_setting 'monoclinic'
loop_
_space_group_symop_operation_xyz
x,y,z
-x,y,-z
1/2+x,1/2+y,z
1/2-x,1/2+y,-z
loop_
_atom_site_type_symbol
_atom_site_label
_atom_site_fract_x
_atom_site_fract_y
_atom_site_fract_z
Si Si1 0.000000 0.299911 0.500000
Si Si2 0.345096 0.948736 0.766231
Si Si3 0.748872 0.663784 0.262978
Si Si4 0.500000 0.204526 0.000000
Si Si5 0.344046 0.935250 0.376275
Si Si6 0.392361 0.101642 0.830767
Si Si7 0.500000 0.208234 0.500000
Si Si8 0.020657 0.295196 0.120402
O O1 0.094032 0.349483 0.608884
O O2 0.280529 0.254674 0.523736
O O3 0.520042 0.963179 0.698762
O O4 0.449782 0.876283 0.837867
O O5 0.000897 0.949748 0.680909
O O6 0.418655 0.015677 0.850667
O O7 0.434453 0.625250 0.196262
O O8 0.761571 0.743708 0.215720
O O9 0.012641 0.618574 0.262347
O O10 0.814200 0.662083 0.389870
O O11 0.619746 0.148016 0.939605
O O12 0.281967 0.257769 0.902852
O O13 0.500000 0.971569 0.500000
O O14 0.000000 0.292338 0.000000
#
# Coordination Sequence:
#
# PCOD8049156 Si02
#       8
#     2   4   4   2   4   4   2   4
#     4  10  20  36  65  94 137 176 214 276 338 378
#     4  12  25  43  71 105 132 177 240 277 343 408
#     4  11  24  45  68  99 138 181 223 276 346 411
#     4  10  24  48  68  98 138 186 214 292 362 398
#     4  10  23  43  64 101 139 184 212 287 344 407
#     4  11  25  46  67  97 140 182 219 282 347 412
#     4  12  22  40  67 104 131 184 224 276 326 422
#     4  11  24  43  73 101 132 176 239 291 335 407
#
# _framework density 22.299472000000002
#
# number of rings (size 3 to 8) (size 9 to 14) (size 15 to 20)
#    0.462    0.615    1.538    5.077    3.231    1.231 
#    8.308    0.000    0.000    0.000    0.000    0.000 
#    0.000    0.000    0.000    0.000    0.000    0.000 
#
# Total GULP energy -161051.400595 kJ/mol
# GULP energy per Si atom -12388.569277 kJ/mol
# Density = 2.224872 g / cm^3
# Si number density = 22.299472 Si / 1000 Ang^3
#
#
#
# Elastic Constant Matrix: (Units=GPa)
#
#
# Indices 1 2 3 4 5 6 
#
# 1 98.4358 24.4273 13.8513 0.0000 -1.6256 0.0000
# 2 24.4273 164.1447 51.3671 0.0000 0.5231 0.0000
# 3 13.8513 51.3671 114.3175 0.0000 -6.7923 0.0000
# 4 0.0000 0.0000 0.0000 22.4265 0.0000 -6.5369
# 5 -1.6256 0.5231 -6.7923 0.0000 33.2657 0.0000
# 6 0.0000 0.0000 0.0000 -6.5369 0.0000 25.0997
#
#
#
# Elastic Compliance Matrix: (Units=1/GPa)
#
#
# Indices 1 2 3 4 5 6 
#
# 1 0.010598 -0.001378 -0.000641 0.000000 0.000409 0.000000
# 2 -0.001378 0.007288 -0.003157 0.000000 -0.000827 0.000000
# 3 -0.000641 -0.003157 0.010371 0.000000 0.002136 0.000000
# 4 0.000000 0.000000 0.000000 0.048253 0.000000 0.012567
# 5 0.000409 -0.000827 0.002136 0.000000 0.030530 0.000000
# 6 0.000000 0.000000 0.000000 0.012567 0.000000 0.043114
#
#
# Mechanical properties :
#
#
# Convention : Reuss Voigt Hill
#
# Bulk Modulus (GPa) = 55.84934 61.79882 58.82408
# Shear Modulus (GPa) = 30.03504 35.30856 32.67180
#
# Velocity S-wave (km/s) = 3.67399 3.98349 3.83186
# Velocity P-wave (km/s) = 6.56484 6.99506 6.78336
#
# Compressibility (1/GPa) = 0.01790531
#
# Stress axis : x y z
#
# Youngs Moduli (GPa) = 94.35971 137.21631 96.42680
#
# Poissons Ratio (x) = 0.18908 0.06177
# Poissons Ratio (y) = 0.13002 0.30440
# Poissons Ratio (z) = 0.06045 0.43317
#
# Static dielectric constant tensor:
#      x y z
#    x 3.915800 0.000000 -0.028960 
#    y 0.000000 4.051250 0.000000 
#    z -0.028960 0.000000 4.096130 
# 
# 
# High freq. dielectric constant tensor:
#      x y z
#    x 1.879420 0.000000 -0.005470 
#    y 0.000000 1.878210 0.000000 
#    z -0.005470 0.000000 1.875200 
# 
# From -- ./inp_files/49271.got.cif
#   From: 2010.03.12/outbox.cif.g09.slc.cpg/sg5_25_cif.got.tgz:49271.got - 2010.03.31 09:47:26.
