data_PCOD8049735
_publ_section_title
;
Structure prediction by ZEFSAII (Michael W. Deem and Ramdas Pophale) SiO2 
 PCOD8049735
Probable space group: C 2
;
_chemical_formula_sum "Si O2"
_cell_formula_units_Z 24
_cell_length_a 6.546567
_cell_length_b 15.382435
_cell_length_c 11.494993
_cell_angle_alpha 90.000000
_cell_angle_beta 68.504971
_cell_angle_gamma 90.000000
_cell_volume 1077.060650
_symmetry_space_group_name_H-M "C 2"
_symmetry_group_IT_number 5
_symmetry_cell_setting 'monoclinic'
loop_
_space_group_symop_operation_xyz
x,y,z
-x,y,-z
1/2+x,1/2+y,z
1/2-x,1/2+y,-z
loop_
_atom_site_type_symbol
_atom_site_label
_atom_site_fract_x
_atom_site_fract_y
_atom_site_fract_z
Si Si1 0.955083 0.593420 0.265207
Si Si2 0.277338 0.257362 0.748896
Si Si3 0.555232 0.696276 0.361898
Si Si4 0.775415 0.962646 0.091639
Si Si5 0.000000 0.341293 0.000000
Si Si6 0.500000 0.999039 0.500000
Si Si7 0.824906 0.871086 0.324676
O O1 0.706378 0.618079 0.276645
O O2 0.076324 0.684424 0.223100
O O3 0.070034 0.527004 0.153105
O O4 0.960306 0.558701 0.396028
O O5 0.430562 0.341014 0.684261
O O6 0.169620 0.211959 0.659474
O O7 0.085092 0.282759 0.876797
O O8 0.500000 0.660530 0.500000
O O9 0.673074 0.787835 0.347465
O O10 0.702598 0.896706 0.006365
O O11 0.837730 0.913656 0.195997
O O12 0.000000 0.009280 0.000000
O O13 0.716946 0.939021 0.437747
#
# Coordination Sequence:
#
# PCOD8049735 Si02
#       7
#     4   4   4   4   2   2   4
#     4  10  25  43  66 100 140 176 223 280 351 403
#     4  11  24  43  69 100 132 186 229 278 344 406
#     4  11  22  43  67 102 135 176 224 282 338 419
#     4  11  23  44  66  99 136 177 228 289 336 406
#     4  12  24  42  70  98 132 184 234 282 340 404
#     4  10  20  46  68 102 144 178 224 286 342 410
#     4  10  21  41  70  98 132 174 231 280 334 405
#
# _framework density 22.282868000000001
#
# number of rings (size 3 to 8) (size 9 to 14) (size 15 to 20)
#    0.000    1.333    4.167    1.000    1.167    3.333 
#    3.000    1.667    0.000    0.000    0.000    0.000 
#    0.000    0.000    0.000    0.000    0.000    0.000 
#
# Total GULP energy -148753.329297 kJ/mol
# GULP energy per Si atom -12396.110775 kJ/mol
# Density = 2.223215 g / cm^3
# Si number density = 22.282868 Si / 1000 Ang^3
#
#
#
# Elastic Constant Matrix: (Units=GPa)
#
#
# Indices 1 2 3 4 5 6 
#
# 1 119.7155 32.6305 36.5658 0.0000 -12.3374 0.0000
# 2 32.6305 79.1766 21.1786 0.0000 -13.3845 0.0000
# 3 36.5658 21.1786 89.1114 0.0000 -13.0481 0.0000
# 4 0.0000 0.0000 0.0000 29.5905 0.0000 -14.8694
# 5 -12.3374 -13.3845 -13.0481 0.0000 32.0879 0.0000
# 6 0.0000 0.0000 0.0000 -14.8694 0.0000 47.2752
#
#
#
# Elastic Compliance Matrix: (Units=1/GPa)
#
#
# Indices 1 2 3 4 5 6 
#
# 1 0.010361 -0.003162 -0.003307 0.000000 0.001320 0.000000
# 2 -0.003162 0.015122 -0.001649 0.000000 0.004421 0.000000
# 3 -0.003307 -0.001649 0.013487 0.000000 0.003525 0.000000
# 4 0.000000 0.000000 0.000000 0.040139 0.000000 0.012625
# 5 0.001320 0.004421 0.003525 0.000000 0.034949 0.000000
# 6 0.000000 0.000000 0.000000 0.012625 0.000000 0.025124
#
#
# Mechanical properties :
#
#
# Convention : Reuss Voigt Hill
#
# Bulk Modulus (GPa) = 43.98759 52.08371 48.03565
# Shear Modulus (GPa) = 30.67574 34.96596 32.82085
#
# Velocity S-wave (km/s) = 3.71435 3.96559 3.84203
# Velocity P-wave (km/s) = 6.17888 6.66277 6.42538
#
# Compressibility (1/GPa) = 0.02273368
#
# Stress axis : x y z
#
# Youngs Moduli (GPa) = 96.51445 66.13006 74.14654
#
# Poissons Ratio (x) = 0.20913 0.24518
# Poissons Ratio (y) = 0.30522 0.12226
# Poissons Ratio (z) = 0.31914 0.10904
#
# Static dielectric constant tensor:
#      x y z
#    x 4.186980 0.000000 -0.331790 
#    y 0.000000 4.098690 0.000000 
#    z -0.331790 0.000000 3.974460 
# 
# 
# High freq. dielectric constant tensor:
#      x y z
#    x 1.877990 0.000000 -0.021660 
#    y 0.000000 1.877400 0.000000 
#    z -0.021660 0.000000 1.879190 
# 
# From -- ./inp_files/33494.got.cif
#   From: 2010.03.12/outbox.cif.g09.slc.cpg/sg5_17_cif.got.tgz:33494.got - 2010.03.31 09:47:26.
