data_PCOD8049019
_publ_section_title
;
Structure prediction by ZEFSAII (Michael W. Deem and Ramdas Pophale) SiO2 
 PCOD8049019
Probable space group: C 2
;
_chemical_formula_sum "Si O2"
_cell_formula_units_Z 30
_cell_length_a 12.777949
_cell_length_b 13.562778
_cell_length_c 8.968130
_cell_angle_alpha 90.000000
_cell_angle_beta 75.728217
_cell_angle_gamma 90.000000
_cell_volume 1506.249750
_symmetry_space_group_name_H-M "C 2"
_symmetry_group_IT_number 5
_symmetry_cell_setting 'monoclinic'
loop_
_space_group_symop_operation_xyz
x,y,z
-x,y,-z
1/2+x,1/2+y,z
1/2-x,1/2+y,-z
loop_
_atom_site_type_symbol
_atom_site_label
_atom_site_fract_x
_atom_site_fract_y
_atom_site_fract_z
Si Si1 0.829417 0.714150 0.245426
Si Si2 0.439810 0.009963 0.170882
Si Si3 0.872467 0.733520 0.561214
Si Si4 0.000000 0.063272 0.000000
Si Si5 0.345872 0.046532 0.763653
Si Si6 0.752931 0.362740 0.166470
Si Si7 0.665396 0.415661 0.886541
Si Si8 0.802856 0.172519 0.972922
O O1 0.909726 0.624274 0.193038
O O2 0.810470 0.737236 0.425251
O O3 0.879883 0.810588 0.149001
O O4 0.719247 0.693598 0.193613
O O5 0.533882 0.001471 0.261672
O O6 0.338078 0.935671 0.220651
O O7 0.500000 0.983069 0.000000
O O8 0.845687 0.624769 0.630955
O O9 0.828601 0.821406 0.680157
O O10 0.000000 0.749574 0.500000
O O11 0.922105 0.128285 0.925634
O O12 0.074112 0.993771 0.871224
O O13 0.271992 0.950408 0.757691
O O14 0.292218 0.100737 0.928721
O O15 0.687124 0.419144 0.058822
O O16 0.813089 0.271506 0.066914
#
# Coordination Sequence:
#
# PCOD8049019 Si02
#       8
#     4   4   4   2   4   4   4   4
#     4  11  23  37  59  88 124 164 199 247 308 367
#     4  12  20  36  66  96 115 157 206 267 304 351
#     4  11  24  41  61  88 128 170 198 253 307 378
#     4  10  20  34  62  92 120 154 198 262 316 338
#     4  10  20  40  62  90 118 157 213 252 308 350
#     4  10  23  38  62  93 124 154 211 256 310 357
#     4  10  22  37  62  91 119 159 208 264 297 365
#     4   9  20  38  60  89 122 157 205 260 297 365
#
# _framework density 19.917016
#
# number of rings (size 3 to 8) (size 9 to 14) (size 15 to 20)
#    0.000    1.600    4.000    0.800    3.733    1.067 
#    0.000    0.000    0.000   11.200    0.000    0.000 
#    0.000    0.000    0.000    0.000    0.000    0.000 
#
# Total GULP energy -185852.434051 kJ/mol
# GULP energy per Si atom -12390.162270 kJ/mol
# Density = 1.987168 g / cm^3
# Si number density = 19.917016 Si / 1000 Ang^3
#
#
#
# Elastic Constant Matrix: (Units=GPa)
#
#
# Indices 1 2 3 4 5 6 
#
# 1 130.5530 59.8246 55.7395 0.0000 -3.0507 0.0000
# 2 59.8246 100.4712 30.3302 0.0000 -9.5488 0.0000
# 3 55.7395 30.3302 95.9901 0.0000 9.9923 0.0000
# 4 0.0000 0.0000 0.0000 27.5437 0.0000 3.3061
# 5 -3.0507 -9.5488 9.9923 0.0000 26.0094 0.0000
# 6 0.0000 0.0000 0.0000 3.3061 0.0000 47.5407
#
#
#
# Elastic Compliance Matrix: (Units=1/GPa)
#
#
# Indices 1 2 3 4 5 6 
#
# 1 0.012787 -0.005711 -0.005790 0.000000 0.001627 0.000000
# 2 -0.005711 0.014396 -0.001784 0.000000 0.005301 0.000000
# 3 -0.005790 -0.001784 0.015086 0.000000 -0.007130 0.000000
# 4 0.000000 0.000000 0.000000 0.036611 0.000000 -0.002546
# 5 0.001627 0.005301 -0.007130 0.000000 0.043324 0.000000
# 6 0.000000 0.000000 0.000000 -0.002546 0.000000 0.021212
#
#
# Mechanical properties :
#
#
# Convention : Reuss Voigt Hill
#
# Bulk Modulus (GPa) = 63.70175 68.75588 66.22881
# Shear Modulus (GPa) = 28.53569 32.29343 30.41456
#
# Velocity S-wave (km/s) = 3.78925 4.03103 3.91201
# Velocity P-wave (km/s) = 7.15525 7.50078 7.33005
#
# Compressibility (1/GPa) = 0.01569816
#
# Stress axis : x y z
#
# Youngs Moduli (GPa) = 78.20506 69.46251 66.28778
#
# Poissons Ratio (x) = 0.39672 0.38380
# Poissons Ratio (y) = 0.44665 0.11827
# Poissons Ratio (z) = 0.45280 0.12393
#
# Static dielectric constant tensor:
#      x y z
#    x 3.264840 0.000000 0.314690 
#    y 0.000000 3.862810 0.000000 
#    z 0.314690 0.000000 3.304150 
# 
# 
# High freq. dielectric constant tensor:
#      x y z
#    x 1.779490 0.000000 0.006290 
#    y 0.000000 1.793370 0.000000 
#    z 0.006290 0.000000 1.737680 
# 
# From -- ./inp_files/20601.got.cif
#   From: 2010.03.12/outbox.cif.g09.slc.cpg/sg5_11_cif.got.tgz:20601.got - 2010.03.31 09:47:26.
