data_PCOD8049376
_publ_section_title
;
Structure prediction by ZEFSAII (Michael W. Deem and Ramdas Pophale) SiO2 
 PCOD8049376
Probable space group: C 2
;
_chemical_formula_sum "Si O2"
_cell_formula_units_Z 32
_cell_length_a 25.442525
_cell_length_b 8.571417
_cell_length_c 21.039327
_cell_angle_alpha 90.000000
_cell_angle_beta 160.536583
_cell_angle_gamma 90.000000
_cell_volume 1528.819043
_symmetry_space_group_name_H-M "C 2"
_symmetry_group_IT_number 5
_symmetry_cell_setting 'monoclinic'
loop_
_space_group_symop_operation_xyz
x,y,z
-x,y,-z
1/2+x,1/2+y,z
1/2-x,1/2+y,-z
loop_
_atom_site_type_symbol
_atom_site_label
_atom_site_fract_x
_atom_site_fract_y
_atom_site_fract_z
Si Si1 0.640021 0.457160 0.613732
Si Si2 0.411717 0.979717 0.095240
Si Si3 0.119063 0.120371 0.924193
Si Si4 0.427970 0.124170 0.983067
Si Si5 0.258374 0.629994 0.708986
Si Si6 0.941334 0.990679 0.272048
Si Si7 0.449234 0.483262 0.026059
Si Si8 0.529337 0.127295 0.708521
O O1 0.500000 0.396120 0.500000
O O2 0.741040 0.588354 0.765350
O O3 0.747507 0.311376 0.715485
O O4 0.569087 0.537916 0.470152
O O5 0.507771 0.045953 0.265701
O O6 0.416819 0.794285 0.094778
O O7 0.230158 0.030362 0.895285
O O8 0.488775 0.044866 0.117847
O O9 0.301525 0.072482 0.124064
O O10 0.026137 0.095534 0.752523
O O11 0.056186 0.000699 0.904776
O O12 0.500000 0.051875 0.000000
O O13 0.476593 0.303812 0.040877
O O14 0.409998 0.593152 0.838521
O O15 0.102132 0.576114 0.492754
O O16 0.284189 0.536509 0.804670
O O17 0.962668 0.812695 0.274450
#
# Coordination Sequence:
#
# PCOD8049376 Si02
#       8
#     4   4   4   4   4   4   4   4
#     4  11  23  42  71  98 126 169 219 269 317 381
#     4  10  20  38  66  92 128 168 210 266 322 380
#     4  10  21  38  66  95 124 168 214 261 326 378
#     4  12  25  43  62  93 133 175 211 263 326 386
#     4  10  23  42  64  90 130 165 217 259 313 387
#     4   9  19  40  61  95 129 157 213 270 319 377
#     4  11  24  44  59  93 133 172 208 260 327 385
#     4   9  20  39  64  94 123 166 211 268 321 372
#
# _framework density 20.931189
#
# number of rings (size 3 to 8) (size 9 to 14) (size 15 to 20)
#    0.000    1.750    2.500    1.500    7.000    2.000 
#    4.500    0.000    0.000    0.000    0.000    0.000 
#    0.000    0.000    0.000    0.000    0.000    0.000 
#
# Total GULP energy -198344.381337 kJ/mol
# GULP energy per Si atom -12396.523834 kJ/mol
# Density = 2.088355 g / cm^3
# Si number density = 20.931189 Si / 1000 Ang^3
#
#
#
# Elastic Constant Matrix: (Units=GPa)
#
#
# Indices 1 2 3 4 5 6 
#
# 1 141.6127 49.1699 32.0397 0.0000 -19.9099 0.0000
# 2 49.1699 60.0837 26.9009 -0.0005 1.7423 -0.0004
# 3 32.0397 26.9009 87.2745 -0.0001 -16.9601 -0.0001
# 4 0.0000 -0.0005 -0.0001 30.5698 -0.0004 -7.3463
# 5 -19.9099 1.7423 -16.9601 -0.0004 33.2594 -0.0004
# 6 0.0000 -0.0004 -0.0001 -7.3463 -0.0004 30.2743
#
#
#
# Elastic Compliance Matrix: (Units=1/GPa)
#
#
# Indices 1 2 3 4 5 6 
#
# 1 0.011411 -0.009661 0.000238 0.000000 0.007458 0.000000
# 2 -0.009661 0.028111 -0.007246 0.000000 -0.010951 0.000000
# 3 0.000238 -0.007246 0.015213 0.000000 0.008280 0.000000
# 4 0.000000 0.000000 0.000000 0.034738 0.000001 0.008429
# 5 0.007458 -0.010951 0.008280 0.000001 0.039327 0.000000
# 6 0.000000 0.000000 0.000000 0.008429 0.000000 0.035077
#
#
# Mechanical properties :
#
#
# Convention : Reuss Voigt Hill
#
# Bulk Modulus (GPa) = 46.73508 56.13242 51.43375
# Shear Modulus (GPa) = 24.46812 30.87807 27.67309
#
# Velocity S-wave (km/s) = 3.42274 3.84502 3.64001
# Velocity P-wave (km/s) = 6.16414 6.82555 6.50326
#
# Compressibility (1/GPa) = 0.02139720
#
# Stress axis : x y z
#
# Youngs Moduli (GPa) = 87.63779 35.57271 65.73207
#
# Poissons Ratio (x) = 0.34366 -0.01566
# Poissons Ratio (y) = 0.84666 0.47632
# Poissons Ratio (z) = -0.02087 0.25777
#
# Static dielectric constant tensor:
#      x y z
#    x 3.893800 0.000000 -0.297140 
#    y 0.000000 3.555760 0.000000 
#    z -0.297140 0.000000 3.850870 
# 
# 
# High freq. dielectric constant tensor:
#      x y z
#    x 1.828740 0.000000 -0.023730 
#    y 0.000000 1.806260 0.000000 
#    z -0.023730 0.000000 1.810610 
# 
# From -- ./inp_files/67591.got.cif
#   From: 2010.03.12/outbox.cif.g09.slc.cpg/sg5_34_cif.got.tgz:67591.got - 2010.03.31 09:47:26.
