data_PCOD8049588
_publ_section_title
;
Structure prediction by ZEFSAII (Michael W. Deem and Ramdas Pophale) SiO2 
 PCOD8049588
Probable space group: C 2
;
_chemical_formula_sum "Si O2"
_cell_formula_units_Z 28
_cell_length_a 19.012803
_cell_length_b 8.345915
_cell_length_c 16.673737
_cell_angle_alpha 90.000000
_cell_angle_beta 150.309569
_cell_angle_gamma 90.000000
_cell_volume 1310.488751
_symmetry_space_group_name_H-M "C 2"
_symmetry_group_IT_number 5
_symmetry_cell_setting 'monoclinic'
loop_
_space_group_symop_operation_xyz
x,y,z
-x,y,-z
1/2+x,1/2+y,z
1/2-x,1/2+y,-z
loop_
_atom_site_type_symbol
_atom_site_label
_atom_site_fract_x
_atom_site_fract_y
_atom_site_fract_z
Si Si1 0.000000 0.036451 0.000000
Si Si2 0.959423 0.174905 0.372420
Si Si3 0.970845 0.818772 0.555363
Si Si4 0.652552 0.629415 0.419188
Si Si5 0.652893 0.274911 0.052182
Si Si6 0.855714 0.288379 0.753169
Si Si7 0.500000 0.033395 0.000000
Si Si8 0.950224 0.764015 0.704365
O O1 0.119808 0.138700 0.163778
O O2 0.091275 0.939777 0.025282
O O3 0.821021 0.270111 0.203615
O O4 0.000000 0.245463 0.500000
O O5 0.081923 0.205664 0.428382
O O6 0.937232 0.982723 0.357277
O O7 0.803631 0.854094 0.398255
O O8 0.014205 0.720543 0.678783
O O9 0.000000 0.724671 0.500000
O O10 0.604381 0.738905 0.297161
O O11 0.822803 0.641974 0.599555
O O12 0.607025 0.446896 0.357012
O O13 0.629007 0.141806 0.097087
O O14 0.574408 0.238882 0.890934
O O15 0.956897 0.431622 0.880019
#
# Coordination Sequence:
#
# PCOD8049588 Si02
#       8
#     2   4   4   4   4   4   2   4
#     4  10  22  40  64  90 134 160 218 272 328 388
#     4  10  22  39  63  92 126 168 210 267 320 380
#     4   9  19  39  63  87 124 167 215 259 313 384
#     4  10  22  41  62  90 127 169 216 264 323 387
#     4  11  23  40  63  97 128 167 218 277 321 386
#     4  10  20  41  63  92 121 174 212 266 324 388
#     4  10  22  34  66  90 118 168 222 260 320 388
#     4  10  22  39  66  90 129 170 218 268 319 386
#
# _framework density 21.366074000000001
#
# number of rings (size 3 to 8) (size 9 to 14) (size 15 to 20)
#    0.000    2.000    1.429    1.714   10.000    0.000 
#   10.286    3.571    0.000    0.000    0.000    0.000 
#    0.000    0.000    0.000    0.000    0.000    0.000 
#
# Total GULP energy -173530.385500 kJ/mol
# GULP energy per Si atom -12395.027536 kJ/mol
# Density = 2.131744 g / cm^3
# Si number density = 21.366074 Si / 1000 Ang^3
#
#
#
# Elastic Constant Matrix: (Units=GPa)
#
#
# Indices 1 2 3 4 5 6 
#
# 1 144.5235 10.4767 38.9774 0.0000 -26.3746 0.0000
# 2 10.4767 51.6312 19.4930 0.0000 -1.2168 0.0000
# 3 38.9774 19.4930 127.4187 0.0000 -19.2999 0.0000
# 4 0.0000 0.0000 0.0000 25.9603 0.0000 -0.6059
# 5 -26.3746 -1.2168 -19.2999 0.0000 37.2296 0.0000
# 6 0.0000 0.0000 0.0000 -0.6059 0.0000 21.9540
#
#
#
# Elastic Compliance Matrix: (Units=1/GPa)
#
#
# Indices 1 2 3 4 5 6 
#
# 1 0.008351 -0.000954 -0.001646 0.000000 0.005031 0.000000
# 2 -0.000954 0.020702 -0.003120 0.000000 -0.001617 0.000000
# 3 -0.001646 -0.003120 0.009373 0.000000 0.003591 0.000000
# 4 0.000000 0.000000 0.000000 0.038545 0.000000 0.001064
# 5 0.005031 -0.001617 0.003591 0.000000 0.032233 0.000000
# 6 0.000000 0.000000 0.000000 0.001064 0.000000 0.045579
#
#
# Mechanical properties :
#
#
# Convention : Reuss Voigt Hill
#
# Bulk Modulus (GPa) = 37.05927 51.27418 44.16673
# Shear Modulus (GPa) = 28.53575 34.00384 31.26980
#
# Velocity S-wave (km/s) = 3.65850 3.99367 3.82976
# Velocity P-wave (km/s) = 5.93538 6.73171 6.34605
#
# Compressibility (1/GPa) = 0.02698380
#
# Stress axis : x y z
#
# Youngs Moduli (GPa) = 119.75112 48.30540 106.68996
#
# Poissons Ratio (x) = 0.04610 0.17566
# Poissons Ratio (y) = 0.11428 0.33287
# Poissons Ratio (z) = 0.19716 0.15071
#
# Static dielectric constant tensor:
#      x y z
#    x 4.215400 0.000000 -0.370390 
#    y 0.000000 3.659230 0.000000 
#    z -0.370390 0.000000 3.846970 
# 
# 
# High freq. dielectric constant tensor:
#      x y z
#    x 1.846620 0.000000 -0.024250 
#    y 0.000000 1.816210 0.000000 
#    z -0.024250 0.000000 1.837110 
# 
# From -- ./inp_files/62751.got.cif
#   From: 2010.03.12/outbox.cif.g09.slc.cpg/sg5_32_cif.got.tgz:62751.got - 2010.03.31 09:47:26.
