data_PCOD8049893
_publ_section_title
;
Structure prediction by ZEFSAII (Michael W. Deem and Ramdas Pophale) SiO2 
 PCOD8049893
Probable space group: C 2
;
_chemical_formula_sum "Si O2"
_cell_formula_units_Z 32
_cell_length_a 16.203714
_cell_length_b 11.437890
_cell_length_c 8.461599
_cell_angle_alpha 90.000000
_cell_angle_beta 96.284746
_cell_angle_gamma 90.000000
_cell_volume 1558.816517
_symmetry_space_group_name_H-M "C 2"
_symmetry_group_IT_number 5
_symmetry_cell_setting 'monoclinic'
loop_
_space_group_symop_operation_xyz
x,y,z
-x,y,-z
1/2+x,1/2+y,z
1/2-x,1/2+y,-z
loop_
_atom_site_type_symbol
_atom_site_label
_atom_site_fract_x
_atom_site_fract_y
_atom_site_fract_z
Si Si1 0.753607 0.758430 0.100677
Si Si2 0.362792 0.925314 0.752712
Si Si3 0.299671 0.855200 0.398769
Si Si4 0.254692 0.137418 0.770217
Si Si5 0.818083 0.035909 0.779594
Si Si6 0.369566 0.455664 0.133945
Si Si7 0.509066 0.575009 0.318311
Si Si8 0.528212 0.831270 0.685156
O O1 0.676562 0.848916 0.112216
O O2 0.744991 0.642292 0.202700
O O3 0.839526 0.823653 0.164990
O O4 0.757856 0.724783 0.918696
O O5 0.324518 0.874975 0.583905
O O6 0.463512 0.910454 0.773354
O O7 0.340408 0.063184 0.767527
O O8 0.265139 0.721781 0.382193
O O9 0.377330 0.878614 0.294339
O O10 0.226833 0.941382 0.336273
O O11 0.181209 0.044082 0.765709
O O12 0.894132 0.083611 0.695267
O O13 0.852330 0.981327 0.947934
O O14 0.465461 0.472898 0.204165
O O15 0.500000 0.546830 0.500000
O O16 0.470048 0.698052 0.252682
O O17 0.500000 0.827057 0.500000
#
# Coordination Sequence:
#
# PCOD8049893 Si02
#       8
#     4   4   4   4   4   4   4   4
#     4  10  21  39  62  88 126 160 208 249 313 372
#     4  10  22  37  66  92 128 162 209 261 314 361
#     4  11  22  38  65  95 120 163 210 259 310 373
#     4  10  21  38  61  93 125 164 207 258 307 376
#     4  11  23  38  62  91 123 163 204 255 313 374
#     4  10  21  39  61  88 126 164 203 257 312 364
#     4  11  22  37  62  93 124 155 208 260 305 365
#     4   9  19  38  59  92 124 154 203 261 305 360
#
# _framework density 20.528393000000001
#
# number of rings (size 3 to 8) (size 9 to 14) (size 15 to 20)
#    0.000    1.750    3.750    0.375    5.250    0.000 
#    0.000    1.875    0.000    1.500    0.000    0.000 
#    0.000    0.000    0.000    0.000    0.000    0.000 
#
# Total GULP energy -198368.042707 kJ/mol
# GULP energy per Si atom -12398.002669 kJ/mol
# Density = 2.048167 g / cm^3
# Si number density = 20.528393 Si / 1000 Ang^3
#
#
#
# Elastic Constant Matrix: (Units=GPa)
#
#
# Indices 1 2 3 4 5 6 
#
# 1 78.7356 30.6556 20.4491 0.0000 -8.8050 0.0000
# 2 30.6556 95.9941 33.3089 0.0000 -3.0940 0.0000
# 3 20.4491 33.3089 59.5361 0.0000 -7.1417 0.0000
# 4 0.0000 0.0000 0.0000 25.9009 0.0000 -0.6507
# 5 -8.8050 -3.0940 -7.1417 0.0000 27.7051 0.0000
# 6 0.0000 0.0000 0.0000 -0.6507 0.0000 39.6523
#
#
#
# Elastic Compliance Matrix: (Units=1/GPa)
#
#
# Indices 1 2 3 4 5 6 
#
# 1 0.015307 -0.003846 -0.002656 0.000000 0.003751 0.000000
# 2 -0.003846 0.013898 -0.006620 0.000000 -0.001377 0.000000
# 3 -0.002656 -0.006620 0.021900 0.000000 0.004062 0.000000
# 4 0.000000 0.000000 0.000000 0.038625 0.000000 0.000634
# 5 0.003751 -0.001377 0.004062 0.000000 0.038180 0.000000
# 6 0.000000 0.000000 0.000000 0.000634 0.000000 0.025230
#
#
# Mechanical properties :
#
#
# Convention : Reuss Voigt Hill
#
# Bulk Modulus (GPa) = 40.22263 44.78810 42.50537
# Shear Modulus (GPa) = 26.64252 28.64181 27.64217
#
# Velocity S-wave (km/s) = 3.60646 3.73933 3.67350
# Velocity P-wave (km/s) = 6.08098 6.36462 6.22442
#
# Compressibility (1/GPa) = 0.02486163
#
# Stress axis : x y z
#
# Youngs Moduli (GPa) = 65.32784 71.95219 45.66276
#
# Poissons Ratio (x) = 0.27672 0.12129
# Poissons Ratio (y) = 0.25124 0.30228
# Poissons Ratio (z) = 0.17352 0.47631
#
# Static dielectric constant tensor:
#      x y z
#    x 3.892060 0.000000 -0.209540 
#    y 0.000000 3.774380 0.000000 
#    z -0.209540 0.000000 3.619490 
# 
# 
# High freq. dielectric constant tensor:
#      x y z
#    x 1.792470 0.000000 -0.012400 
#    y 0.000000 1.792800 0.000000 
#    z -0.012400 0.000000 1.797950 
# 
# From -- ./inp_files/23894.got.cif
#   From: 2010.03.12/outbox.cif.g09.slc.cpg/sg5_12_cif.got.tgz:23894.got - 2010.03.31 09:47:26.
