data_PCOD8049377
_publ_section_title
;
Structure prediction by ZEFSAII (Michael W. Deem and Ramdas Pophale) SiO2 
 PCOD8049377
Probable space group: C 2
;
_chemical_formula_sum "Si O2"
_cell_formula_units_Z 26
_cell_length_a 18.972488
_cell_length_b 11.801725
_cell_length_c 6.447721
_cell_angle_alpha 90.000000
_cell_angle_beta 125.809696
_cell_angle_gamma 90.000000
_cell_volume 1170.787366
_symmetry_space_group_name_H-M "C 2"
_symmetry_group_IT_number 5
_symmetry_cell_setting 'monoclinic'
loop_
_space_group_symop_operation_xyz
x,y,z
-x,y,-z
1/2+x,1/2+y,z
1/2-x,1/2+y,-z
loop_
_atom_site_type_symbol
_atom_site_label
_atom_site_fract_x
_atom_site_fract_y
_atom_site_fract_z
Si Si1 0.362284 0.048740 0.562881
Si Si2 0.589873 0.490215 0.538376
Si Si3 0.404753 0.288293 0.767931
Si Si4 0.089568 0.378964 0.037458
Si Si5 0.100721 0.146699 0.196939
Si Si6 0.185957 0.954677 0.097842
Si Si7 0.500000 0.954835 0.500000
O O1 0.351277 0.183151 0.577311
O O2 0.362244 0.990856 0.791986
O O3 0.285090 0.989213 0.304212
O O4 0.449678 0.031536 0.579941
O O5 0.500000 0.517239 0.500000
O O6 0.574016 0.386776 0.356844
O O7 0.622235 0.602114 0.466789
O O8 0.668080 0.449978 0.821662
O O9 0.343723 0.336541 0.847556
O O10 0.500000 0.242965 0.000000
O O11 0.144512 0.267257 0.206043
O O12 0.000000 0.373560 0.000000
O O13 0.070201 0.381185 0.755205
O O14 0.125286 0.054218 0.072814
O O15 0.000000 0.165334 0.000000
#
# Coordination Sequence:
#
# PCOD8049377 Si02
#       7
#     4   4   4   4   4   4   2
#     4  11  26  43  66 101 137 182 227 288 339 409
#     4  11  20  40  67  99 128 175 236 276 337 411
#     4  11  23  43  71  97 135 186 228 282 348 408
#     4   9  21  41  65  93 128 173 217 271 337 410
#     4  10  20  38  66  92 128 172 212 274 342 398
#     4  11  24  41  64 101 136 172 226 290 339 400
#     4  10  22  44  68  94 132 180 232 264 342 420
#
# _framework density 22.207277999999999
#
# number of rings (size 3 to 8) (size 9 to 14) (size 15 to 20)
#    0.000    1.538    3.077    2.308    3.231    7.385 
#    4.154    0.000    0.000    0.000    0.000    0.000 
#    0.000    0.000    0.000    0.000    0.000    0.000 
#
# Total GULP energy -161096.972508 kJ/mol
# GULP energy per Si atom -12392.074808 kJ/mol
# Density = 2.215673 g / cm^3
# Si number density = 22.207278 Si / 1000 Ang^3
#
#
#
# Elastic Constant Matrix: (Units=GPa)
#
#
# Indices 1 2 3 4 5 6 
#
# 1 38.8784 27.9337 29.0279 0.0000 1.4974 0.0000
# 2 27.9337 127.4104 33.0336 0.0000 -15.1357 0.0000
# 3 29.0279 33.0336 140.1738 0.0000 -11.7037 0.0000
# 4 0.0000 0.0000 0.0000 55.3518 0.0000 26.9747
# 5 1.4974 -15.1357 -11.7037 0.0000 37.5419 0.0000
# 6 0.0000 0.0000 0.0000 26.9747 0.0000 41.4070
#
#
#
# Elastic Compliance Matrix: (Units=1/GPa)
#
#
# Indices 1 2 3 4 5 6 
#
# 1 0.035597 -0.006914 -0.006256 0.000000 -0.006158 0.000000
# 2 -0.006914 0.010006 -0.000582 0.000000 0.004128 0.000000
# 3 -0.006256 -0.000582 0.008797 0.000000 0.002758 0.000000
# 4 0.000000 0.000000 0.000000 0.026470 0.000000 -0.017244
# 5 -0.006158 0.004128 0.002758 0.000000 0.029407 0.000000
# 6 0.000000 0.000000 0.000000 -0.017244 0.000000 0.035384
#
#
# Mechanical properties :
#
#
# Convention : Reuss Voigt Hill
#
# Bulk Modulus (GPa) = 37.17999 54.05034 45.61517
# Shear Modulus (GPa) = 27.45310 41.29130 34.37220
#
# Velocity S-wave (km/s) = 3.51981 4.31671 3.93846
# Velocity P-wave (km/s) = 5.77038 7.01692 6.42396
#
# Compressibility (1/GPa) = 0.02689619
#
# Stress axis : x y z
#
# Youngs Moduli (GPa) = 28.09216 99.94357 113.67642
#
# Poissons Ratio (x) = 0.69099 0.71121
# Poissons Ratio (y) = 0.19422 0.06610
# Poissons Ratio (z) = 0.17576 0.05812
#
# Static dielectric constant tensor:
#      x y z
#    x 3.558640 0.000000 -0.273660 
#    y 0.000000 4.596450 0.000000 
#    z -0.273660 0.000000 4.652840 
# 
# 
# High freq. dielectric constant tensor:
#      x y z
#    x 1.852450 0.000000 -0.003540 
#    y 0.000000 1.873920 0.000000 
#    z -0.003540 0.000000 1.878910 
# 
# From -- ./inp_files/9633.got.cif
#   From: 2010.03.12/outbox.cif.g09.slc.cpg/sg5_5_cif.got.tgz:9633.got - 2010.03.31 09:47:26.
