data_PCOD8049525
_publ_section_title
;
Structure prediction by ZEFSAII (Michael W. Deem and Ramdas Pophale) SiO2 
 PCOD8049525
Probable space group: C 2
;
_chemical_formula_sum "Si O2"
_cell_formula_units_Z 24
_cell_length_a 18.375938
_cell_length_b 7.423422
_cell_length_c 9.040991
_cell_angle_alpha 90.000000
_cell_angle_beta 104.308505
_cell_angle_gamma 90.000000
_cell_volume 1195.044544
_symmetry_space_group_name_H-M "C 2"
_symmetry_group_IT_number 5
_symmetry_cell_setting 'monoclinic'
loop_
_space_group_symop_operation_xyz
x,y,z
-x,y,-z
1/2+x,1/2+y,z
1/2-x,1/2+y,-z
loop_
_atom_site_type_symbol
_atom_site_label
_atom_site_fract_x
_atom_site_fract_y
_atom_site_fract_z
Si Si1 0.149294 0.715620 0.888394
Si Si2 0.585000 0.085529 0.561843
Si Si3 0.192055 0.264402 0.601935
Si Si4 0.915470 0.979404 0.934679
Si Si5 0.201731 0.091215 0.909922
Si Si6 0.851711 0.906602 0.587803
O O1 0.100431 0.613091 0.743053
O O2 0.189141 0.891736 0.834207
O O3 0.214450 0.586899 0.982494
O O4 0.095492 0.781491 0.995765
O O5 0.500000 0.020482 0.500000
O O6 0.597045 0.269499 0.478381
O O7 0.638423 0.928036 0.527640
O O8 0.192215 0.242547 0.779873
O O9 0.275421 0.306858 0.591381
O O10 0.162901 0.083453 0.513982
O O11 0.897855 0.968824 0.753580
O O12 0.859028 0.121031 0.987888
O O13 0.000000 0.048291 0.000000
#
# Coordination Sequence:
#
# PCOD8049525 Si02
#       6
#     4   4   4   4   4   4
#     4  10  20  40  65  93 130 170 219 258 320 390
#     4  12  26  42  66 100 137 173 214 271 334 384
#     4  12  24  43  69  97 128 174 225 268 324 392
#     4  10  22  38  64  94 126 170 211 265 328 373
#     4  10  21  40  68  93 125 173 219 264 317 391
#     4  12  23  43  69  97 133 169 220 276 317 392
#
# _framework density 20.082934000000002
#
# number of rings (size 3 to 8) (size 9 to 14) (size 15 to 20)
#    1.000    0.000    5.000    3.000    0.000    2.000 
#    0.000    0.000    0.000    3.000    0.000    0.000 
#    0.000    0.000    0.000    0.000    0.000    0.000 
#
# Total GULP energy -148792.829430 kJ/mol
# GULP energy per Si atom -12399.402453 kJ/mol
# Density = 2.003722 g / cm^3
# Si number density = 20.082934 Si / 1000 Ang^3
#
#
#
# Elastic Constant Matrix: (Units=GPa)
#
#
# Indices 1 2 3 4 5 6 
#
# 1 95.0205 2.3158 35.4433 0.0000 21.1107 0.0000
# 2 2.3158 59.6743 19.2333 0.0000 7.1245 0.0000
# 3 35.4433 19.2333 121.3030 0.0000 13.4289 0.0000
# 4 0.0000 0.0000 0.0000 28.0708 0.0000 -4.0347
# 5 21.1107 7.1245 13.4289 0.0000 27.5498 0.0000
# 6 0.0000 0.0000 0.0000 -4.0347 0.0000 27.4694
#
#
#
# Elastic Compliance Matrix: (Units=1/GPa)
#
#
# Indices 1 2 3 4 5 6 
#
# 1 0.013784 0.001634 -0.003246 0.000000 -0.009403 0.000000
# 2 0.001634 0.018157 -0.002852 0.000000 -0.004557 0.000000
# 3 -0.003246 -0.002852 0.009817 0.000000 -0.001561 0.000000
# 4 0.000000 0.000000 0.000000 0.036393 0.000000 0.005345
# 5 -0.009403 -0.004557 -0.001561 0.000000 0.045442 0.000000
# 6 0.000000 0.000000 0.000000 0.005345 0.000000 0.037189
#
#
# Mechanical properties :
#
#
# Convention : Reuss Voigt Hill
#
# Bulk Modulus (GPa) = 30.45892 43.33140 36.89516
# Shear Modulus (GPa) = 27.67732 31.21836 29.44784
#
# Velocity S-wave (km/s) = 3.71637 3.94696 3.83340
# Velocity P-wave (km/s) = 5.79782 6.51110 6.16478
#
# Compressibility (1/GPa) = 0.03283111
#
# Stress axis : x y z
#
# Youngs Moduli (GPa) = 72.54873 55.07373 101.86314
#
# Poissons Ratio (x) = -0.08998 0.33061
# Poissons Ratio (y) = -0.11853 0.29049
# Poissons Ratio (z) = 0.23546 0.15706
#
# Static dielectric constant tensor:
#      x y z
#    x 3.523500 0.000000 0.049340 
#    y 0.000000 3.475200 0.000000 
#    z 0.049340 0.000000 3.652370 
# 
# 
# High freq. dielectric constant tensor:
#      x y z
#    x 1.779920 0.000000 0.008220 
#    y 0.000000 1.773560 0.000000 
#    z 0.008220 0.000000 1.790760 
# 
# From -- ./inp_files/26508.got.cif
#   From: 2010.03.12/outbox.cif.g09.slc.cpg/sg5_14_cif.got.tgz:26508.got - 2010.03.31 09:47:26.
