data_PCOD8049503
_publ_section_title
;
Structure prediction by ZEFSAII (Michael W. Deem and Ramdas Pophale) SiO2 
 PCOD8049503
Probable space group: C 2
;
_chemical_formula_sum "Si O2"
_cell_formula_units_Z 24
_cell_length_a 12.909802
_cell_length_b 4.851811
_cell_length_c 21.444805
_cell_angle_alpha 90.000000
_cell_angle_beta 51.903116
_cell_angle_gamma 90.000000
_cell_volume 1057.068059
_symmetry_space_group_name_H-M "C 2"
_symmetry_group_IT_number 5
_symmetry_cell_setting 'monoclinic'
loop_
_space_group_symop_operation_xyz
x,y,z
-x,y,-z
1/2+x,1/2+y,z
1/2-x,1/2+y,-z
loop_
_atom_site_type_symbol
_atom_site_label
_atom_site_fract_x
_atom_site_fract_y
_atom_site_fract_z
Si Si1 0.874925 0.992720 0.504085
Si Si2 0.022998 0.131291 0.280603
Si Si3 0.263982 0.017785 0.606809
Si Si4 0.364616 0.653657 0.018123
Si Si5 0.545773 0.167678 0.351345
Si Si6 0.192754 0.153274 0.099442
O O1 0.756079 0.803496 0.572219
O O2 0.000000 0.934353 0.500000
O O3 0.921504 0.869651 0.419700
O O4 0.826424 0.306239 0.532042
O O5 0.997024 0.400334 0.332494
O O6 0.092811 0.227067 0.191668
O O7 0.885153 0.972315 0.314504
O O8 0.114734 0.895972 0.280559
O O9 0.359405 0.045615 0.630977
O O10 0.321260 0.347160 0.052858
O O11 0.246556 0.845367 0.086474
O O12 0.500000 0.733180 0.000000
O O13 0.385277 0.691781 0.936377
#
# Coordination Sequence:
#
# PCOD8049503 Si02
#       6
#     4   4   4   4   4   4
#     4  10  20  40  63  83 116 162 215 267 302 359
#     4  12  25  40  62  96 130 163 204 260 325 379
#     4  11  23  41  62  86 120 164 211 260 315 365
#     4  10  21  43  69  93 124 170 209 245 306 370
#     4  11  24  42  62  90 127 166 213 265 319 371
#     4  10  23  40  63  98 131 157 209 261 296 378
#
# _framework density 22.704311000000001
#
# number of rings (size 3 to 8) (size 9 to 14) (size 15 to 20)
#    0.000    1.333    0.000    7.000    0.000    5.333 
#    0.000    3.333    0.000    0.000    0.000    0.000 
#    0.000    0.000    0.000    0.000    0.000    0.000 
#
# Total GULP energy -148688.672597 kJ/mol
# GULP energy per Si atom -12390.722716 kJ/mol
# Density = 2.265263 g / cm^3
# Si number density = 22.704311 Si / 1000 Ang^3
#
#
#
# Elastic Constant Matrix: (Units=GPa)
#
#
# Indices 1 2 3 4 5 6 
#
# 1 100.9355 36.8989 71.3818 -0.1231 4.8736 -0.0472
# 2 36.8989 124.9629 30.4005 -0.5096 10.7988 -0.1365
# 3 71.3818 30.4005 122.5524 0.3388 10.5319 0.1499
# 4 -0.1231 -0.5096 0.3388 27.5009 0.0103 9.7383
# 5 4.8736 10.7988 10.5319 0.0103 20.3767 0.0522
# 6 -0.0472 -0.1365 0.1499 9.7383 0.0522 25.2077
#
#
#
# Elastic Compliance Matrix: (Units=1/GPa)
#
#
# Indices 1 2 3 4 5 6 
#
# 1 0.017901 -0.003097 -0.009870 0.000137 0.002461 0.000017
# 2 -0.003097 0.009310 -0.000153 0.000166 -0.004114 -0.000010
# 3 -0.009870 -0.000153 0.014376 -0.000219 -0.004989 -0.000010
# 4 0.000137 0.000166 -0.000219 0.042132 0.000013 -0.016274
# 5 0.002461 -0.004114 -0.004989 0.000013 0.053246 -0.000103
# 6 0.000017 -0.000010 -0.000010 -0.016274 -0.000103 0.045958
#
#
# Mechanical properties :
#
#
# Convention : Reuss Voigt Hill
#
# Bulk Modulus (GPa) = 65.15577 69.53481 67.34529
# Shear Modulus (GPa) = 23.33416 28.60169 25.96793
#
# Velocity S-wave (km/s) = 3.20932 3.55314 3.38560
# Velocity P-wave (km/s) = 6.51865 6.89390 6.70890
#
# Compressibility (1/GPa) = 0.01534784
#
# Stress axis : x y z
#
# Youngs Moduli (GPa) = 55.86256 107.41004 69.56004
#
# Poissons Ratio (x) = 0.33261 0.68658
# Poissons Ratio (y) = 0.17299 0.01062
# Poissons Ratio (z) = 0.55139 0.01640
#
# Static dielectric constant tensor:
#      x y z
#    x 3.988090 0.000290 0.220820 
#    y 0.000290 4.240350 -0.000040 
#    z 0.220820 -0.000040 3.891470 
# 
# 
# High freq. dielectric constant tensor:
#      x y z
#    x 1.898130 -0.000010 0.012460 
#    y -0.000010 1.916120 -0.000020 
#    z 0.012460 -0.000020 1.875160 
# 
# From -- ./inp_files/65623.got.cif
#   From: 2010.03.12/outbox.cif.g09.slc.cpg/sg5_33_cif.got.tgz:65623.got - 2010.03.31 09:47:26.
