data_PCOD8049750
_publ_section_title
;
Structure prediction by ZEFSAII (Michael W. Deem and Ramdas Pophale) SiO2 
 PCOD8049750
Probable space group: C 2
;
_chemical_formula_sum "Si O2"
_cell_formula_units_Z 30
_cell_length_a 13.622165
_cell_length_b 25.182577
_cell_length_c 5.054762
_cell_angle_alpha 90.000000
_cell_angle_beta 66.477348
_cell_angle_gamma 90.000000
_cell_volume 1589.901093
_symmetry_space_group_name_H-M "C 2"
_symmetry_group_IT_number 5
_symmetry_cell_setting 'monoclinic'
loop_
_space_group_symop_operation_xyz
x,y,z
-x,y,-z
1/2+x,1/2+y,z
1/2-x,1/2+y,-z
loop_
_atom_site_type_symbol
_atom_site_label
_atom_site_fract_x
_atom_site_fract_y
_atom_site_fract_z
Si Si1 0.071211 0.663230 0.178792
Si Si2 0.111897 0.775681 0.030709
Si Si3 0.787869 0.498279 0.285452
Si Si4 0.898239 0.939811 0.250586
Si Si5 0.500000 0.352183 0.500000
Si Si6 0.238599 0.362624 0.180251
Si Si7 0.882567 0.387627 0.202213
Si Si8 0.374202 0.052464 0.681940
O O1 0.146839 0.714485 0.043665
O O2 0.139508 0.612718 0.200286
O O3 0.000000 0.682682 0.500000
O O4 0.000000 0.647092 0.000000
O O5 0.095336 0.813621 0.302660
O O6 0.207533 0.806824 0.785003
O O7 0.000000 0.773849 0.000000
O O8 0.664968 0.478681 0.476504
O O9 0.871638 0.450971 0.235621
O O10 0.816303 0.545177 0.461994
O O11 0.808356 0.517001 0.962952
O O12 0.814586 0.914897 0.130182
O O13 0.949126 0.888524 0.331577
O O14 0.000000 0.969689 0.000000
O O15 0.138168 0.365604 0.483508
O O16 0.200685 0.363497 0.918482
O O17 0.000000 0.370091 0.000000
O O18 0.500000 0.038539 0.500000
#
# Coordination Sequence:
#
# PCOD8049750 Si02
#       8
#     4   4   4   4   2   4   4   4
#     4  10  21  34  55  82 110 144 183 227 289 346
#     4  11  20  32  54  86 118 151 173 219 292 354
#     4  11  23  35  55  78 106 150 189 221 285 319
#     4  11  23  33  54  84 119 154 181 230 271 359
#     4  12  18  34  54  78 132 144 178 216 282 340
#     4  11  21  35  55  81 113 148 186 218 285 335
#     4  11  23  37  53  78 110 149 195 235 262 329
#     4  11  21  38  55  77 108 144 188 242 272 320
#
# _framework density 18.869097
#
# number of rings (size 3 to 8) (size 9 to 14) (size 15 to 20)
#    0.000    1.067    3.333    6.400    1.867    0.000 
#    0.000    0.000    0.000    0.000    0.000    5.600 
#    0.000    0.000    0.000    0.000    0.000    0.000 
#
# Total GULP energy -185862.402282 kJ/mol
# GULP energy per Si atom -12390.826819 kJ/mol
# Density = 1.882615 g / cm^3
# Si number density = 18.869097 Si / 1000 Ang^3
#
#
#
# Elastic Constant Matrix: (Units=GPa)
#
#
# Indices 1 2 3 4 5 6 
#
# 1 52.5979 14.5860 21.1778 0.0000 -7.4661 0.0000
# 2 14.5860 98.0939 22.9879 0.0000 -10.2071 0.0000
# 3 21.1778 22.9879 93.5536 0.0000 -15.0207 0.0000
# 4 0.0000 0.0000 0.0000 23.7474 0.0000 -0.0734
# 5 -7.4661 -10.2071 -15.0207 0.0000 42.6286 0.0000
# 6 0.0000 0.0000 0.0000 -0.0734 0.0000 4.1459
#
#
#
# Elastic Compliance Matrix: (Units=1/GPa)
#
#
# Indices 1 2 3 4 5 6 
#
# 1 0.021478 -0.002050 -0.004063 0.000000 0.001839 0.000000
# 2 -0.002050 0.011138 -0.002016 0.000000 0.001597 0.000000
# 3 -0.004063 -0.002016 0.012627 0.000000 0.003255 0.000000
# 4 0.000000 0.000000 0.000000 0.042112 0.000000 0.000745
# 5 0.001839 0.001597 0.003255 0.000000 0.025310 0.000000
# 6 0.000000 0.000000 0.000000 0.000745 0.000000 0.241216
#
#
# Mechanical properties :
#
#
# Convention : Reuss Voigt Hill
#
# Bulk Modulus (GPa) = 34.50196 40.19431 37.34813
# Shear Modulus (GPa) = 13.16483 26.47064 19.81774
#
# Velocity S-wave (km/s) = 2.64425 3.74954 3.24431
# Velocity P-wave (km/s) = 5.25808 6.33192 5.81982
#
# Compressibility (1/GPa) = 0.02898386
#
# Stress axis : x y z
#
# Youngs Moduli (GPa) = 46.56009 89.78388 79.19677
#
# Poissons Ratio (x) = 0.18407 0.32177
# Poissons Ratio (y) = 0.09545 0.15968
# Poissons Ratio (z) = 0.18917 0.18102
#
# Static dielectric constant tensor:
#      x y z
#    x 3.382530 0.000000 -0.063360 
#    y 0.000000 3.462050 0.000000 
#    z -0.063360 0.000000 3.872580 
# 
# 
# High freq. dielectric constant tensor:
#      x y z
#    x 1.702610 0.000000 0.014190 
#    y 0.000000 1.709770 0.000000 
#    z 0.014190 0.000000 1.754820 
# 
# From -- ./inp_files/7670.got.cif
#   From: 2010.03.12/outbox.cif.g09.slc.cpg/sg5_4_cif.got.tgz:7670.got - 2010.03.31 09:47:26.
