data_PCOD8049270
_publ_section_title
;
Structure prediction by ZEFSAII (Michael W. Deem and Ramdas Pophale) SiO2 
 PCOD8049270
Probable space group: C 2
;
_chemical_formula_sum "Si O2"
_cell_formula_units_Z 30
_cell_length_a 10.656408
_cell_length_b 14.596097
_cell_length_c 11.842610
_cell_angle_alpha 90.000000
_cell_angle_beta 125.781748
_cell_angle_gamma 90.000000
_cell_volume 1494.341241
_symmetry_space_group_name_H-M "C 2"
_symmetry_group_IT_number 5
_symmetry_cell_setting 'monoclinic'
loop_
_space_group_symop_operation_xyz
x,y,z
-x,y,-z
1/2+x,1/2+y,z
1/2-x,1/2+y,-z
loop_
_atom_site_type_symbol
_atom_site_label
_atom_site_fract_x
_atom_site_fract_y
_atom_site_fract_z
Si Si1 0.210852 0.186180 0.520714
Si Si2 0.858446 0.165493 0.768383
Si Si3 0.826371 0.394774 0.440029
Si Si4 0.949547 0.967461 0.853213
Si Si5 0.175108 0.989455 0.581335
Si Si6 0.460200 0.239054 0.357476
Si Si7 0.699332 0.406442 0.824520
Si Si8 0.000000 0.311535 0.000000
O O1 0.123679 0.168149 0.356933
O O2 0.160196 0.285025 0.540843
O O3 0.395619 0.182469 0.612036
O O4 0.170051 0.100283 0.578491
O O5 0.678669 0.167869 0.705836
O O6 0.917500 0.073683 0.855694
O O7 0.950102 0.251807 0.866185
O O8 0.702857 0.417351 0.276434
O O9 0.763921 0.444579 0.520992
O O10 0.000000 0.430767 0.500000
O O11 0.099839 0.971510 0.851788
O O12 0.000000 0.923042 0.000000
O O13 0.255691 0.955200 0.738616
O O14 0.000000 0.953324 0.500000
O O15 0.500000 0.283116 0.500000
O O16 0.416775 0.321263 0.252489
O O17 0.857017 0.373508 0.967069
#
# Coordination Sequence:
#
# PCOD8049270 Si02
#       8
#     4   4   4   4   4   4   4   2
#     4  11  21  38  67  99 130 164 217 287 336 377
#     4  10  20  37  65  96 125 174 224 262 321 407
#     4  12  26  42  67 108 137 169 223 286 337 387
#     4  12  25  42  65  94 140 179 212 271 340 405
#     4  12  22  41  70  95 130 175 220 274 332 391
#     4   9  18  34  65  94 125 160 215 271 324 384
#     4  11  22  43  65  91 127 178 224 265 333 396
#     4  10  22  40  64  92 124 176 230 264 306 418
#
# _framework density 20.075737
#
# number of rings (size 3 to 8) (size 9 to 14) (size 15 to 20)
#    0.000    1.067    4.667    3.200    1.867    2.133 
#    0.000    0.000    1.467    0.000    0.000    0.000 
#    0.000    0.000    0.000    0.000    0.000    0.000 
#
# Total GULP energy -185941.875983 kJ/mol
# GULP energy per Si atom -12396.125066 kJ/mol
# Density = 2.003004 g / cm^3
# Si number density = 20.075737 Si / 1000 Ang^3
#
#
#
# Elastic Constant Matrix: (Units=GPa)
#
#
# Indices 1 2 3 4 5 6 
#
# 1 129.5993 34.8140 53.5293 0.0000 10.9162 0.0000
# 2 34.8140 93.4332 23.4729 0.0000 3.4528 0.0000
# 3 53.5293 23.4729 116.1205 0.0000 8.5449 0.0000
# 4 0.0000 0.0000 0.0000 23.6764 0.0000 0.5778
# 5 10.9162 3.4528 8.5449 0.0000 33.5448 0.0000
# 6 0.0000 0.0000 0.0000 0.5778 0.0000 13.9520
#
#
#
# Elastic Compliance Matrix: (Units=1/GPa)
#
#
# Indices 1 2 3 4 5 6 
#
# 1 0.010294 -0.002745 -0.004040 0.000000 -0.002038 0.000000
# 2 -0.002745 0.012019 -0.001161 0.000000 -0.000048 0.000000
# 3 -0.004040 -0.001161 0.010806 0.000000 -0.001318 0.000000
# 4 0.000000 0.000000 0.000000 0.042279 0.000000 -0.001751
# 5 -0.002038 -0.000048 -0.001318 0.000000 0.030815 0.000000
# 6 0.000000 0.000000 0.000000 -0.001751 0.000000 0.071747
#
#
# Mechanical properties :
#
#
# Convention : Reuss Voigt Hill
#
# Bulk Modulus (GPa) = 58.04979 62.53173 60.29076
# Shear Modulus (GPa) = 25.05078 29.39040 27.22059
#
# Velocity S-wave (km/s) = 3.53627 3.83035 3.68624
# Velocity P-wave (km/s) = 6.75661 7.12584 6.94368
#
# Compressibility (1/GPa) = 0.01722659
#
# Stress axis : x y z
#
# Youngs Moduli (GPa) = 97.14323 83.20111 92.54187
#
# Poissons Ratio (x) = 0.22841 0.37391
# Poissons Ratio (y) = 0.26668 0.10740
# Poissons Ratio (z) = 0.39250 0.09656
#
# Static dielectric constant tensor:
#      x y z
#    x 3.769180 0.000000 0.192600 
#    y 0.000000 3.612270 0.000000 
#    z 0.192600 0.000000 3.803150 
# 
# 
# High freq. dielectric constant tensor:
#      x y z
#    x 1.781520 0.000000 0.013610 
#    y 0.000000 1.787270 0.000000 
#    z 0.013610 0.000000 1.777590 
# 
# From -- ./inp_files/40081.got.cif
#   From: 2010.03.12/outbox.cif.g09.slc.cpg/sg5_21_cif.got.tgz:40081.got - 2010.03.31 09:47:26.
