data_PCOD8049504
_publ_section_title
;
Structure prediction by ZEFSAII (Michael W. Deem and Ramdas Pophale) SiO2 
 PCOD8049504
Probable space group: C 2
;
_chemical_formula_sum "Si O2"
_cell_formula_units_Z 32
_cell_length_a 18.692234
_cell_length_b 14.982541
_cell_length_c 12.162827
_cell_angle_alpha 90.000000
_cell_angle_beta 28.787908
_cell_angle_gamma 90.000000
_cell_volume 1640.361192
_symmetry_space_group_name_H-M "C 2"
_symmetry_group_IT_number 5
_symmetry_cell_setting 'monoclinic'
loop_
_space_group_symop_operation_xyz
x,y,z
-x,y,-z
1/2+x,1/2+y,z
1/2-x,1/2+y,-z
loop_
_atom_site_type_symbol
_atom_site_label
_atom_site_fract_x
_atom_site_fract_y
_atom_site_fract_z
Si Si1 0.298891 0.984300 0.099589
Si Si2 0.399251 0.225407 0.299741
Si Si3 0.688999 0.275926 0.820589
Si Si4 0.177395 0.889303 0.459280
Si Si5 0.857958 0.518303 0.377748
Si Si6 0.596830 0.508320 0.160381
Si Si7 0.660838 0.474401 0.841232
Si Si8 0.607374 0.625559 0.451477
O O1 0.243070 0.897118 0.245689
O O2 0.223042 0.994264 0.082532
O O3 0.257769 0.067460 0.234899
O O4 0.474145 0.983269 0.845929
O O5 0.362398 0.273183 0.235734
O O6 0.323216 0.285376 0.499041
O O7 0.343114 0.123586 0.370041
O O8 0.579597 0.228830 0.057737
O O9 0.707256 0.378102 0.824627
O O10 0.850778 0.229191 0.607373
O O11 0.006407 0.920320 0.695066
O O12 0.272473 0.954034 0.409915
O O13 0.788545 0.511557 0.591781
O O14 0.488671 0.595311 0.314721
O O15 0.664657 0.529249 0.949521
O O16 0.500000 0.475504 0.000000
O O17 0.500000 0.595498 0.500000
#
# Coordination Sequence:
#
# PCOD8049504 Si02
#       8
#     4   4   4   4   4   4   4   4
#     4  10  22  37  64  90 121 159 205 258 306 355
#     4  11  21  35  64  90 120 160 204 250 307 365
#     4  11  18  36  58  92 116 152 208 251 290 366
#     4  11  20  40  63  92 122 160 209 251 301 373
#     4  12  23  39  65  95 122 158 208 262 305 360
#     4  10  20  40  63  86 121 165 201 243 314 372
#     4  12  22  41  61  87 126 161 200 253 314 371
#     4   9  19  36  61  88 115 155 208 251 297 363
#
# _framework density 19.507899999999999
#
# number of rings (size 3 to 8) (size 9 to 14) (size 15 to 20)
#    0.000    1.250    6.250    3.000    1.750    0.500 
#    2.250    2.500    8.250    0.000    0.000    0.000 
#    0.000    0.000    0.000    0.000    0.000    0.000 
#
# Total GULP energy -198220.435554 kJ/mol
# GULP energy per Si atom -12388.777222 kJ/mol
# Density = 1.946350 g / cm^3
# Si number density = 19.507900 Si / 1000 Ang^3
#
#
#
# Elastic Constant Matrix: (Units=GPa)
#
#
# Indices 1 2 3 4 5 6 
#
# 1 75.8489 17.6535 40.9858 0.0000 13.3452 0.0000
# 2 17.6535 77.0758 29.6151 0.0000 0.8147 0.0000
# 3 40.9858 29.6151 121.8576 0.0000 18.8106 0.0000
# 4 0.0000 0.0000 0.0000 26.3945 0.0000 3.1862
# 5 13.3452 0.8147 18.8106 0.0000 33.9199 0.0000
# 6 0.0000 0.0000 0.0000 3.1862 0.0000 19.1540
#
#
#
# Elastic Compliance Matrix: (Units=1/GPa)
#
#
# Indices 1 2 3 4 5 6 
#
# 1 0.016828 -0.002071 -0.004530 0.000000 -0.004059 0.000000
# 2 -0.002071 0.014659 -0.003213 0.000000 0.002244 0.000000
# 3 -0.004530 -0.003213 0.011181 0.000000 -0.004341 0.000000
# 4 0.000000 0.000000 0.000000 0.038663 0.000000 -0.006431
# 5 -0.004059 0.002244 -0.004341 0.000000 0.033432 0.000000
# 6 0.000000 0.000000 0.000000 -0.006431 0.000000 0.053278
#
#
# Mechanical properties :
#
#
# Convention : Reuss Voigt Hill
#
# Bulk Modulus (GPa) = 43.40079 50.14345 46.77212
# Shear Modulus (GPa) = 25.59529 28.32886 26.96207
#
# Velocity S-wave (km/s) = 3.62615 3.81487 3.72171
# Velocity P-wave (km/s) = 6.31095 6.72044 6.51891
#
# Compressibility (1/GPa) = 0.02304106
#
# Stress axis : x y z
#
# Youngs Moduli (GPa) = 59.42428 68.21658 89.43862
#
# Poissons Ratio (x) = 0.14126 0.40518
# Poissons Ratio (y) = 0.12305 0.28733
# Poissons Ratio (z) = 0.26921 0.21915
#
# Static dielectric constant tensor:
#      x y z
#    x 3.483840 0.000000 0.085120 
#    y 0.000000 3.397550 0.000000 
#    z 0.085120 0.000000 3.781980 
# 
# 
# High freq. dielectric constant tensor:
#      x y z
#    x 1.750180 0.000000 0.003720 
#    y 0.000000 1.738610 0.000000 
#    z 0.003720 0.000000 1.763430 
# 
# From -- ./inp_files/44948.got.cif
#   From: 2010.03.12/outbox.cif.g09.slc.cpg/sg5_23_cif.got.tgz:44948.got - 2010.03.31 09:47:26.
