data_PCOD8049600
_publ_section_title
;
Structure prediction by ZEFSAII (Michael W. Deem and Ramdas Pophale) SiO2 
 PCOD8049600
Probable space group: C 2
;
_chemical_formula_sum "Si O2"
_cell_formula_units_Z 28
_cell_length_a 20.435968
_cell_length_b 12.004144
_cell_length_c 17.505438
_cell_angle_alpha 90.000000
_cell_angle_beta 18.758464
_cell_angle_gamma 90.000000
_cell_volume 1380.980483
_symmetry_space_group_name_H-M "C 2"
_symmetry_group_IT_number 5
_symmetry_cell_setting 'monoclinic'
loop_
_space_group_symop_operation_xyz
x,y,z
-x,y,-z
1/2+x,1/2+y,z
1/2-x,1/2+y,-z
loop_
_atom_site_type_symbol
_atom_site_label
_atom_site_fract_x
_atom_site_fract_y
_atom_site_fract_z
Si Si1 0.705112 0.398580 0.813469
Si Si2 0.294436 0.735822 0.264324
Si Si3 0.613265 0.766723 0.525143
Si Si4 0.783851 0.848345 0.495082
Si Si5 0.614116 0.072602 0.740077
Si Si6 0.500000 0.087135 0.500000
Si Si7 0.849467 0.759591 0.977739
Si Si8 0.500000 0.940761 0.000000
O O1 0.855377 0.344099 0.584079
O O2 0.816643 0.505229 0.729500
O O3 0.500000 0.441113 0.000000
O O4 0.642276 0.308407 0.945703
O O5 0.299655 0.757290 0.350495
O O6 0.092154 0.666284 0.465019
O O7 0.500000 0.678430 0.000000
O O8 0.295977 0.862825 0.229591
O O9 0.688968 0.824501 0.517882
O O10 0.727802 0.649830 0.388128
O O11 0.377232 0.741870 0.799274
O O12 0.029510 0.838616 0.215634
O O13 0.737791 0.977033 0.560323
O O14 0.471675 0.142526 0.840664
O O15 0.464052 0.016090 0.966336
#
# Coordination Sequence:
#
# PCOD8049600 Si02
#       8
#     4   4   4   4   4   2   4   2
#     4  12  22  42  67  93 131 170 215 271 327 382
#     4   9  22  45  63  92 126 172 221 261 316 384
#     4  11  23  41  66  98 128 167 220 265 321 397
#     4  10  23  43  64  91 137 171 211 270 325 380
#     4  10  20  41  66  90 124 170 201 268 334 362
#     4  12  24  40  70  96 126 182 220 262 324 384
#     4  11  23  42  62  98 131 164 219 270 314 399
#     4   8  18  42  66  86 124 162 208 268 308 380
#
# _framework density 20.275449999999999
#
# number of rings (size 3 to 8) (size 9 to 14) (size 15 to 20)
#    0.429    1.143    4.286    1.286    0.000    4.571 
#   12.857    0.000    0.000    0.000    0.000    0.000 
#    0.000    0.000    0.000    0.000    0.000    0.000 
#
# Total GULP energy -173439.336621 kJ/mol
# GULP energy per Si atom -12388.524044 kJ/mol
# Density = 2.022930 g / cm^3
# Si number density = 20.275450 Si / 1000 Ang^3
#
#
#
# Elastic Constant Matrix: (Units=GPa)
#
#
# Indices 1 2 3 4 5 6 
#
# 1 66.8399 37.4898 30.7834 0.0125 13.5169 -0.0041
# 2 37.4898 118.1060 41.5193 0.0184 1.3328 -0.0093
# 3 30.7834 41.5193 125.2227 0.0339 -1.7361 -0.0158
# 4 0.0125 0.0184 0.0339 24.9478 -0.0208 -4.0814
# 5 13.5169 1.3328 -1.7361 -0.0208 39.8897 0.0067
# 6 -0.0041 -0.0093 -0.0158 -4.0814 0.0067 26.0515
#
#
#
# Elastic Compliance Matrix: (Units=1/GPa)
#
#
# Indices 1 2 3 4 5 6 
#
# 1 0.021008 -0.005364 -0.003484 -0.000008 -0.007091 0.000000
# 2 -0.005364 0.010962 -0.002297 -0.000001 0.001351 0.000001
# 3 -0.003484 -0.002297 0.009627 -0.000008 0.001676 0.000003
# 4 -0.000008 -0.000001 -0.000008 0.041138 0.000023 0.006445
# 5 -0.007091 0.001351 0.001676 0.000023 0.027500 -0.000003
# 6 0.000000 0.000001 0.000003 0.006445 -0.000003 0.039395
#
#
# Mechanical properties :
#
#
# Convention : Reuss Voigt Hill
#
# Bulk Modulus (GPa) = 51.79507 58.86153 55.32830
# Shear Modulus (GPa) = 28.03366 31.53620 29.78493
#
# Velocity S-wave (km/s) = 3.72242 3.94812 3.83693
# Velocity P-wave (km/s) = 6.63901 7.06240 6.85397
#
# Compressibility (1/GPa) = 0.01930686
#
# Stress axis : x y z
#
# Youngs Moduli (GPa) = 47.60016 91.22528 103.87156
#
# Poissons Ratio (x) = 0.48930 0.36193
# Poissons Ratio (y) = 0.25531 0.23862
# Poissons Ratio (z) = 0.16586 0.20957
#
# Static dielectric constant tensor:
#      x y z
#    x 3.447520 0.000000 0.063840 
#    y 0.000000 3.810800 0.000010 
#    z 0.063840 0.000010 3.932170 
# 
# 
# High freq. dielectric constant tensor:
#      x y z
#    x 1.771790 0.000000 0.006540 
#    y 0.000000 1.797840 0.000000 
#    z 0.006540 0.000000 1.795660 
# 
# From -- ./inp_files/62892.got.cif
#   From: 2010.03.12/outbox.cif.g09.slc.cpg/sg5_32_cif.got.tgz:62892.got - 2010.03.31 09:47:26.
