data_PCOD8049017
_publ_section_title
;
Structure prediction by ZEFSAII (Michael W. Deem and Ramdas Pophale) SiO2 
 PCOD8049017
Probable space group: C 2
;
_chemical_formula_sum "Si O2"
_cell_formula_units_Z 26
_cell_length_a 17.230228
_cell_length_b 7.687695
_cell_length_c 15.286841
_cell_angle_alpha 90.000000
_cell_angle_beta 138.956645
_cell_angle_gamma 90.000000
_cell_volume 1329.614020
_symmetry_space_group_name_H-M "C 2"
_symmetry_group_IT_number 5
_symmetry_cell_setting 'monoclinic'
loop_
_space_group_symop_operation_xyz
x,y,z
-x,y,-z
1/2+x,1/2+y,z
1/2-x,1/2+y,-z
loop_
_atom_site_type_symbol
_atom_site_label
_atom_site_fract_x
_atom_site_fract_y
_atom_site_fract_z
Si Si1 0.849191 0.924610 0.095480
Si Si2 0.814789 0.240874 0.176141
Si Si3 0.539567 0.232155 0.344713
Si Si4 0.500000 0.155112 0.500000
Si Si5 0.415029 0.836626 0.611340
Si Si6 0.793201 0.399140 0.333756
Si Si7 0.903359 0.033655 0.721416
O O1 0.907509 0.754046 0.190951
O O2 0.955855 0.031683 0.137369
O O3 0.791280 0.045827 0.121574
O O4 0.750050 0.877254 0.942033
O O5 0.764813 0.261664 0.232380
O O6 0.952746 0.277819 0.294963
O O7 0.532645 0.269605 0.443117
O O8 0.624067 0.379179 0.373301
O O9 0.591257 0.040805 0.369183
O O10 0.389024 0.035374 0.378434
O O11 0.342263 0.800988 0.460966
O O12 0.363537 0.718686 0.646215
O O13 0.672380 0.500521 0.255906
#
# Coordination Sequence:
#
# PCOD8049017 Si02
#       7
#     4   4   4   2   4   4   4
#     4   9  22  36  62  87 111 168 195 253 294 363
#     4  11  19  38  61  85 120 154 213 244 297 354
#     4   9  19  39  56  90 112 155 200 239 299 352
#     4  10  20  34  62  86 120 152 198 248 296 346
#     4  10  20  38  60  85 120 157 191 248 297 360
#     4  11  21  36  60  92 119 159 194 260 291 361
#     4   9  23  37  57  89 119 158 197 235 318 346
#
# _framework density 19.554545000000001
#
# number of rings (size 3 to 8) (size 9 to 14) (size 15 to 20)
#    0.923    1.231    3.077    0.923    4.308    1.846 
#    0.000    1.538    0.000    0.000    4.000    0.000 
#    0.000    0.000    0.000    0.000    0.000    0.000 
#
# Total GULP energy -161093.408996 kJ/mol
# GULP energy per Si atom -12391.800692 kJ/mol
# Density = 1.951004 g / cm^3
# Si number density = 19.554545 Si / 1000 Ang^3
#
#
#
# Elastic Constant Matrix: (Units=GPa)
#
#
# Indices 1 2 3 4 5 6 
#
# 1 87.6033 36.7046 28.2865 0.0000 -18.4606 0.0000
# 2 36.7046 99.2112 30.1708 0.0000 -13.4186 0.0000
# 3 28.2865 30.1708 88.7054 0.0000 -9.4592 0.0000
# 4 0.0000 0.0000 0.0000 27.0286 0.0000 -8.2522
# 5 -18.4606 -13.4186 -9.4592 0.0000 15.6595 0.0000
# 6 0.0000 0.0000 0.0000 -8.2522 0.0000 32.3956
#
#
#
# Elastic Compliance Matrix: (Units=1/GPa)
#
#
# Indices 1 2 3 4 5 6 
#
# 1 0.016936 -0.003379 -0.002598 0.000000 0.015501 0.000000
# 2 -0.003379 0.012892 -0.002730 0.000000 0.005415 0.000000
# 3 -0.002598 -0.002730 0.013312 0.000000 0.002639 0.000000
# 4 0.000000 0.000000 0.000000 0.040118 0.000000 0.010219
# 5 0.015501 0.005415 0.002639 0.000000 0.088366 0.000000
# 6 0.000000 0.000000 0.000000 0.010219 0.000000 0.033472
#
#
# Mechanical properties :
#
#
# Convention : Reuss Voigt Hill
#
# Bulk Modulus (GPa) = 38.87237 51.76040 45.31638
# Shear Modulus (GPa) = 21.63696 27.04061 24.33878
#
# Velocity S-wave (km/s) = 3.33001 3.72268 3.53180
# Velocity P-wave (km/s) = 5.89130 6.70857 6.31317
#
# Compressibility (1/GPa) = 0.02572522
#
# Stress axis : x y z
#
# Youngs Moduli (GPa) = 59.04459 77.56610 75.12151
#
# Poissons Ratio (x) = 0.26211 0.19520
# Poissons Ratio (y) = 0.19952 0.20508
# Poissons Ratio (z) = 0.15342 0.21176
#
# Static dielectric constant tensor:
#      x y z
#    x 3.471280 0.000000 0.015200 
#    y 0.000000 3.567690 0.000000 
#    z 0.015200 0.000000 3.445880 
# 
# 
# High freq. dielectric constant tensor:
#      x y z
#    x 1.753340 0.000000 0.006990 
#    y 0.000000 1.745740 0.000000 
#    z 0.006990 0.000000 1.750380 
# 
# From -- ./inp_files/41811.got.cif
#   From: 2010.03.12/outbox.cif.g09.slc.cpg/sg5_21_cif.got.tgz:41811.got - 2010.03.31 09:47:26.
