data_PCOD8049762
_publ_section_title
;
Structure prediction by ZEFSAII (Michael W. Deem and Ramdas Pophale) SiO2 
 PCOD8049762
Probable space group: C 2
;
_chemical_formula_sum "Si O2"
_cell_formula_units_Z 30
_cell_length_a 8.188211
_cell_length_b 20.466675
_cell_length_c 17.681321
_cell_angle_alpha 90.000000
_cell_angle_beta 147.159299
_cell_angle_gamma 90.000000
_cell_volume 1606.921950
_symmetry_space_group_name_H-M "C 2"
_symmetry_group_IT_number 5
_symmetry_cell_setting 'monoclinic'
loop_
_space_group_symop_operation_xyz
x,y,z
-x,y,-z
1/2+x,1/2+y,z
1/2-x,1/2+y,-z
loop_
_atom_site_type_symbol
_atom_site_label
_atom_site_fract_x
_atom_site_fract_y
_atom_site_fract_z
Si Si1 0.193655 0.663510 0.922909
Si Si2 0.192842 0.059543 0.910314
Si Si3 0.687361 0.315971 0.920012
Si Si4 0.000000 0.886437 0.000000
Si Si5 0.266483 0.899224 0.347498
Si Si6 0.853223 0.032279 0.639905
Si Si7 0.823460 0.477475 0.227027
Si Si8 0.220443 0.085841 0.648106
O O1 0.154073 0.739533 0.922016
O O2 0.911482 0.641995 0.762240
O O3 0.500000 0.646265 0.000000
O O4 0.206727 0.624973 0.006895
O O5 0.986354 0.078641 0.757941
O O6 0.500000 0.025251 0.000000
O O7 0.011070 0.008278 0.891036
O O8 0.645463 0.346249 0.987065
O O9 0.433343 0.340655 0.762771
O O10 0.000000 0.333153 0.000000
O O11 0.719534 0.929538 0.860748
O O12 0.500000 0.869864 0.500000
O O13 0.435293 0.936323 0.343583
O O14 0.072215 0.956221 0.312636
O O15 0.500000 0.045768 0.500000
O O16 0.006763 0.047760 0.621535
O O17 0.062183 0.533385 0.305591
O O18 0.000000 0.118248 0.500000
#
# Coordination Sequence:
#
# PCOD8049762 Si02
#       8
#     4   4   4   2   4   4   4   4
#     4  11  23  40  58  85 116 155 198 241 283 341
#     4  11  20  35  59  86 117 153 188 236 295 353
#     4  10  24  40  60  85 113 157 205 239 286 334
#     4  10  22  38  62  86 120 148 194 252 282 346
#     4   9  19  38  58  80 115 149 185 238 287 349
#     4  10  22  35  56  89 117 149 182 233 301 356
#     4  10  21  35  57  91 117 145 187 240 300 353
#     4  12  22  35  58  86 119 151 185 237 296 352
#
# _framework density 18.669231
#
# number of rings (size 3 to 8) (size 9 to 14) (size 15 to 20)
#    0.000    1.600    2.667    3.200    2.800    4.267 
#    0.000    0.000    0.000    0.000    0.000    0.000 
#    0.000    0.000    0.000    0.000    0.000    0.000 
#
# Total GULP energy -185921.944532 kJ/mol
# GULP energy per Si atom -12394.796302 kJ/mol
# Density = 1.862674 g / cm^3
# Si number density = 18.669231 Si / 1000 Ang^3
#
#
#
# Elastic Constant Matrix: (Units=GPa)
#
#
# Indices 1 2 3 4 5 6 
#
# 1 106.4892 30.0452 50.7585 -0.0012 3.4052 0.0020
# 2 30.0452 58.5947 48.1288 -0.0022 -2.0598 0.0013
# 3 50.7585 48.1288 144.4939 0.0027 -10.9931 0.0036
# 4 -0.0012 -0.0022 0.0027 22.6809 -0.0005 -3.3911
# 5 3.4052 -2.0598 -10.9931 -0.0005 35.9492 0.0056
# 6 0.0020 0.0013 0.0036 -3.3911 0.0056 9.4760
#
#
#
# Elastic Compliance Matrix: (Units=1/GPa)
#
#
# Indices 1 2 3 4 5 6 
#
# 1 0.012006 -0.003619 -0.003189 0.000001 -0.002320 0.000001
# 2 -0.003619 0.024625 -0.006960 0.000003 -0.000375 0.000001
# 3 -0.003189 -0.006960 0.010598 -0.000003 0.003144 -0.000005
# 4 0.000001 0.000003 -0.000003 0.046582 -0.000003 0.016670
# 5 -0.002320 -0.000375 0.003144 -0.000003 0.028977 -0.000019
# 6 0.000001 0.000001 -0.000005 0.016670 -0.000019 0.111496
#
#
# Mechanical properties :
#
#
# Convention : Reuss Voigt Hill
#
# Bulk Modulus (GPa) = 50.77312 63.04921 56.91117
# Shear Modulus (GPa) = 18.63012 25.66423 22.14718
#
# Velocity S-wave (km/s) = 3.16239 3.71169 3.44800
# Velocity P-wave (km/s) = 6.37099 7.22592 6.81188
#
# Compressibility (1/GPa) = 0.01969546
#
# Stress axis : x y z
#
# Youngs Moduli (GPa) = 83.29448 40.60881 94.35594
#
# Poissons Ratio (x) = 0.14694 0.30086
# Poissons Ratio (y) = 0.30140 0.65668
# Poissons Ratio (z) = 0.26559 0.28262
#
# Static dielectric constant tensor:
#      x y z
#    x 3.608190 0.000000 -0.077720 
#    y 0.000000 3.211310 -0.000020 
#    z -0.077720 -0.000020 3.790580 
# 
# 
# High freq. dielectric constant tensor:
#      x y z
#    x 1.735650 0.000000 -0.013010 
#    y 0.000000 1.697620 0.000000 
#    z -0.013010 0.000000 1.738160 
# 
# From -- ./inp_files/59910.got.cif
#   From: 2010.03.12/outbox.cif.g09.slc.cpg/sg5_30_cif.got.tgz:59910.got - 2010.03.31 09:47:26.
