data_PCOD8049890
_publ_section_title
;
Structure prediction by ZEFSAII (Michael W. Deem and Ramdas Pophale) SiO2 
 PCOD8049890
Probable space group: C 2
;
_chemical_formula_sum "Si O2"
_cell_formula_units_Z 30
_cell_length_a 8.546626
_cell_length_b 11.466222
_cell_length_c 13.604054
_cell_angle_alpha 90.000000
_cell_angle_beta 116.609804
_cell_angle_gamma 90.000000
_cell_volume 1191.951571
_symmetry_space_group_name_H-M "C 2"
_symmetry_group_IT_number 5
_symmetry_cell_setting 'monoclinic'
loop_
_space_group_symop_operation_xyz
x,y,z
-x,y,-z
1/2+x,1/2+y,z
1/2-x,1/2+y,-z
loop_
_atom_site_type_symbol
_atom_site_label
_atom_site_fract_x
_atom_site_fract_y
_atom_site_fract_z
Si Si1 0.500000 0.545871 0.500000
Si Si2 0.292950 0.490872 0.615764
Si Si3 0.434243 0.915392 0.292115
Si Si4 0.141350 0.904601 0.786618
Si Si5 0.326348 0.558064 0.897714
Si Si6 0.806798 0.591496 0.718498
Si Si7 0.564892 0.226450 0.909601
Si Si8 0.677079 0.722520 0.282697
O O1 0.360138 0.466700 0.523035
O O2 0.619897 0.619520 0.611215
O O3 0.127154 0.416056 0.609243
O O4 0.450150 0.458856 0.733065
O O5 0.252779 0.629752 0.617285
O O6 0.511333 0.791193 0.282154
O O7 0.268349 0.945689 0.176248
O O8 0.569515 0.023274 0.323140
O O9 0.166568 0.842284 0.899394
O O10 0.169162 0.812589 0.703977
O O11 0.278855 0.008975 0.806854
O O12 0.193918 0.615883 0.939840
O O13 0.380967 0.654864 0.832270
O O14 0.500000 0.512752 0.000000
O O15 0.900631 0.707306 0.786532
O O16 0.500000 0.247492 0.000000
#
# Coordination Sequence:
#
# PCOD8049890 Si02
#       8
#     2   4   4   4   4   4   4   4
#     4  10  22  40  64  92 130 164 196 260 316 360
#     4  10  21  38  61  91 120 156 205 254 305 368
#     4   9  19  38  64  86 118 164 207 250 306 369
#     4   9  20  40  62  88 125 162 205 259 309 358
#     4   9  19  36  58  89 126 160 204 260 307 357
#     4   9  20  42  65  92 128 163 206 258 310 366
#     4  10  21  39  65  93 124 167 210 252 307 371
#     4   9  19  40  61  82 120 163 202 254 307 362
#
# _framework density 25.168804999999999
#
# number of rings (size 3 to 8) (size 9 to 14) (size 15 to 20)
#    0.000    2.667    0.000    0.800    0.000    8.000 
#    0.000   36.000    0.000    0.000    0.000    0.000 
#    0.000    0.000    0.000    0.000    0.000    0.000 
#
# Total GULP energy -185833.516514 kJ/mol
# GULP energy per Si atom -12388.901101 kJ/mol
# Density = 2.511152 g / cm^3
# Si number density = 25.168805 Si / 1000 Ang^3
#
#
#
# Elastic Constant Matrix: (Units=GPa)
#
#
# Indices 1 2 3 4 5 6 
#
# 1 148.0245 30.7362 46.5911 0.0000 -41.0884 0.0000
# 2 30.7362 79.1796 7.4240 0.0000 -15.4779 0.0000
# 3 46.5911 7.4240 90.3440 0.0000 -3.4853 0.0000
# 4 0.0000 0.0000 0.0000 10.7183 0.0000 -4.4561
# 5 -41.0884 -15.4779 -3.4853 0.0000 63.0958 0.0000
# 6 0.0000 0.0000 0.0000 -4.4561 0.0000 36.1660
#
#
#
# Elastic Compliance Matrix: (Units=1/GPa)
#
#
# Indices 1 2 3 4 5 6 
#
# 1 0.010480 -0.002438 -0.004974 0.000000 0.005952 0.000000
# 2 -0.002438 0.013918 0.000185 0.000000 0.001837 0.000000
# 3 -0.004974 0.000185 0.013525 0.000000 -0.002447 0.000000
# 4 0.000000 0.000000 0.000000 0.098335 0.000000 0.012116
# 5 0.005952 0.001837 -0.002447 0.000000 0.020040 0.000000
# 6 0.000000 0.000000 0.000000 0.012116 0.000000 0.029143
#
#
# Mechanical properties :
#
#
# Convention : Reuss Voigt Hill
#
# Bulk Modulus (GPa) = 42.61541 54.11677 48.36609
# Shear Modulus (GPa) = 24.07103 37.51581 30.79342
#
# Velocity S-wave (km/s) = 3.09590 3.86498 3.50162
# Velocity P-wave (km/s) = 5.45418 6.43938 5.96715
#
# Compressibility (1/GPa) = 0.02346569
#
# Stress axis : x y z
#
# Youngs Moduli (GPa) = 95.42289 71.85102 73.93929
#
# Poissons Ratio (x) = 0.17519 0.36781
# Poissons Ratio (y) = 0.23266 -0.01365
# Poissons Ratio (z) = 0.47468 -0.01326
#
# Static dielectric constant tensor:
#      x y z
#    x 5.026700 0.000000 -0.258440 
#    y 0.000000 4.391000 0.000000 
#    z -0.258440 0.000000 4.068450 
# 
# 
# High freq. dielectric constant tensor:
#      x y z
#    x 2.033590 0.000000 -0.026910 
#    y 0.000000 1.985650 0.000000 
#    z -0.026910 0.000000 1.959210 
# 
# From -- ./inp_files/50538.got.cif
#   From: 2010.03.12/outbox.cif.g09.slc.cpg/sg5_26_cif.got.tgz:50538.got - 2010.03.31 09:47:26.
