data_PCOD8049251
_publ_section_title
;
Structure prediction by ZEFSAII (Michael W. Deem and Ramdas Pophale) SiO2 
 PCOD8049251
Probable space group: C 2
;
_chemical_formula_sum "Si O2"
_cell_formula_units_Z 20
_cell_length_a 11.557454
_cell_length_b 8.201227
_cell_length_c 9.203479
_cell_angle_alpha 90.000000
_cell_angle_beta 85.596838
_cell_angle_gamma 90.000000
_cell_volume 869.779813
_symmetry_space_group_name_H-M "C 2"
_symmetry_group_IT_number 5
_symmetry_cell_setting 'monoclinic'
loop_
_space_group_symop_operation_xyz
x,y,z
-x,y,-z
1/2+x,1/2+y,z
1/2-x,1/2+y,-z
loop_
_atom_site_type_symbol
_atom_site_label
_atom_site_fract_x
_atom_site_fract_y
_atom_site_fract_z
Si Si1 0.051536 0.232970 0.708309
Si Si2 0.762369 0.167232 0.544550
Si Si3 0.149648 0.474498 0.329937
Si Si4 0.751634 0.705414 0.905060
Si Si5 0.840659 0.031623 0.816667
O O1 0.118102 0.172854 0.558812
O O2 0.139327 0.272279 0.830134
O O3 0.976914 0.395087 0.676211
O O4 0.971391 0.086709 0.773153
O O5 0.753310 0.343396 0.624123
O O6 0.771521 0.029836 0.669653
O O7 0.653549 0.121014 0.450629
O O8 0.191529 0.545111 0.172155
O O9 0.843550 0.854107 0.890403
O O10 0.719577 0.664831 0.072820
#
# Coordination Sequence:
#
# PCOD8049251 Si02
#       5
#     4   4   4   4   4
#     4  10  22  42  63  87 124 166 202 254 314 364
#     4  10  20  37  63  91 122 160 203 254 307 364
#     4  10  20  39  62  89 123 162 206 250 307 368
#     4  11  24  41  63  90 125 167 207 256 308 369
#     4  11  21  39  63  89 123 161 206 254 307 365
#
# _framework density 22.994326000000001
#
# number of rings (size 3 to 8) (size 9 to 14) (size 15 to 20)
#    0.000    1.600    0.000    7.800    0.000    0.000 
#    0.000   24.000    0.000    0.000    0.000    0.000 
#    0.000    0.000    0.000    0.000    0.000    0.000 
#
# Total GULP energy -123967.805979 kJ/mol
# GULP energy per Si atom -12396.780598 kJ/mol
# Density = 2.294199 g / cm^3
# Si number density = 22.994326 Si / 1000 Ang^3
#
#
#
# Elastic Constant Matrix: (Units=GPa)
#
#
# Indices 1 2 3 4 5 6 
#
# 1 91.7283 42.1896 45.5448 0.0000 -4.1016 0.0000
# 2 42.1896 112.1562 33.6158 0.0000 -22.2109 0.0000
# 3 45.5448 33.6158 133.8370 0.0000 -19.5255 0.0000
# 4 0.0000 0.0000 0.0000 49.3678 0.0000 -2.8020
# 5 -4.1016 -22.2109 -19.5255 0.0000 30.2987 0.0000
# 6 0.0000 0.0000 0.0000 -2.8020 0.0000 36.0398
#
#
#
# Elastic Compliance Matrix: (Units=1/GPa)
#
#
# Indices 1 2 3 4 5 6 
#
# 1 0.015452 -0.005387 -0.004610 0.000000 -0.004828 0.000000
# 2 -0.005387 0.012654 -0.000108 0.000000 0.008477 0.000000
# 3 -0.004610 -0.000108 0.009895 0.000000 0.005674 0.000000
# 4 0.000000 0.000000 0.000000 0.020346 0.000000 0.001582
# 5 -0.004828 0.008477 0.005674 0.000000 0.042222 0.000000
# 6 0.000000 0.000000 0.000000 0.001582 0.000000 0.027870
#
#
# Mechanical properties :
#
#
# Convention : Reuss Voigt Hill
#
# Bulk Modulus (GPa) = 56.20745 64.49133 60.34939
# Shear Modulus (GPa) = 32.34569 37.56601 34.95585
#
# Velocity S-wave (km/s) = 3.75464 4.04630 3.90320
# Velocity P-wave (km/s) = 6.57979 7.06665 6.82756
#
# Compressibility (1/GPa) = 0.01779124
#
# Stress axis : x y z
#
# Youngs Moduli (GPa) = 64.71445 79.02746 101.05724
#
# Poissons Ratio (x) = 0.42574 0.46585
# Poissons Ratio (y) = 0.34863 0.01094
# Poissons Ratio (z) = 0.29832 0.00856
#
# Static dielectric constant tensor:
#      x y z
#    x 3.847930 0.000000 0.077820 
#    y 0.000000 4.273450 0.000000 
#    z 0.077820 0.000000 4.375090 
# 
# 
# High freq. dielectric constant tensor:
#      x y z
#    x 1.873090 0.000000 0.001270 
#    y 0.000000 1.907600 0.000000 
#    z 0.001270 0.000000 1.932410 
# 
# From -- ./inp_files/18242.got.cif
#   From: 2010.03.12/outbox.cif.g09.slc.cpg/sg5_10_cif.got.tgz:18242.got - 2010.03.31 09:47:26.
