data_PCOD8049436
_publ_section_title
;
Structure prediction by ZEFSAII (Michael W. Deem and Ramdas Pophale) SiO2 
 PCOD8049436
Probable space group: C 2
;
_chemical_formula_sum "Si O2"
_cell_formula_units_Z 32
_cell_length_a 26.122403
_cell_length_b 8.758942
_cell_length_c 16.559879
_cell_angle_alpha 90.000000
_cell_angle_beta 22.395044
_cell_angle_gamma 90.000000
_cell_volume 1443.563761
_symmetry_space_group_name_H-M "C 2"
_symmetry_group_IT_number 5
_symmetry_cell_setting 'monoclinic'
loop_
_space_group_symop_operation_xyz
x,y,z
-x,y,-z
1/2+x,1/2+y,z
1/2-x,1/2+y,-z
loop_
_atom_site_type_symbol
_atom_site_label
_atom_site_fract_x
_atom_site_fract_y
_atom_site_fract_z
Si Si1 0.653793 0.016860 0.978899
Si Si2 0.639816 0.560415 0.603346
Si Si3 0.477664 0.308639 0.779001
Si Si4 0.420567 0.814526 0.697955
Si Si5 0.243802 0.134708 0.623115
Si Si6 0.594896 0.866023 0.586638
Si Si7 0.142897 0.421672 0.820346
Si Si8 0.317433 0.485474 0.892570
O O1 0.642909 0.199244 0.013514
O O2 0.511726 0.929729 0.192119
O O3 0.698200 0.998372 0.821351
O O4 0.764405 0.944714 0.879080
O O5 0.507620 0.450027 0.797210
O O6 0.676326 0.639565 0.633597
O O7 0.621782 0.690514 0.563647
O O8 0.760268 0.454464 0.396220
O O9 0.606581 0.201582 0.585204
O O10 0.440839 0.379510 0.743951
O O11 0.500000 0.776745 0.500000
O O12 0.535966 0.887293 0.584185
O O13 0.360145 0.662679 0.829190
O O14 0.303377 0.945021 0.866927
O O15 0.146360 0.235139 0.823306
O O16 0.262486 0.957130 0.619240
O O17 0.000000 0.485096 0.000000
#
# Coordination Sequence:
#
# PCOD8049436 Si02
#       8
#     4   4   4   4   4   4   4   4
#     4  10  22  40  65  95 133 169 224 282 341 419
#     4  11  21  38  68  90 124 177 220 276 353 405
#     4  10  20  39  65  94 127 176 221 272 351 413
#     4  11  25  44  69 101 139 181 231 283 347 427
#     4  10  22  40  60  89 130 172 223 279 339 416
#     4  10  21  41  61  92 130 171 214 280 340 399
#     4  11  23  41  63  95 128 172 230 285 343 412
#     4  11  22  43  70  98 141 182 225 294 351 411
#
# _framework density 22.167361
#
# number of rings (size 3 to 8) (size 9 to 14) (size 15 to 20)
#    0.000    1.500    2.500    3.750    1.750    0.000 
#    4.500    3.750    0.000    0.000    0.000    0.000 
#    0.000    0.000    0.000    0.000    0.000    0.000 
#
# Total GULP energy -198225.720070 kJ/mol
# GULP energy per Si atom -12389.107504 kJ/mol
# Density = 2.211691 g / cm^3
# Si number density = 22.167361 Si / 1000 Ang^3
#
#
#
# Elastic Constant Matrix: (Units=GPa)
#
#
# Indices 1 2 3 4 5 6 
#
# 1 132.9304 35.9123 31.5044 0.0000 -7.3196 0.0000
# 2 35.9123 110.3987 32.5684 -0.0001 5.6779 0.0000
# 3 31.5044 32.5684 46.7418 0.0000 4.7251 0.0000
# 4 0.0000 -0.0001 0.0000 32.8711 0.0000 -6.2050
# 5 -7.3196 5.6779 4.7251 0.0000 27.7010 0.0000
# 6 0.0000 0.0000 0.0000 -6.2050 0.0000 44.0874
#
#
#
# Elastic Compliance Matrix: (Units=1/GPa)
#
#
# Indices 1 2 3 4 5 6 
#
# 1 0.009514 -0.001618 -0.005670 0.000000 0.003813 0.000000
# 2 -0.001618 0.011704 -0.006898 0.000000 -0.001650 0.000000
# 3 -0.005670 -0.006898 0.030558 0.000000 -0.005297 0.000000
# 4 0.000000 0.000000 0.000000 0.031252 0.000000 0.004398
# 5 0.003813 -0.001650 -0.005297 0.000000 0.038349 0.000000
# 6 0.000000 0.000000 0.000000 0.004398 0.000000 0.023301
#
#
# Mechanical properties :
#
#
# Convention : Reuss Voigt Hill
#
# Bulk Modulus (GPa) = 42.72924 54.44902 48.58913
# Shear Modulus (GPa) = 27.64706 33.60429 30.62567
#
# Velocity S-wave (km/s) = 3.53540 3.89773 3.72097
# Velocity P-wave (km/s) = 5.99858 6.69868 6.35828
#
# Compressibility (1/GPa) = 0.02340318
#
# Stress axis : x y z
#
# Youngs Moduli (GPa) = 105.11192 85.43966 32.72510
#
# Poissons Ratio (x) = 0.13825 0.18556
# Poissons Ratio (y) = 0.17008 0.22573
# Poissons Ratio (z) = 0.59602 0.58934
#
# Static dielectric constant tensor:
#      x y z
#    x 4.020670 0.000000 -0.343450 
#    y 0.000000 4.316230 0.000000 
#    z -0.343450 0.000000 3.851080 
# 
# 
# High freq. dielectric constant tensor:
#      x y z
#    x 1.882260 0.000000 -0.031410 
#    y 0.000000 1.884920 0.000000 
#    z -0.031410 0.000000 1.831570 
# 
# From -- ./inp_files/57677.got.cif
#   From: 2010.03.12/outbox.cif.g09.slc.cpg/sg5_29_cif.got.tgz:57677.got - 2010.03.31 09:47:26.
