data_PCOD8049403
_publ_section_title
;
Structure prediction by ZEFSAII (Michael W. Deem and Ramdas Pophale) SiO2 
 PCOD8049403
Probable space group: C 2
;
_chemical_formula_sum "Si O2"
_cell_formula_units_Z 20
_cell_length_a 30.195575
_cell_length_b 5.163815
_cell_length_c 17.564860
_cell_angle_alpha 90.000000
_cell_angle_beta 22.238378
_cell_angle_gamma 90.000000
_cell_volume 1036.524701
_symmetry_space_group_name_H-M "C 2"
_symmetry_group_IT_number 5
_symmetry_cell_setting 'monoclinic'
loop_
_space_group_symop_operation_xyz
x,y,z
-x,y,-z
1/2+x,1/2+y,z
1/2-x,1/2+y,-z
loop_
_atom_site_type_symbol
_atom_site_label
_atom_site_fract_x
_atom_site_fract_y
_atom_site_fract_z
Si Si1 0.053174 0.796230 0.202970
Si Si2 0.682085 0.806852 0.016796
Si Si3 0.369190 0.276386 0.369807
Si Si4 0.398310 0.776386 0.224666
Si Si5 0.908440 0.578472 0.704342
O O1 0.146194 0.570600 0.029488
O O2 0.028503 0.761304 0.332619
O O3 0.931973 0.764058 0.351352
O O4 0.107446 0.074998 0.098969
O O5 0.655025 0.840253 0.151097
O O6 0.818827 0.744785 0.795256
O O7 0.410269 0.533641 0.261396
O O8 0.230655 0.270237 0.608297
O O9 0.411569 0.037428 0.251454
O O10 0.500000 0.764551 0.000000
O O11 0.000000 0.458070 0.500000
#
# Coordination Sequence:
#
# PCOD8049403 Si02
#       5
#     4   4   4   4   4
#     4  10  20  39  57  84 120 147 192 240 280 329
#     4  10  20  39  55  81 118 150 193 236 282 329
#     4  10  21  39  60  87 119 147 186 245 277 341
#     4  10  21  40  64  83 116 153 186 228 300 345
#     4  10  21  39  60  79 118 157 193 231 287 330
#
# _framework density 19.295245999999999
#
# number of rings (size 3 to 8) (size 9 to 14) (size 15 to 20)
#    1.200    0.800    2.000    1.800    0.000    0.800 
#    7.200    0.000    0.000    0.000    0.000    0.000 
#    0.000    0.000    0.000    0.000    0.000    0.000 
#
# Total GULP energy -123920.801062 kJ/mol
# GULP energy per Si atom -12392.080106 kJ/mol
# Density = 1.925133 g / cm^3
# Si number density = 19.295246 Si / 1000 Ang^3
#
#
#
# Elastic Constant Matrix: (Units=GPa)
#
#
# Indices 1 2 3 4 5 6 
#
# 1 95.6280 75.8828 61.9967 3.5813 -21.1622 -4.7603
# 2 75.8828 449.2874 134.6038 19.7746 57.9033 -26.3066
# 3 61.9967 134.6038 156.6928 7.0149 23.0036 -9.3467
# 4 3.5813 19.7746 7.0149 -182.6878 4.2447 258.4724
# 5 -21.1622 57.9033 23.0036 4.2447 44.6893 -5.6360
# 6 -4.7603 -26.3066 -9.3467 258.4724 -5.6360 -316.8500
#
#
#
# Elastic Compliance Matrix: (Units=1/GPa)
#
#
# Indices 1 2 3 4 5 6 
#
# 1 0.024771 -0.004203 -0.009430 0.000086 0.022014 -0.000067
# 2 -0.004203 0.004057 -0.000825 0.000094 -0.006838 -0.000051
# 3 -0.009430 -0.000825 0.012247 -0.000007 -0.009697 0.000016
# 4 0.000086 0.000094 -0.000007 0.035517 0.000201 0.028961
# 5 0.022014 -0.006838 -0.009697 0.000201 0.046615 -0.000142
# 6 -0.000067 -0.000051 0.000016 0.028961 -0.000142 0.020476
#
#
# Mechanical properties :
#
#
# Convention : Reuss Voigt Hill
#
# Bulk Modulus (GPa) = 82.25079 138.50830 110.37955
# Shear Modulus (GPa) = 28.30415 -62.36137 -17.02861
#
# Velocity S-wave (km/s) = 3.83417 -5.69120 -2.97396
# Velocity P-wave (km/s) = 7.89437 5.36220 6.74812
#
# Compressibility (1/GPa) = 0.01215794
#
# Stress axis : x y z
#
# Youngs Moduli (GPa) = 40.36969 246.48124 81.65435
#
# Poissons Ratio (x) = 1.03607 0.76996
# Poissons Ratio (y) = 0.16969 0.06740
# Poissons Ratio (z) = 0.38067 0.20346
#
# Static dielectric constant tensor:
#      x y z
#    x 3.329940 0.001450 -0.344940 
#    y 0.001450 3.595230 -0.003780 
#    z -0.344940 -0.003780 3.521940 
# 
# 
# High freq. dielectric constant tensor:
#      x y z
#    x 1.734390 0.000000 -0.026320 
#    y 0.000000 1.764970 0.000000 
#    z -0.026320 0.000000 1.730100 
# 
# From -- ./inp_files/51915.got.cif
#   From: 2010.03.12/outbox.cif.g09.slc.cpg/sg5_26_cif.got.tgz:51915.got - 2010.03.31 09:47:26.
