data_PCOD8049932
_publ_section_title
;
Structure prediction by ZEFSAII (Michael W. Deem and Ramdas Pophale) SiO2 
 PCOD8049932
Probable space group: C 2
;
_chemical_formula_sum "Si O2"
_cell_formula_units_Z 28
_cell_length_a 9.569870
_cell_length_b 15.426727
_cell_length_c 14.761333
_cell_angle_alpha 90.000000
_cell_angle_beta 36.691832
_cell_angle_gamma 90.000000
_cell_volume 1302.120569
_symmetry_space_group_name_H-M "C 2"
_symmetry_group_IT_number 5
_symmetry_cell_setting 'monoclinic'
loop_
_space_group_symop_operation_xyz
x,y,z
-x,y,-z
1/2+x,1/2+y,z
1/2-x,1/2+y,-z
loop_
_atom_site_type_symbol
_atom_site_label
_atom_site_fract_x
_atom_site_fract_y
_atom_site_fract_z
Si Si1 0.264520 0.811000 0.364089
Si Si2 0.867325 0.140699 0.656693
Si Si3 0.061247 0.122671 0.742416
Si Si4 0.635619 0.858556 0.024038
Si Si5 0.096170 0.696679 0.048895
Si Si6 0.037415 0.972198 0.877850
Si Si7 0.567169 0.843837 0.367616
O O1 0.272191 0.706676 0.346987
O O2 0.429279 0.855160 0.204607
O O3 0.342753 0.846938 0.420401
O O4 0.000000 0.843162 0.500000
O O5 0.000819 0.095594 0.670739
O O6 0.585204 0.129824 0.806436
O O7 0.864294 0.244245 0.661798
O O8 0.000000 0.103616 0.500000
O O9 0.823369 0.139565 0.918960
O O10 0.167378 0.044080 0.746404
O O11 0.500000 0.861030 0.000000
O O12 0.821033 0.779018 0.934258
O O13 0.791203 0.944438 0.959586
O O14 0.000000 0.727643 0.000000
O O15 0.215027 0.891897 0.790859
O O16 0.000000 0.006138 0.000000
O O17 0.500000 0.883253 0.500000
#
# Coordination Sequence:
#
# PCOD8049932 Si02
#       7
#     4   4   4   4   4   4   4
#     4  10  22  42  66  97 130 162 221 276 324 378
#     4   9  17  34  65  95 122 168 222 259 315 387
#     4   9  22  36  61  96 127 169 211 273 323 380
#     4  11  23  35  63  97 126 169 220 277 316 372
#     4   9  17  37  62  88 126 166 222 267 311 390
#     4  12  23  43  65  92 135 174 223 263 334 396
#     4  10  21  38  67  96 120 174 216 265 320 393
#
# _framework density 21.503385000000002
#
# number of rings (size 3 to 8) (size 9 to 14) (size 15 to 20)
#    0.000    2.000    2.857    1.286    2.000    5.714 
#    0.000    1.429    3.143    0.000    0.000    0.000 
#    0.000    0.000    0.000    0.000    0.000    0.000 
#
# Total GULP energy -173482.045030 kJ/mol
# GULP energy per Si atom -12391.574645 kJ/mol
# Density = 2.145444 g / cm^3
# Si number density = 21.503385 Si / 1000 Ang^3
#
#
#
# Elastic Constant Matrix: (Units=GPa)
#
#
# Indices 1 2 3 4 5 6 
#
# 1 126.6028 40.1351 32.9310 -0.0124 11.4216 -0.0053
# 2 40.1351 45.8878 13.1914 0.0269 10.0082 -0.0089
# 3 32.9310 13.1914 101.0820 0.0536 7.0934 -0.0069
# 4 -0.0124 0.0269 0.0536 12.9281 -0.0198 -3.4323
# 5 11.4216 10.0082 7.0934 -0.0198 44.5703 -0.0135
# 6 -0.0053 -0.0089 -0.0069 -3.4323 -0.0135 6.5886
#
#
#
# Elastic Compliance Matrix: (Units=1/GPa)
#
#
# Indices 1 2 3 4 5 6 
#
# 1 0.011531 -0.009259 -0.002515 0.000044 -0.000476 0.000016
# 2 -0.009259 0.031078 -0.000724 -0.000082 -0.004491 -0.000018
# 3 -0.002515 -0.000724 0.010872 -0.000053 -0.000923 -0.000021
# 4 0.000044 -0.000082 -0.000053 0.089767 0.000070 0.046764
# 5 -0.000476 -0.004491 -0.000923 0.000070 0.023714 0.000077
# 6 0.000016 -0.000018 -0.000021 0.046764 0.000077 0.176138
#
#
# Mechanical properties :
#
#
# Convention : Reuss Voigt Hill
#
# Bulk Modulus (GPa) = 35.10656 49.56529 42.33592
# Shear Modulus (GPa) = 13.24187 25.30508 19.27347
#
# Velocity S-wave (km/s) = 2.48423 3.43417 2.99707
# Velocity P-wave (km/s) = 4.95884 6.23095 5.63093
#
# Compressibility (1/GPa) = 0.02848470
#
# Stress axis : x y z
#
# Youngs Moduli (GPa) = 86.72296 32.17723 91.98265
#
# Poissons Ratio (x) = 0.29792 0.23134
# Poissons Ratio (y) = 0.80294 0.06661
# Poissons Ratio (z) = 0.21811 0.02330
#
# Static dielectric constant tensor:
#      x y z
#    x 4.311490 0.000020 -0.397470 
#    y 0.000020 3.533440 -0.000030 
#    z -0.397470 -0.000030 4.955820 
# 
# 
# High freq. dielectric constant tensor:
#      x y z
#    x 1.841580 0.000000 0.000850 
#    y 0.000000 1.813220 0.000000 
#    z 0.000850 0.000000 1.851240 
# 
# From -- ./inp_files/51339.got.cif
#   From: 2010.03.12/outbox.cif.g09.slc.cpg/sg5_26_cif.got.tgz:51339.got - 2010.03.31 09:47:26.
