data_PCOD8049527
_publ_section_title
;
Structure prediction by ZEFSAII (Michael W. Deem and Ramdas Pophale) SiO2 
 PCOD8049527
Probable space group: C 2
;
_chemical_formula_sum "Si O2"
_cell_formula_units_Z 28
_cell_length_a 12.461660
_cell_length_b 16.422974
_cell_length_c 8.995889
_cell_angle_alpha 90.000000
_cell_angle_beta 128.361568
_cell_angle_gamma 90.000000
_cell_volume 1443.606213
_symmetry_space_group_name_H-M "C 2"
_symmetry_group_IT_number 5
_symmetry_cell_setting 'monoclinic'
loop_
_space_group_symop_operation_xyz
x,y,z
-x,y,-z
1/2+x,1/2+y,z
1/2-x,1/2+y,-z
loop_
_atom_site_type_symbol
_atom_site_label
_atom_site_fract_x
_atom_site_fract_y
_atom_site_fract_z
Si Si1 0.210372 0.066010 0.231106
Si Si2 0.850071 0.726401 0.319263
Si Si3 0.000000 0.362655 0.000000
Si Si4 0.338456 0.890444 0.359002
Si Si5 0.959629 0.096221 0.208149
Si Si6 0.668099 0.765253 0.904466
Si Si7 0.000000 0.978693 0.500000
Si Si8 0.754576 0.374980 0.616045
O O1 0.331081 0.132033 0.342800
O O2 0.118448 0.083621 0.298359
O O3 0.274036 0.977660 0.273430
O O4 0.126743 0.075841 0.009891
O O5 0.748135 0.783032 0.325182
O O6 0.000000 0.753214 0.500000
O O7 0.811269 0.741990 0.111585
O O8 0.882653 0.417070 0.816098
O O9 0.064359 0.308087 0.926504
O O10 0.500000 0.898470 0.500000
O O11 0.291501 0.824352 0.196621
O O12 0.281186 0.862518 0.466702
O O13 0.915194 0.186022 0.225923
O O14 0.927521 0.034226 0.313684
O O15 0.884225 0.923356 0.474632
#
# Coordination Sequence:
#
# PCOD8049527 Si02
#       8
#     4   4   2   4   4   4   2   4
#     4  10  22  40  61  93 126 167 210 264 319 384
#     4  10  21  41  65  85 125 172 213 258 328 386
#     4  10  20  40  66  86 128 164 214 252 310 394
#     4  12  24  39  64  99 128 162 216 271 319 370
#     4  10  22  39  62  90 127 165 210 259 320 382
#     4  10  22  39  66  94 122 171 214 260 313 390
#     4  12  24  38  64  94 124 168 212 268 324 376
#     4  11  23  40  61  96 124 171 215 261 322 381
#
# _framework density 19.395872000000001
#
# number of rings (size 3 to 8) (size 9 to 14) (size 15 to 20)
#    0.000    1.429    3.571    3.000    5.000    0.000 
#    0.000    0.000    0.000    0.000    0.000    0.000 
#    0.000    0.000    0.000    0.000    0.000    0.000 
#
# Total GULP energy -173512.904457 kJ/mol
# GULP energy per Si atom -12393.778890 kJ/mol
# Density = 1.935173 g / cm^3
# Si number density = 19.395872 Si / 1000 Ang^3
#
#
#
# Elastic Constant Matrix: (Units=GPa)
#
#
# Indices 1 2 3 4 5 6 
#
# 1 102.3447 45.6084 56.6568 0.0000 -9.3249 0.0000
# 2 45.6084 127.9295 46.0579 0.0000 -12.4782 0.0000
# 3 56.6568 46.0579 77.7828 0.0000 -1.8678 0.0000
# 4 0.0000 0.0000 0.0000 26.6834 0.0000 1.8437
# 5 -9.3249 -12.4782 -1.8678 0.0000 39.0461 0.0000
# 6 0.0000 0.0000 0.0000 1.8437 0.0000 19.0883
#
#
#
# Elastic Compliance Matrix: (Units=1/GPa)
#
#
# Indices 1 2 3 4 5 6 
#
# 1 0.017101 -0.001711 -0.011372 0.000000 0.002993 0.000000
# 2 -0.001711 0.010444 -0.004874 0.000000 0.002696 0.000000
# 3 -0.011372 -0.004874 0.023950 0.000000 -0.003128 0.000000
# 4 0.000000 0.000000 0.000000 0.037728 0.000000 -0.003644
# 5 0.002993 0.002696 -0.003128 0.000000 0.027038 0.000000
# 6 0.000000 0.000000 0.000000 -0.003644 0.000000 0.052740
#
#
# Mechanical properties :
#
#
# Convention : Reuss Voigt Hill
#
# Bulk Modulus (GPa) = 64.16958 67.18925 65.67941
# Shear Modulus (GPa) = 23.79729 27.61249 25.70489
#
# Velocity S-wave (km/s) = 3.50655 3.77719 3.64438
# Velocity P-wave (km/s) = 7.03921 7.33070 7.18643
#
# Compressibility (1/GPa) = 0.01558371
#
# Stress axis : x y z
#
# Youngs Moduli (GPa) = 58.47547 95.74605 41.75350
#
# Poissons Ratio (x) = 0.16380 0.47480
# Poissons Ratio (y) = 0.10004 0.20349
# Poissons Ratio (z) = 0.66496 0.46663
#
# Static dielectric constant tensor:
#      x y z
#    x 3.412490 0.000000 0.008410 
#    y 0.000000 3.656520 0.000000 
#    z 0.008410 0.000000 3.784430 
# 
# 
# High freq. dielectric constant tensor:
#      x y z
#    x 1.746860 0.000000 0.001790 
#    y 0.000000 1.752970 0.000000 
#    z 0.001790 0.000000 1.765300 
# 
# From -- ./inp_files/20499.got.cif
#   From: 2010.03.12/outbox.cif.g09.slc.cpg/sg5_11_cif.got.tgz:20499.got - 2010.03.31 09:47:26.
