data_PCOD8049232
_publ_section_title
;
Structure prediction by ZEFSAII (Michael W. Deem and Ramdas Pophale) SiO2 
 PCOD8049232
Probable space group: C 2
;
_chemical_formula_sum "Si O2"
_cell_formula_units_Z 26
_cell_length_a 10.627703
_cell_length_b 17.183778
_cell_length_c 9.085030
_cell_angle_alpha 90.000000
_cell_angle_beta 55.487173
_cell_angle_gamma 90.000000
_cell_volume 1367.134696
_symmetry_space_group_name_H-M "C 2"
_symmetry_group_IT_number 5
_symmetry_cell_setting 'monoclinic'
loop_
_space_group_symop_operation_xyz
x,y,z
-x,y,-z
1/2+x,1/2+y,z
1/2-x,1/2+y,-z
loop_
_atom_site_type_symbol
_atom_site_label
_atom_site_fract_x
_atom_site_fract_y
_atom_site_fract_z
Si Si1 0.360965 0.206700 0.695805
Si Si2 0.536466 0.567448 0.634496
Si Si3 0.669204 0.736889 0.552420
Si Si4 0.847254 0.081907 0.027461
Si Si5 0.000000 0.358867 0.500000
Si Si6 0.545339 0.289609 0.809414
Si Si7 0.691230 0.449408 0.738346
O O1 0.500000 0.176888 0.500000
O O2 0.233072 0.245604 0.676083
O O3 0.297309 0.134047 0.831996
O O4 0.413912 0.271694 0.777107
O O5 0.500000 0.530580 0.500000
O O6 0.607351 0.651758 0.564644
O O7 0.662287 0.512989 0.629554
O O8 0.378735 0.576329 0.831991
O O9 0.538877 0.802599 0.613759
O O10 0.798458 0.748971 0.343127
O O11 0.825855 0.993228 0.095148
O O12 0.000000 0.118813 0.000000
O O13 0.859725 0.414856 0.625823
O O14 0.565041 0.382463 0.804062
O O15 0.500000 0.256835 0.000000
#
# Coordination Sequence:
#
# PCOD8049232 Si02
#       7
#     4   4   4   4   2   4   4
#     4  10  21  37  63  90 124 155 205 249 297 363
#     4  11  22  37  62  84 121 155 209 251 295 362
#     4  10  20  38  58  93 117 162 203 248 302 352
#     4  10  20  37  62  87 117 160 201 242 305 359
#     4  10  22  36  64  86 128 156 202 250 306 360
#     4  10  22  37  60  91 126 157 199 253 301 361
#     4  10  22  40  60  87 120 164 199 244 314 360
#
# _framework density 19.017878
#
# number of rings (size 3 to 8) (size 9 to 14) (size 15 to 20)
#    0.000    1.846    3.846    1.385    3.231    3.077 
#    0.000    0.000    0.000    3.692    0.000    0.000 
#    0.000    0.000    0.000    0.000    0.000    0.000 
#
# Total GULP energy -161153.487664 kJ/mol
# GULP energy per Si atom -12396.422128 kJ/mol
# Density = 1.897459 g / cm^3
# Si number density = 19.017878 Si / 1000 Ang^3
#
#
#
# Elastic Constant Matrix: (Units=GPa)
#
#
# Indices 1 2 3 4 5 6 
#
# 1 102.7418 50.6147 52.5373 0.0000 5.8556 0.0000
# 2 50.6147 126.4169 61.0527 0.0000 -7.5598 0.0000
# 3 52.5373 61.0527 135.6190 0.0000 15.5101 0.0000
# 4 0.0000 0.0000 0.0000 30.4224 0.0000 -7.4782
# 5 5.8556 -7.5598 15.5101 0.0000 26.4788 0.0000
# 6 0.0000 0.0000 0.0000 -7.4782 0.0000 37.7196
#
#
#
# Elastic Compliance Matrix: (Units=1/GPa)
#
#
# Indices 1 2 3 4 5 6 
#
# 1 0.013441 -0.003997 -0.003148 0.000000 -0.002270 0.000000
# 2 -0.003997 0.012254 -0.004790 0.000000 0.007188 0.000000
# 3 -0.003148 -0.004790 0.011604 0.000000 -0.007468 0.000000
# 4 0.000000 0.000000 0.000000 0.034554 0.000000 0.006851
# 5 -0.002270 0.007188 -0.007468 0.000000 0.044695 0.000000
# 6 0.000000 0.000000 0.000000 0.006851 0.000000 0.027870
#
#
# Mechanical properties :
#
#
# Convention : Reuss Voigt Hill
#
# Bulk Modulus (GPa) = 74.46878 77.02080 75.74479
# Shear Modulus (GPa) = 28.94114 32.29570 30.61842
#
# Velocity S-wave (km/s) = 3.90524 4.12536 4.01681
# Velocity P-wave (km/s) = 7.71860 7.95478 7.83758
#
# Compressibility (1/GPa) = 0.01342845
#
# Stress axis : x y z
#
# Youngs Moduli (GPa) = 74.39723 81.60664 86.17954
#
# Poissons Ratio (x) = 0.32618 0.27130
# Poissons Ratio (y) = 0.29737 0.41281
# Poissons Ratio (z) = 0.23421 0.39091
#
# Static dielectric constant tensor:
#      x y z
#    x 3.646940 0.000000 0.039330 
#    y 0.000000 3.481690 0.000000 
#    z 0.039330 0.000000 3.663760 
# 
# 
# High freq. dielectric constant tensor:
#      x y z
#    x 1.731980 0.000000 -0.000840 
#    y 0.000000 1.737080 0.000000 
#    z -0.000840 0.000000 1.740420 
# 
# From -- ./inp_files/20279.got.cif
#   From: 2010.03.12/outbox.cif.g09.slc.cpg/sg5_11_cif.got.tgz:20279.got - 2010.03.31 09:47:26.
