data_PCOD8049682
_publ_section_title
;
Structure prediction by ZEFSAII (Michael W. Deem and Ramdas Pophale) SiO2 
 PCOD8049682
Probable space group: C 2
;
_chemical_formula_sum "Si O2"
_cell_formula_units_Z 28
_cell_length_a 26.065912
_cell_length_b 9.414294
_cell_length_c 7.942160
_cell_angle_alpha 90.000000
_cell_angle_beta 38.594182
_cell_angle_gamma 90.000000
_cell_volume 1215.751594
_symmetry_space_group_name_H-M "C 2"
_symmetry_group_IT_number 5
_symmetry_cell_setting 'monoclinic'
loop_
_space_group_symop_operation_xyz
x,y,z
-x,y,-z
1/2+x,1/2+y,z
1/2-x,1/2+y,-z
loop_
_atom_site_type_symbol
_atom_site_label
_atom_site_fract_x
_atom_site_fract_y
_atom_site_fract_z
Si Si1 0.746389 0.346860 0.711660
Si Si2 0.713994 0.558242 0.528204
Si Si3 0.940645 0.976299 0.282806
Si Si4 0.392943 0.939531 0.550945
Si Si5 0.655899 0.251996 0.281652
Si Si6 0.307244 0.828127 0.099144
Si Si7 0.026817 0.226589 0.244059
O O1 0.700535 0.482779 0.745114
O O2 0.755656 0.223279 0.543305
O O3 0.836160 0.398580 0.538620
O O4 0.693868 0.284706 0.001551
O O5 0.635563 0.551314 0.610855
O O6 0.786968 0.469947 0.252363
O O7 0.998548 0.099855 0.200276
O O8 0.909155 0.875535 0.511778
O O9 0.000000 0.890478 0.000000
O O10 0.395408 0.107368 0.578605
O O11 0.484735 0.875941 0.291707
O O12 0.356546 0.866196 0.806961
O O13 0.725918 0.242769 0.247607
O O14 0.373393 0.733848 0.035923
O O15 0.000000 0.187151 0.500000
#
# Coordination Sequence:
#
# PCOD8049682 Si02
#       7
#     4   4   4   4   4   4   4
#     4  11  24  41  71 103 140 187 234 287 345 418
#     4  11  24  44  65 106 139 185 234 285 343 414
#     4  11  26  46  67 101 145 178 230 293 353 416
#     4  10  20  42  70  98 135 178 232 287 346 409
#     4  10  23  45  71 100 136 182 232 290 351 407
#     4   9  21  39  70  98 132 175 233 283 338 419
#     4  10  22  41  70 100 134 184 228 282 350 417
#
# _framework density 23.031020000000002
#
# number of rings (size 3 to 8) (size 9 to 14) (size 15 to 20)
#    0.000    1.714    2.857    0.000    6.000    1.143 
#    2.571    2.857    0.000    0.000    0.000    0.000 
#    0.000    0.000    0.000    0.000    0.000    0.000 
#
# Total GULP energy -173573.573204 kJ/mol
# GULP energy per Si atom -12398.112372 kJ/mol
# Density = 2.297860 g / cm^3
# Si number density = 23.031020 Si / 1000 Ang^3
#
#
#
# Elastic Constant Matrix: (Units=GPa)
#
#
# Indices 1 2 3 4 5 6 
#
# 1 94.5001 54.9415 20.4738 0.0000 -2.4878 0.0000
# 2 54.9415 134.6053 37.2502 0.0000 -0.8524 0.0000
# 3 20.4738 37.2502 88.0505 0.0000 -10.7256 0.0000
# 4 0.0000 0.0000 0.0000 23.2977 0.0000 0.0070
# 5 -2.4878 -0.8524 -10.7256 0.0000 28.5778 0.0000
# 6 0.0000 0.0000 0.0000 0.0070 0.0000 38.2730
#
#
#
# Elastic Compliance Matrix: (Units=1/GPa)
#
#
# Indices 1 2 3 4 5 6 
#
# 1 0.013958 -0.005458 -0.000847 0.000000 0.000734 0.000000
# 2 -0.005458 0.010584 -0.003383 0.000000 -0.001429 0.000000
# 3 -0.000847 -0.003383 0.013585 0.000000 0.004924 0.000000
# 4 0.000000 0.000000 0.000000 0.042923 0.000000 -0.000008
# 5 0.000734 -0.001429 0.004924 0.000000 0.036862 0.000000
# 6 0.000000 0.000000 0.000000 -0.000008 0.000000 0.026128
#
#
# Mechanical properties :
#
#
# Convention : Reuss Voigt Hill
#
# Bulk Modulus (GPa) = 53.32894 60.27632 56.80263
# Shear Modulus (GPa) = 29.46977 31.66240 30.56609
#
# Velocity S-wave (km/s) = 3.58099 3.71181 3.64699
# Velocity P-wave (km/s) = 6.34850 6.67823 6.51545
#
# Compressibility (1/GPa) = 0.01875154
#
# Stress axis : x y z
#
# Youngs Moduli (GPa) = 71.64246 94.48208 73.61135
#
# Poissons Ratio (x) = 0.51570 0.06235
# Poissons Ratio (y) = 0.39104 0.24899
# Poissons Ratio (z) = 0.06068 0.31959
#
# Static dielectric constant tensor:
#      x y z
#    x 4.489290 0.000000 -0.107480 
#    y 0.000000 4.095000 0.000000 
#    z -0.107480 0.000000 4.249170 
# 
# 
# High freq. dielectric constant tensor:
#      x y z
#    x 1.914710 0.000000 0.008700 
#    y 0.000000 1.906950 0.000000 
#    z 0.008700 0.000000 1.914860 
# 
# From -- ./inp_files/31727.got.cif
#   From: 2010.03.12/outbox.cif.g09.slc.cpg/sg5_16_cif.got.tgz:31727.got - 2010.03.31 09:47:26.
