data_PCOD8049394
_publ_section_title
;
Structure prediction by ZEFSAII (Michael W. Deem and Ramdas Pophale) SiO2 
 PCOD8049394
Probable space group: C 2
;
_chemical_formula_sum "Si O2"
_cell_formula_units_Z 28
_cell_length_a 13.531631
_cell_length_b 14.091351
_cell_length_c 8.852170
_cell_angle_alpha 90.000000
_cell_angle_beta 52.517211
_cell_angle_gamma 90.000000
_cell_volume 1339.427624
_symmetry_space_group_name_H-M "C 2"
_symmetry_group_IT_number 5
_symmetry_cell_setting 'monoclinic'
loop_
_space_group_symop_operation_xyz
x,y,z
-x,y,-z
1/2+x,1/2+y,z
1/2-x,1/2+y,-z
loop_
_atom_site_type_symbol
_atom_site_label
_atom_site_fract_x
_atom_site_fract_y
_atom_site_fract_z
Si Si1 0.354463 0.386710 0.386635
Si Si2 0.500000 0.296911 0.000000
Si Si3 0.143229 0.300493 0.995042
Si Si4 0.857520 0.683852 0.885192
Si Si5 0.000000 0.768960 0.500000
Si Si6 0.642109 0.012294 0.930789
Si Si7 0.376010 0.769147 0.323738
Si Si8 0.627593 0.579881 0.480274
O O1 0.397989 0.363433 0.175893
O O2 0.434504 0.333565 0.438190
O O3 0.211511 0.355007 0.539043
O O4 0.376724 0.497996 0.389711
O O5 0.550566 0.226420 0.077840
O O6 0.228436 0.239762 0.028109
O O7 0.192878 0.406849 0.916194
O O8 0.141639 0.244396 0.837021
O O9 0.015169 0.309544 0.205432
O O10 0.901425 0.700775 0.673103
O O11 0.851725 0.571225 0.918628
O O12 0.743917 0.064620 0.730878
O O13 0.500000 0.008712 0.000000
O O14 0.356465 0.678122 0.446216
O O15 0.500000 0.579486 0.500000
#
# Coordination Sequence:
#
# PCOD8049394 Si02
#       8
#     4   2   4   4   2   4   4   4
#     4  11  21  44  65  96 135 178 231 283 344 413
#     4  10  24  36  66 100 136 162 234 306 328 378
#     4  11  23  45  67  96 141 189 217 288 359 420
#     4  11  22  41  68 100 131 176 236 285 339 413
#     4  10  20  38  68  92 130 174 224 290 338 390
#     4  12  23  43  72  99 133 187 236 280 351 427
#     4  11  23  42  68  97 141 178 230 280 353 422
#     4  12  25  42  71 102 136 189 235 287 354 427
#
# _framework density 20.904451999999999
#
# number of rings (size 3 to 8) (size 9 to 14) (size 15 to 20)
#    0.000    0.857    5.714    1.714    4.000    1.143 
#    2.571    0.000    4.714    0.000    0.000    0.000 
#    0.000    0.000    0.000    0.000    0.000    0.000 
#
# Total GULP energy -173536.382326 kJ/mol
# GULP energy per Si atom -12395.455880 kJ/mol
# Density = 2.085687 g / cm^3
# Si number density = 20.904452 Si / 1000 Ang^3
#
#
#
# Elastic Constant Matrix: (Units=GPa)
#
#
# Indices 1 2 3 4 5 6 
#
# 1 77.2226 33.9113 16.6689 0.0000 -22.0141 0.0000
# 2 33.9113 118.5121 13.3053 0.0000 6.9672 0.0000
# 3 16.6689 13.3053 90.9397 0.0000 -16.9786 0.0000
# 4 0.0000 0.0000 0.0000 29.0254 0.0000 3.5001
# 5 -22.0141 6.9672 -16.9786 0.0000 31.1286 0.0000
# 6 0.0000 0.0000 0.0000 3.5001 0.0000 31.4817
#
#
#
# Elastic Compliance Matrix: (Units=1/GPa)
#
#
# Indices 1 2 3 4 5 6 
#
# 1 0.020516 -0.006852 0.000264 0.000000 0.016186 0.000000
# 2 -0.006852 0.011109 -0.001935 0.000000 -0.008387 0.000000
# 3 0.000264 -0.001935 0.012633 0.000000 0.007510 0.000000
# 4 0.000000 0.000000 0.000000 0.034921 0.000000 -0.003882
# 5 0.016186 -0.008387 0.007510 0.000000 0.049545 0.000000
# 6 0.000000 0.000000 0.000000 -0.003882 0.000000 0.032196
#
#
# Mechanical properties :
#
#
# Convention : Reuss Voigt Hill
#
# Bulk Modulus (GPa) = 36.74885 46.04949 41.39917
# Shear Modulus (GPa) = 26.73277 33.17973 29.95625
#
# Velocity S-wave (km/s) = 3.57992 3.98830 3.78962
# Velocity P-wave (km/s) = 5.89113 6.57914 6.24462
#
# Compressibility (1/GPa) = 0.02721174
#
# Stress axis : x y z
#
# Youngs Moduli (GPa) = 48.74351 90.01837 79.15590
#
# Poissons Ratio (x) = 0.61677 -0.02089
# Poissons Ratio (y) = 0.33397 0.15320
# Poissons Ratio (z) = -0.01287 0.17422
#
# Static dielectric constant tensor:
#      x y z
#    x 3.923440 0.000000 -0.110810 
#    y 0.000000 3.897520 0.000000 
#    z -0.110810 0.000000 4.190210 
# 
# 
# High freq. dielectric constant tensor:
#      x y z
#    x 1.814560 0.000000 -0.017080 
#    y 0.000000 1.815050 0.000000 
#    z -0.017080 0.000000 1.830350 
# 
# From -- ./inp_files/24589.got.cif
#   From: 2010.03.12/outbox.cif.g09.slc.cpg/sg5_13_cif.got.tgz:24589.got - 2010.03.31 09:47:26.
