data_PCOD8049874
_publ_section_title
;
Structure prediction by ZEFSAII (Michael W. Deem and Ramdas Pophale) SiO2 
 PCOD8049874
Probable space group: C 2
;
_chemical_formula_sum "Si O2"
_cell_formula_units_Z 30
_cell_length_a 15.181044
_cell_length_b 9.000956
_cell_length_c 11.248246
_cell_angle_alpha 90.000000
_cell_angle_beta 61.011326
_cell_angle_gamma 90.000000
_cell_volume 1344.441527
_symmetry_space_group_name_H-M "C 2"
_symmetry_group_IT_number 5
_symmetry_cell_setting 'monoclinic'
loop_
_space_group_symop_operation_xyz
x,y,z
-x,y,-z
1/2+x,1/2+y,z
1/2-x,1/2+y,-z
loop_
_atom_site_type_symbol
_atom_site_label
_atom_site_fract_x
_atom_site_fract_y
_atom_site_fract_z
Si Si1 0.365711 0.165060 0.973994
Si Si2 0.628578 0.052693 0.523314
Si Si3 0.500000 0.407588 0.000000
Si Si4 0.801704 0.223012 0.519269
Si Si5 0.401545 0.647611 0.220616
Si Si6 0.758969 0.035527 0.754229
Si Si7 0.816130 0.708974 0.734571
Si Si8 0.538469 0.962913 0.805244
O O1 0.344548 0.178148 0.850159
O O2 0.452411 0.042394 0.936625
O O3 0.405988 0.313804 0.010986
O O4 0.262449 0.107281 0.102323
O O5 0.690278 0.185444 0.545698
O O6 0.607497 0.118464 0.404210
O O7 0.531001 0.010714 0.668643
O O8 0.693368 0.900601 0.473430
O O9 0.461475 0.504000 0.136817
O O10 0.879992 0.147412 0.375900
O O11 0.822414 0.153008 0.635090
O O12 0.297919 0.657879 0.215026
O O13 0.474416 0.789727 0.155402
O O14 0.650971 0.010968 0.764790
O O15 0.824452 0.886345 0.713807
#
# Coordination Sequence:
#
# PCOD8049874 Si02
#       8
#     4   4   2   4   4   4   4   4
#     4  12  25  39  60  93 123 167 201 257 304 371
#     4   9  18  35  61  92 115 162 200 255 301 364
#     4  12  26  38  62  92 126 158 216 246 308 364
#     4   9  18  35  64  88 119 156 212 247 299 361
#     4   9  22  41  64  91 116 162 203 258 302 365
#     4  10  21  38  59  87 123 163 200 250 304 365
#     4  10  24  39  61  91 124 159 207 253 313 354
#     4   9  19  40  62  84 121 159 203 242 309 370
#
# _framework density 22.314098999999999
#
# number of rings (size 3 to 8) (size 9 to 14) (size 15 to 20)
#    0.000    2.133    1.333    2.400    9.333    1.600 
#    0.000    1.333    0.000    1.600    0.000    0.000 
#    0.000    0.000    0.000    0.000    0.000    0.000 
#
# Total GULP energy -185871.969573 kJ/mol
# GULP energy per Si atom -12391.464638 kJ/mol
# Density = 2.226331 g / cm^3
# Si number density = 22.314099 Si / 1000 Ang^3
#
#
#
# Elastic Constant Matrix: (Units=GPa)
#
#
# Indices 1 2 3 4 5 6 
#
# 1 26.9110 15.8856 23.4301 0.0000 15.6830 0.0000
# 2 15.8856 118.6847 54.6121 0.0000 4.0062 0.0000
# 3 23.4301 54.6121 129.7139 0.0000 21.0280 0.0000
# 4 0.0000 0.0000 0.0000 49.1454 0.0000 1.4355
# 5 15.6830 4.0062 21.0280 0.0000 33.4887 0.0000
# 6 0.0000 0.0000 0.0000 1.4355 0.0000 10.4308
#
#
#
# Elastic Compliance Matrix: (Units=1/GPa)
#
#
# Indices 1 2 3 4 5 6 
#
# 1 0.057738 -0.004828 -0.004572 0.000000 -0.023591 0.000000
# 2 -0.004828 0.010940 -0.004329 0.000000 0.003670 0.000000
# 3 -0.004572 -0.004329 0.011052 0.000000 -0.004280 0.000000
# 4 0.000000 0.000000 0.000000 0.020430 0.000000 -0.002812
# 5 -0.023591 0.003670 -0.004280 0.000000 0.043157 0.000000
# 6 0.000000 0.000000 0.000000 -0.002812 0.000000 0.096257
#
#
# Mechanical properties :
#
#
# Convention : Reuss Voigt Hill
#
# Bulk Modulus (GPa) = 19.13079 51.46280 35.29679
# Shear Modulus (GPa) = 17.57740 30.70508 24.14124
#
# Velocity S-wave (km/s) = 2.80969 3.71352 3.29277
# Velocity P-wave (km/s) = 4.37240 6.44205 5.50535
#
# Compressibility (1/GPa) = 0.05227175
#
# Stress axis : x y z
#
# Youngs Moduli (GPa) = 17.31952 91.40851 90.48470
#
# Poissons Ratio (x) = 0.44131 0.41372
# Poissons Ratio (y) = 0.08362 0.39170
# Poissons Ratio (z) = 0.07919 0.39570
#
# Static dielectric constant tensor:
#      x y z
#    x 3.474140 0.000000 0.121120 
#    y 0.000000 4.207430 0.000000 
#    z 0.121120 0.000000 4.540750 
# 
# 
# High freq. dielectric constant tensor:
#      x y z
#    x 1.826910 0.000000 0.014810 
#    y 0.000000 1.885150 0.000000 
#    z 0.014810 0.000000 1.903220 
# 
# From -- ./inp_files/44305.got.cif
#   From: 2010.03.12/outbox.cif.g09.slc.cpg/sg5_23_cif.got.tgz:44305.got - 2010.03.31 09:47:26.
