data_PCOD8049623
_publ_section_title
;
Structure prediction by ZEFSAII (Michael W. Deem and Ramdas Pophale) SiO2 
 PCOD8049623
Probable space group: C 2
;
_chemical_formula_sum "Si O2"
_cell_formula_units_Z 20
_cell_length_a 13.532966
_cell_length_b 7.083279
_cell_length_c 17.878427
_cell_angle_alpha 90.000000
_cell_angle_beta 148.912538
_cell_angle_gamma 90.000000
_cell_volume 884.906553
_symmetry_space_group_name_H-M "C 2"
_symmetry_group_IT_number 5
_symmetry_cell_setting 'monoclinic'
loop_
_space_group_symop_operation_xyz
x,y,z
-x,y,-z
1/2+x,1/2+y,z
1/2-x,1/2+y,-z
loop_
_atom_site_type_symbol
_atom_site_label
_atom_site_fract_x
_atom_site_fract_y
_atom_site_fract_z
Si Si1 0.968251 0.544340 0.063631
Si Si2 0.013290 0.424287 0.684499
Si Si3 0.883989 0.038477 0.631992
Si Si4 0.647596 0.254821 0.874383
Si Si5 0.619633 0.619674 0.651239
O O1 0.848410 0.693623 0.035851
O O2 0.177888 0.520578 0.236677
O O3 0.849573 0.349939 0.984525
O O4 0.000000 0.620397 0.000000
O O5 0.927681 0.256736 0.682172
O O6 0.841225 0.519809 0.526538
O O7 0.127255 0.572028 0.808579
O O8 0.151336 0.325117 0.712036
O O9 0.999068 0.987182 0.629751
O O10 0.965314 0.894482 0.746791
O O11 0.500000 0.651226 0.500000
#
# Coordination Sequence:
#
# PCOD8049623 Si02
#       5
#     4   4   4   4   4
#     4  12  27  51  73 109 155 202 257 315 375 456
#     4  10  21  42  78 110 150 198 246 313 385 440
#     4  10  20  41  76 109 153 188 250 316 373 451
#     4  12  26  48  74 111 155 205 249 321 379 444
#     4  10  22  45  74 110 157 185 253 325 358 461
#
# _framework density 22.601258000000001
#
# number of rings (size 3 to 8) (size 9 to 14) (size 15 to 20)
#    1.200    0.000    4.000    2.400    5.600    0.000 
#    3.600    3.000    0.000    0.000    0.000    0.000 
#    0.000    0.000    0.000    0.000    0.000    0.000 
#
# Total GULP energy -123920.330323 kJ/mol
# GULP energy per Si atom -12392.033032 kJ/mol
# Density = 2.254982 g / cm^3
# Si number density = 22.601258 Si / 1000 Ang^3
#
#
#
# Elastic Constant Matrix: (Units=GPa)
#
#
# Indices 1 2 3 4 5 6 
#
# 1 96.2419 36.6679 59.9778 0.0000 -5.0794 0.0000
# 2 36.6679 133.6234 72.6599 -0.0002 -9.7240 -0.0001
# 3 59.9778 72.6599 128.0121 -0.0005 1.1971 -0.0003
# 4 0.0000 -0.0002 -0.0005 57.8471 -0.0001 0.4730
# 5 -5.0794 -9.7240 1.1971 -0.0001 41.3004 -0.0001
# 6 0.0000 -0.0001 -0.0003 0.4730 -0.0001 27.8292
#
#
#
# Elastic Compliance Matrix: (Units=1/GPa)
#
#
# Indices 1 2 3 4 5 6 
#
# 1 0.014847 -0.000199 -0.006862 0.000000 0.001978 0.000000
# 2 -0.000199 0.011143 -0.006258 0.000000 0.002781 0.000000
# 3 -0.006862 -0.006258 0.014604 0.000000 -0.002741 0.000000
# 4 0.000000 0.000000 0.000000 0.017289 0.000000 -0.000294
# 5 0.001978 0.002781 -0.002741 0.000000 0.025190 0.000000
# 6 0.000000 0.000000 0.000000 -0.000294 0.000000 0.035939
#
#
# Mechanical properties :
#
#
# Convention : Reuss Voigt Hill
#
# Bulk Modulus (GPa) = 71.64625 77.38764 74.51695
# Shear Modulus (GPa) = 33.26620 37.96678 35.61649
#
# Velocity S-wave (km/s) = 3.84066 4.10305 3.97402
# Velocity P-wave (km/s) = 7.17193 7.53402 7.35520
#
# Compressibility (1/GPa) = 0.01395746
#
# Stress axis : x y z
#
# Youngs Moduli (GPa) = 67.35374 89.73866 68.47287
#
# Poissons Ratio (x) = 0.01786 0.46985
# Poissons Ratio (y) = 0.01340 0.42849
# Poissons Ratio (z) = 0.46217 0.56157
#
# Static dielectric constant tensor:
#      x y z
#    x 3.949130 0.000000 0.017470 
#    y 0.000000 3.938590 0.000000 
#    z 0.017470 0.000000 4.055260 
# 
# 
# High freq. dielectric constant tensor:
#      x y z
#    x 1.869050 0.000000 -0.000300 
#    y 0.000000 1.876880 0.000000 
#    z -0.000300 0.000000 1.904100 
# 
# From -- ./inp_files/61340.got.cif
#   From: 2010.03.12/outbox.cif.g09.slc.cpg/sg5_31_cif.got.tgz:61340.got - 2010.03.31 09:47:26.
