data_PCOD8049563
_publ_section_title
;
Structure prediction by ZEFSAII (Michael W. Deem and Ramdas Pophale) SiO2 
 PCOD8049563
Probable space group: C 2
;
_chemical_formula_sum "Si O2"
_cell_formula_units_Z 26
_cell_length_a 19.837049
_cell_length_b 9.520609
_cell_length_c 7.516428
_cell_angle_alpha 90.000000
_cell_angle_beta 51.694094
_cell_angle_gamma 90.000000
_cell_volume 1113.945278
_symmetry_space_group_name_H-M "C 2"
_symmetry_group_IT_number 5
_symmetry_cell_setting 'monoclinic'
loop_
_space_group_symop_operation_xyz
x,y,z
-x,y,-z
1/2+x,1/2+y,z
1/2-x,1/2+y,-z
loop_
_atom_site_type_symbol
_atom_site_label
_atom_site_fract_x
_atom_site_fract_y
_atom_site_fract_z
Si Si1 0.000000 0.620651 0.500000
Si Si2 0.438907 0.289305 0.941484
Si Si3 0.837647 0.108229 0.478931
Si Si4 0.772506 0.844823 0.402761
Si Si5 0.819884 0.506677 0.735822
Si Si6 0.523482 0.584912 0.260799
Si Si7 0.191802 0.220426 0.084379
O O1 0.962032 0.711532 0.722575
O O2 0.922475 0.524568 0.556868
O O3 0.443859 0.454514 0.904877
O O4 0.500000 0.236383 0.000000
O O5 0.340555 0.266655 0.161243
O O6 0.786153 0.214651 0.428342
O O7 0.808644 0.145118 0.724436
O O8 0.939096 0.142058 0.296973
O O9 0.819861 0.941256 0.473599
O O10 0.709074 0.951202 0.407395
O O11 0.795459 0.388200 0.922935
O O12 0.772501 0.653947 0.849336
O O13 0.500000 0.539307 0.500000
O O14 0.601048 0.696543 0.131952
#
# Coordination Sequence:
#
# PCOD8049563 Si02
#       7
#     2   4   4   4   4   4   4
#     4  12  28  44  70 102 142 182 230 296 354 404
#     4  12  24  45  69 104 138 182 233 282 345 427
#     4  10  23  40  66  96 136 180 227 290 344 406
#     4  11  24  42  67  99 139 179 231 286 348 414
#     4  11  25  43  69  98 135 183 233 285 355 411
#     4  10  20  40  70  96 133 184 228 282 341 407
#     4  10  23  43  70  98 139 181 241 282 346 423
#
# _framework density 23.340464999999998
#
# number of rings (size 3 to 8) (size 9 to 14) (size 15 to 20)
#    0.000    1.231    3.846    1.846    7.538    1.231 
#    0.000    0.000    0.000    0.923    0.000    0.000 
#    0.000    0.000    0.000    0.000    0.000    0.000 
#
# Total GULP energy -161146.640609 kJ/mol
# GULP energy per Si atom -12395.895431 kJ/mol
# Density = 2.328734 g / cm^3
# Si number density = 23.340465 Si / 1000 Ang^3
#
#
#
# Elastic Constant Matrix: (Units=GPa)
#
#
# Indices 1 2 3 4 5 6 
#
# 1 126.3276 30.3841 31.3542 0.0000 -32.4317 0.0000
# 2 30.3841 95.0547 22.8766 0.0000 -11.8759 0.0000
# 3 31.3542 22.8766 61.2601 0.0000 -23.1174 0.0000
# 4 0.0000 0.0000 0.0000 26.7930 0.0000 -7.2646
# 5 -32.4317 -11.8759 -23.1174 0.0000 39.8152 0.0000
# 6 0.0000 0.0000 0.0000 -7.2646 0.0000 35.4610
#
#
#
# Elastic Compliance Matrix: (Units=1/GPa)
#
#
# Indices 1 2 3 4 5 6 
#
# 1 0.010700 -0.002052 -0.002116 0.000000 0.006875 0.000000
# 2 -0.002052 0.011998 -0.003471 0.000000 -0.000108 0.000000
# 3 -0.002116 -0.003471 0.022617 0.000000 0.010374 0.000000
# 4 0.000000 0.000000 0.000000 0.039518 0.000000 0.008096
# 5 0.006875 -0.000108 0.010374 0.000000 0.036707 0.000000
# 6 0.000000 0.000000 0.000000 0.008096 0.000000 0.029859
#
#
# Mechanical properties :
#
#
# Convention : Reuss Voigt Hill
#
# Bulk Modulus (GPa) = 33.29137 50.20801 41.74969
# Shear Modulus (GPa) = 28.29840 33.61566 30.95703
#
# Velocity S-wave (km/s) = 3.48576 3.79915 3.64582
# Velocity P-wave (km/s) = 5.52223 6.38769 5.97066
#
# Compressibility (1/GPa) = 0.03003782
#
# Stress axis : x y z
#
# Youngs Moduli (GPa) = 93.46190 83.34702 44.21375
#
# Poissons Ratio (x) = 0.17103 0.09354
# Poissons Ratio (y) = 0.19178 0.15347
# Poissons Ratio (z) = 0.19773 0.28930
#
# Static dielectric constant tensor:
#      x y z
#    x 4.651470 0.000000 -0.247220 
#    y 0.000000 4.262920 0.000000 
#    z -0.247220 0.000000 3.981750 
# 
# 
# High freq. dielectric constant tensor:
#      x y z
#    x 1.943850 0.000000 -0.018180 
#    y 0.000000 1.909050 0.000000 
#    z -0.018180 0.000000 1.908020 
# 
# From -- ./inp_files/29082.got.cif
#   From: 2010.03.12/outbox.cif.g09.slc.cpg/sg5_15_cif.got.tgz:29082.got - 2010.03.31 09:47:26.
