data_PCOD8049400
_publ_section_title
;
Structure prediction by ZEFSAII (Michael W. Deem and Ramdas Pophale) SiO2 
 PCOD8049400
Probable space group: C 2
;
_chemical_formula_sum "Si O2"
_cell_formula_units_Z 20
_cell_length_a 7.402427
_cell_length_b 17.325446
_cell_length_c 8.249212
_cell_angle_alpha 90.000000
_cell_angle_beta 56.169915
_cell_angle_gamma 90.000000
_cell_volume 878.842765
_symmetry_space_group_name_H-M "C 2"
_symmetry_group_IT_number 5
_symmetry_cell_setting 'monoclinic'
loop_
_space_group_symop_operation_xyz
x,y,z
-x,y,-z
1/2+x,1/2+y,z
1/2-x,1/2+y,-z
loop_
_atom_site_type_symbol
_atom_site_label
_atom_site_fract_x
_atom_site_fract_y
_atom_site_fract_z
Si Si1 0.361538 0.014480 0.869293
Si Si2 0.046825 0.018266 0.730434
Si Si3 0.000000 0.257772 0.500000
Si Si4 0.000000 0.891728 0.500000
Si Si5 0.947355 0.346492 0.203329
Si Si6 0.341242 0.139633 0.432363
O O1 0.198012 0.000799 0.805868
O O2 0.523344 0.086285 0.760329
O O3 0.496276 0.936950 0.829062
O O4 0.209030 0.030905 0.101871
O O5 0.128882 0.094696 0.601828
O O6 0.087585 0.943986 0.601407
O O7 0.051351 0.305949 0.309424
O O8 0.770526 0.212571 0.597268
O O9 0.810438 0.835961 0.654393
O O10 0.000000 0.308495 0.000000
O O11 0.500000 0.164510 0.500000
#
# Coordination Sequence:
#
# PCOD8049400 Si02
#       6
#     4   4   2   2   4   4
#     4  10  21  42  73 107 135 180 247 306 351 426
#     4  10  20  38  72 107 134 175 244 300 358 420
#     4  12  29  50  72 103 156 204 234 294 377 436
#     4  12  21  38  72 103 144 180 232 308 361 416
#     4  12  26  46  72 108 148 190 247 299 363 438
#     4  10  23  46  73 104 146 190 239 301 360 432
#
# _framework density 22.757197999999999
#
# number of rings (size 3 to 8) (size 9 to 14) (size 15 to 20)
#    0.000    1.200    4.000    1.800    2.800    0.000 
#    7.200    2.000    4.400    0.000    0.000    0.000 
#    0.000    0.000    0.000    0.000    0.000    0.000 
#
# Total GULP energy -123949.406373 kJ/mol
# GULP energy per Si atom -12394.940637 kJ/mol
# Density = 2.270540 g / cm^3
# Si number density = 22.757198 Si / 1000 Ang^3
#
#
#
# Elastic Constant Matrix: (Units=GPa)
#
#
# Indices 1 2 3 4 5 6 
#
# 1 108.6329 57.4404 65.7382 0.0000 0.9724 0.0000
# 2 57.4404 70.6437 46.0887 0.0000 -0.2440 0.0000
# 3 65.7382 46.0887 177.6679 0.0000 -9.3917 0.0000
# 4 0.0000 0.0000 0.0000 19.4981 0.0000 -3.3772
# 5 0.9724 -0.2440 -9.3917 0.0000 52.0967 0.0000
# 6 0.0000 0.0000 0.0000 -3.3772 0.0000 60.9477
#
#
#
# Elastic Compliance Matrix: (Units=1/GPa)
#
#
# Indices 1 2 3 4 5 6 
#
# 1 0.017747 -0.012175 -0.003462 0.000000 -0.001012 0.000000
# 2 -0.012175 0.025419 -0.002091 0.000000 -0.000031 0.000000
# 3 -0.003462 -0.002091 0.007526 0.000000 0.001412 0.000000
# 4 0.000000 0.000000 0.000000 0.051784 0.000000 0.002869
# 5 -0.001012 -0.000031 0.001412 0.000000 0.019468 0.000000
# 6 0.000000 0.000000 0.000000 0.002869 0.000000 0.016567
#
#
# Mechanical properties :
#
#
# Convention : Reuss Voigt Hill
#
# Bulk Modulus (GPa) = 65.62830 77.27546 71.45188
# Shear Modulus (GPa) = 27.92598 39.02031 33.47314
#
# Velocity S-wave (km/s) = 3.50684 4.14531 3.83937
# Velocity P-wave (km/s) = 6.73040 7.54597 7.14982
#
# Compressibility (1/GPa) = 0.01523733
#
# Stress axis : x y z
#
# Youngs Moduli (GPa) = 56.34826 39.34070 132.86806
#
# Poissons Ratio (x) = 0.47897 0.45994
# Poissons Ratio (y) = 0.68604 0.27779
# Poissons Ratio (z) = 0.19506 0.08225
#
# Static dielectric constant tensor:
#      x y z
#    x 4.116430 0.000000 0.003940 
#    y 0.000000 3.814970 0.000000 
#    z 0.003940 0.000000 4.731560 
# 
# 
# High freq. dielectric constant tensor:
#      x y z
#    x 1.923810 0.000000 0.002460 
#    y 0.000000 1.871080 0.000000 
#    z 0.002460 0.000000 1.907510 
# 
# From -- ./inp_files/16044.got.cif
#   From: 2010.03.12/outbox.cif.g09.slc.cpg/sg5_9_cif.got.tgz:16044.got - 2010.03.31 09:47:26.
