data_PCOD8049117
_publ_section_title
;
Structure prediction by ZEFSAII (Michael W. Deem and Ramdas Pophale) SiO2 
 PCOD8049117
Probable space group: C 2
;
_chemical_formula_sum "Si O2"
_cell_formula_units_Z 30
_cell_length_a 13.760952
_cell_length_b 10.341341
_cell_length_c 10.398544
_cell_angle_alpha 90.000000
_cell_angle_beta 69.278674
_cell_angle_gamma 90.000000
_cell_volume 1384.058875
_symmetry_space_group_name_H-M "C 2"
_symmetry_group_IT_number 5
_symmetry_cell_setting 'monoclinic'
loop_
_space_group_symop_operation_xyz
x,y,z
-x,y,-z
1/2+x,1/2+y,z
1/2-x,1/2+y,-z
loop_
_atom_site_type_symbol
_atom_site_label
_atom_site_fract_x
_atom_site_fract_y
_atom_site_fract_z
Si Si1 0.991172 0.636540 0.644054
Si Si2 0.634052 0.730419 0.740701
Si Si3 0.500000 0.589896 0.000000
Si Si4 0.197026 0.719872 0.131626
Si Si5 0.886767 0.133300 0.534137
Si Si6 0.184940 0.495225 0.614625
Si Si7 0.286883 0.464324 0.045430
Si Si8 0.342333 0.905302 0.653061
O O1 0.924339 0.724970 0.772431
O O2 0.938213 0.495724 0.649863
O O3 0.000000 0.705050 0.500000
O O4 0.105385 0.616515 0.650767
O O5 0.533816 0.683849 0.867478
O O6 0.738269 0.690750 0.768455
O O7 0.637675 0.661094 0.602653
O O8 0.633226 0.884976 0.726710
O O9 0.591642 0.496893 0.004341
O O10 0.221912 0.592730 0.032396
O O11 0.231947 0.852121 0.049849
O O12 0.795143 0.037785 0.624673
O O13 0.888089 0.260841 0.622468
O O14 0.000000 0.067103 0.500000
O O15 0.205831 0.444889 0.460912
O O16 0.249367 0.409854 0.200069
#
# Coordination Sequence:
#
# PCOD8049117 Si02
#       8
#     4   4   2   4   4   4   4   4
#     4   9  17  35  59  84 115 157 197 247 310 363
#     4  10  22  40  58  87 125 165 200 247 315 369
#     4  10  22  40  62  84 126 168 198 244 310 370
#     4  10  22  39  62  89 125 162 203 252 304 363
#     4  11  22  37  61  90 120 158 207 260 306 362
#     4  10  20  36  60  89 118 153 208 258 300 360
#     4  10  22  40  62  89 120 165 208 250 303 364
#     4   9  19  38  61  84 118 159 201 251 314 368
#
# _framework density 21.675377999999998
#
# number of rings (size 3 to 8) (size 9 to 14) (size 15 to 20)
#    0.000    2.133    0.000    5.200    0.000    9.600 
#    0.000    4.667    0.000    0.000    0.000    0.000 
#    0.000    0.000    0.000    0.000    0.000    0.000 
#
# Total GULP energy -185999.627604 kJ/mol
# GULP energy per Si atom -12399.975174 kJ/mol
# Density = 2.162604 g / cm^3
# Si number density = 21.675378 Si / 1000 Ang^3
#
#
#
# Elastic Constant Matrix: (Units=GPa)
#
#
# Indices 1 2 3 4 5 6 
#
# 1 117.8265 24.0578 30.9326 0.0000 -21.3896 0.0000
# 2 24.0578 82.0228 45.6666 0.0000 -0.8107 0.0000
# 3 30.9326 45.6666 99.4647 0.0000 -17.9060 0.0000
# 4 0.0000 0.0000 0.0000 22.8051 0.0000 -3.3890
# 5 -21.3896 -0.8107 -17.9060 0.0000 31.4251 0.0000
# 6 0.0000 0.0000 0.0000 -3.3890 0.0000 23.5419
#
#
#
# Elastic Compliance Matrix: (Units=1/GPa)
#
#
# Indices 1 2 3 4 5 6 
#
# 1 0.010416 -0.002469 -0.000937 0.000000 0.006492 0.000000
# 2 -0.002469 0.017503 -0.008346 0.000000 -0.005984 0.000000
# 3 -0.000937 -0.008346 0.015626 0.000000 0.008051 0.000000
# 4 0.000000 0.000000 0.000000 0.044809 0.000000 0.006451
# 5 0.006492 -0.005984 0.008051 0.000000 0.040673 0.000000
# 6 0.000000 0.000000 0.000000 0.006451 0.000000 0.043406
#
#
# Mechanical properties :
#
#
# Convention : Reuss Voigt Hill
#
# Bulk Modulus (GPa) = 49.89561 55.62534 52.76048
# Shear Modulus (GPa) = 24.67711 28.79822 26.73767
#
# Velocity S-wave (km/s) = 3.37781 3.64897 3.51600
# Velocity P-wave (km/s) = 6.18726 6.59333 6.39352
#
# Compressibility (1/GPa) = 0.02004184
#
# Stress axis : x y z
#
# Youngs Moduli (GPa) = 96.00906 57.13217 63.99531
#
# Poissons Ratio (x) = 0.14107 0.05995
# Poissons Ratio (y) = 0.23707 0.53408
# Poissons Ratio (z) = 0.08994 0.47680
#
# Static dielectric constant tensor:
#      x y z
#    x 3.757300 0.000000 -0.219660 
#    y 0.000000 3.822630 0.000000 
#    z -0.219660 0.000000 3.953080 
# 
# 
# High freq. dielectric constant tensor:
#      x y z
#    x 1.843040 0.000000 -0.018760 
#    y 0.000000 1.839140 0.000000 
#    z -0.018760 0.000000 1.846350 
# 
# From -- ./inp_files/41932.got.cif
#   From: 2010.03.12/outbox.cif.g09.slc.cpg/sg5_21_cif.got.tgz:41932.got - 2010.03.31 09:47:26.
