data_PCOD8049004
_publ_section_title
;
Structure prediction by ZEFSAII (Michael W. Deem and Ramdas Pophale) SiO2 
 PCOD8049004
Probable space group: C 2
;
_chemical_formula_sum "Si O2"
_cell_formula_units_Z 22
_cell_length_a 11.303754
_cell_length_b 14.591051
_cell_length_c 8.356787
_cell_angle_alpha 90.000000
_cell_angle_beta 61.848013
_cell_angle_gamma 90.000000
_cell_volume 1215.259486
_symmetry_space_group_name_H-M "C 2"
_symmetry_group_IT_number 5
_symmetry_cell_setting 'monoclinic'
loop_
_space_group_symop_operation_xyz
x,y,z
-x,y,-z
1/2+x,1/2+y,z
1/2-x,1/2+y,-z
loop_
_atom_site_type_symbol
_atom_site_label
_atom_site_fract_x
_atom_site_fract_y
_atom_site_fract_z
Si Si1 0.791367 0.389510 0.434507
Si Si2 0.759332 0.207505 0.841860
Si Si3 0.500000 0.785562 0.500000
Si Si4 0.788248 0.827486 0.837746
Si Si5 0.065787 0.846466 0.803448
Si Si6 0.657254 0.008809 0.873833
O O1 0.743599 0.314071 0.330909
O O2 0.678338 0.406468 0.642196
O O3 0.818048 0.486944 0.331051
O O4 0.927801 0.352359 0.421455
O O5 0.635511 0.254034 0.826380
O O6 0.732104 0.100479 0.877428
O O7 0.896279 0.220324 0.657398
O O8 0.776475 0.249455 0.008953
O O9 0.948986 0.824355 0.752472
O O10 0.722997 0.925404 0.934739
O O11 0.000000 0.898331 0.000000
O O12 0.500000 0.016880 0.000000
#
# Coordination Sequence:
#
# PCOD8049004 Si02
#       6
#     4   4   2   4   4   4
#     4   9  20  33  60  83 117 155 191 236 282 345
#     4  10  20  35  60  80 114 156 193 239 286 345
#     4  10  20  36  56  80 116 158 192 234 292 334
#     4   9  19  33  60  81 114 150 192 234 288 335
#     4   9  17  34  57  83 110 154 192 226 288 341
#     4  10  20  34  58  85 113 153 195 234 288 339
#
# _framework density 18.103128999999999
#
# number of rings (size 3 to 8) (size 9 to 14) (size 15 to 20)
#    1.091    1.455    0.000    3.273    0.000    1.455 
#    0.000    0.000   52.000    0.000    0.000    0.000 
#    0.000    0.000    0.000    0.000    0.000    0.000 
#
# Total GULP energy -136292.284066 kJ/mol
# GULP energy per Si atom -12390.207642 kJ/mol
# Density = 1.806193 g / cm^3
# Si number density = 18.103129 Si / 1000 Ang^3
#
#
#
# Elastic Constant Matrix: (Units=GPa)
#
#
# Indices 1 2 3 4 5 6 
#
# 1 114.1143 27.2044 47.5655 0.0000 1.4295 0.0000
# 2 27.2044 105.3207 54.4601 0.0000 -4.0744 0.0000
# 3 47.5655 54.4601 130.5777 0.0000 -11.3545 0.0000
# 4 0.0000 0.0000 0.0000 18.8981 0.0000 3.2326
# 5 1.4295 -4.0744 -11.3545 0.0000 37.2251 0.0000
# 6 0.0000 0.0000 0.0000 3.2326 0.0000 23.8753
#
#
#
# Elastic Compliance Matrix: (Units=1/GPa)
#
#
# Indices 1 2 3 4 5 6 
#
# 1 0.010494 -0.000923 -0.003576 0.000000 -0.001595 0.000000
# 2 -0.000923 0.012188 -0.004754 0.000000 -0.000081 0.000000
# 3 -0.003576 -0.004754 0.011208 0.000000 0.003036 0.000000
# 4 0.000000 0.000000 0.000000 0.054170 0.000000 -0.007334
# 5 -0.001595 -0.000081 0.003036 0.000000 0.027842 0.000000
# 6 0.000000 0.000000 0.000000 -0.007334 0.000000 0.042877
#
#
# Mechanical properties :
#
#
# Convention : Reuss Voigt Hill
#
# Bulk Modulus (GPa) = 65.00665 67.60808 66.30736
# Shear Modulus (GPa) = 27.41017 30.71856 29.06436
#
# Velocity S-wave (km/s) = 3.89538 4.12377 4.01120
# Velocity P-wave (km/s) = 7.49793 7.75249 7.62627
#
# Compressibility (1/GPa) = 0.01538304
#
# Stress axis : x y z
#
# Youngs Moduli (GPa) = 95.29384 82.04487 89.22327
#
# Poissons Ratio (x) = 0.07573 0.31909
# Poissons Ratio (y) = 0.08796 0.42419
# Poissons Ratio (z) = 0.34080 0.39006
#
# Static dielectric constant tensor:
#      x y z
#    x 3.398070 0.000000 -0.063290 
#    y 0.000000 2.932180 0.000000 
#    z -0.063290 0.000000 3.472530 
# 
# 
# High freq. dielectric constant tensor:
#      x y z
#    x 1.711740 0.000000 -0.010900 
#    y 0.000000 1.655360 0.000000 
#    z -0.010900 0.000000 1.712730 
# 
# From -- ./inp_files/19656.got.cif
#   From: 2010.03.12/outbox.cif.g09.slc.cpg/sg5_10_cif.got.tgz:19656.got - 2010.03.31 09:47:26.
