data_PCOD8049484
_publ_section_title
;
Structure prediction by ZEFSAII (Michael W. Deem and Ramdas Pophale) SiO2 
 PCOD8049484
Probable space group: C 2
;
_chemical_formula_sum "Si O2"
_cell_formula_units_Z 26
_cell_length_a 26.256856
_cell_length_b 5.324350
_cell_length_c 19.182996
_cell_angle_alpha 90.000000
_cell_angle_beta 154.438230
_cell_angle_gamma 90.000000
_cell_volume 1157.151879
_symmetry_space_group_name_H-M "C 2"
_symmetry_group_IT_number 5
_symmetry_cell_setting 'monoclinic'
loop_
_space_group_symop_operation_xyz
x,y,z
-x,y,-z
1/2+x,1/2+y,z
1/2-x,1/2+y,-z
loop_
_atom_site_type_symbol
_atom_site_label
_atom_site_fract_x
_atom_site_fract_y
_atom_site_fract_z
Si Si1 0.710102 0.631450 0.576383
Si Si2 0.972262 0.640666 0.845189
Si Si3 0.000000 0.012069 0.000000
Si Si4 0.506047 0.457123 0.759920
Si Si5 0.750207 0.643734 0.299359
Si Si6 0.171148 0.270249 0.058928
Si Si7 0.703568 0.467251 0.911250
O O1 0.837391 0.590795 0.699408
O O2 0.608394 0.636419 0.391321
O O3 0.680102 0.385011 0.585673
O O4 0.698159 0.883339 0.607122
O O5 0.968073 0.715964 0.758165
O O6 0.028524 0.847093 0.966385
O O7 0.060905 0.406587 0.961613
O O8 0.114557 0.177847 0.157637
O O9 0.565592 0.396819 0.757865
O O10 0.614158 0.573779 0.936378
O O11 0.752566 0.639637 0.218245
O O12 0.260418 0.449086 0.125752
O O13 0.722114 0.758328 0.954462
#
# Coordination Sequence:
#
# PCOD8049484 Si02
#       7
#     4   4   2   4   4   4   4
#     4  11  28  39  64  97 142 169 208 269 345 396
#     4  11  22  38  66  96 133 172 219 268 334 390
#     4  10  20  40  60  98 126 168 220 268 314 386
#     4  11  25  42  65  97 136 169 224 272 333 394
#     4  11  23  43  62  95 131 175 216 270 322 400
#     4  11  22  41  72  92 125 176 234 267 324 383
#     4  10  22  41  66  99 126 165 224 285 320 373
#
# _framework density 22.468962999999999
#
# number of rings (size 3 to 8) (size 9 to 14) (size 15 to 20)
#    0.000    1.231    3.077    2.769    6.462    0.615 
#    0.000    0.769    0.000    3.692    0.000    0.000 
#    0.000    0.000    0.000    0.000    0.000    0.000 
#
# Total GULP energy -161088.728751 kJ/mol
# GULP energy per Si atom -12391.440673 kJ/mol
# Density = 2.241782 g / cm^3
# Si number density = 22.468963 Si / 1000 Ang^3
#
#
#
# Elastic Constant Matrix: (Units=GPa)
#
#
# Indices 1 2 3 4 5 6 
#
# 1 104.0412 13.3864 29.1472 0.0004 8.4414 0.0002
# 2 13.3864 101.3992 22.9469 0.0015 -5.8850 0.0007
# 3 29.1472 22.9469 71.6985 0.0004 -4.4349 0.0001
# 4 0.0004 0.0015 0.0004 26.6619 0.0001 -5.8428
# 5 8.4414 -5.8850 -4.4349 0.0001 22.1656 0.0000
# 6 0.0002 0.0007 0.0001 -5.8428 0.0000 32.5893
#
#
#
# Elastic Compliance Matrix: (Units=1/GPa)
#
#
# Indices 1 2 3 4 5 6 
#
# 1 0.011495 -0.000759 -0.004773 0.000000 -0.005534 0.000000
# 2 -0.000759 0.010786 -0.002986 -0.000001 0.002555 0.000000
# 3 -0.004773 -0.002986 0.017118 0.000000 0.004450 0.000000
# 4 0.000000 -0.000001 0.000000 0.039041 0.000000 0.006999
# 5 -0.005534 0.002555 0.004450 0.000000 0.048791 0.000000
# 6 0.000000 0.000000 0.000000 0.006999 0.000000 0.031940
#
#
# Mechanical properties :
#
#
# Convention : Reuss Voigt Hill
#
# Bulk Modulus (GPa) = 44.71099 45.34443 45.02771
# Shear Modulus (GPa) = 27.22415 30.39391 28.80903
#
# Velocity S-wave (km/s) = 3.48463 3.68191 3.58462
# Velocity P-wave (km/s) = 6.01102 6.18870 6.10051
#
# Compressibility (1/GPa) = 0.02236587
#
# Stress axis : x y z
#
# Youngs Moduli (GPa) = 86.99238 92.71170 58.41721
#
# Poissons Ratio (x) = 0.07034 0.27880
# Poissons Ratio (y) = 0.06600 0.17441
# Poissons Ratio (z) = 0.41518 0.27680
#
# Static dielectric constant tensor:
#      x y z
#    x 4.517900 0.000000 0.032040 
#    y 0.000000 3.909130 0.000000 
#    z 0.032040 0.000000 3.834710 
# 
# 
# High freq. dielectric constant tensor:
#      x y z
#    x 1.892960 0.000000 -0.001570 
#    y 0.000000 1.883290 0.000000 
#    z -0.001570 0.000000 1.859180 
# 
# From -- ./inp_files/45505.got.cif
#   From: 2010.03.12/outbox.cif.g09.slc.cpg/sg5_23_cif.got.tgz:45505.got - 2010.03.31 09:47:26.
