data_PCOD8049335
_publ_section_title
;
Structure prediction by ZEFSAII (Michael W. Deem and Ramdas Pophale) SiO2 
 PCOD8049335
Probable space group: C 2
;
_chemical_formula_sum "Si O2"
_cell_formula_units_Z 20
_cell_length_a 27.738180
_cell_length_b 4.911766
_cell_length_c 8.163314
_cell_angle_alpha 90.000000
_cell_angle_beta 129.299719
_cell_angle_gamma 90.000000
_cell_volume 860.667033
_symmetry_space_group_name_H-M "C 2"
_symmetry_group_IT_number 5
_symmetry_cell_setting 'monoclinic'
loop_
_space_group_symop_operation_xyz
x,y,z
-x,y,-z
1/2+x,1/2+y,z
1/2-x,1/2+y,-z
loop_
_atom_site_type_symbol
_atom_site_label
_atom_site_fract_x
_atom_site_fract_y
_atom_site_fract_z
Si Si1 0.591272 0.967420 0.080496
Si Si2 0.893730 0.915819 0.388260
Si Si3 0.151419 0.978158 0.067843
Si Si4 0.044680 0.441084 0.334768
Si Si5 0.262416 0.199421 0.130850
O O1 0.575099 0.045687 0.230738
O O2 0.622092 0.671162 0.141706
O O3 0.529451 0.943865 0.837650
O O4 0.641818 0.173833 0.112493
O O5 0.882577 0.015820 0.180153
O O6 0.937896 0.652001 0.484920
O O7 0.828117 0.824498 0.330866
O O8 0.928523 0.145264 0.567185
O O9 0.223917 0.062004 0.197455
O O10 0.223753 0.452237 0.967908
#
# Coordination Sequence:
#
# PCOD8049335 Si02
#       5
#     4   4   4   4   4
#     4  11  24  41  60  88 128 165 198 249 315 366
#     4  11  22  39  65  91 118 159 209 254 298 363
#     4  11  22  39  65  91 118 159 209 254 298 363
#     4  11  24  41  60  88 128 165 198 249 315 366
#     4  10  20  38  62  92 126 158 198 256 318 358
#
# _framework density 23.23779
#
# number of rings (size 3 to 8) (size 9 to 14) (size 15 to 20)
#    0.000    1.200    0.000    8.400    0.000    8.000 
#    0.000    4.000    0.000    2.400    0.000    0.000 
#    0.000    0.000    0.000    0.000    0.000    0.000 
#
# Total GULP energy -123980.502304 kJ/mol
# GULP energy per Si atom -12398.050230 kJ/mol
# Density = 2.318490 g / cm^3
# Si number density = 23.237790 Si / 1000 Ang^3
#
#
#
# Elastic Constant Matrix: (Units=GPa)
#
#
# Indices 1 2 3 4 5 6 
#
# 1 71.0507 20.2443 -12.2669 0.0000 3.2961 0.0000
# 2 20.2443 133.4562 17.1793 0.0000 13.0057 0.0000
# 3 -12.2669 17.1793 21.9375 0.0000 3.0823 0.0000
# 4 0.0000 0.0000 0.0000 31.1262 0.0000 10.9461
# 5 3.2961 13.0057 3.0823 0.0000 21.9285 0.0000
# 6 0.0000 0.0000 0.0000 10.9461 0.0000 23.1314
#
#
#
# Elastic Compliance Matrix: (Units=1/GPa)
#
#
# Indices 1 2 3 4 5 6 
#
# 1 0.017702 -0.004222 0.013494 0.000000 -0.002053 0.000000
# 2 -0.004222 0.009719 -0.009438 0.000000 -0.003803 0.000000
# 3 0.013494 -0.009438 0.061228 0.000000 -0.005037 0.000000
# 4 0.000000 0.000000 0.000000 0.038541 0.000000 -0.018238
# 5 -0.002053 -0.003803 -0.005037 0.000000 0.048875 0.000000
# 6 0.000000 0.000000 0.000000 -0.018238 0.000000 0.051862
#
#
# Mechanical properties :
#
#
# Convention : Reuss Voigt Hill
#
# Bulk Modulus (GPa) = 11.32286 30.75086 21.03686
# Shear Modulus (GPa) = 19.40253 28.65640 24.02946
#
# Velocity S-wave (km/s) = 2.89269 3.51548 3.21918
# Velocity P-wave (km/s) = 4.00501 5.45344 4.78435
#
# Compressibility (1/GPa) = 0.08831693
#
# Stress axis : x y z
#
# Youngs Moduli (GPa) = 56.48945 102.89054 16.33247
#
# Poissons Ratio (x) = 0.43442 -0.22039
# Poissons Ratio (y) = 0.23851 0.15414
# Poissons Ratio (z) = -0.76225 0.97104
#
# Static dielectric constant tensor:
#      x y z
#    x 4.165100 0.000000 0.131660 
#    y 0.000000 4.281350 0.000000 
#    z 0.131660 0.000000 3.978190 
# 
# 
# High freq. dielectric constant tensor:
#      x y z
#    x 1.917830 0.000000 0.012890 
#    y 0.000000 1.938860 0.000000 
#    z 0.012890 0.000000 1.893600 
# 
# From -- ./inp_files/31230.got.cif
#   From: 2010.03.12/outbox.cif.g09.slc.cpg/sg5_16_cif.got.tgz:31230.got - 2010.03.31 09:47:26.
