data_PCOD8049145
_publ_section_title
;
Structure prediction by ZEFSAII (Michael W. Deem and Ramdas Pophale) SiO2 
 PCOD8049145
Probable space group: C 2
;
_chemical_formula_sum "Si O2"
_cell_formula_units_Z 24
_cell_length_a 24.072814
_cell_length_b 9.355174
_cell_length_c 15.229035
_cell_angle_alpha 90.000000
_cell_angle_beta 20.711007
_cell_angle_gamma 90.000000
_cell_volume 1212.914972
_symmetry_space_group_name_H-M "C 2"
_symmetry_group_IT_number 5
_symmetry_cell_setting 'monoclinic'
loop_
_space_group_symop_operation_xyz
x,y,z
-x,y,-z
1/2+x,1/2+y,z
1/2-x,1/2+y,-z
loop_
_atom_site_type_symbol
_atom_site_label
_atom_site_fract_x
_atom_site_fract_y
_atom_site_fract_z
Si Si1 0.358429 0.426210 0.866494
Si Si2 0.340069 0.859902 0.998748
Si Si3 0.343324 0.962278 0.176398
Si Si4 0.415216 0.676242 0.451136
Si Si5 0.649034 0.938189 0.337647
Si Si6 0.632115 0.226915 0.436888
O O1 0.471708 0.557031 0.672429
O O2 0.453353 0.276900 0.717454
O O3 0.208056 0.429022 0.023473
O O4 0.302950 0.443701 0.048770
O O5 0.494208 0.761645 0.758960
O O6 0.189628 0.766425 0.252573
O O7 0.379903 0.975169 0.016864
O O8 0.237384 0.096911 0.363275
O O9 0.248323 0.812451 0.332603
O O10 0.500000 0.962392 0.000000
O O11 0.360657 0.780628 0.608774
O O12 0.500000 0.976677 0.500000
O O13 0.652951 0.054966 0.411795
#
# Coordination Sequence:
#
# PCOD8049145 Si02
#       6
#     4   4   4   4   4   4
#     4  11  21  38  59  90 131 159 188 246 306 376
#     4  10  20  36  64  85 122 154 200 242 304 355
#     4   9  22  44  65  79 119 169 213 249 295 344
#     4  11  24  38  62  95 124 157 202 250 299 370
#     4  12  23  34  59  96 131 153 191 240 310 374
#     4   9  22  38  61  87 123 160 196 243 308 355
#
# _framework density 19.787043000000001
#
# number of rings (size 3 to 8) (size 9 to 14) (size 15 to 20)
#    1.000    0.667    3.333    1.500    2.333    1.333 
#    0.000    5.833    0.000    0.000    0.000    0.000 
#    0.000    0.000    0.000    0.000    0.000    0.000 
#
# Total GULP energy -148708.917039 kJ/mol
# GULP energy per Si atom -12392.409753 kJ/mol
# Density = 1.974201 g / cm^3
# Si number density = 19.787043 Si / 1000 Ang^3
#
#
#
# Elastic Constant Matrix: (Units=GPa)
#
#
# Indices 1 2 3 4 5 6 
#
# 1 62.5696 34.7128 53.8262 0.0000 -13.1525 0.0000
# 2 34.7128 123.3492 58.7515 0.0000 -3.3169 0.0000
# 3 53.8262 58.7515 110.9501 0.0000 -7.9043 0.0000
# 4 0.0000 0.0000 0.0000 40.1465 0.0000 8.7906
# 5 -13.1525 -3.3169 -7.9043 0.0000 33.8242 0.0000
# 6 0.0000 0.0000 0.0000 8.7906 0.0000 18.5650
#
#
#
# Elastic Compliance Matrix: (Units=1/GPa)
#
#
# Indices 1 2 3 4 5 6 
#
# 1 0.029945 -0.002096 -0.012816 0.000000 0.008444 0.000000
# 2 -0.002096 0.010991 -0.004866 0.000000 -0.000874 0.000000
# 3 -0.012816 -0.004866 0.017713 0.000000 -0.001321 0.000000
# 4 0.000000 0.000000 0.000000 0.027790 0.000000 -0.013159
# 5 0.008444 -0.000874 -0.001321 0.000000 0.032453 0.000000
# 6 0.000000 0.000000 0.000000 -0.013159 0.000000 0.060095
#
#
# Mechanical properties :
#
#
# Convention : Reuss Voigt Hill
#
# Bulk Modulus (GPa) = 52.37253 65.71665 59.04459
# Shear Modulus (GPa) = 22.23138 28.47905 25.35521
#
# Velocity S-wave (km/s) = 3.35555 3.79790 3.58356
# Velocity P-wave (km/s) = 6.44504 7.24680 6.85765
#
# Compressibility (1/GPa) = 0.01909398
#
# Stress axis : x y z
#
# Youngs Moduli (GPa) = 33.39448 90.98530 56.45561
#
# Poissons Ratio (x) = 0.19067 0.72355
# Poissons Ratio (y) = 0.06998 0.27469
# Poissons Ratio (z) = 0.42799 0.44269
#
# Static dielectric constant tensor:
#      x y z
#    x 3.047590 0.000000 0.210120 
#    y 0.000000 3.609050 0.000000 
#    z 0.210120 0.000000 3.678030 
# 
# 
# High freq. dielectric constant tensor:
#      x y z
#    x 1.713480 0.000000 0.018370 
#    y 0.000000 1.773610 0.000000 
#    z 0.018370 0.000000 1.782460 
# 
# From -- ./inp_files/63567.got.cif
#   From: 2010.03.12/outbox.cif.g09.slc.cpg/sg5_32_cif.got.tgz:63567.got - 2010.03.31 09:47:26.
