data_PCOD8049656
_publ_section_title
;
Structure prediction by ZEFSAII (Michael W. Deem and Ramdas Pophale) SiO2 
 PCOD8049656
Probable space group: C 2
;
_chemical_formula_sum "Si O2"
_cell_formula_units_Z 32
_cell_length_a 15.445085
_cell_length_b 9.157466
_cell_length_c 21.089435
_cell_angle_alpha 90.000000
_cell_angle_beta 148.096754
_cell_angle_gamma 90.000000
_cell_volume 1576.392659
_symmetry_space_group_name_H-M "C 2"
_symmetry_group_IT_number 5
_symmetry_cell_setting 'monoclinic'
loop_
_space_group_symop_operation_xyz
x,y,z
-x,y,-z
1/2+x,1/2+y,z
1/2-x,1/2+y,-z
loop_
_atom_site_type_symbol
_atom_site_label
_atom_site_fract_x
_atom_site_fract_y
_atom_site_fract_z
Si Si1 0.681273 0.096000 0.108855
Si Si2 0.250784 0.108836 0.197526
Si Si3 0.166736 0.900246 0.694047
Si Si4 0.626914 0.967043 0.291853
Si Si5 0.451665 0.830103 0.298766
Si Si6 0.085767 0.137219 0.489389
Si Si7 0.675772 0.937848 0.974478
Si Si8 0.603705 0.618727 0.968517
O O1 0.810785 0.225136 0.184532
O O2 0.705908 0.997661 0.186402
O O3 0.500000 0.165967 0.000000
O O4 0.696445 0.989715 0.058733
O O5 0.359392 0.245104 0.288686
O O6 0.088697 0.097931 0.139661
O O7 0.364863 0.968646 0.276792
O O8 0.204284 0.129474 0.095767
O O9 0.245259 0.878727 0.673147
O O10 0.993929 0.983201 0.582239
O O11 0.569300 0.866151 0.313637
O O12 0.472525 0.020487 0.154212
O O13 0.721260 0.109415 0.378281
O O14 0.565275 0.757400 0.422555
O O15 0.000000 0.195661 0.500000
O O16 0.640242 0.764875 0.950741
O O17 0.839033 0.978232 0.036464
#
# Coordination Sequence:
#
# PCOD8049656 Si02
#       8
#     4   4   4   4   4   4   4   4
#     4  11  21  36  63  96 129 174 201 251 316 392
#     4  11  22  40  59  93 129 169 200 259 323 375
#     4  10  20  42  67  87 121 171 217 250 314 387
#     4  11  21  41  64  93 119 165 213 265 306 373
#     4  11  25  40  64  97 129 159 216 267 320 370
#     4   9  23  46  67  85 118 169 221 264 312 375
#     4  12  22  39  64  99 130 169 214 250 322 381
#     4  11  24  38  60  93 138 164 205 258 313 390
#
# _framework density 20.299512
#
# number of rings (size 3 to 8) (size 9 to 14) (size 15 to 20)
#    0.000    1.250    5.000    0.750    1.750    1.000 
#    0.000    3.125    0.000    0.000    0.000    0.000 
#    0.000    0.000    0.000    0.000    0.000    0.000 
#
# Total GULP energy -198431.842676 kJ/mol
# GULP energy per Si atom -12401.990167 kJ/mol
# Density = 2.025331 g / cm^3
# Si number density = 20.299512 Si / 1000 Ang^3
#
#
#
# Elastic Constant Matrix: (Units=GPa)
#
#
# Indices 1 2 3 4 5 6 
#
# 1 121.7531 51.9433 28.8566 0.0000 -6.8489 0.0000
# 2 51.9433 101.4914 32.2711 0.0000 2.1568 0.0000
# 3 28.8566 32.2711 89.4588 -0.0013 -8.9759 -0.0001
# 4 0.0000 0.0000 -0.0013 30.7466 -0.0004 -5.3249
# 5 -6.8489 2.1568 -8.9759 -0.0004 25.6014 -0.0001
# 6 0.0000 0.0000 -0.0001 -5.3249 -0.0001 28.1676
#
#
#
# Elastic Compliance Matrix: (Units=1/GPa)
#
#
# Indices 1 2 3 4 5 6 
#
# 1 0.010924 -0.005223 -0.001350 0.000000 0.002889 0.000000
# 2 -0.005223 0.013775 -0.003670 0.000000 -0.003845 0.000000
# 3 -0.001350 -0.003670 0.013404 0.000001 0.004648 0.000000
# 4 0.000000 0.000000 0.000001 0.033625 0.000001 0.006357
# 5 0.002889 -0.003845 0.004648 0.000001 0.041787 0.000000
# 6 0.000000 0.000000 0.000000 0.006357 0.000000 0.036703
#
#
# Mechanical properties :
#
#
# Convention : Reuss Voigt Hill
#
# Bulk Modulus (GPa) = 56.76284 59.87170 58.31727
# Shear Modulus (GPa) = 28.31640 30.21194 29.26417
#
# Velocity S-wave (km/s) = 3.73893 3.86205 3.80099
# Velocity P-wave (km/s) = 6.83102 7.03174 6.93211
#
# Compressibility (1/GPa) = 0.01761716
#
# Stress axis : x y z
#
# Youngs Moduli (GPa) = 91.54054 72.59553 74.60495
#
# Poissons Ratio (x) = 0.37918 0.10069
# Poissons Ratio (y) = 0.47814 0.27380
# Poissons Ratio (z) = 0.12355 0.26643
#
# Static dielectric constant tensor:
#      x y z
#    x 3.760840 0.000000 -0.093770 
#    y 0.000000 3.543220 0.000000 
#    z -0.093770 0.000000 3.810600 
# 
# 
# High freq. dielectric constant tensor:
#      x y z
#    x 1.802510 0.000000 -0.009540 
#    y 0.000000 1.772950 0.000000 
#    z -0.009540 0.000000 1.794150 
# 
# From -- ./inp_files/65912.got.cif
#   From: 2010.03.12/outbox.cif.g09.slc.cpg/sg5_33_cif.got.tgz:65912.got - 2010.03.31 09:47:26.
