data_PCOD8049410
_publ_section_title
;
Structure prediction by ZEFSAII (Michael W. Deem and Ramdas Pophale) SiO2 
 PCOD8049410
Probable space group: C 2
;
_chemical_formula_sum "Si O2"
_cell_formula_units_Z 32
_cell_length_a 23.616088
_cell_length_b 8.405405
_cell_length_c 8.728597
_cell_angle_alpha 90.000000
_cell_angle_beta 60.743099
_cell_angle_gamma 90.000000
_cell_volume 1511.628929
_symmetry_space_group_name_H-M "C 2"
_symmetry_group_IT_number 5
_symmetry_cell_setting 'monoclinic'
loop_
_space_group_symop_operation_xyz
x,y,z
-x,y,-z
1/2+x,1/2+y,z
1/2-x,1/2+y,-z
loop_
_atom_site_type_symbol
_atom_site_label
_atom_site_fract_x
_atom_site_fract_y
_atom_site_fract_z
Si Si1 0.752330 0.951100 0.350991
Si Si2 0.032909 0.323793 0.311931
Si Si3 0.632765 0.943713 0.966004
Si Si4 0.160063 0.786894 0.991482
Si Si5 0.675800 0.626613 0.492078
Si Si6 0.557863 0.734753 0.827173
Si Si7 0.622300 0.548521 0.236641
Si Si8 0.734068 0.707366 0.902773
O O1 0.698710 0.810447 0.436062
O O2 0.768467 0.021985 0.498562
O O3 0.728505 0.099427 0.274372
O O4 0.817697 0.887969 0.184933
O O5 0.054742 0.143748 0.330598
O O6 0.000000 0.409572 0.500000
O O7 0.976431 0.328138 0.263157
O O8 0.098050 0.413215 0.175688
O O9 0.590772 0.867964 0.887648
O O10 0.706353 0.873260 0.868140
O O11 0.630761 0.132094 0.950231
O O12 0.222484 0.741536 0.009086
O O13 0.110300 0.873439 0.176777
O O14 0.612964 0.619461 0.687039
O O15 0.656489 0.543388 0.357802
O O16 0.500000 0.644004 0.000000
O O17 0.670252 0.618323 0.045500
#
# Coordination Sequence:
#
# PCOD8049410 Si02
#       8
#     4   4   4   4   4   4   4   4
#     4  11  26  37  62  96 137 170 206 266 330 395
#     4  10  20  39  67  89 115 161 231 271 311 376
#     4  10  21  39  64  89 128 167 210 270 321 389
#     4  11  23  39  63  91 133 170 211 258 332 393
#     4  12  24  42  62 100 134 168 214 272 322 389
#     4  10  22  40  68  88 124 171 221 261 316 383
#     4  10  22  38  62  93 122 167 217 265 316 378
#     4  10  20  39  61  92 124 172 210 248 321 391
#
# _framework density 21.169217
#
# number of rings (size 3 to 8) (size 9 to 14) (size 15 to 20)
#    0.000    1.500    3.750    1.500    7.000    0.000 
#    0.000    1.875    8.250    0.000    0.000    0.000 
#    0.000    0.000    0.000    0.000    0.000    0.000 
#
# Total GULP energy -198246.805549 kJ/mol
# GULP energy per Si atom -12390.425347 kJ/mol
# Density = 2.112103 g / cm^3
# Si number density = 21.169217 Si / 1000 Ang^3
#
#
#
# Elastic Constant Matrix: (Units=GPa)
#
#
# Indices 1 2 3 4 5 6 
#
# 1 58.5866 4.8059 5.6271 0.0000 11.3119 0.0000
# 2 4.8059 79.9520 18.6046 0.0000 6.0278 0.0000
# 3 5.6271 18.6046 95.0257 0.0000 5.3526 0.0000
# 4 0.0000 0.0000 0.0000 26.9848 0.0000 12.0909
# 5 11.3119 6.0278 5.3526 0.0000 34.2195 0.0000
# 6 0.0000 0.0000 0.0000 12.0909 0.0000 15.3135
#
#
#
# Elastic Compliance Matrix: (Units=1/GPa)
#
#
# Indices 1 2 3 4 5 6 
#
# 1 0.018304 -0.000506 -0.000655 0.000000 -0.005859 0.000000
# 2 -0.000506 0.013245 -0.002463 0.000000 -0.001781 0.000000
# 3 -0.000655 -0.002463 0.011106 0.000000 -0.001087 0.000000
# 4 0.000000 0.000000 0.000000 0.057345 0.000000 -0.045278
# 5 -0.005859 -0.001781 -0.001087 0.000000 0.031644 0.000000
# 6 0.000000 0.000000 0.000000 -0.045278 0.000000 0.101051
#
#
# Mechanical properties :
#
#
# Convention : Reuss Voigt Hill
#
# Bulk Modulus (GPa) = 28.24250 32.40438 30.32344
# Shear Modulus (GPa) = 19.86129 28.93867 24.39998
#
# Velocity S-wave (km/s) = 3.06635 3.70133 3.39870
# Velocity P-wave (km/s) = 5.08989 5.79715 5.45500
#
# Compressibility (1/GPa) = 0.03540763
#
# Stress axis : x y z
#
# Youngs Moduli (GPa) = 54.63147 75.49853 90.04415
#
# Poissons Ratio (x) = 0.03821 0.05896
# Poissons Ratio (y) = 0.02765 0.22177
# Poissons Ratio (z) = 0.03577 0.18595
#
# Static dielectric constant tensor:
#      x y z
#    x 3.677510 0.000000 0.014400 
#    y 0.000000 3.931000 0.000000 
#    z 0.014400 0.000000 4.149310 
# 
# 
# High freq. dielectric constant tensor:
#      x y z
#    x 1.816140 0.000000 0.016740 
#    y 0.000000 1.805020 0.000000 
#    z 0.016740 0.000000 1.842340 
# 
# From -- ./inp_files/30667.got.cif
#   From: 2010.03.12/outbox.cif.g09.slc.cpg/sg5_16_cif.got.tgz:30667.got - 2010.03.31 09:47:26.
