data_PCOD8049671
_publ_section_title
;
Structure prediction by ZEFSAII (Michael W. Deem and Ramdas Pophale) SiO2 
 PCOD8049671
Probable space group: C 2
;
_chemical_formula_sum "Si O2"
_cell_formula_units_Z 26
_cell_length_a 18.206726
_cell_length_b 8.152639
_cell_length_c 8.467153
_cell_angle_alpha 90.000000
_cell_angle_beta 121.896424
_cell_angle_gamma 90.000000
_cell_volume 1067.032270
_symmetry_space_group_name_H-M "C 2"
_symmetry_group_IT_number 5
_symmetry_cell_setting 'monoclinic'
loop_
_space_group_symop_operation_xyz
x,y,z
-x,y,-z
1/2+x,1/2+y,z
1/2-x,1/2+y,-z
loop_
_atom_site_type_symbol
_atom_site_label
_atom_site_fract_x
_atom_site_fract_y
_atom_site_fract_z
Si Si1 0.789213 0.144410 0.513191
Si Si2 0.688311 0.843709 0.764870
Si Si3 0.309585 0.191080 0.136659
Si Si4 0.137335 0.797562 0.487774
Si Si5 0.539043 0.759092 0.208081
Si Si6 0.500000 0.753637 0.500000
Si Si7 0.017517 0.633297 0.842424
O O1 0.773515 0.227810 0.326119
O O2 0.696964 0.146244 0.494273
O O3 0.857416 0.253581 0.692245
O O4 0.827451 0.962077 0.552303
O O5 0.584528 0.861598 0.632666
O O6 0.721786 0.029640 0.803823
O O7 0.721561 0.764778 0.966195
O O8 0.352118 0.316183 0.311365
O O9 0.381347 0.153533 0.083989
O O10 0.039065 0.751136 0.334632
O O11 0.516890 0.657121 0.349991
O O12 0.507956 0.943288 0.203901
O O13 0.500000 0.685871 0.000000
O O14 0.000000 0.693394 0.000000
#
# Coordination Sequence:
#
# PCOD8049671 Si02
#       7
#     4   4   4   4   4   2   4
#     4  11  25  45  67 102 138 191 237 305 361 440
#     4  11  24  45  69 104 144 189 242 293 362 434
#     4  12  25  43  72 106 143 191 240 300 363 432
#     4  12  25  44  70 100 144 184 245 302 371 433
#     4  10  22  41  72 101 138 188 240 292 366 440
#     4  10  20  42  68  98 148 186 240 288 352 440
#     4  11  24  44  69 101 144 188 238 298 367 442
#
# _framework density 24.366647
#
# number of rings (size 3 to 8) (size 9 to 14) (size 15 to 20)
#    0.000    0.923    1.538    6.000    2.154    1.846 
#   16.615    0.000    0.000    0.000    0.000    0.000 
#    0.000    0.000    0.000    0.000    0.000    0.000 
#
# Total GULP energy -161091.533582 kJ/mol
# GULP energy per Si atom -12391.656429 kJ/mol
# Density = 2.431119 g / cm^3
# Si number density = 24.366647 Si / 1000 Ang^3
#
#
#
# Elastic Constant Matrix: (Units=GPa)
#
#
# Indices 1 2 3 4 5 6 
#
# 1 61.1689 18.2498 31.3228 0.0000 0.0629 0.0000
# 2 18.2498 66.0953 18.9759 0.0000 6.5679 0.0000
# 3 31.3228 18.9759 191.1951 0.0000 -5.4471 0.0000
# 4 0.0000 0.0000 0.0000 31.3661 0.0000 -2.5790
# 5 0.0629 6.5679 -5.4471 0.0000 44.7902 0.0000
# 6 0.0000 0.0000 0.0000 -2.5790 0.0000 29.0627
#
#
#
# Elastic Compliance Matrix: (Units=1/GPa)
#
#
# Indices 1 2 3 4 5 6 
#
# 1 0.019064 -0.004530 -0.002665 0.000000 0.000313 0.000000
# 2 -0.004530 0.016929 -0.001012 0.000000 -0.002599 0.000000
# 3 -0.002665 -0.001012 0.005792 0.000000 0.000857 0.000000
# 4 0.000000 0.000000 0.000000 0.032116 0.000000 0.002850
# 5 0.000313 -0.002599 0.000857 0.000000 0.022811 0.000000
# 6 0.000000 0.000000 0.000000 0.002850 0.000000 0.034661
#
#
# Mechanical properties :
#
#
# Convention : Reuss Voigt Hill
#
# Bulk Modulus (GPa) = 39.41442 50.61734 45.01588
# Shear Modulus (GPa) = 32.00130 37.70452 34.85291
#
# Velocity S-wave (km/s) = 3.62791 3.93795 3.78610
# Velocity P-wave (km/s) = 5.81031 6.44165 6.13411
#
# Compressibility (1/GPa) = 0.02537142
#
# Stress axis : x y z
#
# Youngs Moduli (GPa) = 52.45536 59.06915 172.66229
#
# Poissons Ratio (x) = 0.26758 0.46008
# Poissons Ratio (y) = 0.23762 0.17476
# Poissons Ratio (z) = 0.13977 0.05979
#
# Static dielectric constant tensor:
#      x y z
#    x 4.470620 0.000000 -0.172540 
#    y 0.000000 3.980500 0.000000 
#    z -0.172540 0.000000 4.803270 
# 
# 
# High freq. dielectric constant tensor:
#      x y z
#    x 1.968390 0.000000 -0.003400 
#    y 0.000000 1.938430 0.000000 
#    z -0.003400 0.000000 1.989540 
# 
# From -- ./inp_files/29160.got.cif
#   From: 2010.03.12/outbox.cif.g09.slc.cpg/sg5_15_cif.got.tgz:29160.got - 2010.03.31 09:47:26.
