data_PCOD8049056
_publ_section_title
;
Structure prediction by ZEFSAII (Michael W. Deem and Ramdas Pophale) SiO2 
 PCOD8049056
Probable space group: C 2
;
_chemical_formula_sum "Si O2"
_cell_formula_units_Z 32
_cell_length_a 13.690378
_cell_length_b 20.505002
_cell_length_c 13.920506
_cell_angle_alpha 90.000000
_cell_angle_beta 159.192895
_cell_angle_gamma 90.000000
_cell_volume 1388.133427
_symmetry_space_group_name_H-M "C 2"
_symmetry_group_IT_number 5
_symmetry_cell_setting 'monoclinic'
loop_
_space_group_symop_operation_xyz
x,y,z
-x,y,-z
1/2+x,1/2+y,z
1/2-x,1/2+y,-z
loop_
_atom_site_type_symbol
_atom_site_label
_atom_site_fract_x
_atom_site_fract_y
_atom_site_fract_z
Si Si1 0.575552 0.625000 0.799542
Si Si2 0.221769 0.367651 0.788671
Si Si3 0.785128 0.196550 0.881332
Si Si4 0.451821 0.039388 0.724275
Si Si5 0.281333 0.723787 0.220463
Si Si6 0.196776 0.558362 0.756276
Si Si7 0.011354 0.831648 0.625299
Si Si8 0.536820 0.897153 0.828004
O O1 0.337516 0.570698 0.573039
O O2 0.546504 0.677809 0.690695
O O3 0.557779 0.665861 0.882083
O O4 0.871083 0.590813 0.051151
O O5 0.293492 0.294327 0.892171
O O6 0.135522 0.402380 0.808454
O O7 0.000000 0.373470 0.500000
O O8 0.500000 0.399293 0.000000
O O9 0.615455 0.135353 0.684060
O O10 0.581976 0.256486 0.717244
O O11 0.000000 0.223517 0.000000
O O12 0.649666 0.025741 0.815080
O O13 0.419149 0.969605 0.747083
O O14 0.500000 0.741685 0.500000
O O15 0.000000 0.690344 0.000000
O O16 0.000000 0.522337 0.500000
O O17 0.500000 0.546750 0.000000
O O18 0.708667 0.844901 0.388716
O O19 0.000000 0.843835 0.500000
O O20 0.227179 0.878850 0.877920
#
# Coordination Sequence:
#
# PCOD8049056 Si02
#       8
#     4   4   4   4   4   4   4   4
#     4  11  23  41  66  94 126 166 208 268 332 386
#     4  10  22  40  66 100 131 163 210 267 336 410
#     4  10  21  39  66  99 131 160 204 266 340 406
#     4  11  24  41  61  90 127 170 223 261 308 391
#     4  10  21  39  62  91 122 154 204 266 325 382
#     4  10  20  35  59  92 126 159 197 257 329 393
#     4  12  26  44  67  96 132 180 232 280 330 388
#     4  12  26  45  66  92 135 184 225 275 325 384
#
# _framework density 23.05254
#
# number of rings (size 3 to 8) (size 9 to 14) (size 15 to 20)
#    0.000    1.250    0.000    6.750    0.000    9.000 
#    0.000    6.250    0.000    0.000    0.000    0.000 
#    0.000    0.000    0.000    0.000    0.000    0.000 
#
# Total GULP energy -198277.105930 kJ/mol
# GULP energy per Si atom -12392.319121 kJ/mol
# Density = 2.300007 g / cm^3
# Si number density = 23.052540 Si / 1000 Ang^3
#
#
#
# Elastic Constant Matrix: (Units=GPa)
#
#
# Indices 1 2 3 4 5 6 
#
# 1 80.9086 42.3659 36.7956 0.0014 3.0160 -0.0004
# 2 42.3659 113.6151 33.0021 0.0006 -1.4966 -0.0016
# 3 36.7956 33.0021 143.5343 0.0056 -0.3518 -0.0025
# 4 0.0014 0.0006 0.0056 18.2148 0.0012 16.6996
# 5 3.0160 -1.4966 -0.3518 0.0012 39.2387 -0.0003
# 6 -0.0004 -0.0016 -0.0025 16.6996 -0.0003 0.6117
#
#
#
# Elastic Compliance Matrix: (Units=1/GPa)
#
#
# Indices 1 2 3 4 5 6 
#
# 1 0.016581 -0.005322 -0.003031 -0.000001 -0.001505 0.000001
# 2 -0.005322 0.011145 -0.001196 0.000001 0.000823 0.000000
# 3 -0.003031 -0.001196 0.008019 0.000001 0.000259 -0.000004
# 4 -0.000001 0.000001 0.000001 -0.002285 0.000001 0.062374
# 5 -0.001505 0.000823 0.000259 0.000001 0.025634 -0.000002
# 6 0.000001 0.000000 -0.000004 0.062374 -0.000002 -0.068033
#
#
# Mechanical properties :
#
#
# Convention : Reuss Voigt Hill
#
# Bulk Modulus (GPa) = 60.07027 62.48723 61.27875
# Shear Modulus (GPa) = 318.30004 26.67267 172.48635
#
# Velocity S-wave (km/s) = 11.76332 3.40522 8.65942
# Velocity P-wave (km/s) = 14.51260 6.52886 11.25259
#
# Compressibility (1/GPa) = 0.01664717
#
# Stress axis : x y z
#
# Youngs Moduli (GPa) = 60.31053 89.72996 124.69642
#
# Poissons Ratio (x) = 0.47758 0.37789
# Poissons Ratio (y) = 0.32099 0.14913
# Poissons Ratio (z) = 0.18277 0.10732
#
# Static dielectric constant tensor:
#      x y z
#    x 4.013120 0.000000 -0.054460 
#    y 0.000000 4.200330 0.000000 
#    z -0.054460 0.000000 4.337460 
# 
# 
# High freq. dielectric constant tensor:
#      x y z
#    x 1.896590 0.000000 -0.001130 
#    y 0.000000 1.918740 0.000000 
#    z -0.001130 0.000000 1.920030 
# 
# From -- ./inp_files/55045.got.cif
#   From: 2010.03.12/outbox.cif.g09.slc.cpg/sg5_28_cif.got.tgz:55045.got - 2010.03.31 09:47:26.
