data_PCOD8049320
_publ_section_title
;
Structure prediction by ZEFSAII (Michael W. Deem and Ramdas Pophale) SiO2 
 PCOD8049320
Probable space group: C 2
;
_chemical_formula_sum "Si O2"
_cell_formula_units_Z 28
_cell_length_a 9.119946
_cell_length_b 11.399541
_cell_length_c 13.946700
_cell_angle_alpha 90.000000
_cell_angle_beta 129.250408
_cell_angle_gamma 90.000000
_cell_volume 1122.819078
_symmetry_space_group_name_H-M "C 2"
_symmetry_group_IT_number 5
_symmetry_cell_setting 'monoclinic'
loop_
_space_group_symop_operation_xyz
x,y,z
-x,y,-z
1/2+x,1/2+y,z
1/2-x,1/2+y,-z
loop_
_atom_site_type_symbol
_atom_site_label
_atom_site_fract_x
_atom_site_fract_y
_atom_site_fract_z
Si Si1 0.204102 0.381280 0.218252
Si Si2 0.049318 0.023260 0.361439
Si Si3 0.000000 0.021017 0.000000
Si Si4 0.044947 0.177198 0.845516
Si Si5 0.360191 0.272235 0.105585
Si Si6 0.500000 0.689935 0.500000
Si Si7 0.103008 0.516098 0.816300
Si Si8 0.258691 0.882417 0.300532
O O1 0.412116 0.418586 0.342686
O O2 0.219343 0.352611 0.111212
O O3 0.111113 0.276732 0.242144
O O4 0.064441 0.489524 0.179592
O O5 0.921626 0.102487 0.236199
O O6 0.119473 0.104358 0.478239
O O7 0.225971 0.966720 0.378733
O O8 0.943757 0.099137 0.884753
O O9 0.800445 0.959179 0.943023
O O10 0.246739 0.232213 0.963036
O O11 0.399433 0.157506 0.187979
O O12 0.556115 0.345642 0.165646
O O13 0.354762 0.764621 0.377702
O O14 0.096701 0.452020 0.709652
#
# Coordination Sequence:
#
# PCOD8049320 Si02
#       8
#     4   4   2   4   4   2   4   4
#     4  11  22  38  67  99 136 183 213 266 340 400
#     4  11  26  47  70  98 138 177 233 285 333 394
#     4  10  20  38  62 102 148 164 210 268 322 420
#     4  11  20  42  68 102 145 172 212 274 329 422
#     4  10  23  41  65 106 143 169 219 273 333 427
#     4  12  28  50  64 100 132 172 248 302 316 388
#     4  11  22  39  65 100 139 180 213 269 332 407
#     4  11  25  46  73  95 130 186 228 278 350 395
#
# _framework density 24.937232000000002
#
# number of rings (size 3 to 8) (size 9 to 14) (size 15 to 20)
#    0.000    1.143    4.286    1.714    2.000    6.857 
#    0.000    5.714    0.000    3.429    0.000    0.000 
#    0.000    0.000    0.000    0.000    0.000    0.000 
#
# Total GULP energy -173456.359545 kJ/mol
# GULP energy per Si atom -12389.739967 kJ/mol
# Density = 2.488047 g / cm^3
# Si number density = 24.937232 Si / 1000 Ang^3
#
#
#
# Elastic Constant Matrix: (Units=GPa)
#
#
# Indices 1 2 3 4 5 6 
#
# 1 108.0256 34.3047 0.8064 0.0000 -12.8304 0.0000
# 2 34.3047 95.3350 13.7803 0.0000 -18.0725 0.0000
# 3 0.8064 13.7803 31.9560 0.0000 -12.2451 0.0000
# 4 0.0000 0.0000 0.0000 28.3963 0.0000 3.2726
# 5 -12.8304 -18.0725 -12.2451 0.0000 27.1418 0.0000
# 6 0.0000 0.0000 0.0000 3.2726 0.0000 25.2887
#
#
#
# Elastic Compliance Matrix: (Units=1/GPa)
#
#
# Indices 1 2 3 4 5 6 
#
# 1 0.010839 -0.003541 0.002797 0.000000 0.004028 0.000000
# 2 -0.003541 0.013337 -0.003507 0.000000 0.005624 0.000000
# 3 0.002797 -0.003507 0.039107 0.000000 0.016631 0.000000
# 4 0.000000 0.000000 0.000000 0.035749 0.000000 -0.004626
# 5 0.004028 0.005624 0.016631 0.000000 0.049996 0.000000
# 6 0.000000 0.000000 0.000000 -0.004626 0.000000 0.040142
#
#
# Mechanical properties :
#
#
# Convention : Reuss Voigt Hill
#
# Bulk Modulus (GPa) = 18.25435 37.01106 27.63270
# Shear Modulus (GPa) = 23.15552 28.59371 25.87462
#
# Velocity S-wave (km/s) = 3.05052 3.38986 3.22466
# Velocity P-wave (km/s) = 4.44338 5.49504 4.99695
#
# Compressibility (1/GPa) = 0.05478147
#
# Stress axis : x y z
#
# Youngs Moduli (GPa) = 92.25898 74.98197 25.57073
#
# Poissons Ratio (x) = 0.26551 -0.07152
# Poissons Ratio (y) = 0.32669 0.08967
# Poissons Ratio (z) = -0.25804 0.26293
#
# Static dielectric constant tensor:
#      x y z
#    x 4.524320 0.000000 -0.063090 
#    y 0.000000 4.868400 0.000000 
#    z -0.063090 0.000000 4.024420 
# 
# 
# High freq. dielectric constant tensor:
#      x y z
#    x 2.001510 0.000000 -0.008520 
#    y 0.000000 2.014590 0.000000 
#    z -0.008520 0.000000 1.943910 
# 
# From -- ./inp_files/50565.got.cif
#   From: 2010.03.12/outbox.cif.g09.slc.cpg/sg5_26_cif.got.tgz:50565.got - 2010.03.31 09:47:26.
