data_PCOD8049851
_publ_section_title
;
Structure prediction by ZEFSAII (Michael W. Deem and Ramdas Pophale) SiO2 
 PCOD8049851
Probable space group: C 2
;
_chemical_formula_sum "Si O2"
_cell_formula_units_Z 28
_cell_length_a 25.184309
_cell_length_b 8.543906
_cell_length_c 21.568440
_cell_angle_alpha 90.000000
_cell_angle_beta 163.319157
_cell_angle_gamma 90.000000
_cell_volume 1332.134390
_symmetry_space_group_name_H-M "C 2"
_symmetry_group_IT_number 5
_symmetry_cell_setting 'monoclinic'
loop_
_space_group_symop_operation_xyz
x,y,z
-x,y,-z
1/2+x,1/2+y,z
1/2-x,1/2+y,-z
loop_
_atom_site_type_symbol
_atom_site_label
_atom_site_fract_x
_atom_site_fract_y
_atom_site_fract_z
Si Si1 0.744703 0.149020 0.146496
Si Si2 0.513658 0.136134 0.705121
Si Si3 0.814032 0.621972 0.652281
Si Si4 0.000953 0.444939 0.571006
Si Si5 0.289474 0.199061 0.756713
Si Si6 0.794906 0.393408 0.988914
Si Si7 0.321984 0.795665 0.607367
O O1 0.783749 0.111537 0.263223
O O2 0.842826 0.312944 0.240859
O O3 0.529430 0.164727 0.889784
O O4 0.816213 0.003842 0.184637
O O5 0.304053 0.176402 0.492886
O O6 0.517309 0.086481 0.637272
O O7 0.595242 0.999348 0.838789
O O8 0.647148 0.287151 0.859501
O O9 0.751776 0.594259 0.653742
O O10 0.710011 0.764763 0.501839
O O11 0.754915 0.468788 0.548928
O O12 0.803492 0.365108 0.359292
O O13 0.000000 0.513256 0.500000
O O14 0.500000 0.242939 0.000000
O O15 0.953835 0.288338 0.131055
#
# Coordination Sequence:
#
# PCOD8049851 Si02
#       7
#     4   4   4   4   4   4   4
#     4   9  19  41  62  90 123 158 212 253 305 378
#     4  12  25  41  66  92 129 167 208 261 322 368
#     4  10  21  37  61  93 120 165 206 255 310 366
#     4  10  22  42  61  93 123 164 209 257 314 376
#     4   9  19  37  67  88 118 166 209 250 310 379
#     4  11  25  41  64  99 123 168 210 261 314 371
#     4  11  23  41  59  93 130 160 210 257 310 367
#
# _framework density 21.018899999999999
#
# number of rings (size 3 to 8) (size 9 to 14) (size 15 to 20)
#    0.000    1.714    2.857    1.714    4.000    0.000 
#    7.714    0.000    0.000    0.000    0.000    0.000 
#    0.000    0.000    0.000    0.000    0.000    0.000 
#
# Total GULP energy -173478.007390 kJ/mol
# GULP energy per Si atom -12391.286242 kJ/mol
# Density = 2.097106 g / cm^3
# Si number density = 21.018900 Si / 1000 Ang^3
#
#
#
# Elastic Constant Matrix: (Units=GPa)
#
#
# Indices 1 2 3 4 5 6 
#
# 1 105.5569 41.5633 35.6355 -0.0079 -15.5407 -0.0043
# 2 41.5633 68.3946 32.3874 -0.0090 -11.3997 -0.0049
# 3 35.6355 32.3874 61.1371 -0.0127 -2.4420 -0.0075
# 4 -0.0079 -0.0090 -0.0127 34.9723 -0.0056 -1.7137
# 5 -15.5407 -11.3997 -2.4420 -0.0056 35.5204 -0.0025
# 6 -0.0043 -0.0049 -0.0075 -1.7137 -0.0025 35.7651
#
#
#
# Elastic Compliance Matrix: (Units=1/GPa)
#
#
# Indices 1 2 3 4 5 6 
#
# 1 0.013897 -0.005362 -0.005099 0.000001 0.004009 0.000000
# 2 -0.005362 0.022750 -0.008752 0.000002 0.004353 0.000001
# 3 -0.005099 -0.008752 0.023830 0.000005 -0.003402 0.000003
# 4 0.000001 0.000002 0.000005 0.028661 0.000006 0.001373
# 5 0.004009 0.004353 -0.003402 0.000006 0.031070 0.000003
# 6 0.000000 0.000001 0.000003 0.001373 0.000003 0.028026
#
#
# Mechanical properties :
#
#
# Convention : Reuss Voigt Hill
#
# Bulk Modulus (GPa) = 45.35466 50.47344 47.91405
# Shear Modulus (GPa) = 25.77181 29.61837 27.69509
#
# Velocity S-wave (km/s) = 3.50541 3.75791 3.63385
# Velocity P-wave (km/s) = 6.16512 6.54940 6.36016
#
# Compressibility (1/GPa) = 0.02204845
#
# Stress axis : x y z
#
# Youngs Moduli (GPa) = 71.96016 43.95651 41.96449
#
# Poissons Ratio (x) = 0.23570 0.21399
# Poissons Ratio (y) = 0.38586 0.36729
# Poissons Ratio (z) = 0.36695 0.38472
#
# Static dielectric constant tensor:
#      x y z
#    x 4.361950 0.000000 0.009930 
#    y 0.000000 3.592130 0.000000 
#    z 0.009930 0.000000 3.885300 
# 
# 
# High freq. dielectric constant tensor:
#      x y z
#    x 1.842140 0.000000 0.005720 
#    y 0.000000 1.793860 0.000000 
#    z 0.005720 0.000000 1.824730 
# 
# From -- ./inp_files/67386.got.cif
#   From: 2010.03.12/outbox.cif.g09.slc.cpg/sg5_34_cif.got.tgz:67386.got - 2010.03.31 09:47:26.
