data_PCOD8049760
_publ_section_title
;
Structure prediction by ZEFSAII (Michael W. Deem and Ramdas Pophale) SiO2 
 PCOD8049760
Probable space group: C 2
;
_chemical_formula_sum "Si O2"
_cell_formula_units_Z 26
_cell_length_a 23.284399
_cell_length_b 9.029184
_cell_length_c 6.413924
_cell_angle_alpha 90.000000
_cell_angle_beta 84.423446
_cell_angle_gamma 90.000000
_cell_volume 1342.075841
_symmetry_space_group_name_H-M "C 2"
_symmetry_group_IT_number 5
_symmetry_cell_setting 'monoclinic'
loop_
_space_group_symop_operation_xyz
x,y,z
-x,y,-z
1/2+x,1/2+y,z
1/2-x,1/2+y,-z
loop_
_atom_site_type_symbol
_atom_site_label
_atom_site_fract_x
_atom_site_fract_y
_atom_site_fract_z
Si Si1 0.237996 0.956790 0.854288
Si Si2 0.443456 0.481068 0.403095
Si Si3 0.500000 0.629545 0.000000
Si Si4 0.657568 0.948014 0.491493
Si Si5 0.230947 0.281002 0.764923
Si Si6 0.836132 0.772284 0.411331
Si Si7 0.056226 0.272717 0.360651
O O1 0.288751 0.971783 0.674211
O O2 0.190129 0.839234 0.792829
O O3 0.214210 0.124762 0.877950
O O4 0.261365 0.908134 0.067536
O O5 0.500000 0.417456 0.500000
O O6 0.394277 0.359757 0.439819
O O7 0.420878 0.624971 0.534347
O O8 0.459990 0.525287 0.159721
O O9 0.458878 0.735945 0.874650
O O10 0.674401 0.821227 0.650637
O O11 0.604149 0.899615 0.365549
O O12 0.645491 0.100868 0.620091
O O13 0.289827 0.286157 0.612288
O O14 0.000000 0.332541 0.500000
#
# Coordination Sequence:
#
# PCOD8049760 Si02
#       7
#     4   4   2   4   4   4   4
#     4  10  21  35  56  79 108 145 176 218 265 311
#     4   9  19  35  56  79 106 142 177 218 266 315
#     4   8  18  36  56  82 104 132 184 218 262 322
#     4  10  21  36  54  80 110 140 178 219 264 315
#     4  10  21  37  54  80 110 141 180 217 262 317
#     4  10  21  36  54  80 110 140 177 220 265 314
#     4   9  19  35  56  79 106 142 177 218 265 315
#
# _framework density 19.372973000000002
#
# number of rings (size 3 to 8) (size 9 to 14) (size 15 to 20)
#    0.000    2.769    0.000    1.846    0.000   10.462 
#    0.000    0.000    0.000    7.385    0.000    0.000 
#    0.000    0.000    0.000    0.000    0.000    0.000 
#
# Total GULP energy -161145.414304 kJ/mol
# GULP energy per Si atom -12395.801100 kJ/mol
# Density = 1.932888 g / cm^3
# Si number density = 19.372973 Si / 1000 Ang^3
#
#
#
# Elastic Constant Matrix: (Units=GPa)
#
#
# Indices 1 2 3 4 5 6 
#
# 1 90.4589 51.9911 15.5749 0.0000 26.9919 0.0000
# 2 51.9911 119.1123 35.3339 0.0000 13.0432 0.0000
# 3 15.5749 35.3339 95.7401 0.0000 23.2665 0.0000
# 4 0.0000 0.0000 0.0000 26.6813 0.0000 4.2330
# 5 26.9919 13.0432 23.2665 0.0000 17.0836 0.0000
# 6 0.0000 0.0000 0.0000 4.2330 0.0000 29.5946
#
#
#
# Elastic Compliance Matrix: (Units=1/GPa)
#
#
# Indices 1 2 3 4 5 6 
#
# 1 0.036304 -0.012942 0.015558 0.000000 -0.068668 0.000000
# 2 -0.012942 0.014198 -0.008175 0.000000 0.020742 0.000000
# 3 0.015558 -0.008175 0.023000 0.000000 -0.049664 0.000000
# 4 0.000000 0.000000 0.000000 0.038350 0.000000 -0.005485
# 5 -0.068668 0.020742 -0.049664 0.000000 0.218832 0.000000
# 6 0.000000 0.000000 0.000000 -0.005485 0.000000 0.034574
#
#
# Mechanical properties :
#
#
# Convention : Reuss Voigt Hill
#
# Bulk Modulus (GPa) = 16.02980 56.79013 36.40996
# Shear Modulus (GPa) = 12.58898 28.16600 20.37749
#
# Velocity S-wave (km/s) = 2.55193 3.81712 3.24674
# Velocity P-wave (km/s) = 4.12012 6.98605 5.73499
#
# Compressibility (1/GPa) = 0.06238381
#
# Stress axis : x y z
#
# Youngs Moduli (GPa) = 27.54504 70.43073 43.47733
#
# Poissons Ratio (x) = 0.91153 -0.67642
# Poissons Ratio (y) = 0.35649 0.35544
# Poissons Ratio (z) = -0.42854 0.57580
#
# Static dielectric constant tensor:
#      x y z
#    x 3.412590 0.000000 0.148190 
#    y 0.000000 3.590650 0.000000 
#    z 0.148190 0.000000 3.511060 
# 
# 
# High freq. dielectric constant tensor:
#      x y z
#    x 1.749010 0.000000 0.012600 
#    y 0.000000 1.749450 0.000000 
#    z 0.012600 0.000000 1.750500 
# 
# From -- ./inp_files/10168.got.cif
#   From: 2010.03.12/outbox.cif.g09.slc.cpg/sg5_6_cif.got.tgz:10168.got - 2010.03.31 09:47:26.
