data_PCOD8049267
_publ_section_title
;
Structure prediction by ZEFSAII (Michael W. Deem and Ramdas Pophale) SiO2 
 PCOD8049267
Probable space group: C 2
;
_chemical_formula_sum "Si O2"
_cell_formula_units_Z 28
_cell_length_a 20.575424
_cell_length_b 12.429490
_cell_length_c 17.449624
_cell_angle_alpha 90.000000
_cell_angle_beta 161.136476
_cell_angle_gamma 90.000000
_cell_volume 1442.826456
_symmetry_space_group_name_H-M "C 2"
_symmetry_group_IT_number 5
_symmetry_cell_setting 'monoclinic'
loop_
_space_group_symop_operation_xyz
x,y,z
-x,y,-z
1/2+x,1/2+y,z
1/2-x,1/2+y,-z
loop_
_atom_site_type_symbol
_atom_site_label
_atom_site_fract_x
_atom_site_fract_y
_atom_site_fract_z
Si Si1 0.731330 0.318000 0.938166
Si Si2 0.594011 0.972096 0.505401
Si Si3 0.271380 0.613657 0.888753
Si Si4 0.695034 0.666208 0.847056
Si Si5 0.500000 0.582108 0.000000
Si Si6 0.032114 0.006632 0.312684
Si Si7 0.023711 0.497095 0.247889
Si Si8 0.000000 0.278295 0.500000
O O1 0.677397 0.220516 0.821137
O O2 0.533286 0.386776 0.736267
O O3 0.814279 0.272314 0.110754
O O4 0.897193 0.392537 0.080866
O O5 0.596351 0.850690 0.540210
O O6 0.413751 0.038973 0.346709
O O7 0.820043 0.010524 0.767506
O O8 0.542308 0.984856 0.359099
O O9 0.408377 0.649861 0.968844
O O10 0.409108 0.547028 0.101486
O O11 0.511797 0.587647 0.666411
O O12 0.666177 0.702266 0.726553
O O13 0.907330 0.606300 0.096072
O O14 0.267053 0.001761 0.561307
#
# Coordination Sequence:
#
# PCOD8049267 Si02
#       8
#     4   4   4   4   2   4   4   2
#     4  10  20  37  65  90 119 169 214 254 309 377
#     4  12  22  38  61  95 132 156 198 265 322 372
#     4  11  21  39  60  91 129 165 208 260 327 362
#     4  10  22  39  62  92 128 164 205 268 316 371
#     4  12  24  36  60  94 132 158 198 272 314 372
#     4  10  21  38  63  91 122 168 216 257 304 387
#     4  11  21  40  64  91 125 167 216 255 304 394
#     4  12  22  42  66  96 130 160 202 272 332 354
#
# _framework density 19.406352999999999
#
# number of rings (size 3 to 8) (size 9 to 14) (size 15 to 20)
#    0.000    1.143    8.571    0.000    0.000    3.429 
#    2.571    0.000   18.857    0.000    0.000    0.000 
#    0.000    0.000    0.000    0.000    0.000    0.000 
#
# Total GULP energy -173534.961071 kJ/mol
# GULP energy per Si atom -12395.354362 kJ/mol
# Density = 1.936218 g / cm^3
# Si number density = 19.406353 Si / 1000 Ang^3
#
#
#
# Elastic Constant Matrix: (Units=GPa)
#
#
# Indices 1 2 3 4 5 6 
#
# 1 113.2882 53.0073 53.9510 -0.0164 7.4736 0.0008
# 2 53.0073 110.3960 47.1021 -0.0569 0.9591 -0.0169
# 3 53.9510 47.1021 109.1047 -0.0506 15.8965 -0.0228
# 4 -0.0164 -0.0569 -0.0506 24.0242 -0.0356 -5.5527
# 5 7.4736 0.9591 15.8965 -0.0356 47.5164 -0.0136
# 6 0.0008 -0.0169 -0.0228 -5.5527 -0.0136 29.1790
#
#
#
# Elastic Compliance Matrix: (Units=1/GPa)
#
#
# Indices 1 2 3 4 5 6 
#
# 1 0.013029 -0.004329 -0.004508 -0.000014 -0.000454 -0.000009
# 2 -0.004329 0.012638 -0.003550 0.000024 0.001614 0.000010
# 3 -0.004508 -0.003550 0.013470 0.000014 -0.003726 0.000009
# 4 -0.000014 0.000024 0.000014 0.043540 0.000032 0.008286
# 5 -0.000454 0.001614 -0.003726 0.000032 0.022331 0.000015
# 6 -0.000009 0.000010 0.000009 0.008286 0.000015 0.035848
#
#
# Mechanical properties :
#
#
# Convention : Reuss Voigt Hill
#
# Bulk Modulus (GPa) = 69.62371 71.21220 70.41795
# Shear Modulus (GPa) = 29.33976 32.05915 30.69946
#
# Velocity S-wave (km/s) = 3.89249 4.06888 3.98166
# Velocity P-wave (km/s) = 7.49377 7.67133 7.58307
#
# Compressibility (1/GPa) = 0.01436292
#
# Stress axis : x y z
#
# Youngs Moduli (GPa) = 76.75087 79.12898 74.23785
#
# Poissons Ratio (x) = 0.34253 0.33466
# Poissons Ratio (y) = 0.33223 0.26357
# Poissons Ratio (z) = 0.34598 0.28094
#
# Static dielectric constant tensor:
#      x y z
#    x 3.589540 -0.000030 0.022450 
#    y -0.000030 3.551100 -0.000050 
#    z 0.022450 -0.000050 3.479880 
# 
# 
# High freq. dielectric constant tensor:
#      x y z
#    x 1.751600 0.000000 -0.000100 
#    y 0.000000 1.751410 0.000000 
#    z -0.000100 0.000000 1.751610 
# 
# From -- ./inp_files/62903.got.cif
#   From: 2010.03.12/outbox.cif.g09.slc.cpg/sg5_32_cif.got.tgz:62903.got - 2010.03.31 09:47:26.
