data_PCOD8049419
_publ_section_title
;
Structure prediction by ZEFSAII (Michael W. Deem and Ramdas Pophale) SiO2 
 PCOD8049419
Probable space group: C 2
;
_chemical_formula_sum "Si O2"
_cell_formula_units_Z 32
_cell_length_a 18.679995
_cell_length_b 11.906772
_cell_length_c 8.666913
_cell_angle_alpha 90.000000
_cell_angle_beta 130.517103
_cell_angle_gamma 90.000000
_cell_volume 1465.446576
_symmetry_space_group_name_H-M "C 2"
_symmetry_group_IT_number 5
_symmetry_cell_setting 'monoclinic'
loop_
_space_group_symop_operation_xyz
x,y,z
-x,y,-z
1/2+x,1/2+y,z
1/2-x,1/2+y,-z
loop_
_atom_site_type_symbol
_atom_site_label
_atom_site_fract_x
_atom_site_fract_y
_atom_site_fract_z
Si Si1 0.091029 0.140390 0.023056
Si Si2 0.463027 0.870789 0.122816
Si Si3 0.970497 0.723986 0.632022
Si Si4 0.230061 0.731390 0.210922
Si Si5 0.777213 0.630092 0.467520
Si Si6 0.436666 0.401528 0.056764
Si Si7 0.370076 0.062736 0.120372
Si Si8 0.861299 0.433106 0.427379
O O1 0.181138 0.168629 0.253495
O O2 0.073150 0.245832 0.885040
O O3 0.000000 0.128356 0.000000
O O4 0.105519 0.022992 0.949369
O O5 0.537091 0.909443 0.357039
O O6 0.372690 0.952426 0.015427
O O7 0.500000 0.876373 0.000000
O O8 0.861467 0.704041 0.513765
O O9 0.000000 0.712568 0.500000
O O10 0.997859 0.849954 0.719357
O O11 0.035075 0.628750 0.801970
O O12 0.234344 0.653603 0.367788
O O13 0.320950 0.811763 0.319760
O O14 0.143985 0.816253 0.103798
O O15 0.217629 0.645627 0.047116
O O16 0.796885 0.496956 0.465380
O O17 0.500000 0.424656 0.000000
O O18 0.366901 0.022996 0.294269
#
# Coordination Sequence:
#
# PCOD8049419 Si02
#       8
#     4   4   4   4   4   4   4   4
#     4  10  23  42  62  95 140 178 224 288 353 399
#     4  11  22  42  69  97 135 183 237 284 342 416
#     4  11  21  39  67 100 132 171 231 281 344 402
#     4  11  24  40  69 102 131 182 236 283 347 410
#     4  12  22  41  71 100 130 182 234 288 335 419
#     4  10  20  39  63  92 135 175 216 286 344 402
#     4  11  24  41  67 100 139 180 225 291 349 407
#     4  12  24  45  67 101 145 181 229 295 347 413
#
# _framework density 21.836348000000001
#
# number of rings (size 3 to 8) (size 9 to 14) (size 15 to 20)
#    0.000    1.000    5.000    2.625    0.000    1.000 
#    0.000    2.500    0.000    0.000    0.000    0.000 
#    0.000    0.000    0.000    0.000    0.000    0.000 
#
# Total GULP energy -198258.703682 kJ/mol
# GULP energy per Si atom -12391.168980 kJ/mol
# Density = 2.178665 g / cm^3
# Si number density = 21.836348 Si / 1000 Ang^3
#
#
#
# Elastic Constant Matrix: (Units=GPa)
#
#
# Indices 1 2 3 4 5 6 
#
# 1 39.9413 21.5955 26.3146 0.0000 4.9579 0.0000
# 2 21.5955 177.1268 68.1548 0.0000 -5.1506 0.0000
# 3 26.3146 68.1548 107.1431 0.0000 6.4563 0.0000
# 4 0.0000 0.0000 0.0000 46.8277 0.0000 3.6604
# 5 4.9579 -5.1506 6.4563 0.0000 32.3995 0.0000
# 6 0.0000 0.0000 0.0000 3.6604 0.0000 3.0799
#
#
#
# Elastic Compliance Matrix: (Units=1/GPa)
#
#
# Indices 1 2 3 4 5 6 
#
# 1 0.030429 -0.001354 -0.006396 0.000000 -0.003597 0.000000
# 2 -0.001354 0.007688 -0.004701 0.000000 0.002366 0.000000
# 3 -0.006396 -0.004701 0.014049 0.000000 -0.002568 0.000000
# 4 0.000000 0.000000 0.000000 0.023542 0.000000 -0.027979
# 5 -0.003597 0.002366 -0.002568 0.000000 0.032303 0.000000
# 6 0.000000 0.000000 0.000000 -0.027979 0.000000 0.357936
#
#
# Mechanical properties :
#
#
# Convention : Reuss Voigt Hill
#
# Bulk Modulus (GPa) = 36.67545 61.81567 49.24556
# Shear Modulus (GPa) = 10.00129 30.33785 20.16957
#
# Velocity S-wave (km/s) = 2.14244 3.73141 3.04249
# Velocity P-wave (km/s) = 4.79084 6.85089 5.91129
#
# Compressibility (1/GPa) = 0.02726619
#
# Stress axis : x y z
#
# Youngs Moduli (GPa) = 32.86370 130.06882 71.17945
#
# Poissons Ratio (x) = 0.17606 0.45523
# Poissons Ratio (y) = 0.04448 0.33459
# Poissons Ratio (z) = 0.21018 0.61141
#
# Static dielectric constant tensor:
#      x y z
#    x 4.256800 0.000000 -0.195150 
#    y 0.000000 4.708860 0.000000 
#    z -0.195150 0.000000 4.079320 
# 
# 
# High freq. dielectric constant tensor:
#      x y z
#    x 1.835740 0.000000 0.010790 
#    y 0.000000 1.880560 0.000000 
#    z 0.010790 0.000000 1.850160 
# 
# From -- ./inp_files/29621.got.cif
#   From: 2010.03.12/outbox.cif.g09.slc.cpg/sg5_15_cif.got.tgz:29621.got - 2010.03.31 09:47:26.
