data_PCOD8049383
_publ_section_title
;
Structure prediction by ZEFSAII (Michael W. Deem and Ramdas Pophale) SiO2 
 PCOD8049383
Probable space group: C 2
;
_chemical_formula_sum "Si O2"
_cell_formula_units_Z 28
_cell_length_a 28.643297
_cell_length_b 9.141538
_cell_length_c 9.091184
_cell_angle_alpha 90.000000
_cell_angle_beta 145.035011
_cell_angle_gamma 90.000000
_cell_volume 1364.189735
_symmetry_space_group_name_H-M "C 2"
_symmetry_group_IT_number 5
_symmetry_cell_setting 'monoclinic'
loop_
_space_group_symop_operation_xyz
x,y,z
-x,y,-z
1/2+x,1/2+y,z
1/2-x,1/2+y,-z
loop_
_atom_site_type_symbol
_atom_site_label
_atom_site_fract_x
_atom_site_fract_y
_atom_site_fract_z
Si Si1 0.385936 0.529650 0.920668
Si Si2 0.702749 0.330022 0.515029
Si Si3 0.502627 0.313565 0.335670
Si Si4 0.926235 0.629227 0.911239
Si Si5 0.252370 0.950974 0.199066
Si Si6 0.357598 0.838262 0.723348
Si Si7 0.813196 0.749725 0.222545
O O1 0.367889 0.432548 0.730554
O O2 0.315968 0.519555 0.866840
O O3 0.396888 0.685842 0.872092
O O4 0.472815 0.477797 0.213441
O O5 0.664052 0.166241 0.390383
O O6 0.783743 0.367445 0.640821
O O7 0.723300 0.349116 0.739756
O O8 0.500000 0.293305 0.500000
O O9 0.590307 0.266369 0.504263
O O10 0.435196 0.203837 0.093645
O O11 0.928825 0.454953 0.937667
O O12 0.000000 0.684635 0.000000
O O13 0.323751 0.862408 0.469772
O O14 0.285697 0.080115 0.177122
O O15 0.213486 0.820808 0.000053
#
# Coordination Sequence:
#
# PCOD8049383 Si02
#       7
#     4   4   4   4   4   4   4
#     4  10  22  40  64  95 126 171 213 262 324 386
#     4  10  20  38  67  90 125 171 217 257 314 391
#     4  11  23  42  65  90 129 173 211 261 329 395
#     4  11  21  41  66  91 128 167 215 267 317 384
#     4  11  24  41  65  99 131 169 214 275 316 384
#     4  11  21  42  64  95 131 164 219 269 319 379
#     4  12  23  43  66  96 133 167 218 268 326 382
#
# _framework density 20.525005
#
# number of rings (size 3 to 8) (size 9 to 14) (size 15 to 20)
#    0.000    1.143    5.714    0.857    2.000    1.143 
#    2.571    2.143    0.000    0.000    0.000    0.000 
#    0.000    0.000    0.000    0.000    0.000    0.000 
#
# Total GULP energy -173464.791997 kJ/mol
# GULP energy per Si atom -12390.342285 kJ/mol
# Density = 2.047829 g / cm^3
# Si number density = 20.525005 Si / 1000 Ang^3
#
#
#
# Elastic Constant Matrix: (Units=GPa)
#
#
# Indices 1 2 3 4 5 6 
#
# 1 53.2138 33.4409 27.1825 0.0000 -12.8627 0.0000
# 2 33.4409 115.4045 42.8110 0.0000 -12.1770 0.0000
# 3 27.1825 42.8110 89.2561 0.0000 -13.1434 0.0000
# 4 0.0000 0.0000 0.0000 31.3597 0.0000 -0.1516
# 5 -12.8627 -12.1770 -13.1434 0.0000 38.5992 0.0000
# 6 0.0000 0.0000 0.0000 -0.1516 0.0000 34.0142
#
#
#
# Elastic Compliance Matrix: (Units=1/GPa)
#
#
# Indices 1 2 3 4 5 6 
#
# 1 0.025669 -0.005188 -0.004538 0.000000 0.005372 0.000000
# 2 -0.005188 0.011695 -0.003938 0.000000 0.000620 0.000000
# 3 -0.004538 -0.003938 0.014812 0.000000 0.002289 0.000000
# 4 0.000000 0.000000 0.000000 0.031889 0.000000 0.000142
# 5 0.005372 0.000620 0.002289 0.000000 0.028672 0.000000
# 6 0.000000 0.000000 0.000000 0.000142 0.000000 0.029400
#
#
# Mechanical properties :
#
#
# Convention : Reuss Voigt Hill
#
# Bulk Modulus (GPa) = 40.24560 51.63813 45.94187
# Shear Modulus (GPa) = 28.12989 31.09062 29.61026
#
# Velocity S-wave (km/s) = 3.70607 3.89622 3.80233
# Velocity P-wave (km/s) = 6.16149 6.74196 6.45825
#
# Compressibility (1/GPa) = 0.02484744
#
# Stress axis : x y z
#
# Youngs Moduli (GPa) = 38.95765 85.50842 67.51432
#
# Poissons Ratio (x) = 0.44361 0.30638
# Poissons Ratio (y) = 0.20211 0.26588
# Poissons Ratio (z) = 0.17679 0.33674
#
# Static dielectric constant tensor:
#      x y z
#    x 3.774210 0.000000 -0.067540 
#    y 0.000000 3.826640 0.000000 
#    z -0.067540 0.000000 3.983390 
# 
# 
# High freq. dielectric constant tensor:
#      x y z
#    x 1.799260 0.000000 -0.009570 
#    y 0.000000 1.796750 0.000000 
#    z -0.009570 0.000000 1.803500 
# 
# From -- ./inp_files/26695.got.cif
#   From: 2010.03.12/outbox.cif.g09.slc.cpg/sg5_14_cif.got.tgz:26695.got - 2010.03.31 09:47:26.
