data_PCOD8049961
_publ_section_title
;
Structure prediction by ZEFSAII (Michael W. Deem and Ramdas Pophale) SiO2 
 PCOD8049961
Probable space group: C 2
;
_chemical_formula_sum "Si O2"
_cell_formula_units_Z 22
_cell_length_a 26.597887
_cell_length_b 8.175991
_cell_length_c 16.272817
_cell_angle_alpha 90.000000
_cell_angle_beta 162.008101
_cell_angle_gamma 90.000000
_cell_volume 1093.059031
_symmetry_space_group_name_H-M "C 2"
_symmetry_group_IT_number 5
_symmetry_cell_setting 'monoclinic'
loop_
_space_group_symop_operation_xyz
x,y,z
-x,y,-z
1/2+x,1/2+y,z
1/2-x,1/2+y,-z
loop_
_atom_site_type_symbol
_atom_site_label
_atom_site_fract_x
_atom_site_fract_y
_atom_site_fract_z
Si Si1 0.500000 0.696890 0.000000
Si Si2 0.164935 0.339636 0.795928
Si Si3 0.339690 0.386978 0.792380
Si Si4 0.575663 0.625551 0.805050
Si Si5 0.510699 0.839531 0.185874
Si Si6 0.759129 0.633394 0.796528
O O1 0.362540 0.583738 0.830186
O O2 0.439107 0.807200 0.830477
O O3 0.133932 0.278223 0.840082
O O4 0.216320 0.179762 0.823356
O O5 0.000000 0.415463 0.500000
O O6 0.303477 0.474700 0.013218
O O7 0.320533 0.303306 0.851115
O O8 0.181458 0.365026 0.493175
O O9 0.500000 0.305382 0.000000
O O10 0.573507 0.689063 0.895989
O O11 0.397820 0.565727 0.497239
O O12 0.397667 0.998048 0.012400
#
# Coordination Sequence:
#
# PCOD8049961 Si02
#       6
#     2   4   4   4   4   4
#     4  10  24  36  56  86 112 154 198 234 282 336
#     4  10  21  39  62  84 117 150 187 234 290 342
#     4   9  23  39  57  82 119 153 193 236 287 333
#     4  10  22  39  59  89 114 150 191 235 287 345
#     4  11  23  38  60  87 117 151 198 235 286 340
#     4  10  22  38  59  86 117 152 189 237 287 341
#
# _framework density 20.127001
#
# number of rings (size 3 to 8) (size 9 to 14) (size 15 to 20)
#    0.545    1.455    0.000    2.182    3.818    4.364 
#    0.000    0.000    0.000    0.000    0.000    0.000 
#    0.000    0.000    0.000    0.000    0.000    0.000 
#
# Total GULP energy -136332.924653 kJ/mol
# GULP energy per Si atom -12393.902241 kJ/mol
# Density = 2.008119 g / cm^3
# Si number density = 20.127001 Si / 1000 Ang^3
#
#
#
# Elastic Constant Matrix: (Units=GPa)
#
#
# Indices 1 2 3 4 5 6 
#
# 1 85.8261 14.0768 32.0258 0.0000 -9.1119 0.0000
# 2 14.0768 68.1719 47.2488 0.0000 1.6361 0.0000
# 3 32.0258 47.2488 105.1585 0.0000 12.8685 0.0000
# 4 0.0000 0.0000 0.0000 -244.1870 0.0000 -17.4325
# 5 -9.1119 1.6361 12.8685 0.0000 28.9251 0.0000
# 6 0.0000 0.0000 0.0000 -17.4325 0.0000 28.0531
#
#
#
# Elastic Compliance Matrix: (Units=1/GPa)
#
#
# Indices 1 2 3 4 5 6 
#
# 1 0.014337 0.000708 -0.005533 0.000000 0.006938 0.000000
# 2 0.000708 0.021627 -0.010375 0.000000 0.003616 0.000000
# 3 -0.005533 -0.010375 0.016919 0.000000 -0.008683 0.000000
# 4 0.000000 0.000000 0.000000 -0.003921 0.000000 -0.002437
# 5 0.006938 0.003616 -0.008683 0.000000 0.040416 0.000000
# 6 0.000000 0.000000 0.000000 -0.002437 0.000000 0.034133
#
#
# Mechanical properties :
#
#
# Convention : Reuss Voigt Hill
#
# Bulk Modulus (GPa) = 44.48112 49.53992 47.01052
# Shear Modulus (GPa) = 30.97801 -26.38811 2.29495
#
# Velocity S-wave (km/s) = 3.92743 -3.62481 1.06898
# Velocity P-wave (km/s) = 6.53563 2.67359 4.99312
#
# Compressibility (1/GPa) = 0.02248145
#
# Stress axis : x y z
#
# Youngs Moduli (GPa) = 69.75098 46.23915 59.10513
#
# Poissons Ratio (x) = -0.03275 0.32706
# Poissons Ratio (y) = -0.04940 0.61323
# Poissons Ratio (z) = 0.38597 0.47974
#
# Static dielectric constant tensor:
#      x y z
#    x 4.297720 0.000000 0.189130 
#    y 0.000000 3.445880 0.000000 
#    z 0.189130 0.000000 3.699860 
# 
# 
# High freq. dielectric constant tensor:
#      x y z
#    x 1.800390 0.000000 0.001500 
#    y 0.000000 1.769120 0.000000 
#    z 0.001500 0.000000 1.789480 
# 
# From -- ./inp_files/52063.got.cif
#   From: 2010.03.12/outbox.cif.g09.slc.cpg/sg5_27_cif.got.tgz:52063.got - 2010.03.31 09:47:26.
