data_PCOD8049680
_publ_section_title
;
Structure prediction by ZEFSAII (Michael W. Deem and Ramdas Pophale) SiO2 
 PCOD8049680
Probable space group: C 2
;
_chemical_formula_sum "Si O2"
_cell_formula_units_Z 16
_cell_length_a 17.770488
_cell_length_b 6.968793
_cell_length_c 8.706646
_cell_angle_alpha 90.000000
_cell_angle_beta 44.050439
_cell_angle_gamma 90.000000
_cell_volume 749.677774
_symmetry_space_group_name_H-M "C 2"
_symmetry_group_IT_number 5
_symmetry_cell_setting 'monoclinic'
loop_
_space_group_symop_operation_xyz
x,y,z
-x,y,-z
1/2+x,1/2+y,z
1/2-x,1/2+y,-z
loop_
_atom_site_type_symbol
_atom_site_label
_atom_site_fract_x
_atom_site_fract_y
_atom_site_fract_z
Si Si1 0.002195 0.481690 0.751240
Si Si2 0.000000 0.174064 0.000000
Si Si3 0.000000 0.027909 0.500000
Si Si4 0.098114 0.863248 0.055915
Si Si5 0.851473 0.363669 0.707583
O O1 0.962642 0.667078 0.907018
O O2 0.895744 0.414405 0.812115
O O3 0.103138 0.517871 0.485273
O O4 0.044720 0.313686 0.801977
O O5 0.089146 0.031744 0.943005
O O6 0.098638 0.159356 0.416034
O O7 0.039340 0.899349 0.302787
O O8 0.224322 0.840303 0.900514
#
# Coordination Sequence:
#
# PCOD8049680 Si02
#       5
#     4   2   2   4   4
#     4  10  23  44  66  98 132 165 226 268 306 399
#     4  12  24  46  60 100 146 156 212 282 318 380
#     4  10  20  42  70  98 128 162 232 266 300 400
#     4  12  23  43  72  91 131 182 204 268 337 367
#     4  10  21  45  69  96 126 172 226 264 308 390
#
# _framework density 21.342503000000001
#
# number of rings (size 3 to 8) (size 9 to 14) (size 15 to 20)
#    0.000    1.500    5.000    3.750    0.000    0.000 
#   13.500    0.000    0.000    0.000    0.000    0.000 
#    0.000    0.000    0.000    0.000    0.000    0.000 
#
# Total GULP energy -99111.439550 kJ/mol
# GULP energy per Si atom -12388.929944 kJ/mol
# Density = 2.129393 g / cm^3
# Si number density = 21.342503 Si / 1000 Ang^3
#
#
#
# Elastic Constant Matrix: (Units=GPa)
#
#
# Indices 1 2 3 4 5 6 
#
# 1 83.4035 45.2712 66.2032 0.0000 8.5346 0.0000
# 2 45.2712 118.4314 57.0490 0.0000 -2.1109 0.0000
# 3 66.2032 57.0490 108.3698 0.0000 -10.0193 0.0000
# 4 0.0000 0.0000 0.0000 29.7734 0.0000 4.0683
# 5 8.5346 -2.1109 -10.0193 0.0000 31.0498 0.0000
# 6 0.0000 0.0000 0.0000 4.0683 0.0000 -11.4170
#
#
#
# Elastic Compliance Matrix: (Units=1/GPa)
#
#
# Indices 1 2 3 4 5 6 
#
# 1 0.028625 -0.002887 -0.017227 0.000000 -0.013623 0.000000
# 2 -0.002887 0.011646 -0.004351 0.000000 0.000181 0.000000
# 3 -0.017227 -0.004351 0.023143 0.000000 0.011907 0.000000
# 4 0.000000 0.000000 0.000000 0.032028 0.000000 0.011413
# 5 -0.013623 0.000181 0.011907 0.000000 0.039805 0.000000
# 6 0.000000 0.000000 0.000000 0.011413 0.000000 -0.083522
#
#
# Mechanical properties :
#
#
# Convention : Reuss Voigt Hill
#
# Bulk Modulus (GPa) = 69.03470 71.91683 70.47576
# Shear Modulus (GPa) = 47.40129 19.32666 33.36398
#
# Velocity S-wave (km/s) = 4.71784 3.01250 3.95810
# Velocity P-wave (km/s) = 7.87996 6.77273 7.34723
#
# Compressibility (1/GPa) = 0.01448547
#
# Stress axis : x y z
#
# Youngs Moduli (GPa) = 34.93443 85.86566 43.20996
#
# Poissons Ratio (x) = 0.24786 0.74438
# Poissons Ratio (y) = 0.10084 0.18799
# Poissons Ratio (z) = 0.60181 0.37357
#
# Static dielectric constant tensor:
#      x y z
#    x 3.793830 0.000000 0.169420 
#    y 0.000000 4.132520 0.000000 
#    z 0.169420 0.000000 3.787600 
# 
# 
# High freq. dielectric constant tensor:
#      x y z
#    x 1.821670 0.000000 0.018770 
#    y 0.000000 1.846980 0.000000 
#    z 0.018770 0.000000 1.826890 
# 
# From -- ./inp_files/17823.got.cif
#   From: 2010.03.12/outbox.cif.g09.slc.cpg/sg5_9_cif.got.tgz:17823.got - 2010.03.31 09:47:26.
