data_PCOD8049481
_publ_section_title
;
Structure prediction by ZEFSAII (Michael W. Deem and Ramdas Pophale) SiO2 
 PCOD8049481
Probable space group: C 2
;
_chemical_formula_sum "Si O2"
_cell_formula_units_Z 28
_cell_length_a 15.820181
_cell_length_b 9.790051
_cell_length_c 9.225860
_cell_angle_alpha 90.000000
_cell_angle_beta 69.978152
_cell_angle_gamma 90.000000
_cell_volume 1342.544741
_symmetry_space_group_name_H-M "C 2"
_symmetry_group_IT_number 5
_symmetry_cell_setting 'monoclinic'
loop_
_space_group_symop_operation_xyz
x,y,z
-x,y,-z
1/2+x,1/2+y,z
1/2-x,1/2+y,-z
loop_
_atom_site_type_symbol
_atom_site_label
_atom_site_fract_x
_atom_site_fract_y
_atom_site_fract_z
Si Si1 0.000000 0.508220 0.000000
Si Si2 0.726186 0.482285 0.351760
Si Si3 0.685180 0.130772 0.956745
Si Si4 0.435401 0.507454 0.726784
Si Si5 0.903287 0.325280 0.288303
Si Si6 0.811732 0.942314 0.044001
Si Si7 0.000000 0.248052 0.500000
Si Si8 0.874701 0.021126 0.308794
O O1 0.078802 0.607034 0.008271
O O2 0.032053 0.414338 0.849338
O O3 0.766356 0.601463 0.225789
O O4 0.636715 0.418997 0.325661
O O5 0.799382 0.365386 0.332287
O O6 0.699454 0.542988 0.523291
O O7 0.703112 0.285742 0.995574
O O8 0.722526 0.028154 0.058293
O O9 0.439450 0.654687 0.643438
O O10 0.536206 0.443781 0.678222
O O11 0.395310 0.514716 0.912655
O O12 0.910031 0.168139 0.234267
O O13 0.935340 0.341023 0.437419
O O14 0.831465 0.938343 0.203204
#
# Coordination Sequence:
#
# PCOD8049481 Si02
#       8
#     2   4   4   4   4   4   2   4
#     4  10  24  44  66  90 140 164 224 264 332 378
#     4  10  21  41  63  91 133 165 215 268 326 374
#     4  10  26  46  65  97 130 179 206 284 319 395
#     4  10  20  40  60  94 123 171 208 272 304 385
#     4  10  23  38  66  96 130 175 214 271 322 387
#     4  11  26  40  69  95 135 166 230 259 338 378
#     4  10  20  40  66  94 130 168 224 256 330 376
#     4  11  23  37  66 100 123 177 218 268 316 399
#
# _framework density 20.855917000000002
#
# number of rings (size 3 to 8) (size 9 to 14) (size 15 to 20)
#    0.000    1.714    2.857    0.429   14.000    3.429 
#    0.000    0.000    0.000    0.000    0.000    0.000 
#    0.000    0.000    0.000    0.000    0.000    0.000 
#
# Total GULP energy -173520.101449 kJ/mol
# GULP energy per Si atom -12394.292961 kJ/mol
# Density = 2.080845 g / cm^3
# Si number density = 20.855917 Si / 1000 Ang^3
#
#
#
# Elastic Constant Matrix: (Units=GPa)
#
#
# Indices 1 2 3 4 5 6 
#
# 1 176.2570 54.8473 56.8286 0.0000 10.9702 0.0000
# 2 54.8473 97.1509 26.2653 0.0000 8.5804 0.0000
# 3 56.8286 26.2653 116.4180 0.0000 6.3635 0.0000
# 4 0.0000 0.0000 0.0000 23.9060 0.0000 6.0265
# 5 10.9702 8.5804 6.3635 0.0000 36.0396 0.0000
# 6 0.0000 0.0000 0.0000 6.0265 0.0000 30.1728
#
#
#
# Elastic Compliance Matrix: (Units=1/GPa)
#
#
# Indices 1 2 3 4 5 6 
#
# 1 0.007778 -0.003504 -0.002951 0.000000 -0.001012 0.000000
# 2 -0.003504 0.012715 -0.001061 0.000000 -0.001773 0.000000
# 3 -0.002951 -0.001061 0.010306 0.000000 -0.000669 0.000000
# 4 0.000000 0.000000 0.000000 0.044048 0.000000 -0.008798
# 5 -0.001012 -0.001773 -0.000669 0.000000 0.028596 0.000000
# 6 0.000000 0.000000 0.000000 -0.008798 0.000000 0.034900
#
#
# Mechanical properties :
#
#
# Convention : Reuss Voigt Hill
#
# Bulk Modulus (GPa) = 63.42398 73.96757 68.69578
# Shear Modulus (GPa) = 31.51947 34.81598 33.16772
#
# Velocity S-wave (km/s) = 3.89176 4.09021 3.99222
# Velocity P-wave (km/s) = 7.11835 7.60588 7.36615
#
# Compressibility (1/GPa) = 0.01576691
#
# Stress axis : x y z
#
# Youngs Moduli (GPa) = 128.56061 78.64684 97.02839
#
# Poissons Ratio (x) = 0.27559 0.28634
# Poissons Ratio (y) = 0.45049 0.10297
# Poissons Ratio (z) = 0.37939 0.08346
#
# Static dielectric constant tensor:
#      x y z
#    x 4.184890 0.000000 0.079550 
#    y 0.000000 3.355050 0.000000 
#    z 0.079550 0.000000 3.867230 
# 
# 
# High freq. dielectric constant tensor:
#      x y z
#    x 1.838110 0.000000 0.004260 
#    y 0.000000 1.772430 0.000000 
#    z 0.004260 0.000000 1.822090 
# 
# From -- ./inp_files/23624.got.cif
#   From: 2010.03.12/outbox.cif.g09.slc.cpg/sg5_12_cif.got.tgz:23624.got - 2010.03.31 09:47:26.
