data_PCOD8049170
_publ_section_title
;
Structure prediction by ZEFSAII (Michael W. Deem and Ramdas Pophale) SiO2 
 PCOD8049170
Probable space group: C 2
;
_chemical_formula_sum "Si O2"
_cell_formula_units_Z 20
_cell_length_a 8.085850
_cell_length_b 17.578057
_cell_length_c 7.441278
_cell_angle_alpha 90.000000
_cell_angle_beta 122.339716
_cell_angle_gamma 90.000000
_cell_volume 893.603541
_symmetry_space_group_name_H-M "C 2"
_symmetry_group_IT_number 5
_symmetry_cell_setting 'monoclinic'
loop_
_space_group_symop_operation_xyz
x,y,z
-x,y,-z
1/2+x,1/2+y,z
1/2-x,1/2+y,-z
loop_
_atom_site_type_symbol
_atom_site_label
_atom_site_fract_x
_atom_site_fract_y
_atom_site_fract_z
Si Si1 0.500000 0.977890 0.000000
Si Si2 0.794657 0.241034 0.065966
Si Si3 0.404865 0.259516 0.673237
Si Si4 0.090886 0.360163 0.355782
Si Si5 0.795130 0.071486 0.948316
Si Si6 0.000000 0.625464 0.500000
O O1 0.421165 0.932356 0.780831
O O2 0.689262 0.026652 0.048862
O O3 0.700946 0.243283 0.204964
O O4 0.986555 0.292392 0.183631
O O5 0.636760 0.275415 0.833017
O O6 0.850578 0.155538 0.047861
O O7 0.313528 0.331869 0.516423
O O8 0.370036 0.180547 0.549201
O O9 0.000000 0.377921 0.500000
O O10 0.644472 0.071409 0.695022
O O11 0.000000 0.032771 0.000000
#
# Coordination Sequence:
#
# PCOD8049170 Si02
#       6
#     2   4   4   4   4   2
#     4  12  28  46  68 102 150 184 224 284 354 416
#     4   9  19  40  69  99 127 172 239 285 329 405
#     4   9  18  35  64 104 128 167 226 291 334 392
#     4  10  23  43  67  95 139 181 225 283 344 404
#     4  11  24  45  69  99 142 185 229 285 345 411
#     4  10  20  36  72 102 134 174 240 286 336 406
#
# _framework density 22.381288000000001
#
# number of rings (size 3 to 8) (size 9 to 14) (size 15 to 20)
#    0.000    2.000    0.000    3.600    8.400    0.000 
#    7.200    5.000    0.000    0.000    0.000    0.000 
#    0.000    0.000    0.000    0.000    0.000    0.000 
#
# Total GULP energy -123947.225013 kJ/mol
# GULP energy per Si atom -12394.722501 kJ/mol
# Density = 2.233035 g / cm^3
# Si number density = 22.381288 Si / 1000 Ang^3
#
#
#
# Elastic Constant Matrix: (Units=GPa)
#
#
# Indices 1 2 3 4 5 6 
#
# 1 114.2239 55.5011 60.9952 0.0000 17.0887 0.0000
# 2 55.5011 95.5979 58.4142 0.0000 2.7638 0.0000
# 3 60.9952 58.4142 127.3206 0.0000 -6.4680 0.0000
# 4 0.0000 0.0000 0.0000 27.2013 0.0000 -22.1765
# 5 17.0887 2.7638 -6.4680 0.0000 27.1745 0.0000
# 6 0.0000 0.0000 0.0000 -22.1765 0.0000 30.8805
#
#
#
# Elastic Compliance Matrix: (Units=1/GPa)
#
#
# Indices 1 2 3 4 5 6 
#
# 1 0.016167 -0.005552 -0.005755 0.000000 -0.010972 0.000000
# 2 -0.005552 0.016705 -0.004973 0.000000 0.000609 0.000000
# 3 -0.005755 -0.004973 0.013263 0.000000 0.007282 0.000000
# 4 0.000000 0.000000 0.000000 0.088688 0.000000 0.063690
# 5 -0.010972 0.000609 0.007282 0.000000 0.045370 0.000000
# 6 0.000000 0.000000 0.000000 0.063690 0.000000 0.078121
#
#
# Mechanical properties :
#
#
# Convention : Reuss Voigt Hill
#
# Bulk Modulus (GPa) = 73.67208 76.32926 75.00067
# Shear Modulus (GPa) = 16.92607 27.86672 22.39639
#
# Velocity S-wave (km/s) = 2.75300 3.53241 3.16678
# Velocity P-wave (km/s) = 6.56457 7.12849 6.85233
#
# Compressibility (1/GPa) = 0.01357366
#
# Stress axis : x y z
#
# Youngs Moduli (GPa) = 61.85292 59.86086 75.39731
#
# Poissons Ratio (x) = 0.33237 0.43393
# Poissons Ratio (y) = 0.34343 0.37499
# Poissons Ratio (z) = 0.35598 0.29772
#
# Static dielectric constant tensor:
#      x y z
#    x 4.054810 0.000000 -0.485720 
#    y 0.000000 3.796930 0.000000 
#    z -0.485720 0.000000 3.566770 
# 
# 
# High freq. dielectric constant tensor:
#      x y z
#    x 1.894290 0.000000 -0.015770 
#    y 0.000000 1.851780 0.000000 
#    z -0.015770 0.000000 1.898890 
# 
# From -- ./inp_files/16218.got.cif
#   From: 2010.03.12/outbox.cif.g09.slc.cpg/sg5_9_cif.got.tgz:16218.got - 2010.03.31 09:47:26.
