data_PCOD8049427
_publ_section_title
;
Structure prediction by ZEFSAII (Michael W. Deem and Ramdas Pophale) SiO2 
 PCOD8049427
Probable space group: C 2
;
_chemical_formula_sum "Si O2"
_cell_formula_units_Z 28
_cell_length_a 14.117475
_cell_length_b 10.081734
_cell_length_c 20.108431
_cell_angle_alpha 90.000000
_cell_angle_beta 150.888291
_cell_angle_gamma 90.000000
_cell_volume 1392.405504
_symmetry_space_group_name_H-M "C 2"
_symmetry_group_IT_number 5
_symmetry_cell_setting 'monoclinic'
loop_
_space_group_symop_operation_xyz
x,y,z
-x,y,-z
1/2+x,1/2+y,z
1/2-x,1/2+y,-z
loop_
_atom_site_type_symbol
_atom_site_label
_atom_site_fract_x
_atom_site_fract_y
_atom_site_fract_z
Si Si1 0.024064 0.654540 0.436743
Si Si2 0.038135 0.274394 0.860043
Si Si3 0.435843 0.542230 0.699962
Si Si4 0.323753 0.023028 0.688245
Si Si5 0.019955 0.966721 0.612257
Si Si6 0.680834 0.672785 0.148622
Si Si7 0.587097 0.276037 0.831671
O O1 0.223542 0.582080 0.542460
O O2 0.000000 0.643335 0.500000
O O3 0.846127 0.581512 0.286706
O O4 0.013175 0.807914 0.408156
O O5 0.026171 0.144616 0.807029
O O6 0.961791 0.394566 0.768343
O O7 0.907338 0.263505 0.846523
O O8 0.262083 0.299181 0.015728
O O9 0.563753 0.526368 0.711796
O O10 0.438256 0.399325 0.737478
O O11 0.201700 0.014707 0.680954
O O12 0.460851 0.149068 0.771313
O O13 0.179896 0.029447 0.537678
O O14 0.791214 0.762557 0.162060
O O15 0.500000 0.596641 0.000000
#
# Coordination Sequence:
#
# PCOD8049427 Si02
#       7
#     4   4   4   4   4   4   4
#     4  12  19  41  64  92 124 165 212 257 303 384
#     4  11  21  41  65  88 127 171 208 253 306 388
#     4  12  23  38  65  97 124 159 216 261 312 366
#     4  11  21  42  63  87 126 164 206 258 311 374
#     4  11  21  38  64  89 121 164 211 254 308 371
#     4  10  20  39  64  91 123 167 211 250 306 382
#     4  11  24  38  61  98 127 161 210 262 318 359
#
# _framework density 20.109085
#
# number of rings (size 3 to 8) (size 9 to 14) (size 15 to 20)
#    0.000    0.857    7.143    1.714    0.000    0.000 
#    2.571    3.571    0.000    0.000    0.000    0.000 
#    0.000    0.000    0.000    0.000    0.000    0.000 
#
# Total GULP energy -173476.219131 kJ/mol
# GULP energy per Si atom -12391.158509 kJ/mol
# Density = 2.006332 g / cm^3
# Si number density = 20.109085 Si / 1000 Ang^3
#
#
#
# Elastic Constant Matrix: (Units=GPa)
#
#
# Indices 1 2 3 4 5 6 
#
# 1 89.9423 58.6334 40.7086 -0.0013 -8.2888 0.0002
# 2 58.6334 98.0744 21.6445 -0.0034 4.2998 0.0026
# 3 40.7086 21.6445 132.1827 -0.0046 -5.9834 0.0037
# 4 -0.0013 -0.0034 -0.0046 25.8170 -0.0024 3.9562
# 5 -8.2888 4.2998 -5.9834 -0.0024 29.8546 0.0011
# 6 0.0002 0.0026 0.0037 3.9562 0.0011 11.1926
#
#
#
# Elastic Compliance Matrix: (Units=1/GPa)
#
#
# Indices 1 2 3 4 5 6 
#
# 1 0.021809 -0.012378 -0.004375 -0.000001 0.006961 0.000004
# 2 -0.012378 0.017711 0.000647 0.000002 -0.005858 -0.000004
# 3 -0.004375 0.000647 0.008828 0.000002 0.000461 -0.000004
# 4 -0.000001 0.000002 0.000002 0.040952 0.000004 -0.014475
# 5 0.006961 -0.005858 0.000461 0.000004 0.036364 -0.000004
# 6 0.000004 -0.000004 -0.000004 -0.014475 -0.000004 0.094461
#
#
# Mechanical properties :
#
#
# Convention : Reuss Voigt Hill
#
# Bulk Modulus (GPa) = 61.97533 62.46362 62.21947
# Shear Modulus (GPa) = 19.40126 26.65370 23.02748
#
# Velocity S-wave (km/s) = 3.10949 3.64463 3.38765
# Velocity P-wave (km/s) = 6.61653 6.98863 6.80512
#
# Compressibility (1/GPa) = 0.01613545
#
# Stress axis : x y z
#
# Youngs Moduli (GPa) = 45.85242 56.46315 113.28231
#
# Poissons Ratio (x) = 0.69891 0.49556
# Poissons Ratio (y) = 0.56757 -0.07328
# Poissons Ratio (z) = 0.20059 -0.03653
#
# Static dielectric constant tensor:
#      x y z
#    x 3.706570 0.000020 -0.063520 
#    y 0.000020 3.386090 0.000020 
#    z -0.063520 0.000020 4.531650 
# 
# 
# High freq. dielectric constant tensor:
#      x y z
#    x 1.783180 0.000000 -0.010670 
#    y 0.000000 1.747210 0.000000 
#    z -0.010670 0.000000 1.815800 
# 
# From -- ./inp_files/56929.got.cif
#   From: 2010.03.12/outbox.cif.g09.slc.cpg/sg5_29_cif.got.tgz:56929.got - 2010.03.31 09:47:26.
