data_PCOD8049303
_publ_section_title
;
Structure prediction by ZEFSAII (Michael W. Deem and Ramdas Pophale) SiO2 
 PCOD8049303
Probable space group: C 2
;
_chemical_formula_sum "Si O2"
_cell_formula_units_Z 26
_cell_length_a 8.269188
_cell_length_b 12.879859
_cell_length_c 20.235596
_cell_angle_alpha 90.000000
_cell_angle_beta 141.466654
_cell_angle_gamma 90.000000
_cell_volume 1342.632367
_symmetry_space_group_name_H-M "C 2"
_symmetry_group_IT_number 5
_symmetry_cell_setting 'monoclinic'
loop_
_space_group_symop_operation_xyz
x,y,z
-x,y,-z
1/2+x,1/2+y,z
1/2-x,1/2+y,-z
loop_
_atom_site_type_symbol
_atom_site_label
_atom_site_fract_x
_atom_site_fract_y
_atom_site_fract_z
Si Si1 0.997977 0.582800 0.115827
Si Si2 0.271378 0.541616 0.338865
Si Si3 0.500000 0.468752 0.000000
Si Si4 0.958109 0.367629 0.655910
Si Si5 0.000000 0.713030 0.500000
Si Si6 0.985563 0.818039 0.881268
Si Si7 0.648608 0.066528 0.440354
Si Si8 0.000000 0.432261 0.000000
O O1 0.169635 0.582954 0.236765
O O2 0.980941 0.700096 0.082983
O O3 0.102425 0.505416 0.092492
O O4 0.711740 0.546219 0.040489
O O5 0.166408 0.423705 0.318424
O O6 0.178242 0.608893 0.373784
O O7 0.580345 0.548811 0.435280
O O8 0.388744 0.393349 0.908364
O O9 0.761395 0.277244 0.572819
O O10 0.980464 0.452032 0.604170
O O11 0.245663 0.320572 0.753924
O O12 0.034630 0.642617 0.576593
O O13 0.258169 0.858462 0.939720
#
# Coordination Sequence:
#
# PCOD8049303 Si02
#       8
#     4   4   2   4   2   4   4   2
#     4  11  21  40  63  86 120 162 198 255 303 359
#     4   9  18  42  58  82 132 155 190 252 296 351
#     4  10  20  38  60  82 122 156 196 262 306 348
#     4  10  20  39  60  88 125 156 202 241 298 364
#     4  12  20  38  68  86 120 170 198 240 302 356
#     4  11  22  39  62  88 116 163 202 248 310 357
#     4   9  20  37  61  89 123 157 199 243 291 359
#     4  10  26  42  60  94 122 146 220 258 288 362
#
# _framework density 19.364944999999999
#
# number of rings (size 3 to 8) (size 9 to 14) (size 15 to 20)
#    0.923    0.923    3.077    1.846    0.000    2.462 
#    2.769    4.615    0.000    0.000    0.000    0.000 
#    0.000    0.000    0.000    0.000    0.000    0.000 
#
# Total GULP energy -161068.457055 kJ/mol
# GULP energy per Si atom -12389.881312 kJ/mol
# Density = 1.932087 g / cm^3
# Si number density = 19.364945 Si / 1000 Ang^3
#
#
#
# Elastic Constant Matrix: (Units=GPa)
#
#
# Indices 1 2 3 4 5 6 
#
# 1 37.2512 18.5269 12.9214 0.0000 -5.2894 0.0000
# 2 18.5269 107.8935 27.8102 0.0000 4.9064 0.0000
# 3 12.9214 27.8102 96.8906 -0.0001 -2.6214 0.0000
# 4 0.0000 0.0000 -0.0001 20.3642 0.0000 -1.9772
# 5 -5.2894 4.9064 -2.6214 0.0000 28.3157 0.0000
# 6 0.0000 0.0000 0.0000 -1.9772 0.0000 20.2058
#
#
#
# Elastic Compliance Matrix: (Units=1/GPa)
#
#
# Indices 1 2 3 4 5 6 
#
# 1 0.031119 -0.004980 -0.002546 0.000000 0.006440 0.000000
# 2 -0.004980 0.010921 -0.002553 0.000000 -0.003059 0.000000
# 3 -0.002546 -0.002553 0.011421 0.000000 0.001024 0.000000
# 4 0.000000 0.000000 0.000000 0.049577 0.000000 0.004851
# 5 0.006440 -0.003059 0.001024 0.000000 0.037144 0.000000
# 6 0.000000 0.000000 0.000000 0.004851 0.000000 0.049966
#
#
# Mechanical properties :
#
#
# Convention : Reuss Voigt Hill
#
# Bulk Modulus (GPa) = 30.02850 40.06140 35.04495
# Shear Modulus (GPa) = 22.58278 25.96225 24.27251
#
# Velocity S-wave (km/s) = 3.41862 3.66551 3.54422
# Velocity P-wave (km/s) = 5.57879 6.21668 5.90635
#
# Compressibility (1/GPa) = 0.03330170
#
# Stress axis : x y z
#
# Youngs Moduli (GPa) = 32.13427 91.56864 87.55769
#
# Poissons Ratio (x) = 0.45603 0.22296
# Poissons Ratio (y) = 0.16003 0.22355
# Poissons Ratio (z) = 0.08183 0.23379
#
# Static dielectric constant tensor:
#      x y z
#    x 3.373710 0.000000 -0.067660 
#    y 0.000000 3.532890 0.000000 
#    z -0.067660 0.000000 3.451140 
# 
# 
# High freq. dielectric constant tensor:
#      x y z
#    x 1.737980 0.000000 0.005100 
#    y 0.000000 1.754140 0.000000 
#    z 0.005100 0.000000 1.752970 
# 
# From -- ./inp_files/64518.got.cif
#   From: 2010.03.12/outbox.cif.g09.slc.cpg/sg5_33_cif.got.tgz:64518.got - 2010.03.31 09:47:26.
