data_PCOD8049842
_publ_section_title
;
Structure prediction by ZEFSAII (Michael W. Deem and Ramdas Pophale) SiO2 
 PCOD8049842
Probable space group: C 2
;
_chemical_formula_sum "Si O2"
_cell_formula_units_Z 30
_cell_length_a 24.840271
_cell_length_b 8.160600
_cell_length_c 14.099240
_cell_angle_alpha 90.000000
_cell_angle_beta 29.173000
_cell_angle_gamma 90.000000
_cell_volume 1393.165270
_symmetry_space_group_name_H-M "C 2"
_symmetry_group_IT_number 5
_symmetry_cell_setting 'monoclinic'
loop_
_space_group_symop_operation_xyz
x,y,z
-x,y,-z
1/2+x,1/2+y,z
1/2-x,1/2+y,-z
loop_
_atom_site_type_symbol
_atom_site_label
_atom_site_fract_x
_atom_site_fract_y
_atom_site_fract_z
Si Si1 0.153851 0.320200 0.683970
Si Si2 0.901179 0.823578 0.026602
Si Si3 0.269102 0.835323 0.072509
Si Si4 0.090130 0.822300 0.493652
Si Si5 0.500000 0.065920 0.000000
Si Si6 0.638243 0.179791 0.115595
Si Si7 0.794513 0.145198 0.212053
Si Si8 0.618743 0.493839 0.636937
O O1 0.136475 0.237417 0.813596
O O2 0.274233 0.399407 0.488776
O O3 0.131606 0.187791 0.635897
O O4 0.062095 0.462981 0.822580
O O5 0.863492 0.767680 0.981737
O O6 0.017956 0.916957 0.850466
O O7 0.906255 0.671367 0.090354
O O8 0.809002 0.951607 0.201784
O O9 0.151291 0.888242 0.303713
O O10 0.243063 0.737548 0.016077
O O11 0.333009 0.715774 0.048972
O O12 0.348247 0.985951 0.922907
O O13 0.164198 0.677691 0.426813
O O14 0.091852 0.971942 0.566365
O O15 0.972184 0.735628 0.657424
#
# Coordination Sequence:
#
# PCOD8049842 Si02
#       8
#     4   4   4   4   2   4   4   4
#     4  11  21  39  58  87 123 168 207 265 310 388
#     4  11  22  38  60  93 120 169 210 262 312 389
#     4  10  21  40  68  94 125 170 205 273 321 383
#     4   8  21  40  66  90 128 165 204 275 316 386
#     4  12  24  36  60  86 130 170 212 258 322 370
#     4  11  21  39  68  90 128 166 217 257 331 378
#     4   9  20  39  62  87 126 158 208 266 320 370
#     4  10  21  37  60  86 123 164 213 255 325 369
#
# _framework density 21.533697
#
# number of rings (size 3 to 8) (size 9 to 14) (size 15 to 20)
#    0.800    1.067    0.000    4.400    0.000    0.000 
#    0.000    1.333    5.867    0.000    0.000    0.000 
#    0.000    0.000    0.000    0.000    0.000    0.000 
#
# Total GULP energy -185903.893674 kJ/mol
# GULP energy per Si atom -12393.592912 kJ/mol
# Density = 2.148469 g / cm^3
# Si number density = 21.533697 Si / 1000 Ang^3
#
#
#
# Elastic Constant Matrix: (Units=GPa)
#
#
# Indices 1 2 3 4 5 6 
#
# 1 91.0006 48.1543 13.1998 -0.0001 1.3075 0.0000
# 2 48.1543 132.6166 26.9557 -0.0002 -1.7267 0.0001
# 3 13.1998 26.9557 43.5059 -0.0002 0.7774 0.0001
# 4 -0.0001 -0.0002 -0.0002 35.5052 0.0000 0.5978
# 5 1.3075 -1.7267 0.7774 0.0000 21.3134 0.0000
# 6 0.0000 0.0001 0.0001 0.5978 0.0000 35.4180
#
#
#
# Elastic Compliance Matrix: (Units=1/GPa)
#
#
# Indices 1 2 3 4 5 6 
#
# 1 0.013689 -0.004743 -0.001193 0.000000 -0.001181 0.000000
# 2 -0.004743 0.010288 -0.004958 0.000000 0.001305 0.000000
# 3 -0.001193 -0.004958 0.026443 0.000000 -0.001293 0.000000
# 4 0.000000 0.000000 0.000000 0.028173 0.000000 -0.000476
# 5 -0.001181 0.001305 -0.001293 0.000000 0.047144 0.000000
# 6 0.000000 0.000000 0.000000 -0.000476 0.000000 0.028242
#
#
# Mechanical properties :
#
#
# Convention : Reuss Voigt Hill
#
# Bulk Modulus (GPa) = 34.92906 49.30475 42.11691
# Shear Modulus (GPa) = 26.98156 30.36822 28.67489
#
# Velocity S-wave (km/s) = 3.54360 3.75942 3.65311
# Velocity P-wave (km/s) = 5.74445 6.46457 6.11512
#
# Compressibility (1/GPa) = 0.02862946
#
# Stress axis : x y z
#
# Youngs Moduli (GPa) = 73.05111 97.20294 37.81778
#
# Poissons Ratio (x) = 0.46108 0.04512
# Poissons Ratio (y) = 0.34652 0.18751
# Poissons Ratio (z) = 0.08716 0.48196
#
# Static dielectric constant tensor:
#      x y z
#    x 3.826850 0.000000 -0.032720 
#    y 0.000000 3.832280 0.000000 
#    z -0.032720 0.000000 3.722100 
# 
# 
# High freq. dielectric constant tensor:
#      x y z
#    x 1.847170 0.000000 -0.001340 
#    y 0.000000 1.835990 0.000000 
#    z -0.001340 0.000000 1.828640 
# 
# From -- ./inp_files/57606.got.cif
#   From: 2010.03.12/outbox.cif.g09.slc.cpg/sg5_29_cif.got.tgz:57606.got - 2010.03.31 09:47:26.
