data_PCOD8049153
_publ_section_title
;
Structure prediction by ZEFSAII (Michael W. Deem and Ramdas Pophale) SiO2 
 PCOD8049153
Probable space group: C 2
;
_chemical_formula_sum "Si O2"
_cell_formula_units_Z 32
_cell_length_a 18.127954
_cell_length_b 5.179988
_cell_length_c 19.857896
_cell_angle_alpha 90.000000
_cell_angle_beta 128.743546
_cell_angle_gamma 90.000000
_cell_volume 1454.388105
_symmetry_space_group_name_H-M "C 2"
_symmetry_group_IT_number 5
_symmetry_cell_setting 'monoclinic'
loop_
_space_group_symop_operation_xyz
x,y,z
-x,y,-z
1/2+x,1/2+y,z
1/2-x,1/2+y,-z
loop_
_atom_site_type_symbol
_atom_site_label
_atom_site_fract_x
_atom_site_fract_y
_atom_site_fract_z
Si Si1 0.173723 0.830340 0.687791
Si Si2 0.368406 0.589915 0.200469
Si Si3 0.309915 0.995549 0.523757
Si Si4 0.647410 0.577916 0.252366
Si Si5 0.459890 0.909190 0.713505
Si Si6 0.781257 0.753433 0.979487
Si Si7 0.971789 0.801280 0.140184
Si Si8 0.330016 0.839067 0.387759
O O1 0.288875 0.793376 0.749821
O O2 0.124491 0.567139 0.632724
O O3 0.144738 0.884457 0.747620
O O4 0.136029 0.060134 0.617924
O O5 0.442202 0.812387 0.264831
O O6 0.266454 0.709240 0.121202
O O7 0.409577 0.455972 0.158420
O O8 0.245071 0.766057 0.517897
O O9 0.398744 0.061263 0.623031
O O10 0.354249 0.891974 0.479215
O O11 0.604782 0.671774 0.299080
O O12 0.558034 0.470613 0.157750
O O13 0.715970 0.341816 0.313158
O O14 0.482064 0.062028 0.794779
O O15 0.748288 0.539865 0.014612
O O16 0.896249 0.727298 0.038756
#
# Coordination Sequence:
#
# PCOD8049153 Si02
#       8
#     4   4   4   4   4   4   4   4
#     4  10  22  39  63  84 128 174 205 242 324 394
#     4  10  23  39  62  95 124 171 213 262 322 395
#     4  12  22  37  62  94 125 157 214 272 320 365
#     4   9  19  36  58  93 119 167 198 259 310 375
#     4  11  21  36  65  93 124 157 220 266 315 373
#     4  10  20  38  60  93 122 157 203 269 328 368
#     4  10  20  36  64  95 125 155 217 270 318 369
#     4  10  21  39  59  87 121 169 204 248 319 373
#
# _framework density 22.002381
#
# number of rings (size 3 to 8) (size 9 to 14) (size 15 to 20)
#    0.750    1.000    2.500    3.000    3.500    0.000 
#    0.000    0.625    0.000    4.500    0.000    0.000 
#    0.000    0.000    0.000    0.000    0.000    0.000 
#
# Total GULP energy -198213.144348 kJ/mol
# GULP energy per Si atom -12388.321522 kJ/mol
# Density = 2.195230 g / cm^3
# Si number density = 22.002381 Si / 1000 Ang^3
#
#
#
# Elastic Constant Matrix: (Units=GPa)
#
#
# Indices 1 2 3 4 5 6 
#
# 1 37.3865 12.4374 13.4355 -0.0002 -0.7239 -0.0001
# 2 12.4374 89.5874 9.1472 0.0004 6.1215 0.0002
# 3 13.4355 9.1472 82.7853 -0.0004 18.8031 0.0003
# 4 -0.0002 0.0004 -0.0004 26.2025 -0.0001 1.2162
# 5 -0.7239 6.1215 18.8031 -0.0001 21.4899 0.0003
# 6 -0.0001 0.0002 0.0003 1.2162 0.0003 27.7611
#
#
#
# Elastic Compliance Matrix: (Units=1/GPa)
#
#
# Indices 1 2 3 4 5 6 
#
# 1 0.030508 -0.004122 -0.006235 0.000000 0.007657 0.000000
# 2 -0.004122 0.011969 0.000190 0.000000 -0.003715 0.000000
# 3 -0.006235 0.000190 0.016387 0.000000 -0.014602 0.000000
# 4 0.000000 0.000000 0.000000 0.038242 0.000000 -0.001675
# 5 0.007657 -0.003715 -0.014602 0.000000 0.060626 0.000000
# 6 0.000000 0.000000 0.000000 -0.001675 0.000000 0.036095
#
#
# Mechanical properties :
#
#
# Convention : Reuss Voigt Hill
#
# Bulk Modulus (GPa) = 25.95368 31.08882 28.52125
# Shear Modulus (GPa) = 22.02602 26.73997 24.38300
#
# Velocity S-wave (km/s) = 3.16741 3.48993 3.33257
# Velocity P-wave (km/s) = 5.01977 5.51361 5.27248
#
# Compressibility (1/GPa) = 0.03853019
#
# Stress axis : x y z
#
# Youngs Moduli (GPa) = 32.77841 83.54957 61.02402
#
# Poissons Ratio (x) = 0.34439 0.38049
# Poissons Ratio (y) = 0.13511 -0.01161
# Poissons Ratio (z) = 0.20437 -0.01589
#
# Static dielectric constant tensor:
#      x y z
#    x 3.608760 0.000000 0.393250 
#    y 0.000000 3.980200 0.000000 
#    z 0.393250 0.000000 4.150810 
# 
# 
# High freq. dielectric constant tensor:
#      x y z
#    x 1.828600 0.000000 0.021990 
#    y 0.000000 1.871510 0.000000 
#    z 0.021990 0.000000 1.854720 
# 
# From -- ./inp_files/66468.got.cif
#   From: 2010.03.12/outbox.cif.g09.slc.cpg/sg5_34_cif.got.tgz:66468.got - 2010.03.31 09:47:26.
