data_PCOD8049297
_publ_section_title
;
Structure prediction by ZEFSAII (Michael W. Deem and Ramdas Pophale) SiO2 
 PCOD8049297
Probable space group: C 2
;
_chemical_formula_sum "Si O2"
_cell_formula_units_Z 30
_cell_length_a 19.200973
_cell_length_b 14.056949
_cell_length_c 14.325228
_cell_angle_alpha 90.000000
_cell_angle_beta 20.610999
_cell_angle_gamma 90.000000
_cell_volume 1361.083709
_symmetry_space_group_name_H-M "C 2"
_symmetry_group_IT_number 5
_symmetry_cell_setting 'monoclinic'
loop_
_space_group_symop_operation_xyz
x,y,z
-x,y,-z
1/2+x,1/2+y,z
1/2-x,1/2+y,-z
loop_
_atom_site_type_symbol
_atom_site_label
_atom_site_fract_x
_atom_site_fract_y
_atom_site_fract_z
Si Si1 0.500000 0.765671 0.500000
Si Si2 0.278552 0.219819 0.307512
Si Si3 0.716645 0.396332 0.966790
Si Si4 0.558596 0.817055 0.825831
Si Si5 0.621366 0.621229 0.690938
Si Si6 0.846381 0.797148 0.772599
Si Si7 0.825895 0.912107 0.354629
Si Si8 0.826060 0.589990 0.788059
O O1 0.646750 0.702559 0.379758
O O2 0.387153 0.827170 0.718845
O O3 0.199878 0.149648 0.488094
O O4 0.266136 0.332931 0.352432
O O5 0.500000 0.191612 0.000000
O O6 0.806905 0.499748 0.880642
O O7 0.610686 0.362649 0.193431
O O8 0.559492 0.402371 0.080048
O O9 0.665061 0.712960 0.701330
O O10 0.711432 0.892761 0.594201
O O11 0.500000 0.855385 0.000000
O O12 0.375489 0.810473 0.984826
O O13 0.721589 0.524408 0.607655
O O14 0.386827 0.604733 0.992531
O O15 0.882955 0.689696 0.764850
O O16 0.000000 0.825091 0.500000
O O17 0.000000 0.561083 0.500000
#
# Coordination Sequence:
#
# PCOD8049297 Si02
#       8
#     2   4   4   4   4   4   4   4
#     4  12  22  38  68  98 132 170 212 274 320 390
#     4  11  23  43  67  95 130 173 218 264 331 384
#     4  11  20  36  63  92 127 163 210 265 320 376
#     4  10  20  38  59  85 117 165 209 254 315 374
#     4   9  21  39  62  92 126 162 215 265 315 387
#     4  10  21  39  61  87 122 166 212 263 316 381
#     4  10  21  40  62  92 127 165 208 268 317 381
#     4   9  18  36  59  89 125 158 205 262 314 375
#
# _framework density 22.041259
#
# number of rings (size 3 to 8) (size 9 to 14) (size 15 to 20)
#    0.000    1.867    2.000    3.200    0.000    1.067 
#    2.400    6.667   27.867    0.000    0.000    0.000 
#    0.000    0.000    0.000    0.000    0.000    0.000 
#
# Total GULP energy -185847.886013 kJ/mol
# GULP energy per Si atom -12389.859068 kJ/mol
# Density = 2.199109 g / cm^3
# Si number density = 22.041259 Si / 1000 Ang^3
#
#
#
# Elastic Constant Matrix: (Units=GPa)
#
#
# Indices 1 2 3 4 5 6 
#
# 1 62.8231 4.2358 12.4292 -0.0038 0.6707 0.0058
# 2 4.2358 88.6020 23.5004 0.0002 3.7330 0.0011
# 3 12.4292 23.5004 122.4073 -0.0029 10.1318 0.0096
# 4 -0.0038 0.0002 -0.0029 15.7566 0.0108 10.1566
# 5 0.6707 3.7330 10.1318 0.0108 33.2525 -0.0109
# 6 0.0058 0.0011 0.0096 10.1566 -0.0109 16.6639
#
#
#
# Elastic Compliance Matrix: (Units=1/GPa)
#
#
# Indices 1 2 3 4 5 6 
#
# 1 0.016256 -0.000362 -0.001598 0.000011 0.000200 -0.000011
# 2 -0.000362 0.011914 -0.002196 0.000000 -0.000661 0.000000
# 3 -0.001598 -0.002196 0.008956 0.000011 -0.002450 -0.000013
# 4 0.000011 0.000000 0.000011 0.104536 -0.000059 -0.063715
# 5 0.000200 -0.000661 -0.002450 -0.000059 0.030890 0.000057
# 6 -0.000011 0.000000 -0.000013 -0.063715 0.000057 0.098844
#
#
# Mechanical properties :
#
#
# Convention : Reuss Voigt Hill
#
# Bulk Modulus (GPa) = 34.70363 39.35147 37.02755
# Shear Modulus (GPa) = 17.28242 28.71239 22.99740
#
# Velocity S-wave (km/s) = 2.80321 3.61316 3.23364
# Velocity P-wave (km/s) = 5.12409 5.94129 5.54776
#
# Compressibility (1/GPa) = 0.02881543
#
# Stress axis : x y z
#
# Youngs Moduli (GPa) = 61.51545 83.93486 111.65638
#
# Poissons Ratio (x) = 0.03037 0.17839
# Poissons Ratio (y) = 0.02226 0.24518
# Poissons Ratio (z) = 0.09828 0.18431
#
# Static dielectric constant tensor:
#      x y z
#    x 3.542890 -0.000040 -0.051890 
#    y -0.000040 4.246100 0.000040 
#    z -0.051890 0.000040 4.246500 
# 
# 
# High freq. dielectric constant tensor:
#      x y z
#    x 1.831530 0.000000 -0.000900 
#    y 0.000000 1.860360 0.000000 
#    z -0.000900 0.000000 1.890680 
# 
# From -- ./inp_files/57124.got.cif
#   From: 2010.03.12/outbox.cif.g09.slc.cpg/sg5_29_cif.got.tgz:57124.got - 2010.03.31 09:47:26.
