data_PCOD8049311
_publ_section_title
;
Structure prediction by ZEFSAII (Michael W. Deem and Ramdas Pophale) SiO2 
 PCOD8049311
Probable space group: C 2
;
_chemical_formula_sum "Si O2"
_cell_formula_units_Z 30
_cell_length_a 10.532490
_cell_length_b 9.542666
_cell_length_c 26.222009
_cell_angle_alpha 90.000000
_cell_angle_beta 149.385413
_cell_angle_gamma 90.000000
_cell_volume 1342.167642
_symmetry_space_group_name_H-M "C 2"
_symmetry_group_IT_number 5
_symmetry_cell_setting 'monoclinic'
loop_
_space_group_symop_operation_xyz
x,y,z
-x,y,-z
1/2+x,1/2+y,z
1/2-x,1/2+y,-z
loop_
_atom_site_type_symbol
_atom_site_label
_atom_site_fract_x
_atom_site_fract_y
_atom_site_fract_z
Si Si1 0.747636 0.259650 0.552916
Si Si2 0.822397 0.162157 0.835701
Si Si3 0.085444 0.483772 0.257379
Si Si4 0.347250 0.735704 0.224611
Si Si5 0.500000 0.745298 0.000000
Si Si6 0.402890 0.560899 0.520366
Si Si7 0.916072 0.468033 0.856965
Si Si8 0.617885 0.422474 0.910183
O O1 0.500000 0.222157 0.500000
O O2 0.769689 0.426266 0.550992
O O3 0.997347 0.218808 0.669507
O O4 0.748188 0.175721 0.499256
O O5 0.773584 0.319367 0.799831
O O6 0.990821 0.153479 0.945875
O O7 0.560140 0.085860 0.754078
O O8 0.989103 0.072229 0.852926
O O9 0.013624 0.320062 0.241087
O O10 0.374534 0.500806 0.368455
O O11 0.021229 0.528786 0.177506
O O12 0.266838 0.579645 0.178176
O O13 0.090894 0.818849 0.141611
O O14 0.256250 0.848389 0.910482
O O15 0.500000 0.625808 0.500000
O O16 0.170136 0.440079 0.973792
#
# Coordination Sequence:
#
# PCOD8049311 Si02
#       8
#     4   4   4   4   2   4   4   4
#     4  11  24  48  72 104 139 180 228 291 356 411
#     4  10  22  37  60  93 125 172 226 262 327 395
#     4  11  22  42  66  91 133 176 218 279 344 396
#     4  11  22  43  69  94 141 180 218 282 344 396
#     4  10  20  38  60  90 136 172 220 276 328 384
#     4  11  24  46  73 101 136 174 231 291 348 418
#     4  11  22  39  64  98 131 173 230 268 325 414
#     4  10  22  39  64  95 135 181 221 276 333 398
#
# _framework density 22.351901999999999
#
# number of rings (size 3 to 8) (size 9 to 14) (size 15 to 20)
#    0.000    1.333    4.000    3.200    0.000    5.333 
#    2.400    0.000    0.000    0.000    0.000    0.000 
#    0.000    0.000    0.000    0.000    0.000    0.000 
#
# Total GULP energy -185929.176064 kJ/mol
# GULP energy per Si atom -12395.278404 kJ/mol
# Density = 2.230103 g / cm^3
# Si number density = 22.351902 Si / 1000 Ang^3
#
#
#
# Elastic Constant Matrix: (Units=GPa)
#
#
# Indices 1 2 3 4 5 6 
#
# 1 79.4035 21.8831 0.6445 0.0000 2.6994 0.0000
# 2 21.8831 119.4542 7.0244 0.0000 10.1030 0.0000
# 3 0.6445 7.0244 83.1575 0.0000 -0.6783 0.0000
# 4 0.0000 0.0000 0.0000 25.5743 0.0000 -1.5729
# 5 2.6994 10.1030 -0.6783 0.0000 22.7061 0.0000
# 6 0.0000 0.0000 0.0000 -1.5729 0.0000 34.4216
#
#
#
# Elastic Compliance Matrix: (Units=1/GPa)
#
#
# Indices 1 2 3 4 5 6 
#
# 1 0.013270 -0.002393 0.000095 0.000000 -0.000510 0.000000
# 2 -0.002393 0.009180 -0.000788 0.000000 -0.003823 0.000000
# 3 0.000095 -0.000788 0.012097 0.000000 0.000701 0.000000
# 4 0.000000 0.000000 0.000000 0.039212 0.000000 0.001792
# 5 -0.000510 -0.003823 0.000701 0.000000 0.045824 0.000000
# 6 0.000000 0.000000 0.000000 0.001792 0.000000 0.029133
#
#
# Mechanical properties :
#
#
# Convention : Reuss Voigt Hill
#
# Bulk Modulus (GPa) = 35.24362 37.90213 36.57287
# Shear Modulus (GPa) = 30.42353 33.37126 31.89739
#
# Velocity S-wave (km/s) = 3.69333 3.86812 3.78174
# Velocity P-wave (km/s) = 5.83005 6.07813 5.95538
#
# Compressibility (1/GPa) = 0.02837393
#
# Stress axis : x y z
#
# Youngs Moduli (GPa) = 75.35742 108.93735 82.66564
#
# Poissons Ratio (x) = 0.26074 -0.00787
# Poissons Ratio (y) = 0.18037 0.06514
# Poissons Ratio (z) = -0.00717 0.08585
#
# Static dielectric constant tensor:
#      x y z
#    x 4.130270 0.000000 0.112410 
#    y 0.000000 4.308190 0.000000 
#    z 0.112410 0.000000 3.868700 
# 
# 
# High freq. dielectric constant tensor:
#      x y z
#    x 1.868310 0.000000 0.007100 
#    y 0.000000 1.888330 0.000000 
#    z 0.007100 0.000000 1.873440 
# 
# From -- ./inp_files/71721.got.cif
#   From: 2010.03.12/outbox.cif.g09.slc.cpg/sg5_36_cif.got.tgz:71721.got - 2010.03.31 09:47:26.
