data_PCOD8049332
_publ_section_title
;
Structure prediction by ZEFSAII (Michael W. Deem and Ramdas Pophale) SiO2 
 PCOD8049332
Probable space group: C 2
;
_chemical_formula_sum "Si O2"
_cell_formula_units_Z 30
_cell_length_a 23.339073
_cell_length_b 13.477904
_cell_length_c 14.425334
_cell_angle_alpha 90.000000
_cell_angle_beta 19.374175
_cell_angle_gamma 90.000000
_cell_volume 1505.304596
_symmetry_space_group_name_H-M "C 2"
_symmetry_group_IT_number 5
_symmetry_cell_setting 'monoclinic'
loop_
_space_group_symop_operation_xyz
x,y,z
-x,y,-z
1/2+x,1/2+y,z
1/2-x,1/2+y,-z
loop_
_atom_site_type_symbol
_atom_site_label
_atom_site_fract_x
_atom_site_fract_y
_atom_site_fract_z
Si Si1 0.733557 0.209520 0.497277
Si Si2 0.000000 0.669132 0.000000
Si Si3 0.990166 0.309976 0.235464
Si Si4 0.438604 0.031533 0.325904
Si Si5 0.051277 0.193651 0.320309
Si Si6 0.236027 0.047040 0.298294
Si Si7 0.308614 0.324880 0.620144
Si Si8 0.049735 0.660976 0.317765
O O1 0.555068 0.235398 0.826793
O O2 0.890284 0.226458 0.328887
O O3 0.711186 0.095221 0.497287
O O4 0.765487 0.280925 0.362155
O O5 0.169411 0.601389 0.760176
O O6 0.889522 0.415516 0.391707
O O7 0.008590 0.280656 0.313920
O O8 0.178478 0.314511 0.904081
O O9 0.456026 0.072104 0.404283
O O10 0.626384 0.044659 0.994259
O O11 0.000000 0.234359 0.500000
O O12 0.934656 0.099329 0.476725
O O13 0.247466 0.158442 0.010430
O O14 0.165228 0.940626 0.439218
O O15 0.483184 0.268067 0.382425
O O16 0.000000 0.644357 0.500000
#
# Coordination Sequence:
#
# PCOD8049332 Si02
#       8
#     4   2   4   4   4   4   4   4
#     4  10  21  37  64  89 128 155 201 260 318 371
#     4  10  20  38  62  88 126 158 200 264 316 366
#     4  11  22  39  65  93 121 164 212 255 314 379
#     4   9  22  40  63  91 124 164 208 259 311 371
#     4  12  24  40  65  91 124 168 215 259 306 368
#     4  10  21  39  64  92 119 163 215 251 306 377
#     4  10  23  38  65  93 120 163 211 255 312 379
#     4  11  22  42  62  88 131 166 204 266 313 359
#
# _framework density 19.929521999999999
#
# number of rings (size 3 to 8) (size 9 to 14) (size 15 to 20)
#    0.000    1.600    4.000    0.400    5.600    2.133 
#    0.000    1.333    5.867    0.000    0.000    0.000 
#    0.000    0.000    0.000    0.000    0.000    0.000 
#
# Total GULP energy -185915.295189 kJ/mol
# GULP energy per Si atom -12394.353013 kJ/mol
# Density = 1.988416 g / cm^3
# Si number density = 19.929522 Si / 1000 Ang^3
#
#
#
# Elastic Constant Matrix: (Units=GPa)
#
#
# Indices 1 2 3 4 5 6 
#
# 1 129.8898 37.9090 36.9021 -0.0003 7.4362 0.0002
# 2 37.9090 104.8935 36.3157 0.0000 -5.7806 0.0004
# 3 36.9021 36.3157 76.8964 -0.0007 -4.1636 0.0008
# 4 -0.0003 0.0000 -0.0007 27.0012 0.0007 2.3926
# 5 7.4362 -5.7806 -4.1636 0.0007 43.7780 -0.0004
# 6 0.0002 0.0004 0.0008 2.3926 -0.0004 19.5296
#
#
#
# Elastic Compliance Matrix: (Units=1/GPa)
#
#
# Indices 1 2 3 4 5 6 
#
# 1 0.009529 -0.002323 -0.003599 0.000000 -0.002268 0.000000
# 2 -0.002323 0.012007 -0.004471 0.000000 0.001555 0.000000
# 3 -0.003599 -0.004471 0.016932 0.000000 0.001631 -0.000001
# 4 0.000000 0.000000 0.000000 0.037442 -0.000001 -0.004587
# 5 -0.002268 0.001555 0.001631 -0.000001 0.023588 0.000000
# 6 0.000000 0.000000 -0.000001 -0.004587 0.000000 0.051766
#
#
# Mechanical properties :
#
#
# Convention : Reuss Voigt Hill
#
# Bulk Modulus (GPa) = 56.55713 59.32591 57.94152
# Shear Modulus (GPa) = 28.09883 31.43195 29.76539
#
# Velocity S-wave (km/s) = 3.75895 3.97565 3.86882
# Velocity P-wave (km/s) = 6.87603 7.13490 7.00666
#
# Compressibility (1/GPa) = 0.01768124
#
# Stress axis : x y z
#
# Youngs Moduli (GPa) = 104.94296 83.28645 59.06129
#
# Poissons Ratio (x) = 0.19346 0.21254
# Poissons Ratio (y) = 0.24377 0.26409
# Poissons Ratio (z) = 0.37765 0.37242
#
# Static dielectric constant tensor:
#      x y z
#    x 3.839560 0.000000 0.167010 
#    y 0.000000 3.644900 0.000000 
#    z 0.167010 0.000000 3.568790 
# 
# 
# High freq. dielectric constant tensor:
#      x y z
#    x 1.795520 0.000000 0.009270 
#    y 0.000000 1.763160 0.000000 
#    z 0.009270 0.000000 1.768260 
# 
# From -- ./inp_files/57808.got.cif
#   From: 2010.03.12/outbox.cif.g09.slc.cpg/sg5_29_cif.got.tgz:57808.got - 2010.03.31 09:47:26.
