data_PCOD8049014
_publ_section_title
;
Structure prediction by ZEFSAII (Michael W. Deem and Ramdas Pophale) SiO2 
 PCOD8049014
Probable space group: C 2
;
_chemical_formula_sum "Si O2"
_cell_formula_units_Z 32
_cell_length_a 20.837473
_cell_length_b 8.257983
_cell_length_c 11.633320
_cell_angle_alpha 90.000000
_cell_angle_beta 50.196909
_cell_angle_gamma 90.000000
_cell_volume 1537.887995
_symmetry_space_group_name_H-M "C 2"
_symmetry_group_IT_number 5
_symmetry_cell_setting 'monoclinic'
loop_
_space_group_symop_operation_xyz
x,y,z
-x,y,-z
1/2+x,1/2+y,z
1/2-x,1/2+y,-z
loop_
_atom_site_type_symbol
_atom_site_label
_atom_site_fract_x
_atom_site_fract_y
_atom_site_fract_z
Si Si1 0.326890 0.654940 0.931659
Si Si2 0.352688 0.309737 0.369364
Si Si3 0.933865 0.321848 0.218818
Si Si4 0.275675 0.915607 0.819061
Si Si5 0.991981 0.987223 0.811006
Si Si6 0.312916 0.979797 0.527529
Si Si7 0.615117 0.268581 0.919700
Si Si8 0.112276 0.416665 0.968945
O O1 0.314342 0.749832 0.825930
O O2 0.412340 0.545867 0.825090
O O3 0.243526 0.550475 0.059619
O O4 0.333371 0.794906 0.018896
O O5 0.428625 0.406710 0.347582
O O6 0.276373 0.426228 0.421225
O O7 0.392146 0.234593 0.207694
O O8 0.322279 0.167601 0.486243
O O9 0.883907 0.364650 0.391465
O O10 0.876286 0.354943 0.174594
O O11 0.966205 0.138435 0.172839
O O12 0.016381 0.431280 0.118969
O O13 0.329517 0.970286 0.646510
O O14 0.186400 0.896051 0.863721
O O15 0.966850 0.852306 0.933817
O O16 0.642633 0.100578 0.948239
#
# Coordination Sequence:
#
# PCOD8049014 Si02
#       8
#     4   4   4   4   4   4   4   4
#     4  10  22  41  64  89 119 167 223 261 303 371
#     4  11  22  34  56  91 134 161 200 257 332 386
#     4  10  21  35  56  93 127 163 201 252 325 374
#     4  10  23  40  64  89 122 168 212 262 310 373
#     4  10  22  36  61  87 129 166 211 261 304 378
#     4  11  23  38  60  94 135 165 199 263 333 386
#     4  10  20  34  60  91 122 162 205 259 310 375
#     4  10  20  34  61  89 125 163 207 259 306 374
#
# _framework density 20.807756000000001
#
# number of rings (size 3 to 8) (size 9 to 14) (size 15 to 20)
#    0.000    1.750    1.250    2.625   14.000    0.000 
#    0.000    3.750    0.000    3.000    0.000    0.000 
#    0.000    0.000    0.000    0.000    0.000    0.000 
#
# Total GULP energy -198224.054507 kJ/mol
# GULP energy per Si atom -12389.003407 kJ/mol
# Density = 2.076040 g / cm^3
# Si number density = 20.807756 Si / 1000 Ang^3
#
#
#
# Elastic Constant Matrix: (Units=GPa)
#
#
# Indices 1 2 3 4 5 6 
#
# 1 59.0864 26.1973 43.9824 0.0000 6.2443 0.0000
# 2 26.1973 116.8474 46.0424 0.0000 1.7937 0.0000
# 3 43.9824 46.0424 110.4161 0.0000 4.6348 0.0000
# 4 0.0000 0.0000 0.0000 35.4551 0.0000 -4.3007
# 5 6.2443 1.7937 4.6348 0.0000 24.9512 0.0000
# 6 0.0000 0.0000 0.0000 -4.3007 0.0000 37.5094
#
#
#
# Elastic Compliance Matrix: (Units=1/GPa)
#
#
# Indices 1 2 3 4 5 6 
#
# 1 0.024907 -0.002010 -0.008897 0.000000 -0.004436 0.000000
# 2 -0.002010 0.010403 -0.003555 0.000000 0.000416 0.000000
# 3 -0.008897 -0.003555 0.014088 0.000000 -0.000135 0.000000
# 4 0.000000 0.000000 0.000000 0.028602 0.000000 0.003279
# 5 -0.004436 0.000416 -0.000135 0.000000 0.041184 0.000000
# 6 0.000000 0.000000 0.000000 0.003279 0.000000 0.027036
#
#
# Mechanical properties :
#
#
# Convention : Reuss Voigt Hill
#
# Bulk Modulus (GPa) = 48.83999 57.64378 53.24189
# Shear Modulus (GPa) = 27.47713 30.92500 29.20107
#
# Velocity S-wave (km/s) = 3.63784 3.85934 3.75023
# Velocity P-wave (km/s) = 6.41624 6.90091 6.66298
#
# Compressibility (1/GPa) = 0.02047503
#
# Stress axis : x y z
#
# Youngs Moduli (GPa) = 40.14925 96.12427 70.98006
#
# Poissons Ratio (x) = 0.19325 0.63149
# Poissons Ratio (y) = 0.08072 0.25231
# Poissons Ratio (z) = 0.35720 0.34169
#
# Static dielectric constant tensor:
#      x y z
#    x 3.554280 0.000000 -0.143150 
#    y 0.000000 3.867210 0.000000 
#    z -0.143150 0.000000 3.876500 
# 
# 
# High freq. dielectric constant tensor:
#      x y z
#    x 1.792030 0.000000 -0.017720 
#    y 0.000000 1.829670 0.000000 
#    z -0.017720 0.000000 1.798900 
# 
# From -- ./inp_files/46133.got.cif
#   From: 2010.03.12/outbox.cif.g09.slc.cpg/sg5_24_cif.got.tgz:46133.got - 2010.03.31 09:47:26.
