data_PCOD8049220
_publ_section_title
;
Structure prediction by ZEFSAII (Michael W. Deem and Ramdas Pophale) SiO2 
 PCOD8049220
Probable space group: C 2
;
_chemical_formula_sum "Si O2"
_cell_formula_units_Z 28
_cell_length_a 16.508822
_cell_length_b 8.059397
_cell_length_c 22.254771
_cell_angle_alpha 90.000000
_cell_angle_beta 27.159806
_cell_angle_gamma 90.000000
_cell_volume 1351.629586
_symmetry_space_group_name_H-M "C 2"
_symmetry_group_IT_number 5
_symmetry_cell_setting 'monoclinic'
loop_
_space_group_symop_operation_xyz
x,y,z
-x,y,-z
1/2+x,1/2+y,z
1/2-x,1/2+y,-z
loop_
_atom_site_type_symbol
_atom_site_label
_atom_site_fract_x
_atom_site_fract_y
_atom_site_fract_z
Si Si1 0.069919 0.060130 0.777883
Si Si2 0.992647 0.870955 0.070445
Si Si3 0.651653 0.709556 0.178657
Si Si4 0.804493 0.864756 0.628947
Si Si5 0.368867 0.982558 0.374995
Si Si6 0.644564 0.665732 0.315468
Si Si7 0.270717 0.821431 0.561737
O O1 0.170904 0.220934 0.736272
O O2 0.928033 0.098042 0.820622
O O3 0.959633 0.997462 0.908107
O O4 0.203560 0.921863 0.663774
O O5 0.796857 0.804486 0.214251
O O6 0.000000 0.959080 0.000000
O O7 0.139464 0.725654 0.972434
O O8 0.559767 0.893069 0.241523
O O9 0.618954 0.610603 0.262639
O O10 0.766550 0.915783 0.585619
O O11 0.000000 0.787963 0.500000
O O12 0.791343 0.017341 0.684090
O O13 0.293861 0.946184 0.490759
O O14 0.374074 0.181371 0.362325
O O15 0.455997 0.739420 0.461430
#
# Coordination Sequence:
#
# PCOD8049220 Si02
#       7
#     4   4   4   4   4   4   4
#     4  11  25  38  63  92 125 161 209 259 311 367
#     4  10  23  44  62  84 121 165 212 255 303 361
#     4   9  22  44  61  88 122 170 213 249 299 374
#     4  11  22  36  59  95 131 154 199 253 316 373
#     4  10  20  37  61  89 129 161 202 251 310 372
#     4  10  21  40  65  87 126 165 200 255 316 364
#     4  11  21  39  62  97 124 164 204 254 323 371
#
# _framework density 20.715734999999999
#
# number of rings (size 3 to 8) (size 9 to 14) (size 15 to 20)
#    0.000    1.714    1.429    3.429    2.000    3.429 
#    2.571    3.571    0.000    0.000    0.000    0.000 
#    0.000    0.000    0.000    0.000    0.000    0.000 
#
# Total GULP energy -173565.296521 kJ/mol
# GULP energy per Si atom -12397.521180 kJ/mol
# Density = 2.066859 g / cm^3
# Si number density = 20.715735 Si / 1000 Ang^3
#
#
#
# Elastic Constant Matrix: (Units=GPa)
#
#
# Indices 1 2 3 4 5 6 
#
# 1 130.6208 31.7708 38.0958 0.0001 18.3787 -0.0001
# 2 31.7708 75.0722 17.1280 -0.0013 17.9826 0.0000
# 3 38.0958 17.1280 76.2354 0.0025 10.4971 -0.0011
# 4 0.0001 -0.0013 0.0025 16.4720 -0.0006 6.4452
# 5 18.3787 17.9826 10.4971 -0.0006 35.6385 -0.0001
# 6 -0.0001 0.0000 -0.0011 6.4452 -0.0001 40.7704
#
#
#
# Elastic Compliance Matrix: (Units=1/GPa)
#
#
# Indices 1 2 3 4 5 6 
#
# 1 0.009812 -0.002635 -0.003958 0.000000 -0.002565 0.000000
# 2 -0.002635 0.016312 -0.001461 0.000001 -0.006442 0.000000
# 3 -0.003958 -0.001461 0.015677 -0.000003 -0.001839 0.000001
# 4 0.000000 0.000001 -0.000003 0.064712 0.000001 -0.010230
# 5 -0.002565 -0.006442 -0.001839 0.000001 0.033174 0.000000
# 6 0.000000 0.000000 0.000001 -0.010230 0.000000 0.026145
#
#
# Mechanical properties :
#
#
# Convention : Reuss Voigt Hill
#
# Bulk Modulus (GPa) = 38.92238 50.65753 44.78995
# Shear Modulus (GPa) = 26.24620 31.57176 28.90898
#
# Velocity S-wave (km/s) = 3.56331 3.90814 3.73970
# Velocity P-wave (km/s) = 5.97990 6.69862 6.34944
#
# Compressibility (1/GPa) = 0.02569216
#
# Stress axis : x y z
#
# Youngs Moduli (GPa) = 101.91738 61.30435 63.78928
#
# Poissons Ratio (x) = 0.16154 0.25248
# Poissons Ratio (y) = 0.26856 0.09320
# Poissons Ratio (z) = 0.40339 0.08957
#
# Static dielectric constant tensor:
#      x y z
#    x 4.081150 0.000000 0.033070 
#    y 0.000000 3.652510 0.000000 
#    z 0.033070 0.000000 3.718430 
# 
# 
# High freq. dielectric constant tensor:
#      x y z
#    x 1.837980 0.000000 0.003370 
#    y 0.000000 1.786540 0.000000 
#    z 0.003370 0.000000 1.802720 
# 
# From -- ./inp_files/41710.got.cif
#   From: 2010.03.12/outbox.cif.g09.slc.cpg/sg5_21_cif.got.tgz:41710.got - 2010.03.31 09:47:26.
