data_PCOD8049174
_publ_section_title
;
Structure prediction by ZEFSAII (Michael W. Deem and Ramdas Pophale) SiO2 
 PCOD8049174
Probable space group: C 2
;
_chemical_formula_sum "Si O2"
_cell_formula_units_Z 30
_cell_length_a 8.099877
_cell_length_b 12.379190
_cell_length_c 17.682811
_cell_angle_alpha 90.000000
_cell_angle_beta 55.695731
_cell_angle_gamma 90.000000
_cell_volume 1464.642419
_symmetry_space_group_name_H-M "C 2"
_symmetry_group_IT_number 5
_symmetry_cell_setting 'monoclinic'
loop_
_space_group_symop_operation_xyz
x,y,z
-x,y,-z
1/2+x,1/2+y,z
1/2-x,1/2+y,-z
loop_
_atom_site_type_symbol
_atom_site_label
_atom_site_fract_x
_atom_site_fract_y
_atom_site_fract_z
Si Si1 0.580074 0.265340 0.613167
Si Si2 0.083644 0.541170 0.368166
Si Si3 0.241037 0.548674 0.161027
Si Si4 0.000000 0.161232 0.500000
Si Si5 0.933666 0.866026 0.941541
Si Si6 0.022566 0.463895 0.075740
Si Si7 0.684312 0.288783 0.176577
Si Si8 0.187854 0.986898 0.545603
O O1 0.457095 0.168715 0.605744
O O2 0.479662 0.295305 0.717265
O O3 0.574080 0.373079 0.563743
O O4 0.810892 0.234682 0.569296
O O5 0.139835 0.515554 0.266970
O O6 0.256055 0.503237 0.380603
O O7 0.878921 0.480065 0.440974
O O8 0.438760 0.477819 0.096563
O O9 0.079784 0.535799 0.134123
O O10 0.304081 0.674883 0.147620
O O11 0.042170 0.084671 0.561186
O O12 0.955937 0.793560 0.861898
O O13 0.699740 0.882600 0.012034
O O14 0.000000 0.801972 0.000000
O O15 0.829515 0.391727 0.146165
O O16 0.000000 0.528087 0.000000
#
# Coordination Sequence:
#
# PCOD8049174 Si02
#       8
#     4   4   4   2   4   4   4   4
#     4  10  21  37  57  83 111 149 190 230 279 328
#     4   9  20  37  56  83 112 147 191 224 275 344
#     4  10  20  38  59  81 114 148 182 233 282 324
#     4  10  22  36  56  86 110 144 198 230 268 340
#     4   9  19  35  55  81 109 141 184 227 277 341
#     4   9  20  37  57  83 110 142 187 228 276 341
#     4  10  21  37  57  81 113 147 186 233 278 332
#     4  10  20  37  57  77 115 151 177 236 283 316
#
# _framework density 20.482814000000001
#
# number of rings (size 3 to 8) (size 9 to 14) (size 15 to 20)
#    0.000    2.400    0.000    1.600    0.000   10.667 
#    0.000   16.000    0.000    0.000    0.000    0.000 
#    0.000    0.000    0.000    0.000    0.000    0.000 
#
# Total GULP energy -185858.044299 kJ/mol
# GULP energy per Si atom -12390.536287 kJ/mol
# Density = 2.043619 g / cm^3
# Si number density = 20.482814 Si / 1000 Ang^3
#
#
#
# Elastic Constant Matrix: (Units=GPa)
#
#
# Indices 1 2 3 4 5 6 
#
# 1 69.0623 9.7522 27.7538 0.0001 3.4341 -0.0001
# 2 9.7522 76.9554 35.3479 0.0000 -9.3899 0.0000
# 3 27.7538 35.3479 106.9175 0.0001 5.8733 -0.0001
# 4 0.0001 0.0000 0.0001 26.6018 -0.0001 -1.6954
# 5 3.4341 -9.3899 5.8733 -0.0001 34.0301 0.0001
# 6 -0.0001 0.0000 -0.0001 -1.6954 0.0001 20.1487
#
#
#
# Elastic Compliance Matrix: (Units=1/GPa)
#
#
# Indices 1 2 3 4 5 6 
#
# 1 0.016201 -0.000321 -0.004043 0.000000 -0.001026 0.000000
# 2 -0.000321 0.016277 -0.005600 0.000000 0.005490 0.000000
# 3 -0.004043 -0.005600 0.012434 0.000000 -0.003283 0.000000
# 4 0.000000 0.000000 0.000000 0.037794 0.000000 0.003180
# 5 -0.001026 0.005490 -0.003283 0.000000 0.031571 0.000000
# 6 0.000000 0.000000 0.000000 0.003180 0.000000 0.049899
#
#
# Mechanical properties :
#
#
# Convention : Reuss Voigt Hill
#
# Bulk Modulus (GPa) = 40.02451 44.29365 42.15908
# Shear Modulus (GPa) = 25.98332 28.16154 27.07243
#
# Velocity S-wave (km/s) = 3.56552 3.71197 3.63948
# Velocity P-wave (km/s) = 6.04430 6.32798 6.18777
#
# Compressibility (1/GPa) = 0.02498469
#
# Stress axis : x y z
#
# Youngs Moduli (GPa) = 61.72557 61.43562 80.42407
#
# Poissons Ratio (x) = 0.01973 0.32514
# Poissons Ratio (y) = 0.01983 0.45034
# Poissons Ratio (z) = 0.24955 0.34402
#
# Static dielectric constant tensor:
#      x y z
#    x 3.864090 0.000000 0.291690 
#    y 0.000000 3.623730 0.000000 
#    z 0.291690 0.000000 3.936250 
# 
# 
# High freq. dielectric constant tensor:
#      x y z
#    x 1.795730 0.000000 0.008140 
#    y 0.000000 1.786480 0.000000 
#    z 0.008140 0.000000 1.812200 
# 
# From -- ./inp_files/59575.got.cif
#   From: 2010.03.12/outbox.cif.g09.slc.cpg/sg5_30_cif.got.tgz:59575.got - 2010.03.31 09:47:26.
