data_PCOD8049158
_publ_section_title
;
Structure prediction by ZEFSAII (Michael W. Deem and Ramdas Pophale) SiO2 
 PCOD8049158
Probable space group: C 2
;
_chemical_formula_sum "Si O2"
_cell_formula_units_Z 30
_cell_length_a 14.649742
_cell_length_b 17.018401
_cell_length_c 12.106001
_cell_angle_alpha 90.000000
_cell_angle_beta 150.228149
_cell_angle_gamma 90.000000
_cell_volume 1498.684787
_symmetry_space_group_name_H-M "C 2"
_symmetry_group_IT_number 5
_symmetry_cell_setting 'monoclinic'
loop_
_space_group_symop_operation_xyz
x,y,z
-x,y,-z
1/2+x,1/2+y,z
1/2-x,1/2+y,-z
loop_
_atom_site_type_symbol
_atom_site_label
_atom_site_fract_x
_atom_site_fract_y
_atom_site_fract_z
Si Si1 0.332054 0.379560 0.124472
Si Si2 0.000000 0.983301 0.500000
Si Si3 0.352192 0.017205 0.761880
Si Si4 0.005894 0.606411 0.281157
Si Si5 0.295484 0.717092 0.678360
Si Si6 0.498939 0.939697 0.369737
Si Si7 0.209997 0.209880 0.076812
Si Si8 0.230685 0.872901 0.494490
O O1 0.398655 0.428239 0.302326
O O2 0.242029 0.297100 0.064160
O O3 0.514197 0.365447 0.241875
O O4 0.190276 0.425981 0.897341
O O5 0.159597 0.040506 0.619573
O O6 0.290969 0.955187 0.608183
O O7 0.465311 0.086536 0.818687
O O8 0.500000 0.979041 0.000000
O O9 0.047737 0.531080 0.401368
O O10 0.808121 0.644489 0.102922
O O11 0.156566 0.672631 0.455132
O O12 0.221410 0.706153 0.724905
O O13 0.293494 0.808685 0.648363
O O14 0.497248 0.685590 0.861239
O O15 0.500000 0.924644 0.500000
O O16 0.652443 0.874898 0.495331
#
# Coordination Sequence:
#
# PCOD8049158 Si02
#       8
#     4   2   4   4   4   4   4   4
#     4  11  21  38  67  97 121 156 211 267 311 361
#     4  10  20  36  66 100 120 154 212 270 314 354
#     4  10  22  38  62  91 126 164 205 257 313 377
#     4  11  24  40  59  91 131 162 203 254 324 375
#     4  11  22  36  62  93 123 154 204 263 319 364
#     4  11  24  42  62  89 131 173 206 248 308 389
#     4  11  22  36  63  92 122 157 200 266 320 362
#     4  10  21  37  65  95 118 155 213 265 307 361
#
# _framework density 20.017551000000001
#
# number of rings (size 3 to 8) (size 9 to 14) (size 15 to 20)
#    0.000    1.333    2.667    4.400    1.867    4.800 
#    0.000    1.333    1.467    0.000    0.000    0.000 
#    0.000    0.000    0.000    0.000    0.000    0.000 
#
# Total GULP energy -185848.065224 kJ/mol
# GULP energy per Si atom -12389.871015 kJ/mol
# Density = 1.997199 g / cm^3
# Si number density = 20.017551 Si / 1000 Ang^3
#
#
#
# Elastic Constant Matrix: (Units=GPa)
#
#
# Indices 1 2 3 4 5 6 
#
# 1 137.6755 23.7850 45.3382 0.0000 20.5004 0.0000
# 2 23.7850 44.3958 7.9388 0.0000 9.5924 0.0000
# 3 45.3382 7.9388 84.3630 0.0000 8.2192 0.0000
# 4 0.0000 0.0000 0.0000 18.5094 0.0000 8.4897
# 5 20.5004 9.5924 8.2192 0.0000 34.9211 0.0000
# 6 0.0000 0.0000 0.0000 8.4897 0.0000 31.5722
#
#
#
# Elastic Compliance Matrix: (Units=1/GPa)
#
#
# Indices 1 2 3 4 5 6 
#
# 1 0.009998 -0.003712 -0.004658 0.000000 -0.003753 0.000000
# 2 -0.003712 0.025551 0.000064 0.000000 -0.004854 0.000000
# 3 -0.004658 0.000064 0.014417 0.000000 -0.000676 0.000000
# 4 0.000000 0.000000 0.000000 0.061627 0.000000 -0.016571
# 5 -0.003753 -0.004854 -0.000676 0.000000 0.032332 0.000000
# 6 0.000000 0.000000 0.000000 -0.016571 0.000000 0.036129
#
#
# Mechanical properties :
#
#
# Convention : Reuss Voigt Hill
#
# Bulk Modulus (GPa) = 29.98332 46.72871 38.35601
# Shear Modulus (GPa) = 24.06341 29.62537 26.84439
#
# Velocity S-wave (km/s) = 3.47092 3.85121 3.66600
# Velocity P-wave (km/s) = 5.57441 6.57041 6.09280
#
# Compressibility (1/GPa) = 0.03335188
#
# Stress axis : x y z
#
# Youngs Moduli (GPa) = 100.02455 39.13747 69.36420
#
# Poissons Ratio (x) = 0.14529 0.32309
# Poissons Ratio (y) = 0.37133 -0.00441
# Poissons Ratio (z) = 0.46590 -0.00249
#
# Static dielectric constant tensor:
#      x y z
#    x 4.396970 0.000000 0.380440 
#    y 0.000000 3.572930 0.000000 
#    z 0.380440 0.000000 3.639920 
# 
# 
# High freq. dielectric constant tensor:
#      x y z
#    x 1.796680 0.000000 0.023300 
#    y 0.000000 1.761500 0.000000 
#    z 0.023300 0.000000 1.777320 
# 
# From -- ./inp_files/43317.got.cif
#   From: 2010.03.12/outbox.cif.g09.slc.cpg/sg5_22_cif.got.tgz:43317.got - 2010.03.31 09:47:26.
