data_PCOD8049227
_publ_section_title
;
Structure prediction by ZEFSAII (Michael W. Deem and Ramdas Pophale) SiO2 
 PCOD8049227
Probable space group: C 2
;
_chemical_formula_sum "Si O2"
_cell_formula_units_Z 32
_cell_length_a 24.062066
_cell_length_b 15.737554
_cell_length_c 9.353626
_cell_angle_alpha 90.000000
_cell_angle_beta 26.720987
_cell_angle_gamma 90.000000
_cell_volume 1592.652687
_symmetry_space_group_name_H-M "C 2"
_symmetry_group_IT_number 5
_symmetry_cell_setting 'monoclinic'
loop_
_space_group_symop_operation_xyz
x,y,z
-x,y,-z
1/2+x,1/2+y,z
1/2-x,1/2+y,-z
loop_
_atom_site_type_symbol
_atom_site_label
_atom_site_fract_x
_atom_site_fract_y
_atom_site_fract_z
Si Si1 0.913465 0.261090 0.330104
Si Si2 0.278522 0.602034 0.754211
Si Si3 0.489516 0.881437 0.671750
Si Si4 0.779542 0.908708 0.289394
Si Si5 0.475620 0.317513 0.214098
Si Si6 0.182648 0.522215 0.264286
Si Si7 0.761872 0.939673 0.649673
Si Si8 0.486215 0.152851 0.700347
O O1 0.871053 0.181448 0.524479
O O2 0.796916 0.321522 0.561480
O O3 0.007714 0.317115 0.204648
O O4 0.000000 0.230669 0.000000
O O5 0.334347 0.523391 0.536864
O O6 0.260796 0.571650 0.960729
O O7 0.155280 0.627896 0.948600
O O8 0.500000 0.828344 0.500000
O O9 0.606661 0.942920 0.379550
O O10 0.367577 0.937985 0.969533
O O11 0.735608 0.945984 0.541515
O O12 0.765837 0.983066 0.201528
O O13 0.924101 0.887574 0.969422
O O14 0.340450 0.358618 0.519030
O O15 0.478287 0.244815 0.324588
O O16 0.500000 0.280013 0.000000
O O17 0.081484 0.588384 0.558442
O O18 0.500000 0.152387 0.500000
#
# Coordination Sequence:
#
# PCOD8049227 Si02
#       8
#     4   4   4   4   4   4   4   4
#     4  11  23  39  67  96 130 168 213 267 333 378
#     4  11  22  41  63  94 131 165 205 269 326 378
#     4  11  20  39  66  95 125 169 219 264 314 388
#     4  10  22  42  63  93 126 169 219 261 315 395
#     4  10  23  40  60  90 127 166 207 256 321 384
#     4  10  21  38  65  95 122 160 222 261 317 380
#     4  11  22  40  64  90 131 169 214 263 322 385
#     4  10  20  37  61  92 123 158 207 261 315 377
#
# _framework density 20.092265000000001
#
# number of rings (size 3 to 8) (size 9 to 14) (size 15 to 20)
#    0.000    1.500    5.000    0.375    0.000    5.500 
#    0.000    3.750    0.000    0.000    0.000    0.000 
#    0.000    0.000    0.000    0.000    0.000    0.000 
#
# Total GULP energy -198269.884600 kJ/mol
# GULP energy per Si atom -12391.867788 kJ/mol
# Density = 2.004653 g / cm^3
# Si number density = 20.092265 Si / 1000 Ang^3
#
#
#
# Elastic Constant Matrix: (Units=GPa)
#
#
# Indices 1 2 3 4 5 6 
#
# 1 88.2477 27.8692 31.7174 0.0000 4.7657 0.0000
# 2 27.8692 89.4120 28.8510 0.0000 12.0280 0.0000
# 3 31.7174 28.8510 69.4082 0.0000 12.3090 0.0000
# 4 0.0000 0.0000 0.0000 28.3209 0.0000 7.9976
# 5 4.7657 12.0280 12.3090 0.0000 21.6709 0.0000
# 6 0.0000 0.0000 0.0000 7.9976 0.0000 34.4059
#
#
#
# Elastic Compliance Matrix: (Units=1/GPa)
#
#
# Indices 1 2 3 4 5 6 
#
# 1 0.014141 -0.002827 -0.005575 0.000000 0.001626 0.000000
# 2 -0.002827 0.013904 -0.003591 0.000000 -0.005056 0.000000
# 3 -0.005575 -0.003591 0.019879 0.000000 -0.008072 0.000000
# 4 0.000000 0.000000 0.000000 0.037790 0.000000 -0.008784
# 5 0.001626 -0.005056 -0.008072 0.000000 0.053179 0.000000
# 6 0.000000 0.000000 0.000000 -0.008784 0.000000 0.031107
#
#
# Mechanical properties :
#
#
# Convention : Reuss Voigt Hill
#
# Bulk Modulus (GPa) = 41.77525 47.10480 44.44002
# Shear Modulus (GPa) = 24.75671 27.45488 26.10579
#
# Velocity S-wave (km/s) = 3.51401 3.70055 3.60848
# Velocity P-wave (km/s) = 6.10747 6.46173 6.28709
#
# Compressibility (1/GPa) = 0.02393762
#
# Stress axis : x y z
#
# Youngs Moduli (GPa) = 70.71866 71.92011 50.30355
#
# Poissons Ratio (x) = 0.20335 0.28044
# Poissons Ratio (y) = 0.19995 0.18064
# Poissons Ratio (z) = 0.39425 0.25826
#
# Static dielectric constant tensor:
#      x y z
#    x 3.737360 0.000000 -0.025070 
#    y 0.000000 3.543010 0.000000 
#    z -0.025070 0.000000 3.520330 
# 
# 
# High freq. dielectric constant tensor:
#      x y z
#    x 1.783680 0.000000 0.004800 
#    y 0.000000 1.780040 0.000000 
#    z 0.004800 0.000000 1.778560 
# 
# From -- ./inp_files/31038.got.cif
#   From: 2010.03.12/outbox.cif.g09.slc.cpg/sg5_16_cif.got.tgz:31038.got - 2010.03.31 09:47:26.
