data_PCOD8049732
_publ_section_title
;
Structure prediction by ZEFSAII (Michael W. Deem and Ramdas Pophale) SiO2 
 PCOD8049732
Probable space group: C 2
;
_chemical_formula_sum "Si O2"
_cell_formula_units_Z 30
_cell_length_a 21.207813
_cell_length_b 8.047116
_cell_length_c 14.512672
_cell_angle_alpha 90.000000
_cell_angle_beta 148.328073
_cell_angle_gamma 90.000000
_cell_volume 1300.433334
_symmetry_space_group_name_H-M "C 2"
_symmetry_group_IT_number 5
_symmetry_cell_setting 'monoclinic'
loop_
_space_group_symop_operation_xyz
x,y,z
-x,y,-z
1/2+x,1/2+y,z
1/2-x,1/2+y,-z
loop_
_atom_site_type_symbol
_atom_site_label
_atom_site_fract_x
_atom_site_fract_y
_atom_site_fract_z
Si Si1 0.072724 0.973350 0.312441
Si Si2 0.279658 0.754759 0.919684
Si Si3 0.192790 0.622060 0.452367
Si Si4 0.586787 0.321575 0.023725
Si Si5 0.687519 0.012345 0.651863
Si Si6 0.617368 0.554665 0.784829
Si Si7 0.018276 0.470219 0.914397
Si Si8 0.000000 0.291935 0.500000
O O1 0.142416 0.804842 0.374703
O O2 0.169663 0.118157 0.414039
O O3 0.013817 0.993958 0.340031
O O4 0.959206 0.969842 0.100728
O O5 0.207074 0.650782 0.753798
O O6 0.190567 0.900061 0.838465
O O7 0.305105 0.644202 0.040546
O O8 0.406485 0.820712 0.037218
O O9 0.191194 0.597208 0.558557
O O10 0.112157 0.487455 0.296552
O O11 0.714681 0.368060 0.221392
O O12 0.500000 0.296132 0.000000
O O13 0.593357 0.139162 0.985291
O O14 0.563036 0.915587 0.506520
O O15 0.595488 0.681243 0.674054
O O16 0.000000 0.432296 0.000000
#
# Coordination Sequence:
#
# PCOD8049732 Si02
#       8
#     4   4   4   4   4   4   4   2
#     4  11  26  44  72 107 143 185 236 301 363 432
#     4  12  28  47  76 103 146 197 250 296 366 440
#     4  11  27  43  75 105 149 182 243 306 367 421
#     4  10  20  45  70 103 140 186 233 291 363 433
#     4  12  26  46  73 102 143 191 240 301 360 433
#     4  12  29  48  74 104 148 192 249 299 367 438
#     4  10  25  45  75 108 145 191 242 299 367 436
#     4  12  30  46  72 102 148 186 246 298 370 428
#
# _framework density 23.069232
#
# number of rings (size 3 to 8) (size 9 to 14) (size 15 to 20)
#    0.000    0.800    2.667    2.400   13.067    0.533 
#    0.000    0.000    0.000    0.000    0.000    0.000 
#    0.000    0.000    0.000    0.000    0.000    0.000 
#
# Total GULP energy -186045.058621 kJ/mol
# GULP energy per Si atom -12403.003908 kJ/mol
# Density = 2.301673 g / cm^3
# Si number density = 23.069232 Si / 1000 Ang^3
#
#
#
# Elastic Constant Matrix: (Units=GPa)
#
#
# Indices 1 2 3 4 5 6 
#
# 1 102.3856 25.2700 26.1153 0.0000 -2.2304 0.0000
# 2 25.2700 73.3229 16.6560 0.0000 3.1113 0.0000
# 3 26.1153 16.6560 84.1048 0.0000 -16.9369 0.0000
# 4 0.0000 0.0000 0.0000 34.2632 0.0000 5.6543
# 5 -2.2304 3.1113 -16.9369 0.0000 49.0265 0.0000
# 6 0.0000 0.0000 0.0000 5.6543 0.0000 46.6288
#
#
#
# Elastic Compliance Matrix: (Units=1/GPa)
#
#
# Indices 1 2 3 4 5 6 
#
# 1 0.011302 -0.003217 -0.002932 0.000000 -0.000294 0.000000
# 2 -0.003217 0.015386 -0.002444 0.000000 -0.001967 0.000000
# 3 -0.002932 -0.002444 0.014282 0.000000 0.004956 0.000000
# 4 0.000000 0.000000 0.000000 0.029782 0.000000 -0.003611
# 5 -0.000294 -0.001967 0.004956 0.000000 0.022221 0.000000
# 6 0.000000 0.000000 0.000000 -0.003611 0.000000 0.021884
#
#
# Mechanical properties :
#
#
# Convention : Reuss Voigt Hill
#
# Bulk Modulus (GPa) = 42.04376 43.98844 43.01610
# Shear Modulus (GPa) = 35.72184 38.76847 37.24516
#
# Velocity S-wave (km/s) = 3.93932 4.10387 4.02244
# Velocity P-wave (km/s) = 6.24144 6.44710 6.34510
#
# Compressibility (1/GPa) = 0.02378474
#
# Stress axis : x y z
#
# Youngs Moduli (GPa) = 88.47749 64.99562 70.01681
#
# Poissons Ratio (x) = 0.20908 0.20527
# Poissons Ratio (y) = 0.28461 0.17114
# Poissons Ratio (z) = 0.25939 0.15887
#
# Static dielectric constant tensor:
#      x y z
#    x 4.173470 0.000000 -0.005640 
#    y 0.000000 4.344740 0.000000 
#    z -0.005640 0.000000 4.310140 
# 
# 
# High freq. dielectric constant tensor:
#      x y z
#    x 1.917090 0.000000 0.001600 
#    y 0.000000 1.922570 0.000000 
#    z 0.001600 0.000000 1.917920 
# 
# From -- ./inp_files/56946.got.cif
#   From: 2010.03.12/outbox.cif.g09.slc.cpg/sg5_29_cif.got.tgz:56946.got - 2010.03.31 09:47:26.
