data_PCOD8049717
_publ_section_title
;
Structure prediction by ZEFSAII (Michael W. Deem and Ramdas Pophale) SiO2 
 PCOD8049717
Probable space group: C 2
;
_chemical_formula_sum "Si O2"
_cell_formula_units_Z 26
_cell_length_a 23.540033
_cell_length_b 7.885006
_cell_length_c 9.518921
_cell_angle_alpha 90.000000
_cell_angle_beta 137.019660
_cell_angle_gamma 90.000000
_cell_volume 1204.537399
_symmetry_space_group_name_H-M "C 2"
_symmetry_group_IT_number 5
_symmetry_cell_setting 'monoclinic'
loop_
_space_group_symop_operation_xyz
x,y,z
-x,y,-z
1/2+x,1/2+y,z
1/2-x,1/2+y,-z
loop_
_atom_site_type_symbol
_atom_site_label
_atom_site_fract_x
_atom_site_fract_y
_atom_site_fract_z
Si Si1 0.644087 0.555230 0.750721
Si Si2 0.500000 0.941070 0.000000
Si Si3 0.830268 0.316645 0.757276
Si Si4 0.261189 0.669459 0.345002
Si Si5 0.941121 0.552390 0.607309
Si Si6 0.253209 0.526462 0.800716
Si Si7 0.500000 0.299734 0.500000
Si Si8 0.500000 0.793671 0.500000
O O1 0.670779 0.597941 0.640493
O O2 0.588822 0.388322 0.655647
O O3 0.581455 0.694439 0.698501
O O4 0.725926 0.534054 0.995523
O O5 0.430060 0.823258 0.943767
O O6 0.456453 0.057198 0.801962
O O7 0.798396 0.510885 0.724858
O O8 0.805275 0.242181 0.561980
O O9 0.802458 0.182549 0.822343
O O10 0.217603 0.839243 0.200830
O O11 0.843304 0.565772 0.398560
O O12 0.998420 0.695585 0.641454
O O13 0.974751 0.383864 0.597152
#
# Coordination Sequence:
#
# PCOD8049717 Si02
#       8
#     4   2   4   4   4   4   2   2
#     4  11  25  43  70 101 140 177 238 280 358 403
#     4  12  24  44  68 100 134 190 226 298 348 418
#     4  12  26  47  72  99 146 183 240 285 357 414
#     4  12  25  46  72 103 141 185 235 288 344 425
#     4  11  23  42  68  97 141 176 237 277 356 403
#     4  12  26  46  71 109 136 190 229 296 343 429
#     4  10  26  44  66 104 138 182 224 300 342 418
#     4  10  20  44  66  98 136 182 216 294 338 418
#
# _framework density 21.585051
#
# number of rings (size 3 to 8) (size 9 to 14) (size 15 to 20)
#    0.000    0.615    4.615    1.846    6.462    2.462 
#    0.000    0.769    0.000    0.000    0.000    0.000 
#    0.000    0.000    0.000    0.000    0.000    0.000 
#
# Total GULP energy -161076.381779 kJ/mol
# GULP energy per Si atom -12390.490906 kJ/mol
# Density = 2.153592 g / cm^3
# Si number density = 21.585051 Si / 1000 Ang^3
#
#
#
# Elastic Constant Matrix: (Units=GPa)
#
#
# Indices 1 2 3 4 5 6 
#
# 1 120.4966 50.9868 36.3029 0.0000 8.5083 0.0000
# 2 50.9868 139.6753 29.1456 0.0000 5.5614 0.0000
# 3 36.3029 29.1456 100.6377 0.0000 -3.3919 0.0000
# 4 0.0000 0.0000 0.0000 -8.5740 0.0000 1.5334
# 5 8.5083 5.5614 -3.3919 0.0000 42.2608 0.0000
# 6 0.0000 0.0000 0.0000 1.5334 0.0000 57.7748
#
#
#
# Elastic Compliance Matrix: (Units=1/GPa)
#
#
# Indices 1 2 3 4 5 6 
#
# 1 0.010696 -0.003200 -0.002998 0.000000 -0.001973 0.000000
# 2 -0.003200 0.008637 -0.001367 0.000000 -0.000602 0.000000
# 3 -0.002998 -0.001367 0.011471 0.000000 0.001704 0.000000
# 4 0.000000 0.000000 0.000000 -0.116081 0.000000 0.003081
# 5 -0.001973 -0.000602 0.001704 0.000000 0.024276 0.000000
# 6 0.000000 0.000000 0.000000 0.003081 0.000000 0.017227
#
#
# Mechanical properties :
#
#
# Convention : Reuss Voigt Hill
#
# Bulk Modulus (GPa) = 63.80251 65.96446 64.88349
# Shear Modulus (GPa) = -213.49725 34.58397 -89.45664
#
# Velocity S-wave (km/s) = -9.95613 4.00712 -6.44467
# Velocity P-wave (km/s) = 10.12636 7.21359 5.02530
#
# Compressibility (1/GPa) = 0.01567337
#
# Stress axis : x y z
#
# Youngs Moduli (GPa) = 93.49628 115.78210 87.17291
#
# Poissons Ratio (x) = 0.37052 0.26134
# Poissons Ratio (y) = 0.29921 0.11918
# Poissons Ratio (z) = 0.28029 0.15830
#
# Static dielectric constant tensor:
#      x y z
#    x 4.149930 0.000000 0.029050 
#    y 0.000000 4.319260 0.000000 
#    z 0.029050 0.000000 3.825250 
# 
# 
# High freq. dielectric constant tensor:
#      x y z
#    x 1.864600 0.000000 -0.004050 
#    y 0.000000 1.855530 0.000000 
#    z -0.004050 0.000000 1.844860 
# 
# From -- ./inp_files/26737.got.cif
#   From: 2010.03.12/outbox.cif.g09.slc.cpg/sg5_14_cif.got.tgz:26737.got - 2010.03.31 09:47:26.
