data_PCOD8049420
_publ_section_title
;
Structure prediction by ZEFSAII (Michael W. Deem and Ramdas Pophale) SiO2 
 PCOD8049420
Probable space group: C 2
;
_chemical_formula_sum "Si O2"
_cell_formula_units_Z 32
_cell_length_a 19.416087
_cell_length_b 14.923827
_cell_length_c 13.679897
_cell_angle_alpha 90.000000
_cell_angle_beta 22.287583
_cell_angle_gamma 90.000000
_cell_volume 1503.338544
_symmetry_space_group_name_H-M "C 2"
_symmetry_group_IT_number 5
_symmetry_cell_setting 'monoclinic'
loop_
_space_group_symop_operation_xyz
x,y,z
-x,y,-z
1/2+x,1/2+y,z
1/2-x,1/2+y,-z
loop_
_atom_site_type_symbol
_atom_site_label
_atom_site_fract_x
_atom_site_fract_y
_atom_site_fract_z
Si Si1 0.620606 0.269980 0.437745
Si Si2 0.145404 0.413428 0.952579
Si Si3 0.786013 0.411980 0.542014
Si Si4 0.205663 0.989581 0.055826
Si Si5 0.371620 0.564107 0.575188
Si Si6 0.452091 0.353732 0.854809
Si Si7 0.559266 0.065685 0.531961
Si Si8 0.194832 0.749492 0.787004
O O1 0.500000 0.283610 0.500000
O O2 0.809871 0.320622 0.163221
O O3 0.542697 0.315525 0.637540
O O4 0.649491 0.164007 0.418933
O O5 0.272521 0.423476 0.880504
O O6 0.197723 0.498420 0.814824
O O7 0.935223 0.414480 0.259727
O O8 0.591320 0.404113 0.745558
O O9 0.803672 0.497237 0.592607
O O10 0.808980 0.324574 0.579243
O O11 0.004575 0.032036 0.314479
O O12 0.205662 0.925589 0.961502
O O13 0.366772 0.062875 0.843302
O O14 0.500000 0.566833 0.500000
O O15 0.312549 0.661887 0.624123
O O16 0.341855 0.274955 0.052379
O O17 0.500000 0.038472 0.500000
O O18 0.000000 0.728708 0.000000
#
# Coordination Sequence:
#
# PCOD8049420 Si02
#       8
#     4   4   4   4   4   4   4   4
#     4  11  21  40  66  97 126 170 211 265 318 374
#     4  10  20  40  65  90 128 161 212 260 312 378
#     4  10  24  43  62  95 128 171 212 260 318 387
#     4  10  20  39  63  93 123 166 210 258 320 368
#     4  10  21  37  60  96 118 157 210 263 304 367
#     4  11  22  40  67  88 132 170 206 263 326 370
#     4  10  23  40  68  94 129 167 219 260 319 379
#     4  10  24  41  59  88 129 164 207 252 319 377
#
# _framework density 21.285957
#
# number of rings (size 3 to 8) (size 9 to 14) (size 15 to 20)
#    0.000    1.750    2.500    1.125    5.250    6.000 
#    2.250    0.000   11.000    0.000    0.000    0.000 
#    0.000    0.000    0.000    0.000    0.000    0.000 
#
# Total GULP energy -198237.211875 kJ/mol
# GULP energy per Si atom -12389.825742 kJ/mol
# Density = 2.123751 g / cm^3
# Si number density = 21.285957 Si / 1000 Ang^3
#
#
#
# Elastic Constant Matrix: (Units=GPa)
#
#
# Indices 1 2 3 4 5 6 
#
# 1 70.2583 38.1130 0.4525 -0.0019 10.5978 0.0002
# 2 38.1130 140.2803 31.9701 0.0035 -3.8000 -0.0020
# 3 0.4525 31.9701 63.7736 0.0019 9.1099 -0.0032
# 4 -0.0019 0.0035 0.0019 18.9745 -0.0001 1.6223
# 5 10.5978 -3.8000 9.1099 -0.0001 24.5535 0.0007
# 6 0.0002 -0.0020 -0.0032 1.6223 0.0007 26.2116
#
#
#
# Elastic Compliance Matrix: (Units=1/GPa)
#
#
# Indices 1 2 3 4 5 6 
#
# 1 0.019547 -0.006719 0.004840 0.000003 -0.011273 0.000000
# 2 -0.006719 0.010558 -0.006222 -0.000002 0.006843 0.000000
# 3 0.004840 -0.006222 0.020276 -0.000001 -0.010575 0.000002
# 4 0.000003 -0.000002 -0.000001 0.052983 -0.000001 -0.003279
# 5 -0.011273 0.006843 -0.010575 -0.000001 0.050575 -0.000002
# 6 0.000000 0.000000 0.000002 -0.003279 -0.000002 0.038354
#
#
# Mechanical properties :
#
#
# Convention : Reuss Voigt Hill
#
# Bulk Modulus (GPa) = 29.25885 46.15371 37.70628
# Shear Modulus (GPa) = 22.73878 27.53305 25.13592
#
# Velocity S-wave (km/s) = 3.27196 3.60041 3.44010
# Velocity P-wave (km/s) = 5.29620 6.24609 5.79066
#
# Compressibility (1/GPa) = 0.03417770
#
# Stress axis : x y z
#
# Youngs Moduli (GPa) = 51.15778 94.71852 49.31927
#
# Poissons Ratio (x) = 0.63644 -0.23870
# Poissons Ratio (y) = 0.34374 0.30688
# Poissons Ratio (z) = -0.24760 0.58937
#
# Static dielectric constant tensor:
#      x y z
#    x 3.901950 0.000010 0.232710 
#    y 0.000010 3.900970 -0.000010 
#    z 0.232710 -0.000010 4.036680 
# 
# 
# High freq. dielectric constant tensor:
#      x y z
#    x 1.834070 0.000000 0.015410 
#    y 0.000000 1.832870 0.000000 
#    z 0.015410 0.000000 1.830650 
# 
# From -- ./inp_files/57179.got.cif
#   From: 2010.03.12/outbox.cif.g09.slc.cpg/sg5_29_cif.got.tgz:57179.got - 2010.03.31 09:47:26.
