data_PCOD8049138
_publ_section_title
;
Structure prediction by ZEFSAII (Michael W. Deem and Ramdas Pophale) SiO2 
 PCOD8049138
Probable space group: C 2
;
_chemical_formula_sum "Si O2"
_cell_formula_units_Z 30
_cell_length_a 14.345693
_cell_length_b 16.848679
_cell_length_c 6.027638
_cell_angle_alpha 90.000000
_cell_angle_beta 107.534916
_cell_angle_gamma 90.000000
_cell_volume 1389.218370
_symmetry_space_group_name_H-M "C 2"
_symmetry_group_IT_number 5
_symmetry_cell_setting 'monoclinic'
loop_
_space_group_symop_operation_xyz
x,y,z
-x,y,-z
1/2+x,1/2+y,z
1/2-x,1/2+y,-z
loop_
_atom_site_type_symbol
_atom_site_label
_atom_site_fract_x
_atom_site_fract_y
_atom_site_fract_z
Si Si1 0.838165 0.285180 0.112588
Si Si2 0.269234 0.901652 0.415010
Si Si3 0.761641 0.033915 0.944150
Si Si4 0.593386 0.315878 0.442619
Si Si5 0.390449 0.939825 0.889168
Si Si6 0.448672 0.623685 0.214161
Si Si7 0.839303 0.689904 0.197970
Si Si8 0.500000 0.233193 0.000000
O O1 0.813440 0.324485 0.329639
O O2 0.915796 0.214939 0.201911
O O3 0.882547 0.351449 0.982549
O O4 0.736985 0.253203 0.948829
O O5 0.184473 0.875805 0.526557
O O6 0.361471 0.938668 0.609662
O O7 0.217316 0.964662 0.215944
O O8 0.714001 0.108199 0.780728
O O9 0.858683 0.061709 0.143756
O O10 0.682574 0.003078 0.059644
O O11 0.500000 0.354618 0.500000
O O12 0.616970 0.228263 0.551378
O O13 0.567916 0.296890 0.173263
O O14 0.500000 0.971344 0.000000
O O15 0.500000 0.607700 0.500000
O O16 0.500000 0.612518 0.000000
O O17 0.929700 0.676965 0.093919
#
# Coordination Sequence:
#
# PCOD8049138 Si02
#       8
#     4   4   4   4   4   4   4   2
#     4  10  22  40  71 102 133 184 239 303 359 428
#     4  11  23  45  69  96 145 183 238 304 370 439
#     4  10  27  45  66 103 141 189 234 300 376 441
#     4  10  21  38  68  99 128 175 234 291 348 429
#     4  11  25  44  67  99 140 184 243 299 374 436
#     4  11  27  49  78 113 149 194 252 305 373 447
#     4  10  20  41  63  95 129 172 231 281 352 422
#     4  10  20  36  62  98 124 166 222 278 346 404
#
# _framework density 21.594878000000001
#
# number of rings (size 3 to 8) (size 9 to 14) (size 15 to 20)
#    0.000    1.600    2.667    0.400    6.533    2.667 
#    8.400    0.000    0.000    0.000    0.000    0.000 
#    0.000    0.000    0.000    0.000    0.000    0.000 
#
# Total GULP energy -185834.653648 kJ/mol
# GULP energy per Si atom -12388.976910 kJ/mol
# Density = 2.154573 g / cm^3
# Si number density = 21.594878 Si / 1000 Ang^3
#
#
#
# Elastic Constant Matrix: (Units=GPa)
#
#
# Indices 1 2 3 4 5 6 
#
# 1 127.7676 53.0039 52.0765 0.0000 6.2720 0.0000
# 2 53.0039 92.5568 33.9194 0.0000 2.1376 0.0000
# 3 52.0765 33.9194 121.7883 0.0000 9.0510 0.0000
# 4 0.0000 0.0000 0.0000 16.9857 0.0000 1.9671
# 5 6.2720 2.1376 9.0510 0.0000 35.0974 0.0000
# 6 0.0000 0.0000 0.0000 1.9671 0.0000 27.1053
#
#
#
# Elastic Compliance Matrix: (Units=1/GPa)
#
#
# Indices 1 2 3 4 5 6 
#
# 1 0.011432 -0.005300 -0.003349 0.000000 -0.000857 0.000000
# 2 -0.005300 0.014490 -0.001809 0.000000 0.000531 0.000000
# 3 -0.003349 -0.001809 0.010291 0.000000 -0.001945 0.000000
# 4 0.000000 0.000000 0.000000 0.059372 0.000000 -0.004309
# 5 -0.000857 0.000531 -0.001945 0.000000 0.029115 0.000000
# 6 0.000000 0.000000 0.000000 -0.004309 0.000000 0.037206
#
#
# Mechanical properties :
#
#
# Convention : Reuss Voigt Hill
#
# Bulk Modulus (GPa) = 65.36568 68.90138 67.13353
# Shear Modulus (GPa) = 26.60704 29.37854 27.99279
#
# Velocity S-wave (km/s) = 3.51394 3.69242 3.60428
# Velocity P-wave (km/s) = 6.84094 7.08196 6.96249
#
# Compressibility (1/GPa) = 0.01529855
#
# Stress axis : x y z
#
# Youngs Moduli (GPa) = 87.47175 69.01395 97.17023
#
# Poissons Ratio (x) = 0.36576 0.32539
# Poissons Ratio (y) = 0.46359 0.17577
# Poissons Ratio (z) = 0.29292 0.12484
#
# Static dielectric constant tensor:
#      x y z
#    x 4.074230 0.000000 0.042450 
#    y 0.000000 3.772720 0.000000 
#    z 0.042450 0.000000 4.180940 
# 
# 
# High freq. dielectric constant tensor:
#      x y z
#    x 1.856130 0.000000 0.006910 
#    y 0.000000 1.840510 0.000000 
#    z 0.006910 0.000000 1.853060 
# 
# From -- ./inp_files/7326.got.cif
#   From: 2010.03.12/outbox.cif.g09.slc.cpg/sg5_4_cif.got.tgz:7326.got - 2010.03.31 09:47:26.
