data_PCOD8049794
_publ_section_title
;
Structure prediction by ZEFSAII (Michael W. Deem and Ramdas Pophale) SiO2 
 PCOD8049794
Probable space group: C 2
;
_chemical_formula_sum "Si O2"
_cell_formula_units_Z 28
_cell_length_a 12.801224
_cell_length_b 5.013720
_cell_length_c 21.194700
_cell_angle_alpha 90.000000
_cell_angle_beta 92.276406
_cell_angle_gamma 90.000000
_cell_volume 1359.239486
_symmetry_space_group_name_H-M "C 2"
_symmetry_group_IT_number 5
_symmetry_cell_setting 'monoclinic'
loop_
_space_group_symop_operation_xyz
x,y,z
-x,y,-z
1/2+x,1/2+y,z
1/2-x,1/2+y,-z
loop_
_atom_site_type_symbol
_atom_site_label
_atom_site_fract_x
_atom_site_fract_y
_atom_site_fract_z
Si Si1 0.175146 0.579930 0.670209
Si Si2 0.331521 0.068003 0.055098
Si Si3 0.408685 0.582425 0.268525
Si Si4 0.093279 0.085236 0.365859
Si Si5 0.404687 0.448310 0.958210
Si Si6 0.576804 0.549683 0.876564
Si Si7 0.990614 0.582354 0.572794
O O1 0.171594 0.290254 0.702061
O O2 0.290847 0.650422 0.652537
O O3 0.105470 0.598713 0.605693
O O4 0.135243 0.788101 0.721389
O O5 0.355024 0.286625 0.109486
O O6 0.206327 0.095133 0.042227
O O7 0.372429 0.781787 0.078689
O O8 0.386767 0.154622 0.989896
O O9 0.522000 0.620393 0.302351
O O10 0.418770 0.640958 0.195062
O O11 0.058716 0.291527 0.419163
O O12 0.085906 0.792147 0.395168
O O13 0.455312 0.462987 0.889296
O O14 0.500000 0.588465 0.000000
O O15 0.000000 0.650614 0.500000
#
# Coordination Sequence:
#
# PCOD8049794 Si02
#       7
#     4   4   4   4   4   4   4
#     4  10  21  39  60  83 120 160 194 242 294 339
#     4  11  24  41  62  88 116 150 189 235 294 354
#     4  10  22  40  59  86 117 150 200 244 282 346
#     4  10  21  38  60  85 120 163 192 237 300 336
#     4  10  23  41  61  84 116 148 183 232 290 349
#     4  11  25  41  62  89 115 150 195 241 289 346
#     4  10  21  36  58  91 122 153 202 245 282 346
#
# _framework density 20.599754000000001
#
# number of rings (size 3 to 8) (size 9 to 14) (size 15 to 20)
#    0.000    1.714    0.000    3.857    0.000   14.286 
#    0.000    0.000    0.000    0.000    0.000    0.000 
#    0.000    0.000    0.000    0.000    0.000    0.000 
#
# Total GULP energy -173522.578502 kJ/mol
# GULP energy per Si atom -12394.469893 kJ/mol
# Density = 2.055287 g / cm^3
# Si number density = 20.599754 Si / 1000 Ang^3
#
#
#
# Elastic Constant Matrix: (Units=GPa)
#
#
# Indices 1 2 3 4 5 6 
#
# 1 155.6198 31.2940 49.8161 0.0000 -9.5766 0.0000
# 2 31.2940 79.6842 17.1354 0.0000 7.9129 0.0000
# 3 49.8161 17.1354 112.4713 0.0000 -5.7641 0.0000
# 4 0.0000 0.0000 0.0000 21.7446 0.0000 6.1077
# 5 -9.5766 7.9129 -5.7641 0.0000 13.1370 0.0000
# 6 0.0000 0.0000 0.0000 6.1077 0.0000 26.7092
#
#
#
# Elastic Compliance Matrix: (Units=1/GPa)
#
#
# Indices 1 2 3 4 5 6 
#
# 1 0.008455 -0.003393 -0.002872 0.000000 0.006947 0.000000
# 2 -0.003393 0.015435 -0.001485 0.000000 -0.012422 0.000000
# 3 -0.002872 -0.001485 0.010566 0.000000 0.003437 0.000000
# 4 0.000000 0.000000 0.000000 0.049145 0.000000 -0.011238
# 5 0.006947 -0.012422 0.003437 0.000000 0.090176 0.000000
# 6 0.000000 0.000000 0.000000 -0.011238 0.000000 0.040010
#
#
# Mechanical properties :
#
#
# Convention : Reuss Voigt Hill
#
# Bulk Modulus (GPa) = 52.75589 60.47405 56.61497
# Shear Modulus (GPa) = 21.22190 28.95346 25.08768
#
# Velocity S-wave (km/s) = 3.21316 3.75310 3.49358
# Velocity P-wave (km/s) = 6.27944 6.94272 6.61940
#
# Compressibility (1/GPa) = 0.01895523
#
# Stress axis : x y z
#
# Youngs Moduli (GPa) = 118.27233 64.78794 94.64591
#
# Poissons Ratio (x) = 0.21981 0.27182
# Poissons Ratio (y) = 0.40127 0.14059
# Poissons Ratio (z) = 0.33968 0.09624
#
# Static dielectric constant tensor:
#      x y z
#    x 3.870010 0.000000 -0.041970 
#    y 0.000000 3.769530 0.000000 
#    z -0.041970 0.000000 3.607650 
# 
# 
# High freq. dielectric constant tensor:
#      x y z
#    x 1.810770 0.000000 -0.001430 
#    y 0.000000 1.817700 0.000000 
#    z -0.001430 0.000000 1.792790 
# 
# From -- ./inp_files/64882.got.cif
#   From: 2010.03.12/outbox.cif.g09.slc.cpg/sg5_33_cif.got.tgz:64882.got - 2010.03.31 09:47:26.
