data_PCOD8049593
_publ_section_title
;
Structure prediction by ZEFSAII (Michael W. Deem and Ramdas Pophale) SiO2 
 PCOD8049593
Probable space group: C 2
;
_chemical_formula_sum "Si O2"
_cell_formula_units_Z 30
_cell_length_a 15.437108
_cell_length_b 10.605799
_cell_length_c 9.429006
_cell_angle_alpha 90.000000
_cell_angle_beta 71.450584
_cell_angle_gamma 90.000000
_cell_volume 1463.545817
_symmetry_space_group_name_H-M "C 2"
_symmetry_group_IT_number 5
_symmetry_cell_setting 'monoclinic'
loop_
_space_group_symop_operation_xyz
x,y,z
-x,y,-z
1/2+x,1/2+y,z
1/2-x,1/2+y,-z
loop_
_atom_site_type_symbol
_atom_site_label
_atom_site_fract_x
_atom_site_fract_y
_atom_site_fract_z
Si Si1 0.270577 0.989470 0.981226
Si Si2 0.259484 0.553412 0.705784
Si Si3 0.000000 0.448528 0.500000
Si Si4 0.430281 0.182758 0.928009
Si Si5 0.838704 0.314215 0.712427
Si Si6 0.087651 0.649986 0.645456
Si Si7 0.597896 0.454753 0.919156
Si Si8 0.682418 0.394131 0.588741
O O1 0.307876 0.866249 0.881692
O O2 0.177762 0.035565 0.951254
O O3 0.341596 0.103679 0.934717
O O4 0.248911 0.956781 0.157292
O O5 0.328278 0.663894 0.719781
O O6 0.157098 0.605642 0.733472
O O7 0.302900 0.491493 0.545099
O O8 0.943019 0.357602 0.633925
O O9 0.928217 0.535754 0.453801
O O10 0.490251 0.199624 0.754235
O O11 0.500000 0.111646 0.000000
O O12 0.399810 0.314625 0.013442
O O13 0.778451 0.368400 0.614826
O O14 0.138626 0.767566 0.543077
O O15 0.612446 0.449027 0.742353
O O16 0.500000 0.519565 0.000000
#
# Coordination Sequence:
#
# PCOD8049593 Si02
#       8
#     4   4   2   4   4   4   4   4
#     4  11  21  37  66  94 127 169 220 264 326 384
#     4  11  23  42  63  96 139 172 214 271 338 388
#     4  12  22  40  64  96 130 174 224 270 316 404
#     4  11  18  37  67  93 122 163 219 271 313 381
#     4  10  23  41  63  93 133 174 211 271 334 381
#     4  11  21  37  67  98 127 167 224 275 318 386
#     4  10  21  40  65  90 127 168 215 273 332 379
#     4  10  20  41  64  94 126 170 213 273 327 385
#
# _framework density 20.498163000000002
#
# number of rings (size 3 to 8) (size 9 to 14) (size 15 to 20)
#    0.000    1.333    6.667    1.600    0.000    1.067 
#    4.800    0.000    0.000    3.200    0.000    0.000 
#    0.000    0.000    0.000    0.000    0.000    0.000 
#
# Total GULP energy -185934.657532 kJ/mol
# GULP energy per Si atom -12395.643835 kJ/mol
# Density = 2.045151 g / cm^3
# Si number density = 20.498163 Si / 1000 Ang^3
#
#
#
# Elastic Constant Matrix: (Units=GPa)
#
#
# Indices 1 2 3 4 5 6 
#
# 1 117.4879 43.3624 34.9641 0.0000 -13.0089 0.0000
# 2 43.3624 84.3537 60.8946 0.0000 2.1564 0.0000
# 3 34.9641 60.8946 142.0446 0.0000 -12.2370 0.0000
# 4 0.0000 0.0000 0.0000 31.9696 0.0000 6.9320
# 5 -13.0089 2.1564 -12.2370 0.0000 32.7236 0.0000
# 6 0.0000 0.0000 0.0000 6.9320 0.0000 34.2191
#
#
#
# Elastic Compliance Matrix: (Units=1/GPa)
#
#
# Indices 1 2 3 4 5 6 
#
# 1 0.011231 -0.006103 0.000280 0.000000 0.004972 0.000000
# 2 -0.006103 0.021009 -0.008094 0.000000 -0.006837 0.000000
# 3 0.000280 -0.008094 0.010846 0.000000 0.004700 0.000000
# 4 0.000000 0.000000 0.000000 0.032717 0.000000 -0.006628
# 5 0.004972 -0.006837 0.004700 0.000000 0.034744 0.000000
# 6 0.000000 0.000000 0.000000 -0.006628 0.000000 0.030566
#
#
# Mechanical properties :
#
#
# Convention : Reuss Voigt Hill
#
# Bulk Modulus (GPa) = 65.55733 69.14761 67.35247
# Shear Modulus (GPa) = 28.73071 33.42679 31.07875
#
# Velocity S-wave (km/s) = 3.74789 4.04260 3.89803
# Velocity P-wave (km/s) = 7.12603 7.45634 7.29306
#
# Compressibility (1/GPa) = 0.01525382
#
# Stress axis : x y z
#
# Youngs Moduli (GPa) = 89.03925 47.59770 92.20146
#
# Poissons Ratio (x) = 0.29047 -0.02581
# Poissons Ratio (y) = 0.54337 0.74624
# Poissons Ratio (z) = -0.02493 0.38524
#
# Static dielectric constant tensor:
#      x y z
#    x 4.000570 0.000000 -0.106910 
#    y 0.000000 3.415880 0.000000 
#    z -0.106910 0.000000 3.756570 
# 
# 
# High freq. dielectric constant tensor:
#      x y z
#    x 1.806420 0.000000 -0.014760 
#    y 0.000000 1.766140 0.000000 
#    z -0.014760 0.000000 1.808440 
# 
# From -- ./inp_files/23842.got.cif
#   From: 2010.03.12/outbox.cif.g09.slc.cpg/sg5_12_cif.got.tgz:23842.got - 2010.03.31 09:47:26.
