data_PCOD8049343
_publ_section_title
;
Structure prediction by ZEFSAII (Michael W. Deem and Ramdas Pophale) SiO2 
 PCOD8049343
Probable space group: C 2
;
_chemical_formula_sum "Si O2"
_cell_formula_units_Z 24
_cell_length_a 20.609274
_cell_length_b 10.435462
_cell_length_c 21.249275
_cell_angle_alpha 90.000000
_cell_angle_beta 14.139120
_cell_angle_gamma 90.000000
_cell_volume 1116.352498
_symmetry_space_group_name_H-M "C 2"
_symmetry_group_IT_number 5
_symmetry_cell_setting 'monoclinic'
loop_
_space_group_symop_operation_xyz
x,y,z
-x,y,-z
1/2+x,1/2+y,z
1/2-x,1/2+y,-z
loop_
_atom_site_type_symbol
_atom_site_label
_atom_site_fract_x
_atom_site_fract_y
_atom_site_fract_z
Si Si1 0.570661 0.213020 0.999350
Si Si2 0.722067 0.836972 0.501247
Si Si3 0.577933 0.690908 0.998768
Si Si4 0.134781 0.817378 0.498198
Si Si5 0.166982 0.942231 0.001034
Si Si6 0.379535 0.610136 0.500383
O O1 0.621573 0.322790 0.000001
O O2 0.328384 0.123419 0.247683
O O3 0.500000 0.279732 0.000000
O O4 0.825860 0.124235 0.749690
O O5 0.790906 0.766282 0.502295
O O6 0.675203 0.716215 0.500705
O O7 0.959041 0.930042 0.253990
O O8 0.465069 0.930421 0.747851
O O9 0.847789 0.771882 0.744674
O O10 0.500000 0.653467 0.000000
O O11 0.343833 0.774845 0.248840
O O12 0.621383 0.567673 0.002040
O O13 0.146558 0.968124 0.501148
#
# Coordination Sequence:
#
# PCOD8049343 Si02
#       6
#     4   4   4   4   4   4
#     4  10  20  38  63  90 121 162 210 264 316 367
#     4  10  23  43  66  95 125 163 226 272 330 370
#     4  12  27  44  66  99 137 180 217 259 332 400
#     4  12  26  43  65  95 133 178 211 271 327 398
#     4  10  22  42  67  95 125 168 215 277 312 383
#     4  10  23  38  61  92 122 163 215 263 319 384
#
# _framework density 21.498586
#
# number of rings (size 3 to 8) (size 9 to 14) (size 15 to 20)
#    0.000    1.333    0.000    4.500    4.667    4.000 
#    0.000    5.000    0.000    0.000    0.000    0.000 
#    0.000    0.000    0.000    0.000    0.000    0.000 
#
# Total GULP energy -148775.564917 kJ/mol
# GULP energy per Si atom -12397.963743 kJ/mol
# Density = 2.144965 g / cm^3
# Si number density = 21.498586 Si / 1000 Ang^3
#
#
#
# Elastic Constant Matrix: (Units=GPa)
#
#
# Indices 1 2 3 4 5 6 
#
# 1 116.1381 5.8627 44.2559 0.4687 0.1689 -0.0470
# 2 5.8627 86.8591 40.0028 1.9509 -1.9741 -0.3768
# 3 44.2559 40.0028 200.0618 2.0298 -6.5152 -0.4048
# 4 0.4687 1.9509 2.0298 189.1357 -0.8563 -16.5436
# 5 0.1689 -1.9741 -6.5152 -0.8563 26.8653 0.3157
# 6 -0.0470 -0.3768 -0.4048 -16.5436 0.3157 7.8481
#
#
#
# Elastic Compliance Matrix: (Units=1/GPa)
#
#
# Indices 1 2 3 4 5 6 
#
# 1 0.009421 0.000352 -0.002173 -0.000009 -0.000560 -0.000036
# 2 0.000352 0.012699 -0.002606 -0.000076 0.000293 0.000306
# 3 -0.002173 -0.002606 0.006042 -0.000020 0.001286 0.000080
# 4 -0.000009 -0.000076 -0.000020 0.006483 0.000036 0.013660
# 5 -0.000560 0.000293 0.001286 0.000036 0.037577 -0.001359
# 6 -0.000036 0.000306 0.000080 0.013660 -0.001359 0.156287
#
#
# Mechanical properties :
#
#
# Convention : Reuss Voigt Hill
#
# Bulk Modulus (GPa) = 51.78857 64.81131 58.29994
# Shear Modulus (GPa) = 20.50856 65.63233 43.07045
#
# Velocity S-wave (km/s) = 3.09196 5.53127 4.48080
# Velocity P-wave (km/s) = 6.07359 8.42648 7.34486
#
# Compressibility (1/GPa) = 0.01930928
#
# Stress axis : x y z
#
# Youngs Moduli (GPa) = 106.14070 78.74584 165.49605
#
# Poissons Ratio (x) = -0.02772 0.35958
# Poissons Ratio (y) = -0.03737 0.43131
# Poissons Ratio (z) = 0.23062 0.20522
#
# Static dielectric constant tensor:
#      x y z
#    x 4.141770 -0.000130 0.091750 
#    y -0.000130 3.700840 0.002080 
#    z 0.091750 0.002080 2.920090 
# 
# 
# High freq. dielectric constant tensor:
#      x y z
#    x 1.850600 0.000000 -0.000630 
#    y 0.000000 1.837380 0.000030 
#    z -0.000630 0.000030 1.866050 
# 
# From -- ./inp_files/69694.got.cif
#   From: 2010.03.12/outbox.cif.g09.slc.cpg/sg5_35_cif.got.tgz:69694.got - 2010.03.31 09:47:26.
