data_PCOD8049354
_publ_section_title
;
Structure prediction by ZEFSAII (Michael W. Deem and Ramdas Pophale) SiO2 
 PCOD8049354
Probable space group: C 2
;
_chemical_formula_sum "Si O2"
_cell_formula_units_Z 26
_cell_length_a 11.980358
_cell_length_b 8.288951
_cell_length_c 14.742769
_cell_angle_alpha 90.000000
_cell_angle_beta 120.286552
_cell_angle_gamma 90.000000
_cell_volume 1264.205818
_symmetry_space_group_name_H-M "C 2"
_symmetry_group_IT_number 5
_symmetry_cell_setting 'monoclinic'
loop_
_space_group_symop_operation_xyz
x,y,z
-x,y,-z
1/2+x,1/2+y,z
1/2-x,1/2+y,-z
loop_
_atom_site_type_symbol
_atom_site_label
_atom_site_fract_x
_atom_site_fract_y
_atom_site_fract_z
Si Si1 0.174275 0.193370 0.446251
Si Si2 0.029030 0.787958 0.866576
Si Si3 0.209407 0.269225 0.109855
Si Si4 0.836818 0.688651 0.347903
Si Si5 0.414183 0.328788 0.626166
Si Si6 0.500000 0.909760 0.500000
Si Si7 0.000000 0.031862 0.000000
Si Si8 0.000000 0.523591 0.000000
O O1 0.230913 0.264013 0.374020
O O2 0.300090 0.200113 0.562024
O O3 0.060157 0.299961 0.443782
O O4 0.127186 0.012217 0.408566
O O5 0.176549 0.832843 0.906445
O O6 0.946928 0.782822 0.742002
O O7 0.036734 0.623460 0.925971
O O8 0.961851 0.925470 0.898262
O O9 0.264787 0.182289 0.222371
O O10 0.123862 0.136874 0.022839
O O11 0.119089 0.422571 0.089299
O O12 0.964415 0.799558 0.390893
O O13 0.885846 0.514267 0.405782
#
# Coordination Sequence:
#
# PCOD8049354 Si02
#       8
#     4   4   4   4   4   2   2   2
#     4  12  24  42  64  92 133 168 217 261 313 384
#     4  10  22  41  61  93 125 159 208 259 314 370
#     4  10  22  39  67  91 123 162 211 250 318 369
#     4  11  23  44  62  94 130 169 209 266 311 381
#     4  11  23  42  66  90 130 172 213 263 318 374
#     4  12  26  40  64  92 132 176 208 260 318 368
#     4  10  20  38  64  88 126 162 198 266 308 366
#     4  10  22  42  64  94 122 164 204 262 314 372
#
# _framework density 20.566272000000001
#
# number of rings (size 3 to 8) (size 9 to 14) (size 15 to 20)
#    0.000    1.231    3.077    1.846    2.154    3.692 
#    2.769    1.538    0.000    0.000    0.000    0.000 
#    0.000    0.000    0.000    0.000    0.000    0.000 
#
# Total GULP energy -161090.675352 kJ/mol
# GULP energy per Si atom -12391.590412 kJ/mol
# Density = 2.051946 g / cm^3
# Si number density = 20.566272 Si / 1000 Ang^3
#
#
#
# Elastic Constant Matrix: (Units=GPa)
#
#
# Indices 1 2 3 4 5 6 
#
# 1 126.6537 42.6766 36.2812 0.0000 -9.6708 0.0000
# 2 42.6766 84.0155 60.1959 0.0000 1.6273 0.0000
# 3 36.2812 60.1959 108.0957 0.0000 -1.9617 0.0000
# 4 0.0000 0.0000 0.0000 22.0466 0.0000 0.8894
# 5 -9.6708 1.6273 -1.9617 0.0000 35.4861 0.0000
# 6 0.0000 0.0000 0.0000 0.8894 0.0000 30.6872
#
#
#
# Elastic Compliance Matrix: (Units=1/GPa)
#
#
# Indices 1 2 3 4 5 6 
#
# 1 0.009851 -0.004538 -0.000728 0.000000 0.002852 0.000000
# 2 -0.004538 0.021977 -0.010767 0.000000 -0.002840 0.000000
# 3 -0.000728 -0.010767 0.015512 0.000000 0.001153 0.000000
# 4 0.000000 0.000000 0.000000 0.045412 0.000000 -0.001316
# 5 0.002852 -0.002840 0.001153 0.000000 0.029151 0.000000
# 6 0.000000 0.000000 0.000000 -0.001316 0.000000 0.032625
#
#
# Mechanical properties :
#
#
# Convention : Reuss Voigt Hill
#
# Bulk Modulus (GPa) = 65.46547 66.34140 65.90344
# Shear Modulus (GPa) = 26.08461 29.61806 27.85134
#
# Velocity S-wave (km/s) = 3.56521 3.79902 3.68397
# Velocity P-wave (km/s) = 6.98915 7.18128 7.08587
#
# Compressibility (1/GPa) = 0.01527523
#
# Stress axis : x y z
#
# Youngs Moduli (GPa) = 101.51468 45.50233 64.46614
#
# Poissons Ratio (x) = 0.20648 0.04690
# Poissons Ratio (y) = 0.46065 0.69410
# Poissons Ratio (z) = 0.07386 0.48992
#
# Static dielectric constant tensor:
#      x y z
#    x 4.076350 0.000000 -0.010890 
#    y 0.000000 3.660230 0.000000 
#    z -0.010890 0.000000 3.740150 
# 
# 
# High freq. dielectric constant tensor:
#      x y z
#    x 1.823260 0.000000 0.000490 
#    y 0.000000 1.796740 0.000000 
#    z 0.000490 0.000000 1.806460 
# 
# From -- ./inp_files/47286.got.cif
#   From: 2010.03.12/outbox.cif.g09.slc.cpg/sg5_24_cif.got.tgz:47286.got - 2010.03.31 09:47:26.
