data_PCOD8049811
_publ_section_title
;
Structure prediction by ZEFSAII (Michael W. Deem and Ramdas Pophale) SiO2 
 PCOD8049811
Probable space group: C 2
;
_chemical_formula_sum "Si O2"
_cell_formula_units_Z 26
_cell_length_a 9.418616
_cell_length_b 13.253222
_cell_length_c 10.124741
_cell_angle_alpha 90.000000
_cell_angle_beta 78.811064
_cell_angle_gamma 90.000000
_cell_volume 1239.818856
_symmetry_space_group_name_H-M "C 2"
_symmetry_group_IT_number 5
_symmetry_cell_setting 'monoclinic'
loop_
_space_group_symop_operation_xyz
x,y,z
-x,y,-z
1/2+x,1/2+y,z
1/2-x,1/2+y,-z
loop_
_atom_site_type_symbol
_atom_site_label
_atom_site_fract_x
_atom_site_fract_y
_atom_site_fract_z
Si Si1 0.000000 0.114780 0.000000
Si Si2 0.747059 0.051619 0.593128
Si Si3 0.824651 0.277045 0.196415
Si Si4 0.820919 0.929268 0.352609
Si Si5 0.989926 0.401382 0.648922
Si Si6 0.663497 0.238382 0.482795
Si Si7 0.617065 0.457074 0.180014
O O1 0.885110 0.187316 0.094159
O O2 0.102396 0.040051 0.067373
O O3 0.732484 0.172104 0.588567
O O4 0.824701 0.031462 0.437128
O O5 0.588256 0.001371 0.629868
O O6 0.842839 0.020270 0.698436
O O7 0.726822 0.225227 0.324929
O O8 0.730644 0.364423 0.134388
O O9 0.961718 0.327265 0.243452
O O10 0.677206 0.926832 0.288242
O O11 0.814325 0.852441 0.477341
O O12 0.957785 0.910160 0.234080
O O13 0.000000 0.350940 0.500000
O O14 0.500000 0.204715 0.500000
#
# Coordination Sequence:
#
# PCOD8049811 Si02
#       7
#     2   4   4   4   4   4   4
#     4  12  30  44  70  96 136 204 242 262 332 412
#     4  10  21  36  62  99 138 166 218 274 361 411
#     4  11  24  45  67  98 142 177 232 277 335 419
#     4  11  19  38  69 101 132 164 207 290 363 394
#     4   9  18  36  63  99 135 167 201 286 357 396
#     4  12  20  36  70 105 132 162 211 289 360 407
#     4  11  24  48  66  96 136 182 233 288 330 398
#
# _framework density 20.970804999999999
#
# number of rings (size 3 to 8) (size 9 to 14) (size 15 to 20)
#    0.000    1.231    6.154    2.769    2.154    1.231 
#    0.000    1.538    0.000    3.692    0.000    0.000 
#    0.000    0.000    0.000    0.000    0.000    0.000 
#
# Total GULP energy -161078.796997 kJ/mol
# GULP energy per Si atom -12390.676692 kJ/mol
# Density = 2.092307 g / cm^3
# Si number density = 20.970805 Si / 1000 Ang^3
#
#
#
# Elastic Constant Matrix: (Units=GPa)
#
#
# Indices 1 2 3 4 5 6 
#
# 1 125.8942 44.2541 52.1845 0.0000 4.6251 0.0000
# 2 44.2541 100.4207 50.8352 0.0000 5.7643 0.0000
# 3 52.1845 50.8352 86.9395 0.0000 -5.7023 0.0000
# 4 0.0000 0.0000 0.0000 40.7595 0.0000 8.9324
# 5 4.6251 5.7643 -5.7023 0.0000 30.4805 0.0000
# 6 0.0000 0.0000 0.0000 8.9324 0.0000 18.6230
#
#
#
# Elastic Compliance Matrix: (Units=1/GPa)
#
#
# Indices 1 2 3 4 5 6 
#
# 1 0.011045 -0.001838 -0.005712 0.000000 -0.002397 0.000000
# 2 -0.001838 0.015023 -0.007947 0.000000 -0.004049 0.000000
# 3 -0.005712 -0.007947 0.019978 0.000000 0.006107 0.000000
# 4 0.000000 0.000000 0.000000 0.027416 0.000000 -0.013150
# 5 -0.002397 -0.004049 0.006107 0.000000 0.035080 0.000000
# 6 0.000000 0.000000 0.000000 -0.013150 0.000000 0.060004
#
#
# Mechanical properties :
#
#
# Convention : Reuss Voigt Hill
#
# Bulk Modulus (GPa) = 66.43392 67.53356 66.98374
# Shear Modulus (GPa) = 24.44296 29.03797 26.74047
#
# Velocity S-wave (km/s) = 3.41775 3.72517 3.57477
# Velocity P-wave (km/s) = 6.87915 7.12573 7.00353
#
# Compressibility (1/GPa) = 0.01505255
#
# Stress axis : x y z
#
# Youngs Moduli (GPa) = 90.53762 66.56287 50.05516
#
# Poissons Ratio (x) = 0.12236 0.28592
# Poissons Ratio (y) = 0.16643 0.39777
# Poissons Ratio (z) = 0.51716 0.52895
#
# Static dielectric constant tensor:
#      x y z
#    x 4.220820 0.000000 0.124790 
#    y 0.000000 3.765170 0.000000 
#    z 0.124790 0.000000 3.508420 
# 
# 
# High freq. dielectric constant tensor:
#      x y z
#    x 1.838770 0.000000 0.002580 
#    y 0.000000 1.822480 0.000000 
#    z 0.002580 0.000000 1.787090 
# 
# From -- ./inp_files/35843.got.cif
#   From: 2010.03.12/outbox.cif.g09.slc.cpg/sg5_18_cif.got.tgz:35843.got - 2010.03.31 09:47:26.
