data_PCOD8049279
_publ_section_title
;
Structure prediction by ZEFSAII (Michael W. Deem and Ramdas Pophale) SiO2 
 PCOD8049279
Probable space group: C 2
;
_chemical_formula_sum "Si O2"
_cell_formula_units_Z 22
_cell_length_a 17.930660
_cell_length_b 8.936959
_cell_length_c 7.264072
_cell_angle_alpha 90.000000
_cell_angle_beta 110.493463
_cell_angle_gamma 90.000000
_cell_volume 1090.366073
_symmetry_space_group_name_H-M "C 2"
_symmetry_group_IT_number 5
_symmetry_cell_setting 'monoclinic'
loop_
_space_group_symop_operation_xyz
x,y,z
-x,y,-z
1/2+x,1/2+y,z
1/2-x,1/2+y,-z
loop_
_atom_site_type_symbol
_atom_site_label
_atom_site_fract_x
_atom_site_fract_y
_atom_site_fract_z
Si Si1 0.210349 0.660250 0.646675
Si Si2 0.881838 0.165478 0.889204
Si Si3 0.822261 0.343535 0.526214
Si Si4 0.000000 0.916685 0.000000
Si Si5 0.419234 0.673425 0.330078
Si Si6 0.430989 0.326732 0.307760
O O1 0.289223 0.613432 0.831618
O O2 0.175847 0.519459 0.505878
O O3 0.234612 0.786712 0.516282
O O4 0.145471 0.721824 0.733247
O O5 0.885822 0.299906 0.742975
O O6 0.080701 0.219322 0.885209
O O7 0.931692 0.024150 0.853615
O O8 0.845042 0.255876 0.360015
O O9 0.962613 0.813224 0.126113
O O10 0.500000 0.726092 0.500000
O O11 0.406999 0.495904 0.336084
O O12 0.500000 0.266688 0.500000
#
# Coordination Sequence:
#
# PCOD8049279 Si02
#       6
#     4   4   4   2   4   4
#     4  10  23  39  62  94 133 167 219 261 323 378
#     4   9  21  37  62  98 123 169 215 260 315 392
#     4  10  21  39  58  91 132 172 209 269 314 381
#     4  10  20  38  68  92 122 168 216 260 320 376
#     4  10  20  37  67  91 126 169 218 262 323 382
#     4  10  21  39  62  93 125 167 211 265 314 388
#
# _framework density 20.17671
#
# number of rings (size 3 to 8) (size 9 to 14) (size 15 to 20)
#    1.091    1.091    0.000    4.364    2.545    3.636 
#    0.000    0.000    0.000    1.091    0.000    0.000 
#    0.000    0.000    0.000    0.000    0.000    0.000 
#
# Total GULP energy -136335.999704 kJ/mol
# GULP energy per Si atom -12394.181791 kJ/mol
# Density = 2.013079 g / cm^3
# Si number density = 20.176710 Si / 1000 Ang^3
#
#
#
# Elastic Constant Matrix: (Units=GPa)
#
#
# Indices 1 2 3 4 5 6 
#
# 1 126.7906 52.4164 31.5971 0.0000 -17.2654 0.0000
# 2 52.4164 84.0627 41.6484 0.0000 -12.3964 0.0000
# 3 31.5971 41.6484 102.5841 0.0000 -11.6465 0.0000
# 4 0.0000 0.0000 0.0000 15.5482 0.0000 -14.5842
# 5 -17.2654 -12.3964 -11.6465 0.0000 42.2572 0.0000
# 6 0.0000 0.0000 0.0000 -14.5842 0.0000 39.5677
#
#
#
# Elastic Compliance Matrix: (Units=1/GPa)
#
#
# Indices 1 2 3 4 5 6 
#
# 1 0.010914 -0.006149 -0.000582 0.000000 0.002495 0.000000
# 2 -0.006149 0.018681 -0.005526 0.000000 0.001445 0.000000
# 3 -0.000582 -0.005526 0.012346 0.000000 0.001544 0.000000
# 4 0.000000 0.000000 0.000000 0.098303 0.000000 0.036234
# 5 0.002495 0.001445 0.001544 0.000000 0.025533 0.000000
# 6 0.000000 0.000000 0.000000 0.036234 0.000000 0.038628
#
#
# Mechanical properties :
#
#
# Convention : Reuss Voigt Hill
#
# Bulk Modulus (GPa) = 57.38344 62.75126 60.06735
# Shear Modulus (GPa) = 21.30109 31.99298 26.64704
#
# Velocity S-wave (km/s) = 3.25272 3.98633 3.63806
# Velocity P-wave (km/s) = 6.52756 7.23575 6.89076
#
# Compressibility (1/GPa) = 0.01742663
#
# Stress axis : x y z
#
# Youngs Moduli (GPa) = 91.62689 53.53002 80.99607
#
# Poissons Ratio (x) = 0.32916 0.04713
# Poissons Ratio (y) = 0.56341 0.44762
# Poissons Ratio (z) = 0.05332 0.29583
#
# Static dielectric constant tensor:
#      x y z
#    x 3.731450 0.000000 -0.045890 
#    y 0.000000 3.232840 0.000000 
#    z -0.045890 0.000000 3.546190 
# 
# 
# High freq. dielectric constant tensor:
#      x y z
#    x 1.797130 0.000000 -0.009420 
#    y 0.000000 1.750230 0.000000 
#    z -0.009420 0.000000 1.782210 
# 
# From -- ./inp_files/26297.got.cif
#   From: 2010.03.12/outbox.cif.g09.slc.cpg/sg5_14_cif.got.tgz:26297.got - 2010.03.31 09:47:26.
