data_PCOD8049883
_publ_section_title
;
Structure prediction by ZEFSAII (Michael W. Deem and Ramdas Pophale) SiO2 
 PCOD8049883
Probable space group: C 2
;
_chemical_formula_sum "Si O2"
_cell_formula_units_Z 28
_cell_length_a 13.250634
_cell_length_b 5.006923
_cell_length_c 20.540300
_cell_angle_alpha 90.000000
_cell_angle_beta 61.020461
_cell_angle_gamma 90.000000
_cell_volume 1192.118821
_symmetry_space_group_name_H-M "C 2"
_symmetry_group_IT_number 5
_symmetry_cell_setting 'monoclinic'
loop_
_space_group_symop_operation_xyz
x,y,z
-x,y,-z
1/2+x,1/2+y,z
1/2-x,1/2+y,-z
loop_
_atom_site_type_symbol
_atom_site_label
_atom_site_fract_x
_atom_site_fract_y
_atom_site_fract_z
Si Si1 0.301570 0.231280 0.515598
Si Si2 0.229265 0.147861 0.048852
Si Si3 0.019522 0.606189 0.630677
Si Si4 0.990427 0.960946 0.821357
Si Si5 0.319855 0.261996 0.155803
Si Si6 0.377145 0.605597 0.337228
Si Si7 0.180186 0.769722 0.231019
O O1 0.279610 0.539267 0.504119
O O2 0.435361 0.147346 0.458525
O O3 0.257122 0.181279 0.604194
O O4 0.319922 0.189663 0.079402
O O5 0.097520 0.167044 0.116327
O O6 0.248270 0.352997 0.985064
O O7 0.038139 0.303834 0.649261
O O8 0.884872 0.684865 0.681750
O O9 0.100643 0.802267 0.647859
O O10 0.091218 0.123218 0.749765
O O11 0.050174 0.768795 0.856436
O O12 0.917334 0.780290 0.794583
O O13 0.273002 0.558940 0.178832
O O14 0.241905 0.054571 0.221040
#
# Coordination Sequence:
#
# PCOD8049883 Si02
#       7
#     4   4   4   4   4   4   4
#     4   8  14  24  43  77 112 149 198 238 282 340
#     4  11  24  44  64  88 121 152 193 244 296 363
#     4   9  15  28  50  79 119 157 193 246 291 327
#     4  10  23  42  65  89 122 157 194 246 299 348
#     4  11  24  41  64  91 119 157 198 239 296 357
#     4   9  17  29  52  82 113 153 199 240 286 347
#     4  10  21  38  60  91 122 156 203 244 286 349
#
# _framework density 23.487591999999999
#
# number of rings (size 3 to 8) (size 9 to 14) (size 15 to 20)
#    0.000    2.286    0.000    4.286    0.000    7.429 
#    0.000    4.286    0.000    0.857    0.000   10.000 
#    0.000    0.000    0.000    0.000    0.000    0.000 
#
# Total GULP energy -173464.610728 kJ/mol
# GULP energy per Si atom -12390.329338 kJ/mol
# Density = 2.343413 g / cm^3
# Si number density = 23.487592 Si / 1000 Ang^3
#
#
#
# Elastic Constant Matrix: (Units=GPa)
#
#
# Indices 1 2 3 4 5 6 
#
# 1 74.6773 16.3057 25.8814 -0.0017 14.2728 -0.0018
# 2 16.3057 84.0795 15.7688 -0.0107 3.7683 -0.0045
# 3 25.8814 15.7688 134.0339 -0.0005 -22.6597 -0.0003
# 4 -0.0017 -0.0107 -0.0005 35.4339 -0.0009 -9.6808
# 5 14.2728 3.7683 -22.6597 -0.0009 22.5772 -0.0013
# 6 -0.0018 -0.0045 -0.0003 -9.6808 -0.0013 21.1381
#
#
#
# Elastic Compliance Matrix: (Units=1/GPa)
#
#
# Indices 1 2 3 4 5 6 
#
# 1 0.019786 -0.001696 -0.006850 0.000000 -0.019100 0.000000
# 2 -0.001696 0.012643 -0.001608 0.000005 -0.002652 0.000005
# 3 -0.006850 -0.001608 0.011743 0.000000 0.016385 0.000000
# 4 0.000000 0.000005 0.000000 0.032258 0.000001 0.014773
# 5 -0.019100 -0.002652 0.016385 0.000001 0.073254 0.000003
# 6 0.000000 0.000005 0.000000 0.014773 0.000003 0.054074
#
#
# Mechanical properties :
#
#
# Convention : Reuss Voigt Hill
#
# Bulk Modulus (GPa) = 41.90707 45.41137 43.65922
# Shear Modulus (GPa) = 21.54977 31.48550 26.51763
#
# Velocity S-wave (km/s) = 3.03231 3.66528 3.36371
# Velocity P-wave (km/s) = 5.49006 6.10643 5.80643
#
# Compressibility (1/GPa) = 0.02386232
#
# Stress axis : x y z
#
# Youngs Moduli (GPa) = 50.54074 79.09550 85.15941
#
# Poissons Ratio (x) = 0.13418 0.58335
# Poissons Ratio (y) = 0.08574 0.13695
# Poissons Ratio (z) = 0.34621 0.12720
#
# Static dielectric constant tensor:
#      x y z
#    x 3.845570 0.000000 -0.464260 
#    y 0.000000 4.090570 -0.000010 
#    z -0.464260 -0.000010 4.864930 
# 
# 
# High freq. dielectric constant tensor:
#      x y z
#    x 1.881400 0.000000 -0.030190 
#    y 0.000000 1.932920 0.000000 
#    z -0.030190 0.000000 1.941540 
# 
# From -- ./inp_files/65549.got.cif
#   From: 2010.03.12/outbox.cif.g09.slc.cpg/sg5_33_cif.got.tgz:65549.got - 2010.03.31 09:47:26.
