data_PCOD8049385
_publ_section_title
;
Structure prediction by ZEFSAII (Michael W. Deem and Ramdas Pophale) SiO2 
 PCOD8049385
Probable space group: C 2
;
_chemical_formula_sum "Si O2"
_cell_formula_units_Z 24
_cell_length_a 15.781907
_cell_length_b 10.912087
_cell_length_c 15.892565
_cell_angle_alpha 90.000000
_cell_angle_beta 153.488956
_cell_angle_gamma 90.000000
_cell_volume 1221.677551
_symmetry_space_group_name_H-M "C 2"
_symmetry_group_IT_number 5
_symmetry_cell_setting 'monoclinic'
loop_
_space_group_symop_operation_xyz
x,y,z
-x,y,-z
1/2+x,1/2+y,z
1/2-x,1/2+y,-z
loop_
_atom_site_type_symbol
_atom_site_label
_atom_site_fract_x
_atom_site_fract_y
_atom_site_fract_z
Si Si1 0.207731 0.044870 0.709082
Si Si2 0.778369 0.268005 0.792443
Si Si3 0.643533 0.110453 0.821052
Si Si4 0.650267 0.045692 0.566837
Si Si5 0.472770 0.435748 0.068901
Si Si6 0.568333 0.155031 0.945899
O O1 0.363344 0.095190 0.781388
O O2 0.000000 0.097919 0.500000
O O3 0.194328 0.898664 0.692841
O O4 0.267479 0.085209 0.856378
O O5 0.697864 0.225145 0.810914
O O6 0.720143 0.176185 0.665698
O O7 0.000000 0.280607 0.000000
O O8 0.447159 0.056514 0.610586
O O9 0.612896 0.154681 0.887677
O O10 0.804699 0.006476 0.965974
O O11 0.500000 0.987428 0.500000
O O12 0.826732 0.955786 0.706242
O O13 0.425305 0.294264 0.018194
O O14 0.500000 0.494175 0.000000
#
# Coordination Sequence:
#
# PCOD8049385 Si02
#       6
#     4   4   4   4   4   4
#     4  11  24  44  66  85 128 173 205 247 318 373
#     4  11  19  41  70  90 123 170 209 250 303 372
#     4  11  24  41  64  98 123 159 212 262 301 363
#     4  10  20  38  67  94 119 161 217 247 302 366
#     4  12  21  42  66  89 125 171 201 255 314 368
#     4  11  27  42  61  96 129 159 208 258 313 368
#
# _framework density 19.645119000000001
#
# number of rings (size 3 to 8) (size 9 to 14) (size 15 to 20)
#    0.000    1.000    8.333    1.500    2.333    3.333 
#    3.000    0.000    0.000    0.000    0.000    0.000 
#    0.000    0.000    0.000    0.000    0.000    0.000 
#
# Total GULP energy -148813.323670 kJ/mol
# GULP energy per Si atom -12401.110306 kJ/mol
# Density = 1.960041 g / cm^3
# Si number density = 19.645119 Si / 1000 Ang^3
#
#
#
# Elastic Constant Matrix: (Units=GPa)
#
#
# Indices 1 2 3 4 5 6 
#
# 1 87.9136 10.8250 34.0722 -0.0010 -8.8825 -0.0004
# 2 10.8250 73.6620 9.1627 -0.0039 14.7565 -0.0015
# 3 34.0722 9.1627 149.3862 -0.0065 17.1171 -0.0019
# 4 -0.0010 -0.0039 -0.0065 -8.9774 -0.0048 -9.7436
# 5 -8.8825 14.7565 17.1171 -0.0048 26.7471 -0.0011
# 6 -0.0004 -0.0015 -0.0019 -9.7436 -0.0011 13.2593
#
#
#
# Elastic Compliance Matrix: (Units=1/GPa)
#
#
# Indices 1 2 3 4 5 6 
#
# 1 0.014340 -0.003460 -0.004125 -0.000001 0.009311 -0.000001
# 2 -0.003460 0.016097 0.001026 -0.000002 -0.010686 0.000000
# 3 -0.004125 0.001026 0.008411 -0.000002 -0.007319 -0.000001
# 4 -0.000001 -0.000002 -0.000002 -0.061967 -0.000011 -0.045537
# 5 0.009311 -0.010686 -0.007319 -0.000011 0.051059 -0.000006
# 6 -0.000001 0.000000 -0.000001 -0.045537 -0.000006 0.041956
#
#
# Mechanical properties :
#
#
# Convention : Reuss Voigt Hill
#
# Bulk Modulus (GPa) = 38.86427 46.56461 42.71444
# Shear Modulus (GPa) = 54.59116 23.33260 38.96188
#
# Velocity S-wave (km/s) = 5.27721 3.45005 4.45824
# Velocity P-wave (km/s) = 7.54706 6.29482 6.94920
#
# Compressibility (1/GPa) = 0.02573057
#
# Stress axis : x y z
#
# Youngs Moduli (GPa) = 69.73297 62.12319 118.89681
#
# Poissons Ratio (x) = 0.21492 0.49051
# Poissons Ratio (y) = 0.24124 -0.12201
# Poissons Ratio (z) = 0.28768 -0.06375
#
# Static dielectric constant tensor:
#      x y z
#    x 3.567640 -0.000010 0.206860 
#    y -0.000010 3.543900 0.000000 
#    z 0.206860 0.000000 3.892610 
# 
# 
# High freq. dielectric constant tensor:
#      x y z
#    x 1.744340 0.000000 0.009000 
#    y 0.000000 1.764480 0.000000 
#    z 0.009000 0.000000 1.785090 
# 
# From -- ./inp_files/54498.got.cif
#   From: 2010.03.12/outbox.cif.g09.slc.cpg/sg5_28_cif.got.tgz:54498.got - 2010.03.31 09:47:26.
