data_PCOD8049946
_publ_section_title
;
Structure prediction by ZEFSAII (Michael W. Deem and Ramdas Pophale) SiO2 
 PCOD8049946
Probable space group: C 2
;
_chemical_formula_sum "Si O2"
_cell_formula_units_Z 26
_cell_length_a 13.015804
_cell_length_b 4.988788
_cell_length_c 21.145609
_cell_angle_alpha 90.000000
_cell_angle_beta 120.773173
_cell_angle_gamma 90.000000
_cell_volume 1179.723656
_symmetry_space_group_name_H-M "C 2"
_symmetry_group_IT_number 5
_symmetry_cell_setting 'monoclinic'
loop_
_space_group_symop_operation_xyz
x,y,z
-x,y,-z
1/2+x,1/2+y,z
1/2-x,1/2+y,-z
loop_
_atom_site_type_symbol
_atom_site_label
_atom_site_fract_x
_atom_site_fract_y
_atom_site_fract_z
Si Si1 0.781817 0.357390 0.231942
Si Si2 0.000000 0.589625 0.000000
Si Si3 0.816529 0.340178 0.500949
Si Si4 0.823069 0.790528 0.039367
Si Si5 0.228857 0.352549 0.136461
Si Si6 0.054588 0.451942 0.342325
Si Si7 0.695079 0.451739 0.344330
O O1 0.719600 0.558565 0.163272
O O2 0.725244 0.392529 0.282266
O O3 0.921908 0.410017 0.276768
O O4 0.755815 0.057840 0.201010
O O5 0.051317 0.771482 0.958488
O O6 0.895667 0.405195 0.938780
O O7 0.713276 0.526306 0.500518
O O8 0.937637 0.405372 0.578543
O O9 0.815394 0.413368 0.425768
O O10 0.835754 0.873601 0.117435
O O11 0.759540 0.501485 0.023028
O O12 0.092011 0.753181 0.336946
O O13 0.145316 0.251953 0.335064
#
# Coordination Sequence:
#
# PCOD8049946 Si02
#       7
#     4   2   4   4   4   4   4
#     4  12  25  40  60  92 126 159 200 240 301 368
#     4  10  24  46  70  86 116 158 196 250 304 346
#     4   8  16  33  58  85 115 156 206 247 286 341
#     4  10  22  42  66  92 116 145 194 246 295 358
#     4  11  25  42  63  92 121 154 200 247 296 365
#     4  10  21  39  60  86 125 162 198 257 300 333
#     4  10  21  39  62  89 121 163 206 241 292 358
#
# _framework density 22.039062000000001
#
# number of rings (size 3 to 8) (size 9 to 14) (size 15 to 20)
#    0.000    1.846    0.000    3.692    0.000    9.846 
#    0.000    4.615    0.000   12.923    0.000    0.000 
#    0.000    0.000    0.000    0.000    0.000    0.000 
#
# Total GULP energy -161145.630572 kJ/mol
# GULP energy per Si atom -12395.817736 kJ/mol
# Density = 2.198890 g / cm^3
# Si number density = 22.039062 Si / 1000 Ang^3
#
#
#
# Elastic Constant Matrix: (Units=GPa)
#
#
# Indices 1 2 3 4 5 6 
#
# 1 106.4193 24.9403 52.3258 0.0000 -42.3793 0.0000
# 2 24.9403 87.0076 15.8644 -0.0001 -20.9672 0.0000
# 3 52.3258 15.8644 125.9063 0.0000 -34.9038 0.0001
# 4 0.0000 -0.0001 0.0000 33.1342 0.0001 -4.5568
# 5 -42.3793 -20.9672 -34.9038 0.0001 106.4570 -0.0001
# 6 0.0000 0.0000 0.0001 -4.5568 -0.0001 22.6281
#
#
#
# Elastic Compliance Matrix: (Units=1/GPa)
#
#
# Indices 1 2 3 4 5 6 
#
# 1 0.013440 -0.002220 -0.004338 0.000000 0.003491 0.000000
# 2 -0.002220 0.012536 -0.000239 0.000000 0.001507 0.000000
# 3 -0.004338 -0.000239 0.010212 0.000000 0.001574 0.000000
# 4 0.000000 0.000000 0.000000 0.031040 0.000000 0.006251
# 5 0.003491 0.001507 0.001574 0.000000 0.011596 0.000000
# 6 0.000000 0.000000 0.000000 0.006251 0.000000 0.045452
#
#
# Mechanical properties :
#
#
# Convention : Reuss Voigt Hill
#
# Bulk Modulus (GPa) = 44.26122 56.17712 50.21917
# Shear Modulus (GPa) = 34.38729 47.52405 40.95567
#
# Velocity S-wave (km/s) = 3.95433 4.64870 4.31550
# Velocity P-wave (km/s) = 6.40123 7.37285 6.90415
#
# Compressibility (1/GPa) = 0.02259314
#
# Stress axis : x y z
#
# Youngs Moduli (GPa) = 74.40267 79.76753 97.92550
#
# Poissons Ratio (x) = 0.17712 0.42483
# Poissons Ratio (y) = 0.16520 0.02341
# Poissons Ratio (z) = 0.32278 0.01907
#
# Static dielectric constant tensor:
#      x y z
#    x 3.699310 0.000000 -0.209040 
#    y 0.000000 4.045330 0.000000 
#    z -0.209040 0.000000 4.200680 
# 
# 
# High freq. dielectric constant tensor:
#      x y z
#    x 1.831950 0.000000 -0.015980 
#    y 0.000000 1.882800 0.000000 
#    z -0.015980 0.000000 1.880920 
# 
# From -- ./inp_files/64864.got.cif
#   From: 2010.03.12/outbox.cif.g09.slc.cpg/sg5_33_cif.got.tgz:64864.got - 2010.03.31 09:47:26.
