data_PCOD8049672
_publ_section_title
;
Structure prediction by ZEFSAII (Michael W. Deem and Ramdas Pophale) SiO2 
 PCOD8049672
Probable space group: C 2
;
_chemical_formula_sum "Si O2"
_cell_formula_units_Z 28
_cell_length_a 31.061451
_cell_length_b 5.236845
_cell_length_c 8.661317
_cell_angle_alpha 90.000000
_cell_angle_beta 65.776338
_cell_angle_gamma 90.000000
_cell_volume 1284.833280
_symmetry_space_group_name_H-M "C 2"
_symmetry_group_IT_number 5
_symmetry_cell_setting 'monoclinic'
loop_
_space_group_symop_operation_xyz
x,y,z
-x,y,-z
1/2+x,1/2+y,z
1/2-x,1/2+y,-z
loop_
_atom_site_type_symbol
_atom_site_label
_atom_site_fract_x
_atom_site_fract_y
_atom_site_fract_z
Si Si1 0.874675 0.227970 0.162347
Si Si2 0.790325 0.201772 0.085240
Si Si3 0.808634 0.697565 0.870647
Si Si4 0.052087 0.120120 0.182838
Si Si5 0.407128 0.215802 0.269908
Si Si6 0.500000 0.913838 0.500000
Si Si7 0.909318 0.758447 0.613126
Si Si8 0.500000 0.298818 0.000000
O O1 0.819623 0.194034 0.200546
O O2 0.877566 0.454993 0.284906
O O3 0.889925 0.947454 0.190662
O O4 0.908410 0.295644 0.963000
O O5 0.733714 0.174938 0.194347
O O6 0.799376 0.484883 0.010663
O O7 0.808944 0.980044 0.943929
O O8 0.859049 0.631613 0.723601
O O9 0.008166 0.260170 0.329655
O O10 0.079734 0.978259 0.280480
O O11 0.026178 0.954689 0.093926
O O12 0.404413 0.341291 0.442913
O O13 0.460565 0.131278 0.144734
O O14 0.451780 0.062294 0.551205
#
# Coordination Sequence:
#
# PCOD8049672 Si02
#       8
#     4   4   4   4   4   2   4   2
#     4  11  24  43  67  95 130 180 225 278 332 410
#     4  10  20  42  69 101 132 168 228 272 342 396
#     4  10  22  39  71 102 131 172 218 285 330 408
#     4  11  25  42  67  92 135 180 225 283 336 409
#     4  11  27  40  65  92 138 175 230 274 336 400
#     4  12  26  38  68  94 136 176 224 280 346 392
#     4  12  26  44  63 104 133 181 224 286 337 407
#     4  10  24  44  60  94 126 184 228 270 334 404
#
# _framework density 21.792712000000002
#
# number of rings (size 3 to 8) (size 9 to 14) (size 15 to 20)
#    0.000    1.143    1.429    3.857   14.000    0.571 
#    0.000    1.429    0.000    0.000    0.000    0.000 
#    0.000    0.000    0.000    0.000    0.000    0.000 
#
# Total GULP energy -173436.925861 kJ/mol
# GULP energy per Si atom -12388.351847 kJ/mol
# Density = 2.174311 g / cm^3
# Si number density = 21.792712 Si / 1000 Ang^3
#
#
#
# Elastic Constant Matrix: (Units=GPa)
#
#
# Indices 1 2 3 4 5 6 
#
# 1 171.0436 33.8961 53.3375 0.0000 -11.0866 0.0000
# 2 33.8961 84.5405 13.7644 0.0000 0.9536 0.0000
# 3 53.3375 13.7644 77.8533 0.0000 -0.4904 0.0000
# 4 0.0000 0.0000 0.0000 10.4670 0.0000 -5.8294
# 5 -11.0866 0.9536 -0.4904 0.0000 43.0575 0.0000
# 6 0.0000 0.0000 0.0000 -5.8294 0.0000 81.4620
#
#
#
# Elastic Compliance Matrix: (Units=1/GPa)
#
#
# Indices 1 2 3 4 5 6 
#
# 1 0.008041 -0.002422 -0.005067 0.000000 0.002066 0.000000
# 2 -0.002422 0.012913 -0.000629 0.000000 -0.000917 0.000000
# 3 -0.005067 -0.000629 0.016421 0.000000 -0.001104 0.000000
# 4 0.000000 0.000000 0.000000 0.099504 0.000000 0.007121
# 5 0.002066 -0.000917 -0.001104 0.000000 0.023765 0.000000
# 6 0.000000 0.000000 0.000000 0.007121 0.000000 0.012785
#
#
# Mechanical properties :
#
#
# Convention : Reuss Voigt Hill
#
# Bulk Modulus (GPa) = 47.31218 59.49261 53.40240
# Shear Modulus (GPa) = 25.41806 42.49327 33.95566
#
# Velocity S-wave (km/s) = 3.41890 4.42054 3.95159
# Velocity P-wave (km/s) = 6.11084 7.30845 6.73631
#
# Compressibility (1/GPa) = 0.02113621
#
# Stress axis : x y z
#
# Youngs Moduli (GPa) = 124.36926 77.44387 60.89892
#
# Poissons Ratio (x) = 0.18758 0.30860
# Poissons Ratio (y) = 0.30123 0.03833
# Poissons Ratio (z) = 0.63023 0.04874
#
# Static dielectric constant tensor:
#      x y z
#    x 4.472660 0.000000 -0.213790 
#    y 0.000000 3.799940 0.000000 
#    z -0.213790 0.000000 5.081450 
# 
# 
# High freq. dielectric constant tensor:
#      x y z
#    x 1.881730 0.000000 -0.001300 
#    y 0.000000 1.851060 0.000000 
#    z -0.001300 0.000000 1.834020 
# 
# From -- ./inp_files/31436.got.cif
#   From: 2010.03.12/outbox.cif.g09.slc.cpg/sg5_16_cif.got.tgz:31436.got - 2010.03.31 09:47:26.
