data_PCOD8049861
_publ_section_title
;
Structure prediction by ZEFSAII (Michael W. Deem and Ramdas Pophale) SiO2 
 PCOD8049861
Probable space group: C 2
;
_chemical_formula_sum "Si O2"
_cell_formula_units_Z 32
_cell_length_a 8.467751
_cell_length_b 22.564849
_cell_length_c 13.478531
_cell_angle_alpha 90.000000
_cell_angle_beta 149.341280
_cell_angle_gamma 90.000000
_cell_volume 1313.251535
_symmetry_space_group_name_H-M "C 2"
_symmetry_group_IT_number 5
_symmetry_cell_setting 'monoclinic'
loop_
_space_group_symop_operation_xyz
x,y,z
-x,y,-z
1/2+x,1/2+y,z
1/2-x,1/2+y,-z
loop_
_atom_site_type_symbol
_atom_site_label
_atom_site_fract_x
_atom_site_fract_y
_atom_site_fract_z
Si Si1 0.193896 0.916490 0.008386
Si Si2 0.761772 0.643837 0.451103
Si Si3 0.346999 0.830782 0.809419
Si Si4 0.530221 0.027677 0.184896
Si Si5 0.338546 0.149243 0.140271
Si Si6 0.654275 0.512513 0.434139
Si Si7 0.196546 0.230670 0.890943
Si Si8 0.306355 0.383333 0.618970
O O1 0.537407 0.888276 0.191303
O O2 0.223709 0.987107 0.009528
O O3 0.000000 0.900247 0.000000
O O4 0.045451 0.884159 0.836453
O O5 0.721059 0.573140 0.410046
O O6 0.445664 0.680302 0.259239
O O7 0.000000 0.668532 0.500000
O O8 0.898765 0.658491 0.633886
O O9 0.428707 0.776988 0.778644
O O10 0.974673 0.843525 0.624161
O O11 0.500000 0.820187 0.000000
O O12 0.432276 0.095293 0.118758
O O13 0.676427 0.018783 0.370955
O O14 0.781464 0.009037 0.238717
O O15 0.326163 0.206328 0.065088
O O16 0.000000 0.134753 0.000000
O O17 0.780949 0.451218 0.457228
O O18 0.500000 0.258892 0.000000
O O19 0.000000 0.352749 0.500000
#
# Coordination Sequence:
#
# PCOD8049861 Si02
#       8
#     4   4   4   4   4   4   4   4
#     4  11  22  40  67 100 140 183 239 283 364 437
#     4  11  24  43  69 113 143 193 247 300 373 453
#     4  10  24  47  72  98 141 188 242 309 357 429
#     4  10  21  37  65 105 141 190 225 290 374 432
#     4  11  23  43  72 104 152 189 246 312 365 436
#     4  10  21  39  64 104 152 177 229 301 360 446
#     4  12  26  47  78 105 144 202 250 306 377 430
#     4  11  23  42  71 103 140 187 234 303 365 429
#
# _framework density 24.367000000000001
#
# number of rings (size 3 to 8) (size 9 to 14) (size 15 to 20)
#    0.000    1.250    2.500    3.000    1.750    3.500 
#    0.000    5.000    0.000    0.000    0.000    0.000 
#    0.000    0.000    0.000    0.000    0.000    0.000 
#
# Total GULP energy -198270.507968 kJ/mol
# GULP energy per Si atom -12391.906748 kJ/mol
# Density = 2.431154 g / cm^3
# Si number density = 24.367000 Si / 1000 Ang^3
#
#
#
# Elastic Constant Matrix: (Units=GPa)
#
#
# Indices 1 2 3 4 5 6 
#
# 1 120.2044 48.1832 33.9003 -0.0002 38.4606 -0.0001
# 2 48.1832 111.4134 28.9325 -0.0001 9.2755 0.0000
# 3 33.9003 28.9325 74.6579 -0.0002 16.4112 -0.0005
# 4 -0.0002 -0.0001 -0.0002 27.1550 -0.0002 9.4989
# 5 38.4606 9.2755 16.4112 -0.0002 43.8827 -0.0002
# 6 -0.0001 0.0000 -0.0005 9.4989 -0.0002 44.1784
#
#
#
# Elastic Compliance Matrix: (Units=1/GPa)
#
#
# Indices 1 2 3 4 5 6 
#
# 1 0.014250 -0.004675 -0.002322 0.000000 -0.010633 0.000000
# 2 -0.004675 0.011534 -0.002955 0.000000 0.002764 0.000000
# 3 -0.002322 -0.002955 0.016354 0.000000 -0.003457 0.000000
# 4 0.000000 0.000000 0.000000 0.039821 0.000000 -0.008562
# 5 -0.010633 0.002764 -0.003457 0.000000 0.032815 0.000000
# 6 0.000000 0.000000 0.000000 -0.008562 0.000000 0.024476
#
#
# Mechanical properties :
#
#
# Convention : Reuss Voigt Hill
#
# Bulk Modulus (GPa) = 44.97321 58.70087 51.83704
# Shear Modulus (GPa) = 30.01844 36.06052 33.03948
#
# Velocity S-wave (km/s) = 3.51369 3.85111 3.68626
# Velocity P-wave (km/s) = 5.91253 6.62702 6.27994
#
# Compressibility (1/GPa) = 0.02223546
#
# Stress axis : x y z
#
# Youngs Moduli (GPa) = 70.17687 86.69692 61.14863
#
# Poissons Ratio (x) = 0.40526 0.14197
# Poissons Ratio (y) = 0.32804 0.18069
# Poissons Ratio (z) = 0.16293 0.25619
#
# Static dielectric constant tensor:
#      x y z
#    x 4.209680 0.000000 0.194590 
#    y 0.000000 4.360960 0.000000 
#    z 0.194590 0.000000 4.281720 
# 
# 
# High freq. dielectric constant tensor:
#      x y z
#    x 1.977610 0.000000 0.009850 
#    y 0.000000 1.959960 0.000000 
#    z 0.009850 0.000000 1.957360 
# 
# From -- ./inp_files/51714.got.cif
#   From: 2010.03.12/outbox.cif.g09.slc.cpg/sg5_26_cif.got.tgz:51714.got - 2010.03.31 09:47:26.
