data_PCOD8049519
_publ_section_title
;
Structure prediction by ZEFSAII (Michael W. Deem and Ramdas Pophale) SiO2 
 PCOD8049519
Probable space group: C 2
;
_chemical_formula_sum "Si O2"
_cell_formula_units_Z 18
_cell_length_a 10.336314
_cell_length_b 11.512604
_cell_length_c 9.746054
_cell_angle_alpha 90.000000
_cell_angle_beta 44.367949
_cell_angle_gamma 90.000000
_cell_volume 810.977807
_symmetry_space_group_name_H-M "C 2"
_symmetry_group_IT_number 5
_symmetry_cell_setting 'monoclinic'
loop_
_space_group_symop_operation_xyz
x,y,z
-x,y,-z
1/2+x,1/2+y,z
1/2-x,1/2+y,-z
loop_
_atom_site_type_symbol
_atom_site_label
_atom_site_fract_x
_atom_site_fract_y
_atom_site_fract_z
Si Si1 0.345526 0.671060 0.724291
Si Si2 0.078781 0.537242 0.734836
Si Si3 0.167193 0.744233 0.121441
Si Si4 0.000000 0.345513 0.000000
Si Si5 0.548223 0.452601 0.622616
O O1 0.500000 0.722354 0.500000
O O2 0.170014 0.623161 0.776294
O O3 0.431034 0.566336 0.750785
O O4 0.270319 0.759598 0.895735
O O5 0.988441 0.425770 0.874505
O O6 0.236045 0.484678 0.514821
O O7 0.921893 0.616865 0.781991
O O8 0.005790 0.841527 0.246100
O O9 0.315324 0.766650 0.131724
O O10 0.500000 0.426176 0.500000
#
# Coordination Sequence:
#
# PCOD8049519 Si02
#       5
#     4   4   4   2   4
#     4   9  19  39  64  97 129 172 221 269 323 398
#     4  10  20  40  64  96 134 169 223 267 316 406
#     4  12  20  36  72  97 130 181 215 268 339 385
#     4  12  22  38  66 104 128 174 218 264 334 392
#     4   9  19  39  62  95 132 168 219 266 326 391
#
# _framework density 22.195426999999999
#
# number of rings (size 3 to 8) (size 9 to 14) (size 15 to 20)
#    0.000    2.222    6.667    0.000    0.000    3.556 
#    0.000    0.000   19.556    5.333    0.000    0.000 
#    0.000    0.000    0.000    0.000    0.000    0.000 
#
# Total GULP energy -111507.536670 kJ/mol
# GULP energy per Si atom -12389.726297 kJ/mol
# Density = 2.214491 g / cm^3
# Si number density = 22.195427 Si / 1000 Ang^3
#
#
#
# Elastic Constant Matrix: (Units=GPa)
#
#
# Indices 1 2 3 4 5 6 
#
# 1 81.2952 58.6973 25.4789 0.0000 -31.8131 0.0000
# 2 58.6973 115.3386 70.3815 0.0000 -16.3401 0.0000
# 3 25.4789 70.3815 127.6497 0.0000 -20.5667 0.0000
# 4 0.0000 0.0000 0.0000 58.6988 0.0000 -5.5025
# 5 -31.8131 -16.3401 -20.5667 0.0000 28.7734 0.0000
# 6 0.0000 0.0000 0.0000 -5.5025 0.0000 35.1408
#
#
#
# Elastic Compliance Matrix: (Units=1/GPa)
#
#
# Indices 1 2 3 4 5 6 
#
# 1 0.038898 -0.020186 0.009548 0.000000 0.038368 0.000000
# 2 -0.020186 0.023712 -0.011834 0.000000 -0.017312 0.000000
# 3 0.009548 -0.011834 0.014772 0.000000 0.014395 0.000000
# 4 0.000000 0.000000 0.000000 0.017290 0.000000 0.002707
# 5 0.038368 -0.017312 0.014395 0.000000 0.077634 0.000000
# 6 0.000000 0.000000 0.000000 0.002707 0.000000 0.028881
#
#
# Mechanical properties :
#
#
# Convention : Reuss Voigt Hill
#
# Bulk Modulus (GPa) = 30.82870 70.37766 50.60318
# Shear Modulus (GPa) = 19.45951 35.83767 27.64859
#
# Velocity S-wave (km/s) = 2.96418 4.02262 3.53326
# Velocity P-wave (km/s) = 5.06310 7.30427 6.28440
#
# Compressibility (1/GPa) = 0.03243731
#
# Stress axis : x y z
#
# Youngs Moduli (GPa) = 25.70832 42.17305 67.69422
#
# Poissons Ratio (x) = 0.85131 -0.64633
# Poissons Ratio (y) = 0.51895 0.80109
# Poissons Ratio (z) = -0.24546 0.49907
#
# Static dielectric constant tensor:
#      x y z
#    x 3.737340 0.000000 -0.480430 
#    y 0.000000 3.915680 0.000000 
#    z -0.480430 0.000000 4.098100 
# 
# 
# High freq. dielectric constant tensor:
#      x y z
#    x 1.839360 0.000000 -0.046140 
#    y 0.000000 1.857410 0.000000 
#    z -0.046140 0.000000 1.870970 
# 
# From -- ./inp_files/14187.got.cif
#   From: 2010.03.12/outbox.cif.g09.slc.cpg/sg5_8_cif.got.tgz:14187.got - 2010.03.31 09:47:26.
