data_PCOD8049952
_publ_section_title
;
Structure prediction by ZEFSAII (Michael W. Deem and Ramdas Pophale) SiO2 
 PCOD8049952
Probable space group: C 2
;
_chemical_formula_sum "Si O2"
_cell_formula_units_Z 22
_cell_length_a 24.174925
_cell_length_b 8.409849
_cell_length_c 15.743386
_cell_angle_alpha 90.000000
_cell_angle_beta 161.035652
_cell_angle_gamma 90.000000
_cell_volume 1040.178263
_symmetry_space_group_name_H-M "C 2"
_symmetry_group_IT_number 5
_symmetry_cell_setting 'monoclinic'
loop_
_space_group_symop_operation_xyz
x,y,z
-x,y,-z
1/2+x,1/2+y,z
1/2-x,1/2+y,-z
loop_
_atom_site_type_symbol
_atom_site_label
_atom_site_fract_x
_atom_site_fract_y
_atom_site_fract_z
Si Si1 0.917389 0.293010 0.299520
Si Si2 0.461422 0.773238 0.110831
Si Si3 0.424548 0.283579 0.483448
Si Si4 0.363186 0.980452 0.501646
Si Si5 0.000000 0.107053 0.000000
Si Si6 0.633849 0.533220 0.891034
O O1 0.000000 0.204895 0.500000
O O2 0.080967 0.343906 0.482166
O O3 0.798582 0.177275 0.071206
O O4 0.800619 0.438369 0.162417
O O5 0.560538 0.923583 0.296303
O O6 0.460745 0.610547 0.166042
O O7 0.270447 0.830035 0.816037
O O8 0.550096 0.721720 0.151481
O O9 0.500000 0.238465 0.500000
O O10 0.508083 0.435496 0.648519
O O11 0.441122 0.143595 0.577677
O O12 0.159372 0.993132 0.210777
#
# Coordination Sequence:
#
# PCOD8049952 Si02
#       6
#     4   4   4   4   2   4
#     4  11  21  36  58  88 121 152 186 230 288 349
#     4  10  23  41  60  86 116 153 198 242 290 340
#     4  11  21  37  61  89 121 153 185 233 293 352
#     4  10  21  39  61  83 115 155 194 241 289 338
#     4  10  22  40  60  82 114 154 202 248 288 332
#     4  11  23  36  59  92 121 151 189 232 287 353
#
# _framework density 21.150220000000001
#
# number of rings (size 3 to 8) (size 9 to 14) (size 15 to 20)
#    0.000    1.455    0.000    7.636    0.000    4.364 
#    0.000    5.455    0.000    2.182    0.000    0.000 
#    0.000    0.000    0.000    0.000    0.000    0.000 
#
# Total GULP energy -136328.204806 kJ/mol
# GULP energy per Si atom -12393.473164 kJ/mol
# Density = 2.110208 g / cm^3
# Si number density = 21.150220 Si / 1000 Ang^3
#
#
#
# Elastic Constant Matrix: (Units=GPa)
#
#
# Indices 1 2 3 4 5 6 
#
# 1 108.1110 44.0273 40.9032 0.0000 -19.0075 0.0000
# 2 44.0273 75.2952 30.3933 0.0000 -10.2804 0.0000
# 3 40.9032 30.3933 93.2648 0.0000 -5.7909 0.0000
# 4 0.0000 0.0000 0.0000 45.8393 0.0000 -14.1928
# 5 -19.0075 -10.2804 -5.7909 0.0000 42.4963 0.0000
# 6 0.0000 0.0000 0.0000 -14.1928 0.0000 23.9408
#
#
#
# Elastic Compliance Matrix: (Units=1/GPa)
#
#
# Indices 1 2 3 4 5 6 
#
# 1 0.013901 -0.005981 -0.003884 0.000000 0.004241 0.000000
# 2 -0.005981 0.018268 -0.003249 0.000000 0.001301 0.000000
# 3 -0.003884 -0.003249 0.013441 0.000000 -0.000692 0.000000
# 4 0.000000 0.000000 0.000000 0.026720 0.000000 0.015840
# 5 0.004241 0.001301 -0.000692 0.000000 0.025649 0.000000
# 6 0.000000 0.000000 0.000000 0.015840 0.000000 0.051160
#
#
# Mechanical properties :
#
#
# Convention : Reuss Voigt Hill
#
# Bulk Modulus (GPa) = 51.59646 56.36875 53.98260
# Shear Modulus (GPa) = 27.49854 33.21178 30.35516
#
# Velocity S-wave (km/s) = 3.60968 3.96698 3.79254
# Velocity P-wave (km/s) = 6.46693 6.90594 6.69004
#
# Compressibility (1/GPa) = 0.01938118
#
# Stress axis : x y z
#
# Youngs Moduli (GPa) = 71.93877 54.74149 74.39702
#
# Poissons Ratio (x) = 0.32743 0.28895
# Poissons Ratio (y) = 0.43029 0.24172
# Poissons Ratio (z) = 0.27940 0.17786
#
# Static dielectric constant tensor:
#      x y z
#    x 4.000320 0.000000 -0.185230 
#    y 0.000000 3.845490 0.000000 
#    z -0.185230 0.000000 3.798900 
# 
# 
# High freq. dielectric constant tensor:
#      x y z
#    x 1.829370 0.000000 -0.016660 
#    y 0.000000 1.820000 0.000000 
#    z -0.016660 0.000000 1.834030 
# 
# From -- ./inp_files/52172.got.cif
#   From: 2010.03.12/outbox.cif.g09.slc.cpg/sg5_27_cif.got.tgz:52172.got - 2010.03.31 09:47:26.
