data_PCOD8049700
_publ_section_title
;
Structure prediction by ZEFSAII (Michael W. Deem and Ramdas Pophale) SiO2 
 PCOD8049700
Probable space group: C 2
;
_chemical_formula_sum "Si O2"
_cell_formula_units_Z 32
_cell_length_a 11.661909
_cell_length_b 11.961011
_cell_length_c 10.755808
_cell_angle_alpha 90.000000
_cell_angle_beta 75.425671
_cell_angle_gamma 90.000000
_cell_volume 1452.031621
_symmetry_space_group_name_H-M "C 2"
_symmetry_group_IT_number 5
_symmetry_cell_setting 'monoclinic'
loop_
_space_group_symop_operation_xyz
x,y,z
-x,y,-z
1/2+x,1/2+y,z
1/2-x,1/2+y,-z
loop_
_atom_site_type_symbol
_atom_site_label
_atom_site_fract_x
_atom_site_fract_y
_atom_site_fract_z
Si Si1 0.203486 0.180500 0.642047
Si Si2 0.046789 0.775929 0.853227
Si Si3 0.085065 0.841236 0.368250
Si Si4 0.519345 0.795788 0.860338
Si Si5 0.688745 0.794198 0.254227
Si Si6 0.102689 0.502377 0.378006
Si Si7 0.926378 0.530922 0.222965
Si Si8 0.316524 0.577005 0.610311
O O1 0.288495 0.287445 0.634158
O O2 0.090365 0.204901 0.759042
O O3 0.153121 0.151695 0.519026
O O4 0.276218 0.070381 0.655207
O O5 0.174970 0.831492 0.799212
O O6 0.068038 0.642585 0.861004
O O7 0.963087 0.809490 0.757331
O O8 0.000000 0.819153 0.000000
O O9 0.000000 0.793719 0.500000
O O10 0.095069 0.974926 0.384546
O O11 0.387528 0.818756 0.846778
O O12 0.588293 0.915876 0.851810
O O13 0.500000 0.742314 0.000000
O O14 0.637194 0.871294 0.381245
O O15 0.672078 0.663015 0.280176
O O16 0.000000 0.538895 0.500000
O O17 0.051264 0.526143 0.256868
O O18 0.819943 0.534544 0.354480
#
# Coordination Sequence:
#
# PCOD8049700 Si02
#       8
#     4   4   4   4   4   4   4   4
#     4  12  25  42  71 103 140 188 234 311 354 445
#     4  11  25  46  73 103 147 193 246 297 367 441
#     4  12  26  44  72 104 144 186 241 305 371 438
#     4  11  26  45  69 100 144 193 244 292 367 434
#     4  10  27  43  67 103 141 185 236 297 359 438
#     4  11  22  39  69 101 140 182 241 291 363 431
#     4  10  20  43  67 102 133 190 239 300 341 439
#     4  11  25  41  69 104 144 179 239 299 377 415
#
# _framework density 22.038087000000001
#
# number of rings (size 3 to 8) (size 9 to 14) (size 15 to 20)
#    0.000    1.000    3.750    2.250   10.500    0.000 
#    0.000    2.500    0.000    0.000    0.000    0.000 
#    0.000    0.000    0.000    0.000    0.000    0.000 
#
# Total GULP energy -198237.804005 kJ/mol
# GULP energy per Si atom -12389.862750 kJ/mol
# Density = 2.198793 g / cm^3
# Si number density = 22.038087 Si / 1000 Ang^3
#
#
#
# Elastic Constant Matrix: (Units=GPa)
#
#
# Indices 1 2 3 4 5 6 
#
# 1 87.5270 36.8853 41.8931 0.0000 -3.3564 0.0000
# 2 36.8853 106.6943 36.9493 0.0000 3.6176 0.0000
# 3 41.8931 36.9493 139.0085 0.0000 3.5194 0.0000
# 4 0.0000 0.0000 0.0000 25.3916 0.0000 -3.9479
# 5 -3.3564 3.6176 3.5194 0.0000 25.5764 0.0000
# 6 0.0000 0.0000 0.0000 -3.9479 0.0000 35.9280
#
#
#
# Elastic Compliance Matrix: (Units=1/GPa)
#
#
# Indices 1 2 3 4 5 6 
#
# 1 0.014921 -0.004049 -0.003497 0.000000 0.003012 0.000000
# 2 -0.004049 0.011452 -0.001775 0.000000 -0.001907 0.000000
# 3 -0.003497 -0.001775 0.008755 0.000000 -0.001413 0.000000
# 4 0.000000 0.000000 0.000000 0.040068 0.000000 0.004403
# 5 0.003012 -0.001907 -0.001413 0.000000 0.039958 0.000000
# 6 0.000000 0.000000 0.000000 0.004403 0.000000 0.028317
#
#
# Mechanical properties :
#
#
# Convention : Reuss Voigt Hill
#
# Bulk Modulus (GPa) = 60.66056 62.74279 61.70168
# Shear Modulus (GPa) = 29.83150 31.87935 30.85543
#
# Velocity S-wave (km/s) = 3.68317 3.80749 3.74584
# Velocity P-wave (km/s) = 6.75816 6.91818 6.83864
#
# Compressibility (1/GPa) = 0.01648518
#
# Stress axis : x y z
#
# Youngs Moduli (GPa) = 67.02149 87.32120 114.21769
#
# Poissons Ratio (x) = 0.35360 0.39936
# Poissons Ratio (y) = 0.27140 0.20278
# Poissons Ratio (z) = 0.23434 0.15502
#
# Static dielectric constant tensor:
#      x y z
#    x 4.037720 0.000000 -0.120630 
#    y 0.000000 4.095480 0.000000 
#    z -0.120630 0.000000 3.787270 
# 
# 
# High freq. dielectric constant tensor:
#      x y z
#    x 1.874690 0.000000 -0.004840 
#    y 0.000000 1.873940 0.000000 
#    z -0.004840 0.000000 1.842170 
# 
# From -- ./inp_files/39382.got.cif
#   From: 2010.03.12/outbox.cif.g09.slc.cpg/sg5_20_cif.got.tgz:39382.got - 2010.03.31 09:47:26.
