data_PCOD8049501
_publ_section_title
;
Structure prediction by ZEFSAII (Michael W. Deem and Ramdas Pophale) SiO2 
 PCOD8049501
Probable space group: C 2
;
_chemical_formula_sum "Si O2"
_cell_formula_units_Z 30
_cell_length_a 20.841662
_cell_length_b 8.712556
_cell_length_c 12.564231
_cell_angle_alpha 90.000000
_cell_angle_beta 142.762497
_cell_angle_gamma 90.000000
_cell_volume 1380.561014
_symmetry_space_group_name_H-M "C 2"
_symmetry_group_IT_number 5
_symmetry_cell_setting 'monoclinic'
loop_
_space_group_symop_operation_xyz
x,y,z
-x,y,-z
1/2+x,1/2+y,z
1/2-x,1/2+y,-z
loop_
_atom_site_type_symbol
_atom_site_label
_atom_site_fract_x
_atom_site_fract_y
_atom_site_fract_z
Si Si1 0.684546 0.739890 0.461513
Si Si2 0.094637 0.491216 0.980589
Si Si3 0.359591 0.007848 0.724611
Si Si4 0.987743 0.056775 0.272208
Si Si5 0.202421 0.402871 0.712762
Si Si6 0.636423 0.275631 0.912329
Si Si7 0.000000 0.231402 0.500000
Si Si8 0.220285 0.200093 0.088676
O O1 0.692864 0.842228 0.365900
O O2 0.788043 0.639062 0.580706
O O3 0.579453 0.629480 0.318768
O O4 0.690775 0.849874 0.574644
O O5 0.126644 0.561381 0.136134
O O6 0.154038 0.329420 0.061772
O O7 0.121793 0.594628 0.914599
O O8 0.968759 0.480704 0.806082
O O9 0.018515 0.114326 0.428792
O O10 0.975667 0.870386 0.247529
O O11 0.866741 0.104858 0.090830
O O12 0.214900 0.588654 0.744084
O O13 0.100815 0.343175 0.645295
O O14 0.305011 0.331372 0.903641
O O15 0.700837 0.287472 0.887656
#
# Coordination Sequence:
#
# PCOD8049501 Si02
#       8
#     4   4   4   4   4   4   2   4
#     4  11  24  45  64  96 127 176 225 288 334 382
#     4  11  24  46  64  98 132 175 220 272 334 403
#     4  11  26  44  68  89 134 178 220 287 328 386
#     4  10  22  39  65  95 134 172 223 267 340 391
#     4  10  22  39  65  95 134 172 223 267 340 391
#     4  11  22  40  68 100 131 179 216 269 332 423
#     4  10  20  40  62  96 140 174 204 288 326 394
#     4  11  22  40  68 100 131 179 216 269 332 423
#
# _framework density 21.730298000000001
#
# number of rings (size 3 to 8) (size 9 to 14) (size 15 to 20)
#    0.000    1.333    4.000    1.600    3.733    0.000 
#    0.000    3.333    0.000    0.000    0.000    0.000 
#    0.000    0.000    0.000    0.000    0.000    0.000 
#
# Total GULP energy -185836.600500 kJ/mol
# GULP energy per Si atom -12389.106700 kJ/mol
# Density = 2.168084 g / cm^3
# Si number density = 21.730298 Si / 1000 Ang^3
#
#
#
# Elastic Constant Matrix: (Units=GPa)
#
#
# Indices 1 2 3 4 5 6 
#
# 1 63.6750 33.1300 21.6425 0.0000 10.1887 0.0000
# 2 33.1300 130.0655 50.9601 0.0000 12.7660 0.0000
# 3 21.6425 50.9601 89.5700 0.0000 11.4683 0.0000
# 4 0.0000 0.0000 0.0000 47.0341 0.0000 5.1284
# 5 10.1887 12.7660 11.4683 0.0000 10.8754 0.0000
# 6 0.0000 0.0000 0.0000 5.1284 0.0000 36.7309
#
#
#
# Elastic Compliance Matrix: (Units=1/GPa)
#
#
# Indices 1 2 3 4 5 6 
#
# 1 0.020004 -0.003280 -0.001226 0.000000 -0.013597 0.000000
# 2 -0.003280 0.010855 -0.004792 0.000000 -0.004615 0.000000
# 3 -0.001226 -0.004792 0.015399 0.000000 -0.009465 0.000000
# 4 0.000000 0.000000 0.000000 0.021590 0.000000 -0.003014
# 5 -0.013597 -0.004615 -0.009465 0.000000 0.120087 0.000000
# 6 0.000000 0.000000 0.000000 -0.003014 0.000000 0.027646
#
#
# Mechanical properties :
#
#
# Convention : Reuss Voigt Hill
#
# Bulk Modulus (GPa) = 36.15307 54.97508 45.56407
# Shear Modulus (GPa) = 20.54250 30.76660 25.65455
#
# Velocity S-wave (km/s) = 3.07797 3.76685 3.43970
# Velocity P-wave (km/s) = 5.41343 6.65376 6.06538
#
# Compressibility (1/GPa) = 0.02766017
#
# Stress axis : x y z
#
# Youngs Moduli (GPa) = 49.99003 92.12759 64.93941
#
# Poissons Ratio (x) = 0.30221 0.07963
# Poissons Ratio (y) = 0.16399 0.31119
# Poissons Ratio (z) = 0.06130 0.44148
#
# Static dielectric constant tensor:
#      x y z
#    x 3.615140 0.000000 0.130010 
#    y 0.000000 4.154200 0.000000 
#    z 0.130010 0.000000 4.001690 
# 
# 
# High freq. dielectric constant tensor:
#      x y z
#    x 1.838310 0.000000 0.005920 
#    y 0.000000 1.860210 0.000000 
#    z 0.005920 0.000000 1.855070 
# 
# From -- ./inp_files/57618.got.cif
#   From: 2010.03.12/outbox.cif.g09.slc.cpg/sg5_29_cif.got.tgz:57618.got - 2010.03.31 09:47:26.
