data_PCOD8049430
_publ_section_title
;
Structure prediction by ZEFSAII (Michael W. Deem and Ramdas Pophale) SiO2 
 PCOD8049430
Probable space group: C 2
;
_chemical_formula_sum "Si O2"
_cell_formula_units_Z 28
_cell_length_a 8.714809
_cell_length_b 14.959250
_cell_length_c 10.849645
_cell_angle_alpha 90.000000
_cell_angle_beta 61.641164
_cell_angle_gamma 90.000000
_cell_volume 1244.689388
_symmetry_space_group_name_H-M "C 2"
_symmetry_group_IT_number 5
_symmetry_cell_setting 'monoclinic'
loop_
_space_group_symop_operation_xyz
x,y,z
-x,y,-z
1/2+x,1/2+y,z
1/2-x,1/2+y,-z
loop_
_atom_site_type_symbol
_atom_site_label
_atom_site_fract_x
_atom_site_fract_y
_atom_site_fract_z
Si Si1 0.148566 0.533030 0.299443
Si Si2 0.768400 0.348825 0.811827
Si Si3 0.399490 0.748428 0.356857
Si Si4 0.321761 0.407070 0.623463
Si Si5 0.766170 0.582633 0.472109
Si Si6 0.115533 0.839159 0.132170
Si Si7 0.316148 0.680130 0.127345
O O1 0.112458 0.431043 0.279377
O O2 0.254776 0.535077 0.387260
O O3 0.269291 0.575146 0.144270
O O4 0.973247 0.593267 0.370217
O O5 0.592422 0.343696 0.799468
O O6 0.889522 0.260926 0.739242
O O7 0.719739 0.371232 0.971447
O O8 0.321772 0.848813 0.396500
O O9 0.339489 0.678747 0.489099
O O10 0.312926 0.706628 0.270603
O O11 0.500000 0.369871 0.500000
O O12 0.306498 0.513802 0.603320
O O13 0.315352 0.393368 0.774679
O O14 0.164153 0.734693 0.118835
O O15 0.500000 0.702963 0.000000
#
# Coordination Sequence:
#
# PCOD8049430 Si02
#       7
#     4   4   4   4   4   4   4
#     4  10  22  39  68  97 134 176 230 282 335 419
#     4  11  21  45  68 102 134 180 231 284 346 403
#     4  10  22  40  71  94 132 182 225 282 336 404
#     4  11  23  43  65  97 138 178 228 280 338 413
#     4  10  22  43  64 100 132 178 234 277 341 409
#     4  10  24  39  72  99 137 178 229 285 345 407
#     4  10  20  39  64  94 130 179 225 272 344 408
#
# _framework density 22.495573
#
# number of rings (size 3 to 8) (size 9 to 14) (size 15 to 20)
#    0.000    1.714    2.857    0.857    8.000    0.000 
#    2.571    0.000    6.286    0.000    0.000    0.000 
#    0.000    0.000    0.000    0.000    0.000    0.000 
#
# Total GULP energy -173439.981250 kJ/mol
# GULP energy per Si atom -12388.570089 kJ/mol
# Density = 2.244437 g / cm^3
# Si number density = 22.495573 Si / 1000 Ang^3
#
#
#
# Elastic Constant Matrix: (Units=GPa)
#
#
# Indices 1 2 3 4 5 6 
#
# 1 93.8730 53.1251 44.6687 0.0000 -10.7917 0.0000
# 2 53.1251 115.4142 46.8714 0.0000 -6.2155 0.0000
# 3 44.6687 46.8714 89.8072 0.0000 -6.8868 0.0000
# 4 0.0000 0.0000 0.0000 32.7064 0.0000 -9.4379
# 5 -10.7917 -6.2155 -6.8868 0.0000 35.5948 0.0000
# 6 0.0000 0.0000 0.0000 -9.4379 0.0000 26.6742
#
#
#
# Elastic Compliance Matrix: (Units=1/GPa)
#
#
# Indices 1 2 3 4 5 6 
#
# 1 0.016482 -0.005314 -0.005189 0.000000 0.003065 0.000000
# 2 -0.005314 0.012732 -0.004014 0.000000 -0.000165 0.000000
# 3 -0.005189 -0.004014 0.015872 0.000000 0.000797 0.000000
# 4 0.000000 0.000000 0.000000 0.034052 0.000000 0.012048
# 5 0.003065 -0.000165 0.000797 0.000000 0.029149 0.000000
# 6 0.000000 0.000000 0.000000 0.012048 0.000000 0.041752
#
#
# Mechanical properties :
#
#
# Convention : Reuss Voigt Hill
#
# Bulk Modulus (GPa) = 62.30344 65.38052 63.84198
# Shear Modulus (GPa) = 27.11143 29.29036 28.20090
#
# Velocity S-wave (km/s) = 3.47535 3.61231 3.54449
# Velocity P-wave (km/s) = 6.62269 6.82094 6.72255
#
# Compressibility (1/GPa) = 0.01605048
#
# Stress axis : x y z
#
# Youngs Moduli (GPa) = 60.67366 78.54252 63.00283
#
# Poissons Ratio (x) = 0.41737 0.32694
# Poissons Ratio (y) = 0.32242 0.25292
# Poissons Ratio (z) = 0.31485 0.31531
#
# Static dielectric constant tensor:
#      x y z
#    x 3.953300 0.000000 -0.027760 
#    y 0.000000 4.050920 0.000000 
#    z -0.027760 0.000000 4.069380 
# 
# 
# High freq. dielectric constant tensor:
#      x y z
#    x 1.884120 0.000000 -0.012690 
#    y 0.000000 1.879020 0.000000 
#    z -0.012690 0.000000 1.883960 
# 
# From -- ./inp_files/36317.got.cif
#   From: 2010.03.12/outbox.cif.g09.slc.cpg/sg5_19_cif.got.tgz:36317.got - 2010.03.31 09:47:26.
