data_PCOD8049326
_publ_section_title
;
Structure prediction by ZEFSAII (Michael W. Deem and Ramdas Pophale) SiO2 
 PCOD8049326
Probable space group: C 2
;
_chemical_formula_sum "Si O2"
_cell_formula_units_Z 18
_cell_length_a 17.290564
_cell_length_b 9.156460
_cell_length_c 13.156563
_cell_angle_alpha 90.000000
_cell_angle_beta 156.648828
_cell_angle_gamma 90.000000
_cell_volume 825.610481
_symmetry_space_group_name_H-M "C 2"
_symmetry_group_IT_number 5
_symmetry_cell_setting 'monoclinic'
loop_
_space_group_symop_operation_xyz
x,y,z
-x,y,-z
1/2+x,1/2+y,z
1/2-x,1/2+y,-z
loop_
_atom_site_type_symbol
_atom_site_label
_atom_site_fract_x
_atom_site_fract_y
_atom_site_fract_z
Si Si1 0.061332 0.490970 0.788245
Si Si2 0.876921 0.974344 0.752881
Si Si3 0.427792 0.769981 0.020133
Si Si4 0.000000 0.801298 0.500000
Si Si5 0.428812 0.332409 0.192408
O O1 0.113743 0.660538 0.859915
O O2 0.847276 0.472022 0.482112
O O3 0.060234 0.411197 0.895384
O O4 0.226935 0.414068 0.918961
O O5 0.909150 0.865056 0.697373
O O6 0.000000 0.928331 0.000000
O O7 0.936183 0.134941 0.782977
O O8 0.202650 0.709466 0.743337
O O9 0.500000 0.829719 0.000000
O O10 0.002063 0.889020 0.611054
#
# Coordination Sequence:
#
# PCOD8049326 Si02
#       5
#     4   4   4   2   4
#     4  11  23  39  61  90 122 159 202 248 298 357
#     4  11  23  40  64  91 122 160 200 248 300 357
#     4  10  21  39  64  89 121 161 200 246 300 360
#     4  10  20  38  62  86 116 160 202 242 294 354
#     4  11  23  40  62  90 123 159 201 248 300 357
#
# _framework density 21.802049
#
# number of rings (size 3 to 8) (size 9 to 14) (size 15 to 20)
#    0.000    1.333    0.000    8.000    0.000    1.778 
#    0.000   13.333    0.000    1.333    0.000    0.000 
#    0.000    0.000    0.000    0.000    0.000    0.000 
#
# Total GULP energy -111504.878933 kJ/mol
# GULP energy per Si atom -12389.430993 kJ/mol
# Density = 2.175243 g / cm^3
# Si number density = 21.802049 Si / 1000 Ang^3
#
#
#
# Elastic Constant Matrix: (Units=GPa)
#
#
# Indices 1 2 3 4 5 6 
#
# 1 80.4057 25.4016 19.6729 0.0000 -15.3207 0.0000
# 2 25.4016 95.1656 41.3076 0.0001 -4.4650 0.0000
# 3 19.6729 41.3076 134.2472 0.0000 20.1082 0.0000
# 4 0.0000 0.0001 0.0000 26.2483 0.0001 5.8134
# 5 -15.3207 -4.4650 20.1082 0.0001 44.5006 0.0000
# 6 0.0000 0.0000 0.0000 5.8134 0.0000 32.9953
#
#
#
# Elastic Compliance Matrix: (Units=1/GPa)
#
#
# Indices 1 2 3 4 5 6 
#
# 1 0.014974 -0.002753 -0.002229 0.000000 0.005886 0.000000
# 2 -0.002753 0.013050 -0.003932 0.000000 0.002138 0.000000
# 3 -0.002229 -0.003932 0.009824 0.000000 -0.005601 0.000000
# 4 0.000000 0.000000 0.000000 0.039645 0.000000 -0.006985
# 5 0.005886 0.002138 -0.005601 0.000000 0.027244 0.000000
# 6 0.000000 0.000000 0.000000 -0.006985 0.000000 0.031538
#
#
# Mechanical properties :
#
#
# Convention : Reuss Voigt Hill
#
# Bulk Modulus (GPa) = 49.95097 53.62029 51.78563
# Shear Modulus (GPa) = 31.09918 35.64460 33.37189
#
# Velocity S-wave (km/s) = 3.78091 4.04780 3.91663
# Velocity P-wave (km/s) = 6.48238 6.81864 6.65263
#
# Compressibility (1/GPa) = 0.02001963
#
# Stress axis : x y z
#
# Youngs Moduli (GPa) = 66.78445 76.62796 101.78645
#
# Poissons Ratio (x) = 0.21097 0.22686
# Poissons Ratio (y) = 0.18387 0.40026
# Poissons Ratio (z) = 0.14884 0.30133
#
# Static dielectric constant tensor:
#      x y z
#    x 4.285330 0.000000 0.279410 
#    y 0.000000 3.613230 0.000000 
#    z 0.279410 0.000000 4.365010 
# 
# 
# High freq. dielectric constant tensor:
#      x y z
#    x 1.875530 0.000000 0.021570 
#    y 0.000000 1.824020 0.000000 
#    z 0.021570 0.000000 1.867100 
# 
# From -- ./inp_files/18027.got.cif
#   From: 2010.03.12/outbox.cif.g09.slc.cpg/sg5_10_cif.got.tgz:18027.got - 2010.03.31 09:47:26.
