data_PCOD8049452
_publ_section_title
;
Structure prediction by ZEFSAII (Michael W. Deem and Ramdas Pophale) SiO2 
 PCOD8049452
Probable space group: C 2
;
_chemical_formula_sum "Si O2"
_cell_formula_units_Z 32
_cell_length_a 9.001064
_cell_length_b 22.812994
_cell_length_c 15.471010
_cell_angle_alpha 90.000000
_cell_angle_beta 28.726003
_cell_angle_gamma 90.000000
_cell_volume 1526.855805
_symmetry_space_group_name_H-M "C 2"
_symmetry_group_IT_number 5
_symmetry_cell_setting 'monoclinic'
loop_
_space_group_symop_operation_xyz
x,y,z
-x,y,-z
1/2+x,1/2+y,z
1/2-x,1/2+y,-z
loop_
_atom_site_type_symbol
_atom_site_label
_atom_site_fract_x
_atom_site_fract_y
_atom_site_fract_z
Si Si1 0.866299 0.920430 0.809970
Si Si2 0.656426 0.508172 0.328448
Si Si3 0.321641 0.830657 0.810724
Si Si4 0.642347 0.718197 0.680244
Si Si5 0.275917 0.449879 0.042101
Si Si6 0.320717 0.310632 0.302779
Si Si7 0.295902 0.129756 0.187420
Si Si8 0.268991 0.702987 0.042609
O O1 0.971755 0.964094 0.679787
O O2 0.042200 0.859303 0.701560
O O3 0.500000 0.909285 0.000000
O O4 0.957757 0.943771 0.858613
O O5 0.500000 0.496917 0.500000
O O6 0.609691 0.573857 0.317728
O O7 0.016380 0.497806 0.159299
O O8 0.609735 0.786599 0.671045
O O9 0.362073 0.887841 0.851028
O O10 0.265968 0.846874 0.739557
O O11 0.000000 0.796927 0.000000
O O12 0.460251 0.678690 0.703779
O O13 0.000000 0.700136 0.500000
O O14 0.496506 0.712053 0.847541
O O15 0.500000 0.476663 0.000000
O O16 0.583661 0.261985 0.158747
O O17 0.000000 0.282181 0.500000
O O18 0.519564 0.152713 0.149292
O O19 0.500000 0.112308 0.000000
O O20 0.500000 0.682910 0.000000
#
# Coordination Sequence:
#
# PCOD8049452 Si02
#       8
#     4   4   4   4   4   4   4   4
#     4  10  21  41  62  91 129 175 219 264 326 395
#     4  11  26  42  65  94 129 171 218 278 324 391
#     4  11  19  41  65  96 136 175 212 269 330 392
#     4  11  23  41  70  98 128 173 218 272 332 396
#     4  10  20  39  67  91 126 172 216 262 326 393
#     4  12  24  37  63  99 140 177 211 271 332 394
#     4  10  22  48  69  88 129 173 221 271 332 391
#     4  11  24  41  66 100 131 170 218 269 333 399
#
# _framework density 20.958100999999999
#
# number of rings (size 3 to 8) (size 9 to 14) (size 15 to 20)
#    0.000    1.250    5.000    1.875    3.500    3.500 
#    0.000    3.125    0.000    0.000    0.000    0.000 
#    0.000    0.000    0.000    0.000    0.000    0.000 
#
# Total GULP energy -198323.125335 kJ/mol
# GULP energy per Si atom -12395.195333 kJ/mol
# Density = 2.091040 g / cm^3
# Si number density = 20.958101 Si / 1000 Ang^3
#
#
#
# Elastic Constant Matrix: (Units=GPa)
#
#
# Indices 1 2 3 4 5 6 
#
# 1 135.4155 40.4283 30.5090 0.0726 6.2675 0.0047
# 2 40.4283 94.2421 27.4854 0.0354 7.9918 0.0019
# 3 30.5090 27.4854 94.7966 0.5727 0.9090 0.0592
# 4 0.0726 0.0354 0.5727 23.7597 -0.0052 3.0722
# 5 6.2675 7.9918 0.9090 -0.0052 34.6252 -0.0014
# 6 0.0047 0.0019 0.0592 3.0722 -0.0014 30.4693
#
#
#
# Elastic Compliance Matrix: (Units=1/GPa)
#
#
# Indices 1 2 3 4 5 6 
#
# 1 0.008792 -0.003145 -0.001910 0.000024 -0.000815 0.000000
# 2 -0.003145 0.012953 -0.002721 0.000055 -0.002349 -0.000001
# 3 -0.001910 -0.002721 0.011948 -0.000279 0.000660 0.000005
# 4 0.000024 0.000055 -0.000279 0.042651 -0.000004 -0.004300
# 5 -0.000815 -0.002349 0.000660 -0.000004 0.029553 0.000001
# 6 0.000000 -0.000001 0.000005 -0.004300 0.000001 0.033253
#
#
# Mechanical properties :
#
#
# Convention : Reuss Voigt Hill
#
# Bulk Modulus (GPa) = 55.12696 57.92218 56.52457
# Shear Modulus (GPa) = 31.10433 32.83961 31.97197
#
# Velocity S-wave (km/s) = 3.85661 3.96272 3.91003
# Velocity P-wave (km/s) = 6.79645 6.97386 6.88573
#
# Compressibility (1/GPa) = 0.01813994
#
# Stress axis : x y z
#
# Youngs Moduli (GPa) = 113.74312 77.20188 83.69690
#
# Poissons Ratio (x) = 0.24283 0.15985
# Poissons Ratio (y) = 0.35777 0.22775
# Poissons Ratio (z) = 0.21723 0.21008
#
# Static dielectric constant tensor:
#      x y z
#    x 4.120240 -0.000080 0.181550 
#    y -0.000080 3.541930 -0.000080 
#    z 0.181550 -0.000080 3.200260 
# 
# 
# High freq. dielectric constant tensor:
#      x y z
#    x 1.834940 0.000000 0.008080 
#    y 0.000000 1.804120 0.000000 
#    z 0.008080 0.000000 1.809970 
# 
# From -- ./inp_files/51681.got.cif
#   From: 2010.03.12/outbox.cif.g09.slc.cpg/sg5_26_cif.got.tgz:51681.got - 2010.03.31 09:47:26.
