data_PCOD8049443
_publ_section_title
;
Structure prediction by ZEFSAII (Michael W. Deem and Ramdas Pophale) SiO2 
 PCOD8049443
Probable space group: C 2
;
_chemical_formula_sum "Si O2"
_cell_formula_units_Z 32
_cell_length_a 18.761998
_cell_length_b 15.554966
_cell_length_c 5.265890
_cell_angle_alpha 90.000000
_cell_angle_beta 71.389119
_cell_angle_gamma 90.000000
_cell_volume 1456.446038
_symmetry_space_group_name_H-M "C 2"
_symmetry_group_IT_number 5
_symmetry_cell_setting 'monoclinic'
loop_
_space_group_symop_operation_xyz
x,y,z
-x,y,-z
1/2+x,1/2+y,z
1/2-x,1/2+y,-z
loop_
_atom_site_type_symbol
_atom_site_label
_atom_site_fract_x
_atom_site_fract_y
_atom_site_fract_z
Si Si1 0.682201 0.730820 0.075746
Si Si2 0.161303 0.763057 0.302777
Si Si3 0.210256 0.094658 0.402219
Si Si4 0.140934 0.518581 0.692546
Si Si5 0.336236 0.917773 0.811447
Si Si6 0.584863 0.194165 0.888676
Si Si7 0.587760 0.584481 0.932792
Si Si8 0.674615 0.444501 0.081411
O O1 0.724081 0.689424 0.271617
O O2 0.638549 0.818218 0.195183
O O3 0.619613 0.660703 0.071156
O O4 0.748025 0.746082 0.791317
O O5 0.127253 0.744866 0.616638
O O6 0.144070 0.864006 0.274777
O O7 0.123761 0.707725 0.118877
O O8 0.283352 0.070612 0.486471
O O9 0.212146 0.020510 0.194046
O O10 0.128861 0.093506 0.619758
O O11 0.117587 0.462336 0.471963
O O12 0.081022 0.592671 0.824893
O O13 0.147782 0.459795 0.933808
O O14 0.247146 0.914166 0.833077
O O15 0.500000 0.228958 0.000000
O O16 0.605551 0.487289 0.007123
O O17 0.500000 0.596753 0.000000
#
# Coordination Sequence:
#
# PCOD8049443 Si02
#       8
#     4   4   4   4   4   4   4   4
#     4  10  23  39  66 100 124 176 228 274 328 395
#     4  11  24  42  68  97 132 175 222 278 321 396
#     4  10  20  39  66  88 129 169 216 266 325 401
#     4  11  21  41  68  92 128 165 220 274 335 380
#     4  10  22  38  68  99 120 164 223 284 312 385
#     4  12  26  43  65  97 133 175 218 272 344 400
#     4  11  23  40  63  92 138 178 217 269 341 408
#     4   9  22  37  59  96 126 166 221 262 326 384
#
# _framework density 21.971291000000001
#
# number of rings (size 3 to 8) (size 9 to 14) (size 15 to 20)
#    0.000    1.500    2.500    1.875    5.250    4.500 
#    2.250    0.625    2.750    0.000    0.000    0.000 
#    0.000    0.000    0.000    0.000    0.000    0.000 
#
# Total GULP energy -198263.842147 kJ/mol
# GULP energy per Si atom -12391.490134 kJ/mol
# Density = 2.192128 g / cm^3
# Si number density = 21.971291 Si / 1000 Ang^3
#
#
#
# Elastic Constant Matrix: (Units=GPa)
#
#
# Indices 1 2 3 4 5 6 
#
# 1 72.1609 4.7081 7.9155 0.0000 -11.2654 0.0000
# 2 4.7081 135.8558 19.9380 0.0000 1.4426 0.0000
# 3 7.9155 19.9380 88.0859 0.0000 3.8318 0.0000
# 4 0.0000 0.0000 0.0000 2.4675 0.0000 -8.9565
# 5 -11.2654 1.4426 3.8318 0.0000 26.1887 0.0000
# 6 0.0000 0.0000 0.0000 -8.9565 0.0000 17.5172
#
#
#
# Elastic Compliance Matrix: (Units=1/GPa)
#
#
# Indices 1 2 3 4 5 6 
#
# 1 0.015107 -0.000365 -0.001568 0.000000 0.006748 0.000000
# 2 -0.000365 0.007623 -0.001678 0.000000 -0.000331 0.000000
# 3 -0.001568 -0.001678 0.011975 0.000000 -0.002334 0.000000
# 4 0.000000 0.000000 0.000000 -0.473496 0.000000 -0.242097
# 5 0.006748 -0.000331 -0.002334 0.000000 0.041447 0.000000
# 6 0.000000 0.000000 0.000000 -0.242097 0.000000 -0.066697
#
#
# Mechanical properties :
#
#
# Convention : Reuss Voigt Hill
#
# Bulk Modulus (GPa) = 36.38762 40.13619 38.26191
# Shear Modulus (GPa) = -11.16927 26.80408 7.81740
#
# Velocity S-wave (km/s) = -2.25712 3.49658 1.88831
# Velocity P-wave (km/s) = 3.13123 5.88291 4.71239
#
# Compressibility (1/GPa) = 0.02748187
#
# Stress axis : x y z
#
# Youngs Moduli (GPa) = 66.19320 131.17821 83.50788
#
# Poissons Ratio (x) = 0.04788 0.13098
# Poissons Ratio (y) = 0.02416 0.14015
# Poissons Ratio (z) = 0.10382 0.22015
#
# Static dielectric constant tensor:
#      x y z
#    x 3.779790 0.000000 0.085010 
#    y 0.000000 4.214090 0.000000 
#    z 0.085010 0.000000 3.817970 
# 
# 
# High freq. dielectric constant tensor:
#      x y z
#    x 1.829400 0.000000 0.006340 
#    y 0.000000 1.882340 0.000000 
#    z 0.006340 0.000000 1.858930 
# 
# From -- ./inp_files/9743.got.cif
#   From: 2010.03.12/outbox.cif.g09.slc.cpg/sg5_5_cif.got.tgz:9743.got - 2010.03.31 09:47:26.
