data_PCOD8049852
_publ_section_title
;
Structure prediction by ZEFSAII (Michael W. Deem and Ramdas Pophale) SiO2 
 PCOD8049852
Probable space group: C 2
;
_chemical_formula_sum "Si O2"
_cell_formula_units_Z 28
_cell_length_a 25.142275
_cell_length_b 7.090714
_cell_length_c 8.468077
_cell_angle_alpha 90.000000
_cell_angle_beta 67.752983
_cell_angle_gamma 90.000000
_cell_volume 1397.281852
_symmetry_space_group_name_H-M "C 2"
_symmetry_group_IT_number 5
_symmetry_cell_setting 'monoclinic'
loop_
_space_group_symop_operation_xyz
x,y,z
-x,y,-z
1/2+x,1/2+y,z
1/2-x,1/2+y,-z
loop_
_atom_site_type_symbol
_atom_site_label
_atom_site_fract_x
_atom_site_fract_y
_atom_site_fract_z
Si Si1 0.557000 0.362080 0.529187
Si Si2 0.835982 0.593089 0.098872
Si Si3 0.082297 0.288144 0.570924
Si Si4 0.861881 0.566494 0.708671
Si Si5 0.743370 0.406242 0.705036
Si Si6 0.194054 0.267215 0.653414
Si Si7 0.948788 0.606501 0.177600
O O1 0.500000 0.303593 0.500000
O O2 0.558837 0.588407 0.539921
O O3 0.614284 0.269294 0.383245
O O4 0.549280 0.287567 0.713633
O O5 0.787642 0.757262 0.144770
O O6 0.804439 0.408949 0.200649
O O7 0.888138 0.629744 0.158778
O O8 0.861320 0.564349 0.897177
O O9 0.093385 0.407587 0.399139
O O10 0.139343 0.266636 0.605517
O O11 0.041845 0.412865 0.732226
O O12 0.799061 0.510568 0.714462
O O13 0.753226 0.307967 0.524194
O O14 0.696301 0.564767 0.729943
O O15 0.000000 0.619709 0.000000
#
# Coordination Sequence:
#
# PCOD8049852 Si02
#       7
#     4   4   4   4   4   4   4
#     4  11  23  41  67  92 124 166 207 256 313 373
#     4  11  23  40  60  92 124 164 209 252 312 368
#     4   9  22  41  62  91 124 164 206 254 312 371
#     4  10  25  40  59  92 130 163 205 263 308 366
#     4  11  22  37  62  86 122 165 203 256 308 364
#     4  10  21  37  62  84 117 162 204 253 304 370
#     4  10  22  42  66  91 128 164 208 257 307 371
#
# _framework density 20.038905
#
# number of rings (size 3 to 8) (size 9 to 14) (size 15 to 20)
#    0.000    1.714    1.429    2.571    4.000    5.143 
#    0.000    2.857    0.000    0.000    0.000    0.000 
#    0.000    0.000    0.000    0.000    0.000    0.000 
#
# Total GULP energy -173523.733834 kJ/mol
# GULP energy per Si atom -12394.552417 kJ/mol
# Density = 1.999330 g / cm^3
# Si number density = 20.038905 Si / 1000 Ang^3
#
#
#
# Elastic Constant Matrix: (Units=GPa)
#
#
# Indices 1 2 3 4 5 6 
#
# 1 50.8487 25.6933 34.0169 0.0000 1.0117 0.0000
# 2 25.6933 98.0724 44.7219 0.0000 2.7544 0.0000
# 3 34.0169 44.7219 154.8675 0.0000 4.7158 0.0000
# 4 0.0000 0.0000 0.0000 20.6867 0.0000 2.5589
# 5 1.0117 2.7544 4.7158 0.0000 28.8858 0.0000
# 6 0.0000 0.0000 0.0000 2.5589 0.0000 29.5318
#
#
#
# Elastic Compliance Matrix: (Units=1/GPa)
#
#
# Indices 1 2 3 4 5 6 
#
# 1 0.024742 -0.004615 -0.004109 0.000000 0.000244 0.000000
# 2 -0.004615 0.012613 -0.002610 0.000000 -0.000615 0.000000
# 3 -0.004109 -0.002610 0.008142 0.000000 -0.000936 0.000000
# 4 0.000000 0.000000 0.000000 0.048864 0.000000 -0.004234
# 5 0.000244 -0.000615 -0.000936 0.000000 0.034822 0.000000
# 6 0.000000 0.000000 0.000000 -0.004234 0.000000 0.034229
#
#
# Mechanical properties :
#
#
# Convention : Reuss Voigt Hill
#
# Bulk Modulus (GPa) = 43.80460 56.96143 50.38302
# Shear Modulus (GPa) = 25.81437 29.11127 27.46282
#
# Velocity S-wave (km/s) = 3.59306 3.81561 3.70601
# Velocity P-wave (km/s) = 6.25465 6.92091 6.59620
#
# Compressibility (1/GPa) = 0.02282865
#
# Stress axis : x y z
#
# Youngs Moduli (GPa) = 40.41647 79.28319 122.82030
#
# Poissons Ratio (x) = 0.36589 0.50472
# Poissons Ratio (y) = 0.18652 0.32055
# Poissons Ratio (z) = 0.16609 0.20692
#
# Static dielectric constant tensor:
#      x y z
#    x 3.533030 0.000000 -0.010130 
#    y 0.000000 3.878720 0.000000 
#    z -0.010130 0.000000 3.799800 
# 
# 
# High freq. dielectric constant tensor:
#      x y z
#    x 1.780090 0.000000 0.002630 
#    y 0.000000 1.787880 0.000000 
#    z 0.002630 0.000000 1.784860 
# 
# From -- ./inp_files/32232.got.cif
#   From: 2010.03.12/outbox.cif.g09.slc.cpg/sg5_17_cif.got.tgz:32232.got - 2010.03.31 09:47:26.
