data_PCOD8049812
_publ_section_title
;
Structure prediction by ZEFSAII (Michael W. Deem and Ramdas Pophale) SiO2 
 PCOD8049812
Probable space group: C 2
;
_chemical_formula_sum "Si O2"
_cell_formula_units_Z 30
_cell_length_a 11.645842
_cell_length_b 10.788840
_cell_length_c 16.388777
_cell_angle_alpha 90.000000
_cell_angle_beta 46.199699
_cell_angle_gamma 90.000000
_cell_volume 1486.219486
_symmetry_space_group_name_H-M "C 2"
_symmetry_group_IT_number 5
_symmetry_cell_setting 'monoclinic'
loop_
_space_group_symop_operation_xyz
x,y,z
-x,y,-z
1/2+x,1/2+y,z
1/2-x,1/2+y,-z
loop_
_atom_site_type_symbol
_atom_site_label
_atom_site_fract_x
_atom_site_fract_y
_atom_site_fract_z
Si Si1 0.057938 0.536440 0.710786
Si Si2 0.902622 0.907535 0.819950
Si Si3 0.654364 0.249243 0.773324
Si Si4 0.447176 0.232342 0.653021
Si Si5 0.247253 0.791315 0.408722
Si Si6 0.500000 0.305515 0.000000
Si Si7 0.427965 0.684900 0.752792
Si Si8 0.696735 0.885947 0.076935
O O1 0.156942 0.647296 0.702272
O O2 0.184042 0.429561 0.631141
O O3 0.978477 0.589903 0.666523
O O4 0.921522 0.496865 0.841733
O O5 0.871497 0.808081 0.764718
O O6 0.077082 0.878372 0.775509
O O7 0.892026 0.041368 0.783607
O O8 0.753771 0.892273 0.955242
O O9 0.534134 0.214475 0.906841
O O10 0.830219 0.251664 0.726746
O O11 0.614642 0.293266 0.543862
O O12 0.323272 0.237684 0.640503
O O13 0.389052 0.698866 0.363327
O O14 0.648194 0.396851 0.941928
O O15 0.391187 0.756011 0.856391
#
# Coordination Sequence:
#
# PCOD8049812 Si02
#       8
#     4   4   4   4   4   2   4   4
#     4  10  21  39  63  85 122 157 195 255 299 364
#     4  10  21  36  63  87 121 156 199 246 304 366
#     4   9  19  35  56  90 114 155 196 238 300 357
#     4  10  23  41  62  86 120 159 202 251 309 351
#     4  10  23  42  59  88 118 158 209 250 300 357
#     4   8  16  32  52  78 122 150 182 236 288 354
#     4  10  21  37  60  84 120 157 197 249 296 360
#     4   9  20  34  57  89 119 153 197 240 303 365
#
# _framework density 20.185442999999999
#
# number of rings (size 3 to 8) (size 9 to 14) (size 15 to 20)
#    0.000    2.400    0.000    0.800    9.333    4.267 
#    0.000    4.000    0.000    0.000    0.000    0.000 
#    0.000    0.000    0.000    0.000    0.000    0.000 
#
# Total GULP energy -185839.797415 kJ/mol
# GULP energy per Si atom -12389.319828 kJ/mol
# Density = 2.013950 g / cm^3
# Si number density = 20.185443 Si / 1000 Ang^3
#
#
#
# Elastic Constant Matrix: (Units=GPa)
#
#
# Indices 1 2 3 4 5 6 
#
# 1 90.6386 25.1552 33.2184 0.0000 -7.2362 0.0000
# 2 25.1552 61.2423 17.0655 0.0000 0.9384 0.0000
# 3 33.2184 17.0655 89.1764 0.0000 -4.6577 0.0000
# 4 0.0000 0.0000 0.0000 23.0422 0.0000 2.3665
# 5 -7.2362 0.9384 -4.6577 0.0000 34.3977 0.0000
# 6 0.0000 0.0000 0.0000 2.3665 0.0000 28.1959
#
#
#
# Elastic Compliance Matrix: (Units=1/GPa)
#
#
# Indices 1 2 3 4 5 6 
#
# 1 0.014069 -0.004641 -0.004221 0.000000 0.002515 0.000000
# 2 -0.004641 0.018809 -0.001962 0.000000 -0.001755 0.000000
# 3 -0.004221 -0.001962 0.013211 0.000000 0.000954 0.000000
# 4 0.000000 0.000000 0.000000 0.043776 0.000000 -0.003674
# 5 0.002515 -0.001755 0.000954 0.000000 0.029778 0.000000
# 6 0.000000 0.000000 0.000000 -0.003674 0.000000 0.035774
#
#
# Mechanical properties :
#
#
# Convention : Reuss Voigt Hill
#
# Bulk Modulus (GPa) = 40.91661 43.54840 42.23250
# Shear Modulus (GPa) = 26.99605 28.16837 27.58221
#
# Velocity S-wave (km/s) = 3.66102 3.73966 3.70055
# Velocity P-wave (km/s) = 6.17941 6.34569 6.26310
#
# Compressibility (1/GPa) = 0.02443995
#
# Stress axis : x y z
#
# Youngs Moduli (GPa) = 71.08016 53.16727 75.69180
#
# Poissons Ratio (x) = 0.24675 0.31950
# Poissons Ratio (y) = 0.32988 0.14853
# Poissons Ratio (z) = 0.30004 0.10433
#
# Static dielectric constant tensor:
#      x y z
#    x 3.776110 0.000000 0.005810 
#    y 0.000000 3.513310 0.000000 
#    z 0.005810 0.000000 3.790240 
# 
# 
# High freq. dielectric constant tensor:
#      x y z
#    x 1.787410 0.000000 -0.000630 
#    y 0.000000 1.770330 0.000000 
#    z -0.000630 0.000000 1.790000 
# 
# From -- ./inp_files/52875.got.cif
#   From: 2010.03.12/outbox.cif.g09.slc.cpg/sg5_27_cif.got.tgz:52875.got - 2010.03.31 09:47:26.
