data_PCOD8049308
_publ_section_title
;
Structure prediction by ZEFSAII (Michael W. Deem and Ramdas Pophale) SiO2 
 PCOD8049308
Probable space group: C 2
;
_chemical_formula_sum "Si O2"
_cell_formula_units_Z 26
_cell_length_a 17.994243
_cell_length_b 18.157429
_cell_length_c 11.708621
_cell_angle_alpha 90.000000
_cell_angle_beta 158.760627
_cell_angle_gamma 90.000000
_cell_volume 1385.862876
_symmetry_space_group_name_H-M "C 2"
_symmetry_group_IT_number 5
_symmetry_cell_setting 'monoclinic'
loop_
_space_group_symop_operation_xyz
x,y,z
-x,y,-z
1/2+x,1/2+y,z
1/2-x,1/2+y,-z
loop_
_atom_site_type_symbol
_atom_site_label
_atom_site_fract_x
_atom_site_fract_y
_atom_site_fract_z
Si Si1 0.238609 0.130250 0.343866
Si Si2 0.244966 0.300568 0.331265
Si Si3 0.567870 0.406001 0.219122
Si Si4 0.000000 0.869681 0.500000
Si Si5 0.181285 0.010525 0.828205
Si Si6 0.926848 0.520670 0.765131
Si Si7 0.218148 0.516807 0.787211
O O1 0.296072 0.214896 0.414967
O O2 0.326686 0.099718 0.590576
O O3 0.326235 0.082725 0.364366
O O4 0.000000 0.116817 0.000000
O O5 0.383768 0.339999 0.625225
O O6 0.328935 0.323338 0.325806
O O7 0.000000 0.317005 0.000000
O O8 0.768196 0.457133 0.504641
O O9 0.500000 0.371779 0.000000
O O10 0.373688 0.455306 0.970985
O O11 0.117144 0.924263 0.756852
O O12 0.000000 0.052669 0.500000
O O13 0.381982 0.009100 0.041059
O O14 0.202295 0.051357 0.979116
O O15 0.000000 0.517054 0.000000
O O16 0.000000 0.477596 0.500000
#
# Coordination Sequence:
#
# PCOD8049308 Si02
#       7
#     4   4   4   2   4   4   4
#     4  11  24  41  59  92 125 171 206 256 319 382
#     4  11  25  41  63  91 131 167 211 255 327 381
#     4  12  21  40  66  90 120 162 214 259 313 370
#     4  10  20  38  60  88 124 158 204 264 302 366
#     4  10  21  34  58  96 119 149 215 264 302 363
#     4  12  21  37  64  89 122 162 212 260 317 370
#     4  12  20  37  62  93 124 155 211 264 307 369
#
# _framework density 18.760874000000001
#
# number of rings (size 3 to 8) (size 9 to 14) (size 15 to 20)
#    0.462    0.308    6.154    3.231    1.077    0.615 
#    0.000    0.000    0.000    0.923    0.000    0.000 
#    0.000    0.000    0.000    0.000    0.000    0.000 
#
# Total GULP energy -161062.108909 kJ/mol
# GULP energy per Si atom -12389.392993 kJ/mol
# Density = 1.871817 g / cm^3
# Si number density = 18.760874 Si / 1000 Ang^3
#
#
#
# Elastic Constant Matrix: (Units=GPa)
#
#
# Indices 1 2 3 4 5 6 
#
# 1 100.9116 28.8364 35.8863 0.0000 -10.5446 0.0000
# 2 28.8364 88.2590 40.7798 0.0000 -1.8999 0.0000
# 3 35.8863 40.7798 104.1537 0.0000 -4.7267 0.0000
# 4 0.0000 0.0000 0.0000 26.9484 0.0000 -3.3987
# 5 -10.5446 -1.8999 -4.7267 0.0000 50.1140 0.0000
# 6 0.0000 0.0000 0.0000 -3.3987 0.0000 26.0488
#
#
#
# Elastic Compliance Matrix: (Units=1/GPa)
#
#
# Indices 1 2 3 4 5 6 
#
# 1 0.011914 -0.002435 -0.003055 0.000000 0.002126 0.000000
# 2 -0.002435 0.014331 -0.004791 0.000000 -0.000421 0.000000
# 3 -0.003055 -0.004791 0.012546 0.000000 0.000359 0.000000
# 4 0.000000 0.000000 0.000000 0.037729 0.000000 0.004923
# 5 0.002126 -0.000421 0.000359 0.000000 0.020420 0.000000
# 6 0.000000 0.000000 0.000000 0.004923 0.000000 0.039032
#
#
# Mechanical properties :
#
#
# Convention : Reuss Voigt Hill
#
# Bulk Modulus (GPa) = 54.86038 56.03661 55.44850
# Shear Modulus (GPa) = 30.74848 33.14369 31.94608
#
# Velocity S-wave (km/s) = 4.05281 4.20770 4.13098
# Velocity P-wave (km/s) = 7.15582 7.31711 7.23691
#
# Compressibility (1/GPa) = 0.01822809
#
# Stress axis : x y z
#
# Youngs Moduli (GPa) = 83.93337 69.78108 79.70720
#
# Poissons Ratio (x) = 0.16994 0.24351
# Poissons Ratio (y) = 0.20440 0.38187
# Poissons Ratio (z) = 0.25642 0.33432
#
# Static dielectric constant tensor:
#      x y z
#    x 3.333380 0.000000 0.199420 
#    y 0.000000 3.334700 0.000000 
#    z 0.199420 0.000000 3.562090 
# 
# 
# High freq. dielectric constant tensor:
#      x y z
#    x 1.744460 0.000000 0.004800 
#    y 0.000000 1.693870 0.000000 
#    z 0.004800 0.000000 1.748630 
# 
# From -- ./inp_files/16182.got.cif
#   From: 2010.03.12/outbox.cif.g09.slc.cpg/sg5_9_cif.got.tgz:16182.got - 2010.03.31 09:47:26.
