data_PCOD8049790
_publ_section_title
;
Structure prediction by ZEFSAII (Michael W. Deem and Ramdas Pophale) SiO2 
 PCOD8049790
Probable space group: C 2
;
_chemical_formula_sum "Si O2"
_cell_formula_units_Z 30
_cell_length_a 19.485383
_cell_length_b 10.816752
_cell_length_c 13.328327
_cell_angle_alpha 90.000000
_cell_angle_beta 149.823036
_cell_angle_gamma 90.000000
_cell_volume 1412.103459
_symmetry_space_group_name_H-M "C 2"
_symmetry_group_IT_number 5
_symmetry_cell_setting 'monoclinic'
loop_
_space_group_symop_operation_xyz
x,y,z
-x,y,-z
1/2+x,1/2+y,z
1/2-x,1/2+y,-z
loop_
_atom_site_type_symbol
_atom_site_label
_atom_site_fract_x
_atom_site_fract_y
_atom_site_fract_z
Si Si1 0.000000 0.604921 0.000000
Si Si2 0.879252 0.042478 0.282722
Si Si3 0.823129 0.189903 0.583380
Si Si4 0.358711 0.900424 0.089372
Si Si5 0.362310 0.965418 0.650226
Si Si6 0.265756 0.731347 0.284488
Si Si7 0.657669 0.977529 0.709043
Si Si8 0.384404 0.631587 0.070984
O O1 0.080973 0.511621 0.172821
O O2 0.104876 0.696142 0.073725
O O3 0.853721 0.173445 0.305402
O O4 0.915407 0.050454 0.210293
O O5 0.000000 0.976054 0.500000
O O6 0.737027 0.968942 0.112819
O O7 0.783177 0.332119 0.565698
O O8 0.822463 0.183168 0.461799
O O9 0.975177 0.154940 0.812135
O O10 0.727049 0.080477 0.506921
O O11 0.515669 0.939055 0.272673
O O12 0.316257 0.927551 0.147719
O O13 0.324992 0.758476 0.035477
O O14 0.295836 0.877679 0.315343
O O15 0.500000 0.021983 0.500000
O O16 0.771306 0.085291 0.847766
#
# Coordination Sequence:
#
# PCOD8049790 Si02
#       8
#     2   4   4   4   4   4   4   4
#     4  10  22  38  64  90 118 166 202 252 296 372
#     4  11  19  34  60  88 115 153 204 243 296 359
#     4  10  22  40  64  86 124 160 208 252 308 364
#     4  10  21  38  60  86 123 159 202 254 306 361
#     4  10  21  40  60  90 120 164 206 253 305 366
#     4  11  20  38  63  88 119 161 208 241 299 375
#     4  11  22  37  60  88 124 161 203 254 308 366
#     4  10  21  36  57  89 119 156 196 257 308 353
#
# _framework density 21.244902
#
# number of rings (size 3 to 8) (size 9 to 14) (size 15 to 20)
#    0.000    1.600    4.000    2.000    0.000    2.667 
#    0.000    5.333    0.000    0.000    0.000    0.000 
#    0.000    0.000    0.000    0.000    0.000    0.000 
#
# Total GULP energy -185845.381288 kJ/mol
# GULP energy per Si atom -12389.692086 kJ/mol
# Density = 2.119655 g / cm^3
# Si number density = 21.244902 Si / 1000 Ang^3
#
#
#
# Elastic Constant Matrix: (Units=GPa)
#
#
# Indices 1 2 3 4 5 6 
#
# 1 32.9316 6.4002 8.6035 0.0000 8.8537 0.0000
# 2 6.4002 100.6321 64.7595 0.0000 14.8672 0.0000
# 3 8.6035 64.7595 129.6690 0.0000 13.7977 0.0000
# 4 0.0000 0.0000 0.0000 38.1022 0.0000 3.3151
# 5 8.8537 14.8672 13.7977 0.0000 22.8592 0.0000
# 6 0.0000 0.0000 0.0000 3.3151 0.0000 25.1677
#
#
#
# Elastic Compliance Matrix: (Units=1/GPa)
#
#
# Indices 1 2 3 4 5 6 
#
# 1 0.034009 0.000446 -0.001119 0.000000 -0.012787 0.000000
# 2 0.000446 0.015316 -0.007053 0.000000 -0.005877 0.000000
# 3 -0.001119 -0.007053 0.011514 0.000000 -0.001929 0.000000
# 4 0.000000 0.000000 0.000000 0.026549 0.000000 -0.003497
# 5 -0.012787 -0.005877 -0.001929 0.000000 0.053685 0.000000
# 6 0.000000 0.000000 0.000000 -0.003497 0.000000 0.040194
#
#
# Mechanical properties :
#
#
# Convention : Reuss Voigt Hill
#
# Bulk Modulus (GPa) = 22.03250 46.97323 34.50287
# Shear Modulus (GPa) = 23.60163 29.45712 26.52937
#
# Velocity S-wave (km/s) = 3.33668 3.72768 3.53759
# Velocity P-wave (km/s) = 5.02372 6.37854 5.74124
#
# Compressibility (1/GPa) = 0.04538749
#
# Stress axis : x y z
#
# Youngs Moduli (GPa) = 29.40362 65.29067 86.85001
#
# Poissons Ratio (x) = -0.02912 0.09715
# Poissons Ratio (y) = -0.01311 0.61260
# Poissons Ratio (z) = 0.03289 0.46053
#
# Static dielectric constant tensor:
#      x y z
#    x 3.532230 0.000000 0.180120 
#    y 0.000000 3.986800 0.000000 
#    z 0.180120 0.000000 4.188090 
# 
# 
# High freq. dielectric constant tensor:
#      x y z
#    x 1.807930 0.000000 0.006080 
#    y 0.000000 1.822090 0.000000 
#    z 0.006080 0.000000 1.844400 
# 
# From -- ./inp_files/57018.got.cif
#   From: 2010.03.12/outbox.cif.g09.slc.cpg/sg5_29_cif.got.tgz:57018.got - 2010.03.31 09:47:26.
