data_PCOD8049531
_publ_section_title
;
Structure prediction by ZEFSAII (Michael W. Deem and Ramdas Pophale) SiO2 
 PCOD8049531
Probable space group: C 2
;
_chemical_formula_sum "Si O2"
_cell_formula_units_Z 32
_cell_length_a 8.240897
_cell_length_b 26.963969
_cell_length_c 13.873720
_cell_angle_alpha 90.000000
_cell_angle_beta 150.555968
_cell_angle_gamma 90.000000
_cell_volume 1515.442193
_symmetry_space_group_name_H-M "C 2"
_symmetry_group_IT_number 5
_symmetry_cell_setting 'monoclinic'
loop_
_space_group_symop_operation_xyz
x,y,z
-x,y,-z
1/2+x,1/2+y,z
1/2-x,1/2+y,-z
loop_
_atom_site_type_symbol
_atom_site_label
_atom_site_fract_x
_atom_site_fract_y
_atom_site_fract_z
Si Si1 0.308521 0.054290 0.102115
Si Si2 0.245502 0.483020 0.451369
Si Si3 0.360236 0.479005 0.151299
Si Si4 0.775092 0.790789 0.797436
Si Si5 0.818467 0.398284 0.310582
Si Si6 0.873673 0.728388 0.167312
Si Si7 0.760363 0.644181 0.721451
Si Si8 0.734998 0.708684 0.444704
O O1 0.561196 0.091088 0.177361
O O2 0.512333 0.026573 0.291566
O O3 0.153245 0.020043 0.939016
O O4 0.000000 0.079778 0.000000
O O5 0.500000 0.469523 0.500000
O O6 0.416348 0.498001 0.642340
O O7 0.038974 0.433499 0.358822
O O8 0.493684 0.428398 0.173694
O O9 0.000000 0.465143 0.000000
O O10 0.749587 0.850024 0.788197
O O11 0.429193 0.763314 0.639026
O O12 0.942987 0.776409 0.781895
O O13 0.000000 0.772233 0.000000
O O14 0.000000 0.379621 0.500000
O O15 0.932264 0.682915 0.124007
O O16 0.052593 0.706183 0.350678
O O17 0.500000 0.741682 0.000000
O O18 0.500000 0.643227 0.500000
O O19 0.537685 0.663760 0.696962
O O20 0.000000 0.700814 0.500000
#
# Coordination Sequence:
#
# PCOD8049531 Si02
#       8
#     4   4   4   4   4   4   4   4
#     4  12  23  41  71  93 131 175 225 278 337 393
#     4  11  23  41  67  89 133 174 222 278 335 379
#     4  11  24  41  63  97 127 178 226 280 327 399
#     4  11  23  37  65  99 133 171 220 266 330 401
#     4  10  23  42  62  94 135 175 222 272 327 398
#     4  10  20  40  66  92 132 170 214 269 332 391
#     4   9  21  40  65  95 128 170 215 272 334 395
#     4  10  21  42  69  93 136 170 213 275 332 395
#
# _framework density 21.115947999999999
#
# number of rings (size 3 to 8) (size 9 to 14) (size 15 to 20)
#    0.000    1.500    2.500    3.375    1.750    1.000 
#    0.000    8.750    0.000    0.000    0.000    0.000 
#    0.000    0.000    0.000    0.000    0.000    0.000 
#
# Total GULP energy -198241.246751 kJ/mol
# GULP energy per Si atom -12390.077922 kJ/mol
# Density = 2.106789 g / cm^3
# Si number density = 21.115948 Si / 1000 Ang^3
#
#
#
# Elastic Constant Matrix: (Units=GPa)
#
#
# Indices 1 2 3 4 5 6 
#
# 1 150.2959 54.0356 54.5077 0.0000 30.6591 0.0000
# 2 54.0356 121.6614 44.4641 0.0000 11.8656 0.0000
# 3 54.5077 44.4641 88.0124 0.0000 10.1241 0.0000
# 4 0.0000 0.0000 0.0000 5.6822 0.0000 -9.4049
# 5 30.6591 11.8656 10.1241 0.0000 40.8299 0.0000
# 6 0.0000 0.0000 0.0000 -9.4049 0.0000 14.9444
#
#
#
# Elastic Compliance Matrix: (Units=1/GPa)
#
#
# Indices 1 2 3 4 5 6 
#
# 1 0.010368 -0.002363 -0.004540 0.000000 -0.005973 0.000000
# 2 -0.002363 0.010738 -0.003918 0.000000 -0.000374 0.000000
# 3 -0.004540 -0.003918 0.016089 0.000000 0.000559 0.000000
# 4 0.000000 0.000000 0.000000 -4.226182 0.000000 -2.659660
# 5 -0.005973 -0.000374 0.000559 0.000000 0.028947 0.000000
# 6 0.000000 0.000000 0.000000 -2.659660 0.000000 -1.606887
#
#
# Mechanical properties :
#
#
# Convention : Reuss Voigt Hill
#
# Bulk Modulus (GPa) = 64.30071 73.99829 69.14950
# Shear Modulus (GPa) = -0.87107 26.08878 12.60886
#
# Velocity S-wave (km/s) = -0.64297 3.51878 2.44626
# Velocity P-wave (km/s) = 5.47413 7.18533 6.38730
#
# Compressibility (1/GPa) = 0.01555193
#
# Stress axis : x y z
#
# Youngs Moduli (GPa) = 96.44876 93.13092 62.15391
#
# Poissons Ratio (x) = 0.22008 0.28220
# Poissons Ratio (y) = 0.22792 0.24352
# Poissons Ratio (z) = 0.43791 0.36489
#
# Static dielectric constant tensor:
#      x y z
#    x 4.145840 0.000000 -0.017370 
#    y 0.000000 3.667830 0.000000 
#    z -0.017370 0.000000 4.037310 
# 
# 
# High freq. dielectric constant tensor:
#      x y z
#    x 1.836610 0.000000 0.007340 
#    y 0.000000 1.813210 0.000000 
#    z 0.007340 0.000000 1.837430 
# 
# From -- ./inp_files/51724.got.cif
#   From: 2010.03.12/outbox.cif.g09.slc.cpg/sg5_26_cif.got.tgz:51724.got - 2010.03.31 09:47:26.
