data_PCOD8049222
_publ_section_title
;
Structure prediction by ZEFSAII (Michael W. Deem and Ramdas Pophale) SiO2 
 PCOD8049222
Probable space group: C 2
;
_chemical_formula_sum "Si O2"
_cell_formula_units_Z 32
_cell_length_a 13.316395
_cell_length_b 19.775038
_cell_length_c 8.569011
_cell_angle_alpha 90.000000
_cell_angle_beta 134.207581
_cell_angle_gamma 90.000000
_cell_volume 1617.498232
_symmetry_space_group_name_H-M "C 2"
_symmetry_group_IT_number 5
_symmetry_cell_setting 'monoclinic'
loop_
_space_group_symop_operation_xyz
x,y,z
-x,y,-z
1/2+x,1/2+y,z
1/2-x,1/2+y,-z
loop_
_atom_site_type_symbol
_atom_site_label
_atom_site_fract_x
_atom_site_fract_y
_atom_site_fract_z
Si Si1 0.742701 0.822210 0.023336
Si Si2 0.231625 0.668136 0.049736
Si Si3 0.346509 0.332714 0.478175
Si Si4 0.548395 0.787686 0.223068
Si Si5 0.825400 0.157702 0.504738
Si Si6 0.949258 0.686003 0.618604
Si Si7 0.051604 0.074226 0.880307
Si Si8 0.948607 0.919750 0.116985
O O1 0.749975 0.744336 0.986724
O O2 0.575990 0.836952 0.851859
O O3 0.832723 0.835649 0.277197
O O4 0.809159 0.873635 0.972425
O O5 0.273033 0.658659 0.272459
O O6 0.314843 0.619493 0.021640
O O7 0.065287 0.654278 0.859294
O O8 0.189954 0.331303 0.378436
O O9 0.435405 0.266908 0.625772
O O10 0.428034 0.397783 0.630610
O O11 0.571863 0.721635 0.355022
O O12 0.500000 0.761384 0.000000
O O13 0.700401 0.154448 0.496410
O O14 0.919705 0.091236 0.626485
O O15 0.000000 0.667036 0.500000
O O16 0.093141 0.996820 0.895075
O O17 0.000000 0.088732 0.000000
O O18 0.000000 0.909424 0.000000
#
# Coordination Sequence:
#
# PCOD8049222 Si02
#       8
#     4   4   4   4   4   4   4   4
#     4  11  21  37  61  93 126 161 209 259 318 378
#     4  12  23  36  61  99 125 160 214 271 320 362
#     4  10  20  37  61  90 120 168 204 252 315 375
#     4   9  20  35  59  91 124 158 200 255 316 372
#     4  11  23  36  60  94 126 162 207 272 313 363
#     4  11  20  36  60  92 126 164 202 256 318 374
#     4  11  25  45  63  86 129 179 216 254 321 394
#     4  11  25  42  63  91 127 171 214 260 313 381
#
# _framework density 19.783638
#
# number of rings (size 3 to 8) (size 9 to 14) (size 15 to 20)
#    0.000    1.250    3.750    2.250    5.250    2.000 
#    0.000    1.250    0.000    6.000    0.000    0.000 
#    0.000    0.000    0.000    0.000    0.000    0.000 
#
# Total GULP energy -198371.350471 kJ/mol
# GULP energy per Si atom -12398.209404 kJ/mol
# Density = 1.973861 g / cm^3
# Si number density = 19.783638 Si / 1000 Ang^3
#
#
#
# Elastic Constant Matrix: (Units=GPa)
#
#
# Indices 1 2 3 4 5 6 
#
# 1 112.1172 70.8495 46.9061 0.0000 14.7774 0.0000
# 2 70.8495 110.6338 37.8883 0.0000 10.1965 0.0000
# 3 46.9061 37.8883 119.4062 0.0000 9.5542 0.0000
# 4 0.0000 0.0000 0.0000 26.8653 0.0000 2.0681
# 5 14.7774 10.1965 9.5542 0.0000 34.1276 0.0000
# 6 0.0000 0.0000 0.0000 2.0681 0.0000 31.0980
#
#
#
# Elastic Compliance Matrix: (Units=1/GPa)
#
#
# Indices 1 2 3 4 5 6 
#
# 1 0.016541 -0.009133 -0.003319 0.000000 -0.003504 0.000000
# 2 -0.009133 0.015344 -0.001259 0.000000 -0.000277 0.000000
# 3 -0.003319 -0.001259 0.010161 0.000000 -0.001031 0.000000
# 4 0.000000 0.000000 0.000000 0.037414 0.000000 -0.002488
# 5 -0.003504 -0.000277 -0.001031 0.000000 0.031191 0.000000
# 6 0.000000 0.000000 0.000000 -0.002488 0.000000 0.032322
#
#
# Mechanical properties :
#
#
# Convention : Reuss Voigt Hill
#
# Bulk Modulus (GPa) = 68.38413 72.60499 70.49456
# Shear Modulus (GPa) = 28.52723 30.85241 29.68982
#
# Velocity S-wave (km/s) = 3.80144 3.95332 3.87812
# Velocity P-wave (km/s) = 7.34227 7.59062 7.46748
#
# Compressibility (1/GPa) = 0.01462328
#
# Stress axis : x y z
#
# Youngs Moduli (GPa) = 60.45429 65.17020 98.41834
#
# Poissons Ratio (x) = 0.59522 0.32670
# Poissons Ratio (y) = 0.55215 0.12390
# Poissons Ratio (z) = 0.20068 0.08204
#
# Static dielectric constant tensor:
#      x y z
#    x 3.929730 0.000000 0.302500 
#    y 0.000000 3.348730 0.000000 
#    z 0.302500 0.000000 3.957860 
# 
# 
# High freq. dielectric constant tensor:
#      x y z
#    x 1.790550 0.000000 0.010950 
#    y 0.000000 1.730200 0.000000 
#    z 0.010950 0.000000 1.781470 
# 
# From -- ./inp_files/25433.got.cif
#   From: 2010.03.12/outbox.cif.g09.slc.cpg/sg5_13_cif.got.tgz:25433.got - 2010.03.31 09:47:26.
