data_PCOD8049293
_publ_section_title
;
Structure prediction by ZEFSAII (Michael W. Deem and Ramdas Pophale) SiO2 
 PCOD8049293
Probable space group: C 2
;
_chemical_formula_sum "Si O2"
_cell_formula_units_Z 30
_cell_length_a 9.160062
_cell_length_b 10.262024
_cell_length_c 15.607943
_cell_angle_alpha 90.000000
_cell_angle_beta 78.335811
_cell_angle_gamma 90.000000
_cell_volume 1436.860996
_symmetry_space_group_name_H-M "C 2"
_symmetry_group_IT_number 5
_symmetry_cell_setting 'monoclinic'
loop_
_space_group_symop_operation_xyz
x,y,z
-x,y,-z
1/2+x,1/2+y,z
1/2-x,1/2+y,-z
loop_
_atom_site_type_symbol
_atom_site_label
_atom_site_fract_x
_atom_site_fract_y
_atom_site_fract_z
Si Si1 0.057544 0.457050 0.676313
Si Si2 0.272311 0.495581 0.325291
Si Si3 0.203961 0.338764 0.966113
Si Si4 0.000000 0.912487 0.000000
Si Si5 0.991398 0.441430 0.874676
Si Si6 0.711543 0.587894 0.865783
Si Si7 0.770047 0.744138 0.576395
Si Si8 0.088462 0.743845 0.622093
O O1 0.048623 0.400842 0.773873
O O2 0.165519 0.366054 0.608890
O O3 0.115016 0.607503 0.669103
O O4 0.898013 0.448060 0.649143
O O5 0.304758 0.570209 0.233056
O O6 0.306204 0.603759 0.394408
O O7 0.375372 0.367985 0.322331
O O8 0.134210 0.465078 0.921861
O O9 0.160755 0.228534 0.902928
O O10 0.381462 0.332068 0.957497
O O11 0.114815 0.329808 0.067214
O O12 0.901842 0.990649 0.077529
O O13 0.882721 0.565923 0.876330
O O14 0.803838 0.748435 0.472225
O O15 0.917038 0.756165 0.616521
#
# Coordination Sequence:
#
# PCOD8049293 Si02
#       8
#     4   4   4   2   4   4   4   4
#     4  10  21  39  61  87 120 159 199 244 299 355
#     4  10  22  39  60  87 121 156 199 248 296 356
#     4  10  20  38  58  81 115 149 191 242 287 344
#     4  10  22  34  56  84 106 146 192 228 284 344
#     4   9  20  37  57  83 114 149 190 239 292 344
#     4  10  21  37  56  83 115 150 191 240 293 343
#     4  10  21  38  61  87 118 159 199 245 301 353
#     4  10  22  39  59  88 122 154 199 250 298 356
#
# _framework density 20.878845999999999
#
# number of rings (size 3 to 8) (size 9 to 14) (size 15 to 20)
#    0.000    2.133    0.000    2.400    0.000    9.067 
#    0.000   10.667    0.000    0.000    0.000    0.000 
#    0.000    0.000    0.000    0.000    0.000    0.000 
#
# Total GULP energy -185855.067146 kJ/mol
# GULP energy per Si atom -12390.337810 kJ/mol
# Density = 2.083133 g / cm^3
# Si number density = 20.878846 Si / 1000 Ang^3
#
#
#
# Elastic Constant Matrix: (Units=GPa)
#
#
# Indices 1 2 3 4 5 6 
#
# 1 78.9402 21.6952 22.2025 0.0000 3.2804 0.0000
# 2 21.6952 95.7040 34.1531 0.0000 4.1687 0.0000
# 3 22.2025 34.1531 109.2734 0.0000 -4.1062 0.0000
# 4 0.0000 0.0000 0.0000 39.5197 0.0000 3.9590
# 5 3.2804 4.1687 -4.1062 0.0000 30.4546 0.0000
# 6 0.0000 0.0000 0.0000 3.9590 0.0000 26.6360
#
#
#
# Elastic Compliance Matrix: (Units=1/GPa)
#
#
# Indices 1 2 3 4 5 6 
#
# 1 0.013980 -0.002331 -0.002167 0.000000 -0.001479 0.000000
# 2 -0.002331 0.012287 -0.003438 0.000000 -0.001894 0.000000
# 3 -0.002167 -0.003438 0.010747 0.000000 0.002153 0.000000
# 4 0.000000 0.000000 0.000000 0.025686 0.000000 -0.003818
# 5 -0.001479 -0.001894 0.002153 0.000000 0.033545 0.000000
# 6 0.000000 0.000000 0.000000 -0.003818 0.000000 0.038111
#
#
# Mechanical properties :
#
#
# Convention : Reuss Voigt Hill
#
# Bulk Modulus (GPa) = 47.30187 48.89100 48.09643
# Shear Modulus (GPa) = 31.79161 33.04652 32.41907
#
# Velocity S-wave (km/s) = 3.90637 3.98273 3.94474
# Velocity P-wave (km/s) = 6.56132 6.67958 6.62072
#
# Compressibility (1/GPa) = 0.02114081
#
# Stress axis : x y z
#
# Youngs Moduli (GPa) = 71.53312 81.38933 93.04854
#
# Poissons Ratio (x) = 0.18973 0.20167
# Poissons Ratio (y) = 0.16675 0.31987
# Poissons Ratio (z) = 0.15504 0.27979
#
# Static dielectric constant tensor:
#      x y z
#    x 3.961310 0.000000 -0.116030 
#    y 0.000000 3.656490 0.000000 
#    z -0.116030 0.000000 3.875150 
# 
# 
# High freq. dielectric constant tensor:
#      x y z
#    x 1.814580 0.000000 -0.008970 
#    y 0.000000 1.800380 0.000000 
#    z -0.008970 0.000000 1.829600 
# 
# From -- ./inp_files/50482.got.cif
#   From: 2010.03.12/outbox.cif.g09.slc.cpg/sg5_26_cif.got.tgz:50482.got - 2010.03.31 09:47:26.
