data_PCOD8049721
_publ_section_title
;
Structure prediction by ZEFSAII (Michael W. Deem and Ramdas Pophale) SiO2 
 PCOD8049721
Probable space group: C 2
;
_chemical_formula_sum "Si O2"
_cell_formula_units_Z 28
_cell_length_a 17.232837
_cell_length_b 5.337617
_cell_length_c 13.064890
_cell_angle_alpha 90.000000
_cell_angle_beta 70.976754
_cell_angle_gamma 90.000000
_cell_volume 1136.107168
_symmetry_space_group_name_H-M "C 2"
_symmetry_group_IT_number 5
_symmetry_cell_setting 'monoclinic'
loop_
_space_group_symop_operation_xyz
x,y,z
-x,y,-z
1/2+x,1/2+y,z
1/2-x,1/2+y,-z
loop_
_atom_site_type_symbol
_atom_site_label
_atom_site_fract_x
_atom_site_fract_y
_atom_site_fract_z
Si Si1 0.698645 0.174860 0.403261
Si Si2 0.932094 0.035960 0.960745
Si Si3 0.446049 0.450701 0.619139
Si Si4 0.107823 0.338721 0.219745
Si Si5 0.758996 0.036828 0.058139
Si Si6 0.023521 0.719094 0.770026
Si Si7 0.703497 0.174609 0.640755
O O1 0.610459 0.205675 0.382353
O O2 0.679625 0.181426 0.531803
O O3 0.753125 0.414591 0.349359
O O4 0.741699 0.915891 0.353261
O O5 0.850841 0.979705 0.064391
O O6 0.981848 0.793476 0.896513
O O7 0.891714 0.174761 0.882935
O O8 0.000000 0.185720 0.000000
O O9 0.500000 0.534213 0.500000
O O10 0.385741 0.678206 0.678290
O O11 0.507276 0.425872 0.689141
O O12 0.020809 0.476549 0.255743
O O13 0.189761 0.511821 0.177103
O O14 0.747002 0.824614 0.976175
O O15 0.120126 0.679261 0.742869
#
# Coordination Sequence:
#
# PCOD8049721 Si02
#       7
#     4   4   4   4   4   4   4
#     4  10  23  43  62  97 133 185 224 281 344 402
#     4  10  23  43  67  98 135 173 227 288 356 411
#     4  11  24  42  68 100 139 186 239 283 343 415
#     4  10  24  41  69 101 137 186 235 287 348 426
#     4  10  20  44  69  95 136 179 220 284 345 412
#     4  11  23  43  66  99 134 181 234 286 348 416
#     4  10  23  41  68  91 139 175 229 284 341 407
#
# _framework density 24.645565000000001
#
# number of rings (size 3 to 8) (size 9 to 14) (size 15 to 20)
#    0.000    1.714    2.857    0.000    6.000    3.429 
#    0.000    0.000    0.000    0.000    0.000    0.000 
#    0.000    0.000    0.000    0.000    0.000    0.000 
#
# Total GULP energy -173491.108069 kJ/mol
# GULP energy per Si atom -12392.222005 kJ/mol
# Density = 2.458947 g / cm^3
# Si number density = 24.645565 Si / 1000 Ang^3
#
#
#
# Elastic Constant Matrix: (Units=GPa)
#
#
# Indices 1 2 3 4 5 6 
#
# 1 121.3361 11.8289 33.0690 0.0000 -27.9780 0.0000
# 2 11.8289 97.0011 9.6655 0.0000 -12.9111 0.0000
# 3 33.0690 9.6655 76.4366 0.0000 -28.0930 0.0000
# 4 0.0000 0.0000 0.0000 16.8270 0.0000 -7.3814
# 5 -27.9780 -12.9111 -28.0930 0.0000 41.0538 0.0000
# 6 0.0000 0.0000 0.0000 -7.3814 0.0000 30.6760
#
#
#
# Elastic Compliance Matrix: (Units=1/GPa)
#
#
# Indices 1 2 3 4 5 6 
#
# 1 0.010122 -0.000308 -0.002459 0.000000 0.005119 0.000000
# 2 -0.000308 0.010770 -0.000081 0.000000 0.003122 0.000000
# 3 -0.002459 -0.000081 0.018078 0.000000 0.010670 0.000000
# 4 0.000000 0.000000 0.000000 0.066442 0.000000 0.015988
# 5 0.005119 0.003122 0.010670 0.000000 0.036130 0.000000
# 6 0.000000 0.000000 0.000000 0.015988 0.000000 0.036446
#
#
# Mechanical properties :
#
#
# Convention : Reuss Voigt Hill
#
# Bulk Modulus (GPa) = 30.05347 44.87783 37.46565
# Shear Modulus (GPa) = 25.67058 33.72537 29.69797
#
# Velocity S-wave (km/s) = 3.23087 3.70322 3.47508
# Velocity P-wave (km/s) = 5.11261 6.04433 5.59789
#
# Compressibility (1/GPa) = 0.03327403
#
# Stress axis : x y z
#
# Youngs Moduli (GPa) = 98.79460 92.84768 55.31501
#
# Poissons Ratio (x) = 0.02860 0.13601
# Poissons Ratio (y) = 0.03043 0.00450
# Poissons Ratio (z) = 0.24293 0.00755
#
# Static dielectric constant tensor:
#      x y z
#    x 4.498140 0.000000 -0.189550 
#    y 0.000000 4.362930 0.000000 
#    z -0.189550 0.000000 4.536700 
# 
# 
# High freq. dielectric constant tensor:
#      x y z
#    x 1.987230 0.000000 -0.014350 
#    y 0.000000 1.969200 0.000000 
#    z -0.014350 0.000000 1.979940 
# 
# From -- ./inp_files/55402.got.cif
#   From: 2010.03.12/outbox.cif.g09.slc.cpg/sg5_28_cif.got.tgz:55402.got - 2010.03.31 09:47:26.
