data_PCOD8049540
_publ_section_title
;
Structure prediction by ZEFSAII (Michael W. Deem and Ramdas Pophale) SiO2 
 PCOD8049540
Probable space group: C 2
;
_chemical_formula_sum "Si O2"
_cell_formula_units_Z 20
_cell_length_a 13.560397
_cell_length_b 7.424302
_cell_length_c 16.233381
_cell_angle_alpha 90.000000
_cell_angle_beta 24.393379
_cell_angle_gamma 90.000000
_cell_volume 674.972712
_symmetry_space_group_name_H-M "C 2"
_symmetry_group_IT_number 5
_symmetry_cell_setting 'monoclinic'
loop_
_space_group_symop_operation_xyz
x,y,z
-x,y,-z
1/2+x,1/2+y,z
1/2-x,1/2+y,-z
loop_
_atom_site_type_symbol
_atom_site_label
_atom_site_fract_x
_atom_site_fract_y
_atom_site_fract_z
Si Si1 0.039729 0.701140 0.341979
Si Si2 0.707061 0.626466 0.392483
Si Si3 0.232733 0.660044 0.027975
Si Si4 0.932541 0.324109 0.347247
Si Si5 0.370286 0.479661 0.184023
O O1 0.952507 0.499689 0.386725
O O2 0.804190 0.828917 0.535198
O O3 0.186117 0.770527 0.149406
O O4 0.206330 0.661962 0.294923
O O5 0.500000 0.510909 0.500000
O O6 0.615834 0.659793 0.554287
O O7 0.983326 0.552101 0.192681
O O8 0.723161 0.807032 0.324479
O O9 0.315888 0.791290 0.891265
O O10 0.449340 0.521079 0.878050
O O11 0.500000 0.432906 0.000000
#
# Coordination Sequence:
#
# PCOD8049540 Si02
#       5
#     4   4   4   4   4
#     4  10  22  40  66  99 129 176 225 276 331 397
#     4  11  22  36  63  96 126 167 225 271 328 388
#     4  10  22  35  60  95 132 164 213 275 327 388
#     4  11  22  39  65 100 136 169 224 280 328 398
#     4  10  20  40  67  94 126 175 230 267 326 403
#
# _framework density 29.630825999999999
#
# number of rings (size 3 to 8) (size 9 to 14) (size 15 to 20)
#    0.000    1.600    2.000    3.600    0.000    1.600 
#    0.000    0.000   26.400    0.000    0.000    0.000 
#    0.000    0.000    0.000    0.000    0.000    0.000 
#
# Total GULP energy -123886.612611 kJ/mol
# GULP energy per Si atom -12388.661261 kJ/mol
# Density = 2.956339 g / cm^3
# Si number density = 29.630826 Si / 1000 Ang^3
#
#
#
# Elastic Constant Matrix: (Units=GPa)
#
#
# Indices 1 2 3 4 5 6 
#
# 1 165.8120 8.9650 31.1160 0.0022 -60.4624 -0.0015
# 2 8.9650 34.1579 21.5621 0.0102 -18.7688 -0.0084
# 3 31.1160 21.5621 157.2843 0.0012 -28.7409 -0.0032
# 4 0.0022 0.0102 0.0012 26.8036 -0.0013 -30.4197
# 5 -60.4624 -18.7688 -28.7409 -0.0013 58.4618 0.0027
# 6 -0.0015 -0.0084 -0.0032 -30.4197 0.0027 43.9949
#
#
#
# Elastic Compliance Matrix: (Units=1/GPa)
#
#
# Indices 1 2 3 4 5 6 
#
# 1 0.010086 0.003937 -0.000437 -0.000006 0.011481 -0.000004
# 2 0.003937 0.038479 -0.003354 -0.000033 0.014776 -0.000016
# 3 -0.000437 -0.003354 0.007279 0.000004 0.002049 0.000002
# 4 -0.000006 -0.000033 0.000004 0.173300 -0.000017 0.119826
# 5 0.011481 0.014776 0.002049 -0.000017 0.034730 -0.000010
# 6 -0.000004 -0.000016 0.000002 0.119826 -0.000010 0.105582
#
#
# Mechanical properties :
#
#
# Convention : Reuss Voigt Hill
#
# Bulk Modulus (GPa) = 17.81398 53.39337 35.60368
# Shear Modulus (GPa) = 12.89072 45.55948 29.22510
#
# Velocity S-wave (km/s) = 2.08803 3.92544 3.14396
# Velocity P-wave (km/s) = 3.44067 6.21322 5.02207
#
# Compressibility (1/GPa) = 0.05613569
#
# Stress axis : x y z
#
# Youngs Moduli (GPa) = 99.14275 25.98842 137.38753
#
# Poissons Ratio (x) = -0.10232 0.06008
# Poissons Ratio (y) = -0.39033 0.46077
# Poissons Ratio (z) = 0.04335 0.08716
#
# Static dielectric constant tensor:
#      x y z
#    x 6.186360 0.000000 -0.442260 
#    y 0.000000 5.172380 0.000010 
#    z -0.442260 0.000010 6.055630 
# 
# 
# High freq. dielectric constant tensor:
#      x y z
#    x 2.226000 0.000000 -0.017400 
#    y 0.000000 2.192210 0.000000 
#    z -0.017400 0.000000 2.231140 
# 
# From -- ./inp_files/39043.got.cif
#   From: 2010.03.12/outbox.cif.g09.slc.cpg/sg5_20_cif.got.tgz:39043.got - 2010.03.31 09:47:26.
