data_PCOD8049249
_publ_section_title
;
Structure prediction by ZEFSAII (Michael W. Deem and Ramdas Pophale) SiO2 
 PCOD8049249
Probable space group: C 2
;
_chemical_formula_sum "Si O2"
_cell_formula_units_Z 32
_cell_length_a 19.379606
_cell_length_b 18.112177
_cell_length_c 11.625968
_cell_angle_alpha 90.000000
_cell_angle_beta 156.874003
_cell_angle_gamma 90.000000
_cell_volume 1602.750099
_symmetry_space_group_name_H-M "C 2"
_symmetry_group_IT_number 5
_symmetry_cell_setting 'monoclinic'
loop_
_space_group_symop_operation_xyz
x,y,z
-x,y,-z
1/2+x,1/2+y,z
1/2-x,1/2+y,-z
loop_
_atom_site_type_symbol
_atom_site_label
_atom_site_fract_x
_atom_site_fract_y
_atom_site_fract_z
Si Si1 0.182618 0.346820 0.234708
Si Si2 0.194871 0.200314 0.839726
Si Si3 0.185528 0.174511 0.246621
Si Si4 0.294273 0.931990 0.180792
Si Si5 0.500384 0.363106 0.128369
Si Si6 0.497304 0.191359 0.123849
Si Si7 0.300969 0.338000 0.162876
Si Si8 0.294689 0.101970 0.186631
O O1 0.184449 0.261115 0.267751
O O2 0.342789 0.390431 0.545053
O O3 0.189290 0.351334 0.106718
O O4 0.000000 0.382235 0.000000
O O5 0.000000 0.215006 0.500000
O O6 0.313441 0.186090 0.909084
O O7 0.247503 0.269554 0.999985
O O8 0.208033 0.125423 0.933676
O O9 0.351465 0.145946 0.575565
O O10 0.209785 0.154082 0.151895
O O11 0.000000 0.138878 0.000000
O O12 0.500000 0.912941 0.500000
O O13 0.254282 0.016673 0.149176
O O14 0.190781 0.880877 0.112722
O O15 0.222598 0.913551 0.944103
O O16 0.538300 0.277216 0.174376
O O17 0.500000 0.399467 0.000000
O O18 0.500000 0.156040 0.000000
O O19 0.500000 0.322513 0.500000
O O20 0.500000 0.118144 0.500000
#
# Coordination Sequence:
#
# PCOD8049249 Si02
#       8
#     4   4   4   4   4   4   4   4
#     4  10  21  35  62  96 119 158 197 256 311 361
#     4  12  24  37  65  96 120 161 204 258 311 363
#     4  10  20  37  63  90 121 159 202 246 310 372
#     4  11  25  40  62  92 121 170 208 256 307 364
#     4  10  21  38  59  90 126 158 196 253 311 366
#     4  10  21  36  60  93 127 151 194 261 314 356
#     4  12  21  40  66  91 124 159 208 256 308 369
#     4  11  23  43  63  86 126 166 213 254 304 367
#
# _framework density 19.965682999999999
#
# number of rings (size 3 to 8) (size 9 to 14) (size 15 to 20)
#    0.000    1.250    5.000    1.500    3.500    2.000 
#    0.000    0.000    0.000    0.750    0.000    0.000 
#    0.000    0.000    0.000    0.000    0.000    0.000 
#
# Total GULP energy -198328.417814 kJ/mol
# GULP energy per Si atom -12395.526113 kJ/mol
# Density = 1.992024 g / cm^3
# Si number density = 19.965683 Si / 1000 Ang^3
#
#
#
# Elastic Constant Matrix: (Units=GPa)
#
#
# Indices 1 2 3 4 5 6 
#
# 1 177.0825 11.8129 71.5934 0.0000 2.4304 0.0000
# 2 11.8129 33.5265 29.6881 0.0000 0.3514 0.0000
# 3 71.5934 29.6881 153.1983 0.0000 5.4586 0.0000
# 4 0.0000 0.0000 0.0000 18.3511 0.0000 -7.1828
# 5 2.4304 0.3514 5.4586 0.0000 36.9163 0.0000
# 6 0.0000 0.0000 0.0000 -7.1828 0.0000 18.5318
#
#
#
# Elastic Compliance Matrix: (Units=1/GPa)
#
#
# Indices 1 2 3 4 5 6 
#
# 1 0.006970 0.000518 -0.003359 0.000000 0.000033 0.000000
# 2 0.000518 0.036062 -0.007255 0.000000 0.000695 0.000000
# 3 -0.003359 -0.007255 0.009543 0.000000 -0.001121 0.000000
# 4 0.000000 0.000000 0.000000 0.064238 0.000000 0.024898
# 5 0.000033 0.000695 -0.001121 0.000000 0.027245 0.000000
# 6 0.000000 0.000000 0.000000 0.024898 0.000000 0.063612
#
#
# Mechanical properties :
#
#
# Convention : Reuss Voigt Hill
#
# Bulk Modulus (GPa) = 30.88037 65.55511 48.21774
# Shear Modulus (GPa) = 20.95064 31.47405 26.21234
#
# Velocity S-wave (km/s) = 3.24285 3.97471 3.62729
# Velocity P-wave (km/s) = 5.43339 7.34640 6.46109
#
# Compressibility (1/GPa) = 0.03238304
#
# Stress axis : x y z
#
# Youngs Moduli (GPa) = 143.47138 27.73002 104.78788
#
# Poissons Ratio (x) = -0.01437 0.35197
# Poissons Ratio (y) = -0.07433 0.76027
# Poissons Ratio (z) = 0.48190 0.20119
#
# Static dielectric constant tensor:
#      x y z
#    x 3.410110 0.000000 -0.088980 
#    y 0.000000 3.258880 0.000000 
#    z -0.088980 0.000000 4.086040 
# 
# 
# High freq. dielectric constant tensor:
#      x y z
#    x 1.795880 0.000000 -0.001030 
#    y 0.000000 1.732370 0.000000 
#    z -0.001030 0.000000 1.789520 
# 
# From -- ./inp_files/37191.got.cif
#   From: 2010.03.12/outbox.cif.g09.slc.cpg/sg5_19_cif.got.tgz:37191.got - 2010.03.31 09:47:26.
