data_PCOD8049486
_publ_section_title
;
Structure prediction by ZEFSAII (Michael W. Deem and Ramdas Pophale) SiO2 
 PCOD8049486
Probable space group: C 2
;
_chemical_formula_sum "Si O2"
_cell_formula_units_Z 26
_cell_length_a 6.659295
_cell_length_b 14.575108
_cell_length_c 13.658007
_cell_angle_alpha 90.000000
_cell_angle_beta 90.087709
_cell_angle_gamma 90.000000
_cell_volume 1325.643839
_symmetry_space_group_name_H-M "C 2"
_symmetry_group_IT_number 5
_symmetry_cell_setting 'monoclinic'
loop_
_space_group_symop_operation_xyz
x,y,z
-x,y,-z
1/2+x,1/2+y,z
1/2-x,1/2+y,-z
loop_
_atom_site_type_symbol
_atom_site_label
_atom_site_fract_x
_atom_site_fract_y
_atom_site_fract_z
Si Si1 0.000000 0.603601 0.500000
Si Si2 0.998768 0.603372 0.180921
Si Si3 0.436594 0.914148 0.107639
Si Si4 0.198907 0.042285 0.657020
Si Si5 0.249259 0.853722 0.736456
Si Si6 0.063533 0.792434 0.107658
Si Si7 0.198247 0.165194 0.342841
O O1 0.146447 0.542278 0.433512
O O2 0.146305 0.664948 0.566742
O O3 0.909179 0.523888 0.110045
O O4 0.805842 0.627838 0.246045
O O5 0.191995 0.579335 0.246302
O O6 0.087620 0.682542 0.109604
O O7 0.591720 0.899552 0.193477
O O8 0.251353 0.852526 0.138969
O O9 0.500000 0.880806 0.000000
O O10 0.000588 0.103987 0.636238
O O11 0.146828 0.934234 0.671026
O O12 0.352546 0.773362 0.671296
O O13 0.089280 0.808079 0.805914
O O14 0.000000 0.826330 0.000000
#
# Coordination Sequence:
#
# PCOD8049486 Si02
#       7
#     2   4   4   4   4   4   4
#     4  10  22  40  58  90 116 152 196 252 300 364
#     4   9  21  35  57  82 118 160 197 249 301 345
#     4  11  20  35  56  84 121 158 204 248 288 348
#     4  10  20  40  61  85 120 154 198 246 307 362
#     4  10  22  38  60  90 116 162 198 242 306 350
#     4  11  20  35  56  84 121 158 204 248 288 348
#     4  10  20  40  61  85 120 154 198 246 307 362
#
# _framework density 19.613112000000001
#
# number of rings (size 3 to 8) (size 9 to 14) (size 15 to 20)
#    0.000    1.846    1.538    2.769    0.000    0.000 
#    5.538    0.000    0.000    0.000    0.000    0.000 
#    0.000    0.000    0.000    0.000    0.000    0.000 
#
# Total GULP energy -161081.585512 kJ/mol
# GULP energy per Si atom -12390.891193 kJ/mol
# Density = 1.956847 g / cm^3
# Si number density = 19.613112 Si / 1000 Ang^3
#
#
#
# Elastic Constant Matrix: (Units=GPa)
#
#
# Indices 1 2 3 4 5 6 
#
# 1 91.9243 48.6206 24.9782 0.0000 -1.4288 0.0000
# 2 48.6206 157.5811 37.5205 0.0000 -3.0748 0.0000
# 3 24.9782 37.5205 79.7268 0.0000 0.8089 0.0000
# 4 0.0000 0.0000 0.0000 12.8246 0.0000 -0.4598
# 5 -1.4288 -3.0748 0.8089 0.0000 -22.5523 0.0000
# 6 0.0000 0.0000 0.0000 -0.4598 0.0000 33.0452
#
#
#
# Elastic Compliance Matrix: (Units=1/GPa)
#
#
# Indices 1 2 3 4 5 6 
#
# 1 0.013439 -0.003552 -0.002534 0.000000 -0.000458 0.000000
# 2 -0.003552 0.008059 -0.002670 0.000000 -0.000969 0.000000
# 3 -0.002534 -0.002670 0.014583 0.000000 0.001048 0.000000
# 4 0.000000 0.000000 0.000000 0.078014 0.000000 0.001085
# 5 -0.000458 -0.000969 0.001048 0.000000 -0.044143 0.000000
# 6 0.000000 0.000000 0.000000 0.001085 0.000000 0.030277
#
#
# Mechanical properties :
#
#
# Convention : Reuss Voigt Hill
#
# Bulk Modulus (GPa) = 53.85564 61.27454 57.56509
# Shear Modulus (GPa) = 40.34554 19.20436 29.77495
#
# Velocity S-wave (km/s) = 4.54041 3.13255 3.90053
# Velocity P-wave (km/s) = 7.41659 6.66283 7.04979
#
# Compressibility (1/GPa) = 0.01856816
#
# Stress axis : x y z
#
# Youngs Moduli (GPa) = 74.41209 124.09011 68.57499
#
# Poissons Ratio (x) = 0.44077 0.17377
# Poissons Ratio (y) = 0.26431 0.18309
# Poissons Ratio (z) = 0.18856 0.33130
#
# Static dielectric constant tensor:
#      x y z
#    x 3.420110 0.000000 -0.001690 
#    y 0.000000 3.853610 0.000000 
#    z -0.001690 0.000000 3.507940 
# 
# 
# High freq. dielectric constant tensor:
#      x y z
#    x 1.754610 0.000000 -0.000200 
#    y 0.000000 1.772910 0.000000 
#    z -0.000200 0.000000 1.765630 
# 
# From -- ./inp_files/48952.got.cif
#   From: 2010.03.12/outbox.cif.g09.slc.cpg/sg5_25_cif.got.tgz:48952.got - 2010.03.31 09:47:26.
