data_PCOD8049684
_publ_section_title
;
Structure prediction by ZEFSAII (Michael W. Deem and Ramdas Pophale) SiO2 
 PCOD8049684
Probable space group: C 2
;
_chemical_formula_sum "Si O2"
_cell_formula_units_Z 16
_cell_length_a 14.152817
_cell_length_b 5.067655
_cell_length_c 10.958101
_cell_angle_alpha 90.000000
_cell_angle_beta 119.199706
_cell_angle_gamma 90.000000
_cell_volume 686.059771
_symmetry_space_group_name_H-M "C 2"
_symmetry_group_IT_number 5
_symmetry_cell_setting 'monoclinic'
loop_
_space_group_symop_operation_xyz
x,y,z
-x,y,-z
1/2+x,1/2+y,z
1/2-x,1/2+y,-z
loop_
_atom_site_type_symbol
_atom_site_label
_atom_site_fract_x
_atom_site_fract_y
_atom_site_fract_z
Si Si1 0.228124 0.118890 0.910282
Si Si2 0.986198 0.052420 0.682841
Si Si3 0.694325 0.329212 0.285938
Si Si4 0.878601 0.566354 0.534710
O O1 0.305677 0.201712 0.847307
O O2 0.214620 0.369151 0.990765
O O3 0.111338 0.024470 0.792503
O O4 0.914860 0.002871 0.761866
O O5 0.950456 0.829553 0.561356
O O6 0.964453 0.333783 0.609186
O O7 0.801615 0.510415 0.370453
O O8 0.698711 0.099417 0.393341
#
# Coordination Sequence:
#
# PCOD8049684 Si02
#       4
#     4   4   4   4
#     4  12  29  46  65 105 144 192 241 277 335 431
#     4  10  22  44  68 103 133 184 230 285 364 392
#     4  10  23  44  74 101 141 174 230 299 348 426
#     4  10  20  42  72 104 132 175 226 295 371 395
#
# _framework density 23.321580999999998
#
# number of rings (size 3 to 8) (size 9 to 14) (size 15 to 20)
#    1.500    0.000    2.500    1.500    3.500    2.000 
#    0.000    5.000    0.000    0.000    0.000    0.000 
#    0.000    0.000    0.000    0.000    0.000    0.000 
#
# Total GULP energy -99170.706238 kJ/mol
# GULP energy per Si atom -12396.338280 kJ/mol
# Density = 2.326850 g / cm^3
# Si number density = 23.321581 Si / 1000 Ang^3
#
#
#
# Elastic Constant Matrix: (Units=GPa)
#
#
# Indices 1 2 3 4 5 6 
#
# 1 79.0425 -4.7773 2.6727 0.0000 5.5950 0.0000
# 2 -4.7773 125.0322 1.4886 0.0000 8.0272 0.0000
# 3 2.6727 1.4886 35.0925 0.0000 -3.6444 0.0000
# 4 0.0000 0.0000 0.0000 44.4787 0.0000 18.0732
# 5 5.5950 8.0272 -3.6444 0.0000 24.3995 0.0000
# 6 0.0000 0.0000 0.0000 18.0732 0.0000 0.3918
#
#
#
# Elastic Compliance Matrix: (Units=1/GPa)
#
#
# Indices 1 2 3 4 5 6 
#
# 1 0.012985 0.000732 -0.001376 0.000000 -0.003424 0.000000
# 2 0.000732 0.008226 -0.000714 0.000000 -0.002981 0.000000
# 3 -0.001376 -0.000714 0.029140 0.000000 0.004903 0.000000
# 4 0.000000 0.000000 0.000000 -0.001267 0.000000 0.058449
# 5 -0.003424 -0.002981 0.004903 0.000000 0.043482 0.000000
# 6 0.000000 0.000000 0.000000 0.058449 0.000000 -0.143846
#
#
# Mechanical properties :
#
#
# Convention : Reuss Voigt Hill
#
# Bulk Modulus (GPa) = 20.99267 26.43724 23.71495
# Shear Modulus (GPa) = -152.96925 29.83956 -61.56484
#
# Velocity S-wave (km/s) = -8.10763 3.58087 -5.14349
# Velocity P-wave (km/s) = 8.86702 5.33454 5.00832
#
# Compressibility (1/GPa) = 0.04763567
#
# Stress axis : x y z
#
# Youngs Moduli (GPa) = 77.01456 121.56876 34.31668
#
# Poissons Ratio (x) = -0.08903 0.04720
# Poissons Ratio (y) = -0.05640 0.02451
# Poissons Ratio (z) = 0.10594 0.08683
#
# Static dielectric constant tensor:
#      x y z
#    x 4.023600 0.000000 -0.079020 
#    y 0.000000 4.259090 0.000000 
#    z -0.079020 0.000000 3.842270 
# 
# 
# High freq. dielectric constant tensor:
#      x y z
#    x 1.925510 0.000000 0.001420 
#    y 0.000000 1.931800 0.000000 
#    z 0.001420 0.000000 1.893290 
# 
# From -- ./inp_files/26043.got.cif
#   From: 2010.03.12/outbox.cif.g09.slc.cpg/sg5_14_cif.got.tgz:26043.got - 2010.03.31 09:47:26.
