data_PCOD8049770
_publ_section_title
;
Structure prediction by ZEFSAII (Michael W. Deem and Ramdas Pophale) SiO2 
 PCOD8049770
Probable space group: C 2
;
_chemical_formula_sum "Si O2"
_cell_formula_units_Z 32
_cell_length_a 12.937343
_cell_length_b 5.108807
_cell_length_c 28.196696
_cell_angle_alpha 90.000000
_cell_angle_beta 65.886613
_cell_angle_gamma 90.000000
_cell_volume 1701.019523
_symmetry_space_group_name_H-M "C 2"
_symmetry_group_IT_number 5
_symmetry_cell_setting 'monoclinic'
loop_
_space_group_symop_operation_xyz
x,y,z
-x,y,-z
1/2+x,1/2+y,z
1/2-x,1/2+y,-z
loop_
_atom_site_type_symbol
_atom_site_label
_atom_site_fract_x
_atom_site_fract_y
_atom_site_fract_z
Si Si1 0.147173 0.408840 0.064792
Si Si2 0.103293 0.909030 0.015407
Si Si3 0.262607 0.487161 0.435281
Si Si4 0.174188 0.486727 0.734610
Si Si5 0.369338 0.487057 0.515386
Si Si6 0.369836 0.486535 0.314740
Si Si7 0.424671 0.986861 0.814758
Si Si8 0.119219 0.986386 0.234634
O O1 0.089851 0.628992 0.042789
O O2 0.111435 0.447305 0.125017
O O3 0.102304 0.128719 0.056195
O O4 0.282672 0.427831 0.036730
O O5 0.000000 0.958468 0.000000
O O6 0.348374 0.468160 0.463169
O O7 0.202393 0.767224 0.443929
O O8 0.336932 0.441080 0.375015
O O9 0.165895 0.267471 0.457388
O O10 0.174746 0.266636 0.694005
O O11 0.277410 0.436889 0.750039
O O12 0.060185 0.468771 0.786800
O O13 0.187797 0.766807 0.707213
O O14 0.500000 0.437363 0.500000
O O15 0.505263 0.466553 0.286816
O O16 0.367725 0.766903 0.792522
O O17 0.379696 0.267093 0.806250
#
# Coordination Sequence:
#
# PCOD8049770 Si02
#       8
#     4   4   4   4   4   4   4   4
#     4  10  21  36  54  80 108 140 181 222 266 318
#     4  10  21  36  54  78 110 142 179 224 266 316
#     4  10  21  36  56  80 108 140 177 218 262 314
#     4  10  21  37  55  79 110 139 176 222 265 316
#     4  10  21  38  56  80 110 140 177 220 262 312
#     4  10  21  36  54  80 108 138 177 218 262 316
#     4  10  21  36  56  80 108 140 179 222 266 318
#     4  10  21  37  55  79 108 139 176 220 265 316
#
# _framework density 18.812249000000001
#
# number of rings (size 3 to 8) (size 9 to 14) (size 15 to 20)
#    0.000    2.000    0.000    3.000    0.000    4.000 
#    0.000    0.000    0.000    0.000    0.000    0.000 
#    0.000    0.000    0.000    0.000    0.000    0.000 
#
# Total GULP energy -198495.787529 kJ/mol
# GULP energy per Si atom -12405.986721 kJ/mol
# Density = 1.876943 g / cm^3
# Si number density = 18.812249 Si / 1000 Ang^3
#
#
#
# Elastic Constant Matrix: (Units=GPa)
#
#
# Indices 1 2 3 4 5 6 
#
# 1 119.0956 17.9777 29.9855 -0.0064 8.5119 -0.0123
# 2 17.9777 72.7768 11.9268 -0.0119 -4.1920 -0.0548
# 3 29.9855 11.9268 131.5102 -0.0023 -3.4891 -0.0028
# 4 -0.0064 -0.0119 -0.0023 18.3169 0.0022 -0.4560
# 5 8.5119 -4.1920 -3.4891 0.0022 10.5885 -0.0011
# 6 -0.0123 -0.0548 -0.0028 -0.4560 -0.0011 18.1992
#
#
#
# Elastic Compliance Matrix: (Units=1/GPa)
#
#
# Indices 1 2 3 4 5 6 
#
# 1 0.010098 -0.002687 -0.002323 0.000003 -0.009946 -0.000002
# 2 -0.002687 0.014947 -0.000533 0.000009 0.007902 0.000044
# 3 -0.002323 -0.000533 0.008298 -0.000001 0.004390 -0.000002
# 4 0.000003 0.000009 -0.000001 0.054629 -0.000010 0.001369
# 5 -0.009946 0.007902 0.004390 -0.000010 0.107013 0.000024
# 6 -0.000002 0.000044 -0.000002 0.001369 0.000024 0.054982
#
#
# Mechanical properties :
#
#
# Convention : Reuss Voigt Hill
#
# Bulk Modulus (GPa) = 44.92798 49.24027 47.08413
# Shear Modulus (GPa) = 18.62399 26.98709 22.80554
#
# Velocity S-wave (km/s) = 3.14983 3.79165 3.48555
# Velocity P-wave (km/s) = 6.09612 6.73797 6.42507
#
# Compressibility (1/GPa) = 0.02225785
#
# Stress axis : x y z
#
# Youngs Moduli (GPa) = 99.03098 66.90343 120.50513
#
# Poissons Ratio (x) = 0.17975 0.27989
# Poissons Ratio (y) = 0.26607 0.06427
# Poissons Ratio (z) = 0.23001 0.03568
#
# Static dielectric constant tensor:
#      x y z
#    x 3.304300 -0.000010 -0.063300 
#    y -0.000010 3.771630 0.000000 
#    z -0.063300 0.000000 3.333680 
# 
# 
# High freq. dielectric constant tensor:
#      x y z
#    x 1.726730 0.000000 0.000440 
#    y 0.000000 1.753910 0.000000 
#    z 0.000440 0.000000 1.729860 
# 
# From -- ./inp_files/68180.got.cif
#   From: 2010.03.12/outbox.cif.g09.slc.cpg/sg5_35_cif.got.tgz:68180.got - 2010.03.31 09:47:26.
