data_PCOD8049557
_publ_section_title
;
Structure prediction by ZEFSAII (Michael W. Deem and Ramdas Pophale) SiO2 
 PCOD8049557
Probable space group: C 2
;
_chemical_formula_sum "Si O2"
_cell_formula_units_Z 16
_cell_length_a 11.357011
_cell_length_b 7.923499
_cell_length_c 9.532747
_cell_angle_alpha 90.000000
_cell_angle_beta 118.030897
_cell_angle_gamma 90.000000
_cell_volume 757.197973
_symmetry_space_group_name_H-M "C 2"
_symmetry_group_IT_number 5
_symmetry_cell_setting 'monoclinic'
loop_
_space_group_symop_operation_xyz
x,y,z
-x,y,-z
1/2+x,1/2+y,z
1/2-x,1/2+y,-z
loop_
_atom_site_type_symbol
_atom_site_label
_atom_site_fract_x
_atom_site_fract_y
_atom_site_fract_z
Si Si1 0.473664 0.591960 0.737864
Si Si2 0.500000 0.375967 0.500000
Si Si3 0.735613 0.192921 0.785654
Si Si4 0.000000 0.843668 0.000000
Si Si5 0.281108 0.818427 0.106880
O O1 0.425432 0.494103 0.571901
O O2 0.350579 0.695115 0.732597
O O3 0.528923 0.460159 0.882025
O O4 0.595515 0.713868 0.762458
O O5 0.603524 0.258978 0.638498
O O6 0.705989 0.008529 0.830953
O O7 0.782680 0.314345 0.938312
O O8 0.860727 0.739600 0.911959
#
# Coordination Sequence:
#
# PCOD8049557 Si02
#       5
#     4   2   4   2   4
#     4  11  23  44  67  97 135 168 221 272 320 389
#     4  12  26  44  62 102 140 170 210 278 334 380
#     4  11  24  43  68  98 134 172 219 270 329 388
#     4  10  20  40  68  98 130 162 224 266 314 394
#     4  11  20  44  69  95 130 172 223 264 317 395
#
# _framework density 21.130535999999999
#
# number of rings (size 3 to 8) (size 9 to 14) (size 15 to 20)
#    0.000    1.000    7.500    0.000    0.000    7.000 
#    9.000    0.000    0.000    0.000    0.000    0.000 
#    0.000    0.000    0.000    0.000    0.000    0.000 
#
# Total GULP energy -99172.802806 kJ/mol
# GULP energy per Si atom -12396.600351 kJ/mol
# Density = 2.108244 g / cm^3
# Si number density = 21.130536 Si / 1000 Ang^3
#
#
#
# Elastic Constant Matrix: (Units=GPa)
#
#
# Indices 1 2 3 4 5 6 
#
# 1 152.4502 61.7729 34.2888 0.0000 2.7124 0.0000
# 2 61.7729 71.4056 48.3644 0.0000 0.1627 0.0000
# 3 34.2888 48.3644 111.4826 0.0000 -2.4296 0.0000
# 4 0.0000 0.0000 0.0000 40.8802 0.0000 -6.5902
# 5 2.7124 0.1627 -2.4296 0.0000 35.9107 0.0000
# 6 0.0000 0.0000 0.0000 -6.5902 0.0000 14.0802
#
#
#
# Elastic Compliance Matrix: (Units=1/GPa)
#
#
# Indices 1 2 3 4 5 6 
#
# 1 0.010190 -0.009461 0.000956 0.000000 -0.000662 0.000000
# 2 -0.009461 0.028633 -0.009513 0.000000 -0.000059 0.000000
# 3 0.000956 -0.009513 0.012821 0.000000 0.000838 0.000000
# 4 0.000000 0.000000 0.000000 0.026458 0.000000 0.012384
# 5 -0.000662 -0.000059 0.000838 0.000000 0.027954 0.000000
# 6 0.000000 0.000000 0.000000 0.012384 0.000000 0.076818
#
#
# Mechanical properties :
#
#
# Convention : Reuss Voigt Hill
#
# Bulk Modulus (GPa) = 64.07182 69.35452 66.71317
# Shear Modulus (GPa) = 22.31014 30.90171 26.60592
#
# Velocity S-wave (km/s) = 3.25287 3.82831 3.55226
# Velocity P-wave (km/s) = 6.67053 7.24116 6.96170
#
# Compressibility (1/GPa) = 0.01560749
#
# Stress axis : x y z
#
# Youngs Moduli (GPa) = 98.13504 34.92462 77.99531
#
# Poissons Ratio (x) = 0.33044 -0.07457
# Poissons Ratio (y) = 0.92850 0.74198
# Poissons Ratio (z) = -0.09382 0.33224
#
# Static dielectric constant tensor:
#      x y z
#    x 4.278140 0.000000 -0.234640 
#    y 0.000000 3.661950 0.000000 
#    z -0.234640 0.000000 3.998760 
# 
# 
# High freq. dielectric constant tensor:
#      x y z
#    x 1.845360 0.000000 0.000700 
#    y 0.000000 1.808500 0.000000 
#    z 0.000700 0.000000 1.825560 
# 
# From -- ./inp_files/17867.got.cif
#   From: 2010.03.12/outbox.cif.g09.slc.cpg/sg5_9_cif.got.tgz:17867.got - 2010.03.31 09:47:26.
