data_PCOD8049223
_publ_section_title
;
Structure prediction by ZEFSAII (Michael W. Deem and Ramdas Pophale) SiO2 
 PCOD8049223
Probable space group: C 2
;
_chemical_formula_sum "Si O2"
_cell_formula_units_Z 32
_cell_length_a 22.904032
_cell_length_b 8.545741
_cell_length_c 22.928345
_cell_angle_alpha 90.000000
_cell_angle_beta 159.974707
_cell_angle_gamma 90.000000
_cell_volume 1536.782615
_symmetry_space_group_name_H-M "C 2"
_symmetry_group_IT_number 5
_symmetry_cell_setting 'monoclinic'
loop_
_space_group_symop_operation_xyz
x,y,z
-x,y,-z
1/2+x,1/2+y,z
1/2-x,1/2+y,-z
loop_
_atom_site_type_symbol
_atom_site_label
_atom_site_fract_x
_atom_site_fract_y
_atom_site_fract_z
Si Si1 0.219284 0.746890 0.362319
Si Si2 0.560184 0.225846 0.991974
Si Si3 0.458778 0.695181 0.203977
Si Si4 0.563603 0.368608 0.333339
Si Si5 0.039641 0.356239 0.971439
Si Si6 0.284595 0.176778 0.121702
Si Si7 0.810867 0.384223 0.657603
Si Si8 0.096898 0.351753 0.732484
O O1 0.168140 0.791371 0.379499
O O2 0.218584 0.563063 0.356336
O O3 0.411498 0.810712 0.530572
O O4 0.077721 0.804590 0.182147
O O5 0.746364 0.304937 0.161996
O O6 0.500000 0.265851 0.000000
O O7 0.578919 0.039667 0.000577
O O8 0.580769 0.555622 0.341375
O O9 0.548871 0.848014 0.260814
O O10 0.360478 0.758311 0.168105
O O11 0.351447 0.609070 0.052355
O O12 0.374060 0.303851 0.162787
O O13 0.639122 0.316875 0.467904
O O14 0.872785 0.306880 0.776447
O O15 0.202050 0.261089 0.100384
O O16 0.000000 0.307125 0.000000
O O17 0.403396 0.037772 0.256246
#
# Coordination Sequence:
#
# PCOD8049223 Si02
#       8
#     4   4   4   4   4   4   4   4
#     4  11  23  39  63  93 128 161 200 257 310 372
#     4  10  23  44  67  88 118 163 214 262 308 359
#     4  11  21  37  59  90 127 164 203 249 309 375
#     4  12  21  37  58  92 126 160 195 252 312 364
#     4   9  21  43  65  86 116 161 210 258 308 362
#     4  11  24  36  60  90 127 164 204 252 309 379
#     4  10  20  37  61  90 121 158 196 253 307 361
#     4  12  23  39  61  93 125 166 206 251 314 371
#
# _framework density 20.822724999999998
#
# number of rings (size 3 to 8) (size 9 to 14) (size 15 to 20)
#    0.000    1.250    2.500    3.750    1.750    3.000 
#    0.000    0.625    2.750    0.000    0.000    0.000 
#    0.000    0.000    0.000    0.000    0.000    0.000 
#
# Total GULP energy -198250.227273 kJ/mol
# GULP energy per Si atom -12390.639205 kJ/mol
# Density = 2.077533 g / cm^3
# Si number density = 20.822725 Si / 1000 Ang^3
#
#
#
# Elastic Constant Matrix: (Units=GPa)
#
#
# Indices 1 2 3 4 5 6 
#
# 1 116.2937 24.2062 56.3502 0.0101 -3.3625 0.0004
# 2 24.2062 66.0522 32.4865 -0.0068 5.2294 -0.0016
# 3 56.3502 32.4865 122.4153 -0.0077 0.0441 -0.0009
# 4 0.0101 -0.0068 -0.0077 30.4668 -0.0018 4.6755
# 5 -3.3625 5.2294 0.0441 -0.0018 36.2940 0.0003
# 6 0.0004 -0.0016 -0.0009 4.6755 0.0003 28.0020
#
#
#
# Elastic Compliance Matrix: (Units=1/GPa)
#
#
# Indices 1 2 3 4 5 6 
#
# 1 0.011317 -0.001944 -0.004694 -0.000005 0.001334 0.000000
# 2 -0.001944 0.017977 -0.003875 0.000003 -0.002766 0.000000
# 3 -0.004694 -0.003875 0.011358 0.000004 0.000110 0.000000
# 4 -0.000005 0.000003 0.000004 0.033686 0.000001 -0.005625
# 5 0.001334 -0.002766 0.000110 0.000001 0.028075 -0.000001
# 6 0.000000 0.000000 0.000000 -0.005625 -0.000001 0.036651
#
#
# Mechanical properties :
#
#
# Convention : Reuss Voigt Hill
#
# Bulk Modulus (GPa) = 50.95378 58.98301 54.96839
# Shear Modulus (GPa) = 30.00666 31.73377 30.87021
#
# Velocity S-wave (km/s) = 3.80024 3.90808 3.85453
# Velocity P-wave (km/s) = 6.61658 6.98225 6.80187
#
# Compressibility (1/GPa) = 0.01962563
#
# Stress axis : x y z
#
# Youngs Moduli (GPa) = 88.36612 55.62755 88.04559
#
# Poissons Ratio (x) = 0.10816 0.41326
# Poissons Ratio (y) = 0.17181 0.34115
# Poissons Ratio (z) = 0.41477 0.21554
#
# Static dielectric constant tensor:
#      x y z
#    x 3.643950 0.000000 -0.228680 
#    y 0.000000 3.687720 -0.000010 
#    z -0.228680 -0.000010 4.110650 
# 
# 
# High freq. dielectric constant tensor:
#      x y z
#    x 1.799930 0.000000 -0.008440 
#    y 0.000000 1.811170 0.000000 
#    z -0.008440 0.000000 1.823790 
# 
# From -- ./inp_files/69651.got.cif
#   From: 2010.03.12/outbox.cif.g09.slc.cpg/sg5_35_cif.got.tgz:69651.got - 2010.03.31 09:47:26.
