data_PCOD8049103
_publ_section_title
;
Structure prediction by ZEFSAII (Michael W. Deem and Ramdas Pophale) SiO2 
 PCOD8049103
Probable space group: C 2
;
_chemical_formula_sum "Si O2"
_cell_formula_units_Z 24
_cell_length_a 21.757063
_cell_length_b 8.478034
_cell_length_c 13.638679
_cell_angle_alpha 90.000000
_cell_angle_beta 150.542634
_cell_angle_gamma 90.000000
_cell_volume 1237.185653
_symmetry_space_group_name_H-M "C 2"
_symmetry_group_IT_number 5
_symmetry_cell_setting 'monoclinic'
loop_
_space_group_symop_operation_xyz
x,y,z
-x,y,-z
1/2+x,1/2+y,z
1/2-x,1/2+y,-z
loop_
_atom_site_type_symbol
_atom_site_label
_atom_site_fract_x
_atom_site_fract_y
_atom_site_fract_z
Si Si1 0.839485 0.937090 0.703678
Si Si2 0.000000 0.218704 0.500000
Si Si3 0.581957 0.291058 0.995627
Si Si4 0.608372 0.777822 0.299883
Si Si5 0.753256 0.631294 0.918866
Si Si6 0.402584 0.816176 0.167023
Si Si7 0.000000 0.508289 0.000000
O O1 0.705776 0.857469 0.507954
O O2 0.938685 0.839769 0.773800
O O3 0.838284 0.117472 0.669939
O O4 0.870415 0.924893 0.862428
O O5 0.873071 0.109512 0.324383
O O6 0.989441 0.328147 0.386698
O O7 0.587048 0.118032 0.052952
O O8 0.665455 0.275999 0.014568
O O9 0.481070 0.750815 0.184249
O O10 0.592048 0.898126 0.188555
O O11 0.708923 0.691413 0.964868
O O12 0.840460 0.480733 0.050557
#
# Coordination Sequence:
#
# PCOD8049103 Si02
#       7
#     4   2   4   4   4   4   2
#     4  10  23  36  61  94 123 171 206 269 324 387
#     4   8  22  38  66  94 126 168 214 264 326 376
#     4  10  20  40  64  86 129 164 211 267 330 379
#     4  12  22  40  61  93 129 167 223 261 327 395
#     4  10  21  43  66  94 129 175 216 271 331 385
#     4  10  23  41  70  90 134 172 219 277 324 390
#     4  10  20  36  58  90 120 168 206 262 320 382
#
# _framework density 19.398866999999999
#
# number of rings (size 3 to 8) (size 9 to 14) (size 15 to 20)
#    1.000    1.000    1.667    4.000    2.333    0.000 
#    0.000    0.833    0.000    0.000    0.000    0.000 
#    0.000    0.000    0.000    0.000    0.000    0.000 
#
# Total GULP energy -148675.846250 kJ/mol
# GULP energy per Si atom -12389.653854 kJ/mol
# Density = 1.935471 g / cm^3
# Si number density = 19.398867 Si / 1000 Ang^3
#
#
#
# Elastic Constant Matrix: (Units=GPa)
#
#
# Indices 1 2 3 4 5 6 
#
# 1 72.8190 34.4651 13.2338 0.0000 12.5327 0.0000
# 2 34.4651 98.5795 25.0921 0.0000 -3.3043 0.0000
# 3 13.2338 25.0921 77.4568 0.0000 1.7693 0.0000
# 4 0.0000 0.0000 0.0000 44.7141 0.0000 15.4924
# 5 12.5327 -3.3043 1.7693 0.0000 22.9065 0.0000
# 6 0.0000 0.0000 0.0000 15.4924 0.0000 42.9850
#
#
#
# Elastic Compliance Matrix: (Units=1/GPa)
#
#
# Indices 1 2 3 4 5 6 
#
# 1 0.019072 -0.006850 -0.000780 0.000000 -0.011363 0.000000
# 2 -0.006850 0.013597 -0.003371 0.000000 0.005970 0.000000
# 3 -0.000780 -0.003371 0.014162 0.000000 -0.001153 0.000000
# 4 0.000000 0.000000 0.000000 0.025556 0.000000 -0.009211
# 5 -0.011363 0.005970 -0.001153 0.000000 0.050823 0.000000
# 6 0.000000 0.000000 0.000000 -0.009211 0.000000 0.026584
#
#
# Mechanical properties :
#
#
# Convention : Reuss Voigt Hill
#
# Bulk Modulus (GPa) = 40.27466 43.82636 42.05051
# Shear Modulus (GPa) = 27.76669 33.85874 30.81272
#
# Velocity S-wave (km/s) = 3.78743 4.18233 3.98977
# Velocity P-wave (km/s) = 6.31923 6.77966 6.55349
#
# Compressibility (1/GPa) = 0.02482951
#
# Stress axis : x y z
#
# Youngs Moduli (GPa) = 52.43209 73.54454 70.61165
#
# Poissons Ratio (x) = 0.50381 0.05506
# Poissons Ratio (y) = 0.35918 0.23802
# Poissons Ratio (z) = 0.04089 0.24790
#
# Static dielectric constant tensor:
#      x y z
#    x 3.069200 0.000000 -0.351040 
#    y 0.000000 3.331260 0.000000 
#    z -0.351040 0.000000 3.137530 
# 
# 
# High freq. dielectric constant tensor:
#      x y z
#    x 1.756090 0.000000 0.011320 
#    y 0.000000 1.739060 0.000000 
#    z 0.011320 0.000000 1.748060 
# 
# From -- ./inp_files/58033.got.cif
#   From: 2010.03.12/outbox.cif.g09.slc.cpg/sg5_30_cif.got.tgz:58033.got - 2010.03.31 09:47:26.
