data_PCOD8049848
_publ_section_title
;
Structure prediction by ZEFSAII (Michael W. Deem and Ramdas Pophale) SiO2 
 PCOD8049848
Probable space group: C 2
;
_chemical_formula_sum "Si O2"
_cell_formula_units_Z 32
_cell_length_a 14.877477
_cell_length_b 24.260873
_cell_length_c 8.848276
_cell_angle_alpha 90.000000
_cell_angle_beta 150.792917
_cell_angle_gamma 90.000000
_cell_volume 1558.422934
_symmetry_space_group_name_H-M "C 2"
_symmetry_group_IT_number 5
_symmetry_cell_setting 'monoclinic'
loop_
_space_group_symop_operation_xyz
x,y,z
-x,y,-z
1/2+x,1/2+y,z
1/2-x,1/2+y,-z
loop_
_atom_site_type_symbol
_atom_site_label
_atom_site_fract_x
_atom_site_fract_y
_atom_site_fract_z
Si Si1 0.322045 0.723620 0.840884
Si Si2 0.458426 0.944145 0.115159
Si Si3 0.702285 0.340866 0.721208
Si Si4 0.808471 0.636098 0.130622
Si Si5 0.465298 0.211194 0.124617
Si Si6 0.677626 0.517059 0.863567
Si Si7 0.322462 0.440751 0.847057
Si Si8 0.044156 0.830435 0.894674
O O1 0.295737 0.781813 0.890423
O O2 0.327728 0.675333 0.973637
O O3 0.161219 0.710388 0.490250
O O4 0.500000 0.725016 0.000000
O O5 0.643917 0.944951 0.482734
O O6 0.500000 0.951411 0.000000
O O7 0.340697 0.888864 0.974236
O O8 0.347933 0.996808 0.012948
O O9 0.500000 0.345793 0.500000
O O10 0.653826 0.345031 0.472416
O O11 0.000000 0.625779 0.500000
O O12 0.840393 0.663732 0.013581
O O13 0.700867 0.580295 0.941158
O O14 0.373827 0.270996 0.034655
O O15 0.500000 0.199378 0.000000
O O16 0.500000 0.506954 0.500000
O O17 0.665516 0.486120 0.005819
O O18 0.500000 0.445125 0.000000
O O19 0.315469 0.381191 0.922110
O O20 0.000000 0.820704 0.000000
#
# Coordination Sequence:
#
# PCOD8049848 Si02
#       8
#     4   4   4   4   4   4   4   4
#     4  10  21  37  61  91 124 161 202 249 306 366
#     4  12  24  40  64  95 126 164 206 253 310 371
#     4  11  21  37  62  92 127 166 204 247 301 365
#     4  10  22  42  61  83 117 161 208 255 306 365
#     4   9  19  36  61  87 119 159 198 244 305 363
#     4  12  26  44  63  87 120 162 211 262 310 366
#     4  11  23  41  64  92 125 161 202 255 312 368
#     4   9  17  33  57  87 120 154 189 237 295 354
#
# _framework density 20.533579
#
# number of rings (size 3 to 8) (size 9 to 14) (size 15 to 20)
#    0.000    1.500    0.000    7.500    0.000    5.000 
#    0.000    2.500    0.000    6.000    0.000    0.000 
#    0.000    0.000    0.000    0.000    0.000    0.000 
#
# Total GULP energy -198293.006333 kJ/mol
# GULP energy per Si atom -12393.312896 kJ/mol
# Density = 2.048684 g / cm^3
# Si number density = 20.533579 Si / 1000 Ang^3
#
#
#
# Elastic Constant Matrix: (Units=GPa)
#
#
# Indices 1 2 3 4 5 6 
#
# 1 139.6058 72.9858 53.6749 0.0000 2.7218 0.0000
# 2 72.9858 147.1091 62.5912 0.0000 -8.2891 0.0000
# 3 53.6749 62.5912 121.4479 -0.0001 -5.1517 0.0001
# 4 0.0000 0.0000 -0.0001 -150.9456 0.0000 147.8111
# 5 2.7218 -8.2891 -5.1517 0.0000 36.0572 0.0000
# 6 0.0000 0.0000 0.0001 147.8111 0.0000 -88.8085
#
#
#
# Elastic Compliance Matrix: (Units=1/GPa)
#
#
# Indices 1 2 3 4 5 6 
#
# 1 0.010359 -0.004191 -0.002508 0.000000 -0.002104 0.000000
# 2 -0.004191 0.010470 -0.003449 0.000000 0.002231 0.000000
# 3 -0.002508 -0.003449 0.011162 0.000000 0.000991 0.000000
# 4 0.000000 0.000000 0.000000 0.010519 0.000000 0.017507
# 5 -0.002104 0.002231 0.000991 0.000000 0.028547 0.000000
# 6 0.000000 0.000000 0.000000 0.017507 0.000000 0.017878
#
#
# Mechanical properties :
#
#
# Convention : Reuss Voigt Hill
#
# Bulk Modulus (GPa) = 85.50251 87.40741 86.45496
# Shear Modulus (GPa) = 44.19693 -26.14531 9.02581
#
# Velocity S-wave (km/s) = 4.64445 -3.57220 2.09885
# Velocity P-wave (km/s) = 8.39595 5.06422 6.93319
#
# Compressibility (1/GPa) = 0.01169556
#
# Stress axis : x y z
#
# Youngs Moduli (GPa) = 96.53148 95.50821 89.59070
#
# Poissons Ratio (x) = 0.40030 0.22465
# Poissons Ratio (y) = 0.40459 0.30901
# Poissons Ratio (z) = 0.24206 0.32942
#
# Static dielectric constant tensor:
#      x y z
#    x 24.172910 0.000000 10.705840 
#    y 0.000000 4.160630 0.000000 
#    z 10.705840 0.000000 9.587160 
# 
# 
# High freq. dielectric constant tensor:
#      x y z
#    x 1.811960 0.000000 -0.017620 
#    y 0.000000 1.810450 0.000000 
#    z -0.017620 0.000000 1.798960 
# 
# From -- ./inp_files/25644.got.cif
#   From: 2010.03.12/outbox.cif.g09.slc.cpg/sg5_13_cif.got.tgz:25644.got - 2010.03.31 09:47:26.
