data_PCOD8049414
_publ_section_title
;
Structure prediction by ZEFSAII (Michael W. Deem and Ramdas Pophale) SiO2 
 PCOD8049414
Probable space group: C 2
;
_chemical_formula_sum "Si O2"
_cell_formula_units_Z 28
_cell_length_a 5.053248
_cell_length_b 31.320640
_cell_length_c 9.013673
_cell_angle_alpha 90.000000
_cell_angle_beta 65.072703
_cell_angle_gamma 90.000000
_cell_volume 1293.705122
_symmetry_space_group_name_H-M "C 2"
_symmetry_group_IT_number 5
_symmetry_cell_setting 'monoclinic'
loop_
_space_group_symop_operation_xyz
x,y,z
-x,y,-z
1/2+x,1/2+y,z
1/2-x,1/2+y,-z
loop_
_atom_site_type_symbol
_atom_site_label
_atom_site_fract_x
_atom_site_fract_y
_atom_site_fract_z
Si Si1 0.385399 0.598850 0.692112
Si Si2 0.846934 0.909769 0.687989
Si Si3 0.630339 0.694419 0.305261
Si Si4 0.874889 0.744223 0.693602
Si Si5 0.824316 0.826237 0.888886
Si Si6 0.235511 0.554778 0.173412
Si Si7 0.154767 0.464580 0.311854
O O1 0.500000 0.601041 0.500000
O O2 0.372138 0.646748 0.761661
O O3 0.649001 0.572008 0.698702
O O4 0.070828 0.577059 0.795371
O O5 0.830816 0.871288 0.805483
O O6 0.524099 0.926876 0.727156
O O7 0.000000 0.894311 0.500000
O O8 0.024741 0.947795 0.723814
O O9 0.500000 0.694650 0.500000
O O10 0.457330 0.727284 0.238414
O O11 0.962038 0.710077 0.240232
O O12 0.936168 0.790259 0.750374
O O13 0.000000 0.746595 0.500000
O O14 0.500000 0.812415 0.000000
O O15 0.000000 0.828776 0.000000
O O16 0.179711 0.504172 0.194684
O O17 0.500000 0.565615 0.000000
O O18 0.000000 0.479571 0.500000
#
# Coordination Sequence:
#
# PCOD8049414 Si02
#       7
#     4   4   4   4   4   4   4
#     4  11  22  41  66  90 121 164 213 258 303 361
#     4  10  22  41  64  88 115 154 204 251 296 352
#     4   9  19  36  63  91 113 151 208 258 295 344
#     4  10  20  39  63  87 117 155 201 249 297 352
#     4  12  25  40  59  89 125 157 193 238 301 367
#     4  12  25  40  60  93 131 164 201 251 314 370
#     4  10  21  39  64  90 116 155 207 253 297 356
#
# _framework density 21.643263000000001
#
# number of rings (size 3 to 8) (size 9 to 14) (size 15 to 20)
#    0.000    1.429    0.000    5.571    0.000    5.143 
#    0.000   12.857    0.000    0.000    0.000    0.000 
#    0.000    0.000    0.000    0.000    0.000    0.000 
#
# Total GULP energy -173587.444299 kJ/mol
# GULP energy per Si atom -12399.103164 kJ/mol
# Density = 2.159400 g / cm^3
# Si number density = 21.643263 Si / 1000 Ang^3
#
#
#
# Elastic Constant Matrix: (Units=GPa)
#
#
# Indices 1 2 3 4 5 6 
#
# 1 123.0902 26.1223 18.2955 0.0000 14.4255 0.0000
# 2 26.1223 111.1920 29.4088 0.0000 14.5314 0.0000
# 3 18.2955 29.4088 45.1444 0.0000 5.2796 0.0000
# 4 0.0000 0.0000 0.0000 7.2403 0.0000 -0.8719
# 5 14.4255 14.5314 5.2796 0.0000 31.6828 0.0000
# 6 0.0000 0.0000 0.0000 -0.8719 0.0000 30.3277
#
#
#
# Elastic Compliance Matrix: (Units=1/GPa)
#
#
# Indices 1 2 3 4 5 6 
#
# 1 0.009114 -0.001016 -0.002653 0.000000 -0.003242 0.000000
# 2 -0.001016 0.011467 -0.006627 0.000000 -0.003693 0.000000
# 3 -0.002653 -0.006627 0.027584 0.000000 -0.000349 0.000000
# 4 0.000000 0.000000 0.000000 0.138596 0.000000 0.003984
# 5 -0.003242 -0.003693 -0.000349 0.000000 0.034791 0.000000
# 6 0.000000 0.000000 0.000000 0.003984 0.000000 0.033088
#
#
# Mechanical properties :
#
#
# Convention : Reuss Voigt Hill
#
# Bulk Modulus (GPa) = 36.26513 47.45329 41.85921
# Shear Modulus (GPa) = 17.57955 27.55682 22.56819
#
# Velocity S-wave (km/s) = 2.85308 3.57210 3.23264
# Velocity P-wave (km/s) = 5.25791 6.24388 5.77199
#
# Compressibility (1/GPa) = 0.02757469
#
# Stress axis : x y z
#
# Youngs Moduli (GPa) = 109.72251 87.20377 36.25297
#
# Poissons Ratio (x) = 0.08859 0.09617
# Poissons Ratio (y) = 0.11147 0.24024
# Poissons Ratio (z) = 0.29106 0.57788
#
# Static dielectric constant tensor:
#      x y z
#    x 4.211040 0.000000 0.044410 
#    y 0.000000 3.892330 0.000000 
#    z 0.044410 0.000000 3.759450 
# 
# 
# High freq. dielectric constant tensor:
#      x y z
#    x 1.867740 0.000000 0.004100 
#    y 0.000000 1.857190 0.000000 
#    z 0.004100 0.000000 1.835320 
# 
# From -- ./inp_files/13290.got.cif
#   From: 2010.03.12/outbox.cif.g09.slc.cpg/sg5_7_cif.got.tgz:13290.got - 2010.03.31 09:47:26.
