data_PCOD8049211
_publ_section_title
;
Structure prediction by ZEFSAII (Michael W. Deem and Ramdas Pophale) SiO2 
 PCOD8049211
Probable space group: C 2
;
_chemical_formula_sum "Si O2"
_cell_formula_units_Z 24
_cell_length_a 8.471473
_cell_length_b 18.416159
_cell_length_c 14.346008
_cell_angle_alpha 90.000000
_cell_angle_beta 148.088726
_cell_angle_gamma 90.000000
_cell_volume 1183.097756
_symmetry_space_group_name_H-M "C 2"
_symmetry_group_IT_number 5
_symmetry_cell_setting 'monoclinic'
loop_
_space_group_symop_operation_xyz
x,y,z
-x,y,-z
1/2+x,1/2+y,z
1/2-x,1/2+y,-z
loop_
_atom_site_type_symbol
_atom_site_label
_atom_site_fract_x
_atom_site_fract_y
_atom_site_fract_z
Si Si1 0.844167 0.045710 0.821875
Si Si2 0.833878 0.185362 0.689574
Si Si3 0.797230 0.432111 0.986344
Si Si4 0.660242 0.279968 0.984915
Si Si5 0.298722 0.663395 0.310960
Si Si6 0.665609 0.008879 0.316034
O O1 0.828537 0.119274 0.757803
O O2 0.502860 0.020361 0.669668
O O3 0.012517 0.985391 0.844604
O O4 0.000000 0.057995 0.000000
O O5 0.500000 0.212320 0.500000
O O6 0.009299 0.250931 0.826677
O O7 0.998436 0.160850 0.678458
O O8 0.684855 0.349351 0.930188
O O9 0.000000 0.449670 0.000000
O O10 0.997805 0.445055 0.177955
O O11 0.500000 0.303489 0.000000
O O12 0.472375 0.219348 0.835787
O O13 0.500000 0.686034 0.500000
O O14 0.156310 0.583932 0.252952
O O15 0.000000 0.982271 0.500000
#
# Coordination Sequence:
#
# PCOD8049211 Si02
#       6
#     4   4   4   4   4   4
#     4  10  21  38  60  85 117 153 194 239 287 343
#     4  11  22  36  60  90 118 151 193 238 288 345
#     4  11  23  38  58  83 114 154 195 236 290 347
#     4  10  22  40  58  80 117 157 192 235 288 347
#     4  10  21  39  62  87 116 151 194 241 289 342
#     4  10  20  37  61  85 114 148 189 241 288 338
#
# _framework density 20.285727999999999
#
# number of rings (size 3 to 8) (size 9 to 14) (size 15 to 20)
#    0.000    1.667    0.000    6.500    0.000    5.333 
#    0.000    4.167    0.000    0.000    0.000    0.000 
#    0.000    0.000    0.000    0.000    0.000    0.000 
#
# Total GULP energy -148834.575588 kJ/mol
# GULP energy per Si atom -12402.881299 kJ/mol
# Density = 2.023956 g / cm^3
# Si number density = 20.285728 Si / 1000 Ang^3
#
#
#
# Elastic Constant Matrix: (Units=GPa)
#
#
# Indices 1 2 3 4 5 6 
#
# 1 113.3120 18.2557 22.5557 -0.0971 19.3843 0.0071
# 2 18.2557 66.3451 26.6690 -0.2805 10.6335 0.0222
# 3 22.5557 26.6690 95.0703 -0.2578 22.4491 0.0252
# 4 -0.0971 -0.2805 -0.2578 -26.8456 -0.2192 4.1347
# 5 19.3843 10.6335 22.4491 -0.2192 39.7244 0.0286
# 6 0.0071 0.0222 0.0252 4.1347 0.0286 32.8390
#
#
#
# Elastic Compliance Matrix: (Units=1/GPa)
#
#
# Indices 1 2 3 4 5 6 
#
# 1 0.009955 -0.001734 -0.000967 0.000023 -0.003847 0.000000
# 2 -0.001734 0.017449 -0.004132 -0.000123 -0.001490 0.000009
# 3 -0.000967 -0.004132 0.013311 -0.000032 -0.005944 0.000002
# 4 0.000023 -0.000123 -0.000032 -0.036539 -0.000165 0.004601
# 5 -0.003847 -0.001490 -0.005944 -0.000165 0.030808 0.000000
# 6 0.000000 0.000009 0.000002 0.004601 0.000000 0.029872
#
#
# Mechanical properties :
#
#
# Convention : Reuss Voigt Hill
#
# Bulk Modulus (GPa) = 36.96951 45.52093 41.24522
# Shear Modulus (GPa) = 57.11784 22.96005 40.03895
#
# Velocity S-wave (km/s) = 5.31204 3.36792 4.44751
# Velocity P-wave (km/s) = 7.47581 6.13290 6.83740
#
# Compressibility (1/GPa) = 0.02704932
#
# Stress axis : x y z
#
# Youngs Moduli (GPa) = 100.45028 57.30976 75.12818
#
# Poissons Ratio (x) = 0.09937 0.07265
# Poissons Ratio (y) = 0.17417 0.31042
# Poissons Ratio (z) = 0.09714 0.23679
#
# Static dielectric constant tensor:
#      x y z
#    x 6.569340 0.002370 -0.417780 
#    y 0.002370 3.447580 -0.000670 
#    z -0.417780 -0.000670 3.947440 
# 
# 
# High freq. dielectric constant tensor:
#      x y z
#    x 1.808750 0.000000 0.015890 
#    y 0.000000 1.782150 -0.000010 
#    z 0.015890 -0.000010 1.790990 
# 
# From -- ./inp_files/16428.got.cif
#   From: 2010.03.12/outbox.cif.g09.slc.cpg/sg5_9_cif.got.tgz:16428.got - 2010.03.31 09:47:26.
