data_PCOD8049093
_publ_section_title
;
Structure prediction by ZEFSAII (Michael W. Deem and Ramdas Pophale) SiO2 
 PCOD8049093
Probable space group: C 2
;
_chemical_formula_sum "Si O2"
_cell_formula_units_Z 22
_cell_length_a 9.010499
_cell_length_b 11.848514
_cell_length_c 12.069027
_cell_angle_alpha 90.000000
_cell_angle_beta 122.479558
_cell_angle_gamma 90.000000
_cell_volume 1086.958225
_symmetry_space_group_name_H-M "C 2"
_symmetry_group_IT_number 5
_symmetry_cell_setting 'monoclinic'
loop_
_space_group_symop_operation_xyz
x,y,z
-x,y,-z
1/2+x,1/2+y,z
1/2-x,1/2+y,-z
loop_
_atom_site_type_symbol
_atom_site_label
_atom_site_fract_x
_atom_site_fract_y
_atom_site_fract_z
Si Si1 0.220722 0.366280 0.544177
Si Si2 0.916751 0.090998 0.849272
Si Si3 0.435772 0.854572 0.853948
Si Si4 0.929631 0.977782 0.303366
Si Si5 0.500000 0.663933 0.500000
Si Si6 0.589075 0.954319 0.704986
O O1 0.419683 0.392384 0.589005
O O2 0.145650 0.240038 0.490700
O O3 0.203409 0.373542 0.670692
O O4 0.103135 0.461665 0.431766
O O5 0.937080 0.222156 0.835270
O O6 0.705065 0.068293 0.761457
O O7 0.022596 0.019839 0.800127
O O8 0.000000 0.055418 0.000000
O O9 0.244165 0.904870 0.760430
O O10 0.572429 0.904633 0.820823
O O11 0.500000 0.890512 0.000000
O O12 0.904545 0.086443 0.371077
#
# Coordination Sequence:
#
# PCOD8049093 Si02
#       6
#     4   4   4   4   2   4
#     4   9  20  37  58  83 111 142 178 226 274 324
#     4  10  21  38  58  79 110 149 182 220 270 321
#     4  11  23  37  55  82 112 143 185 228 264 318
#     4  11  22  36  58  84 108 144 185 220 273 328
#     4  10  20  36  58  82 114 140 174 230 276 318
#     4   9  18  37  57  78 111 143 176 223 272 317
#
# _framework density 20.239968000000001
#
# number of rings (size 3 to 8) (size 9 to 14) (size 15 to 20)
#    0.000    2.182    0.000    4.364    0.000    2.909 
#    0.000    5.455    0.000   10.909    0.000    0.000 
#    0.000    0.000    0.000    0.000    0.000    0.000 
#
# Total GULP energy -136286.862626 kJ/mol
# GULP energy per Si atom -12389.714784 kJ/mol
# Density = 2.019390 g / cm^3
# Si number density = 20.239968 Si / 1000 Ang^3
#
#
#
# Elastic Constant Matrix: (Units=GPa)
#
#
# Indices 1 2 3 4 5 6 
#
# 1 59.9072 8.1016 15.5275 0.0000 5.7579 0.0000
# 2 8.1016 20.9210 -0.8267 0.0000 2.4253 0.0000
# 3 15.5275 -0.8267 79.1974 0.0000 -7.5005 0.0000
# 4 0.0000 0.0000 0.0000 27.6052 0.0000 9.1194
# 5 5.7579 2.4253 -7.5005 0.0000 40.2975 0.0000
# 6 0.0000 0.0000 0.0000 9.1194 0.0000 26.8124
#
#
#
# Elastic Compliance Matrix: (Units=1/GPa)
#
#
# Indices 1 2 3 4 5 6 
#
# 1 0.019016 -0.007172 -0.004092 0.000000 -0.003047 0.000000
# 2 -0.007172 0.050844 0.001775 0.000000 -0.001705 0.000000
# 3 -0.004092 0.001775 0.013735 0.000000 0.003034 0.000000
# 4 0.000000 0.000000 0.000000 0.040810 0.000000 -0.013880
# 5 -0.003047 -0.001705 0.003034 0.000000 0.025918 0.000000
# 6 0.000000 0.000000 0.000000 -0.013880 0.000000 0.042017
#
#
# Mechanical properties :
#
#
# Convention : Reuss Voigt Hill
#
# Bulk Modulus (GPa) = 15.47562 22.84782 19.16172
# Shear Modulus (GPa) = 21.47244 28.09123 24.78184
#
# Velocity S-wave (km/s) = 3.26067 3.72951 3.50294
# Velocity P-wave (km/s) = 4.67318 5.46430 5.08415
#
# Compressibility (1/GPa) = 0.06461777
#
# Stress axis : x y z
#
# Youngs Moduli (GPa) = 52.58775 19.66796 72.80775
#
# Poissons Ratio (x) = 0.14106 0.29791
# Poissons Ratio (y) = 0.37717 -0.12927
# Poissons Ratio (z) = 0.21517 -0.03492
#
# Static dielectric constant tensor:
#      x y z
#    x 3.755740 0.000000 -0.106840 
#    y 0.000000 3.578130 0.000000 
#    z -0.106840 0.000000 3.995990 
# 
# 
# High freq. dielectric constant tensor:
#      x y z
#    x 1.790890 0.000000 -0.012210 
#    y 0.000000 1.773020 0.000000 
#    z -0.012210 0.000000 1.801920 
# 
# From -- ./inp_files/35163.got.cif
#   From: 2010.03.12/outbox.cif.g09.slc.cpg/sg5_18_cif.got.tgz:35163.got - 2010.03.31 09:47:26.
