data_PCOD8049045
_publ_section_title
;
Structure prediction by ZEFSAII (Michael W. Deem and Ramdas Pophale) SiO2 
 PCOD8049045
Probable space group: C 2
;
_chemical_formula_sum "Si O2"
_cell_formula_units_Z 30
_cell_length_a 13.425322
_cell_length_b 14.122370
_cell_length_c 9.369656
_cell_angle_alpha 90.000000
_cell_angle_beta 58.610926
_cell_angle_gamma 90.000000
_cell_volume 1516.477100
_symmetry_space_group_name_H-M "C 2"
_symmetry_group_IT_number 5
_symmetry_cell_setting 'monoclinic'
loop_
_space_group_symop_operation_xyz
x,y,z
-x,y,-z
1/2+x,1/2+y,z
1/2-x,1/2+y,-z
loop_
_atom_site_type_symbol
_atom_site_label
_atom_site_fract_x
_atom_site_fract_y
_atom_site_fract_z
Si Si1 0.916242 0.373110 0.273624
Si Si2 0.158580 0.986606 0.219508
Si Si3 0.500000 0.264710 0.000000
Si Si4 0.338235 0.840889 0.018241
Si Si5 0.952995 0.946139 0.183378
Si Si6 0.742656 0.192738 0.892191
Si Si7 0.221438 0.011864 0.478549
Si Si8 0.624454 0.708921 0.471064
O O1 0.855942 0.473821 0.362547
O O2 0.892784 0.293936 0.408381
O O3 0.054783 0.386182 0.151483
O O4 0.866783 0.331562 0.163109
O O5 0.224185 0.084107 0.141148
O O6 0.155206 0.965262 0.391347
O O7 0.028844 0.986861 0.256881
O O8 0.228301 0.908966 0.076137
O O9 0.544122 0.332353 0.837124
O O10 0.602650 0.199756 0.985992
O O11 0.297564 0.737937 0.993825
O O12 0.824186 0.975431 0.332812
O O13 0.000000 0.994109 0.000000
O O14 0.799954 0.249068 0.716716
O O15 0.201402 0.124964 0.486626
O O16 0.500000 0.670973 0.500000
#
# Coordination Sequence:
#
# PCOD8049045 Si02
#       8
#     4   4   2   4   4   4   4   4
#     4  10  22  36  61  85 117 159 185 247 291 342
#     4  10  21  36  61  83 114 158 191 241 288 343
#     4  10  22  36  60  84 114 152 190 242 292 336
#     4  10  20  40  57  87 119 150 200 236 295 345
#     4  10  20  35  57  85 113 149 192 237 288 333
#     4  11  21  38  59  85 118 150 199 242 285 350
#     4  10  21  37  55  87 116 147 197 237 283 348
#     4  11  21  37  61  88 112 157 199 238 285 344
#
# _framework density 19.782692000000001
#
# number of rings (size 3 to 8) (size 9 to 14) (size 15 to 20)
#    0.400    1.333    2.667    2.800    0.000    4.267 
#    0.000    0.000    0.000    0.000    0.000    0.000 
#    0.000    0.000    0.000    0.000    0.000    0.000 
#
# Total GULP energy -185864.837905 kJ/mol
# GULP energy per Si atom -12390.989194 kJ/mol
# Density = 1.973767 g / cm^3
# Si number density = 19.782692 Si / 1000 Ang^3
#
#
#
# Elastic Constant Matrix: (Units=GPa)
#
#
# Indices 1 2 3 4 5 6 
#
# 1 55.4643 6.0897 3.7589 0.0000 -8.8164 0.0000
# 2 6.0897 64.8042 12.5453 0.0000 6.3334 0.0000
# 3 3.7589 12.5453 88.1547 0.0000 4.3486 0.0000
# 4 0.0000 0.0000 0.0000 26.5990 0.0000 -0.9408
# 5 -8.8164 6.3334 4.3486 0.0000 20.2148 0.0000
# 6 0.0000 0.0000 0.0000 -0.9408 0.0000 21.4614
#
#
#
# Elastic Compliance Matrix: (Units=1/GPa)
#
#
# Indices 1 2 3 4 5 6 
#
# 1 0.019930 -0.002638 -0.000954 0.000000 0.009724 0.000000
# 2 -0.002638 0.016640 -0.001962 0.000000 -0.005942 0.000000
# 3 -0.000954 -0.001962 0.011779 0.000000 -0.002335 0.000000
# 4 0.000000 0.000000 0.000000 0.037654 0.000000 0.001651
# 5 0.009724 -0.005942 -0.002335 0.000000 0.056074 0.000000
# 6 0.000000 0.000000 0.000000 0.001651 0.000000 0.046668
#
#
# Mechanical properties :
#
#
# Convention : Reuss Voigt Hill
#
# Bulk Modulus (GPa) = 26.85395 28.13454 27.49425
# Shear Modulus (GPa) = 23.55541 26.05700 24.80620
#
# Velocity S-wave (km/s) = 3.45441 3.63321 3.54494
# Velocity P-wave (km/s) = 5.43273 5.64384 5.53929
#
# Compressibility (1/GPa) = 0.03723847
#
# Stress axis : x y z
#
# Youngs Moduli (GPa) = 50.17656 60.09747 84.89807
#
# Poissons Ratio (x) = 0.15856 0.08099
# Poissons Ratio (y) = 0.13239 0.16660
# Poissons Ratio (z) = 0.04787 0.11793
#
# Static dielectric constant tensor:
#      x y z
#    x 3.543670 0.000000 -0.115350 
#    y 0.000000 3.315260 0.000000 
#    z -0.115350 0.000000 3.878780 
# 
# 
# High freq. dielectric constant tensor:
#      x y z
#    x 1.760680 0.000000 -0.007750 
#    y 0.000000 1.749990 0.000000 
#    z -0.007750 0.000000 1.782880 
# 
# From -- ./inp_files/24599.got.cif
#   From: 2010.03.12/outbox.cif.g09.slc.cpg/sg5_13_cif.got.tgz:24599.got - 2010.03.31 09:47:26.
