data_PCOD8049106
_publ_section_title
;
Structure prediction by ZEFSAII (Michael W. Deem and Ramdas Pophale) SiO2 
 PCOD8049106
Probable space group: C 2
;
_chemical_formula_sum "Si O2"
_cell_formula_units_Z 24
_cell_length_a 9.127159
_cell_length_b 13.483968
_cell_length_c 9.787534
_cell_angle_alpha 90.000000
_cell_angle_beta 86.803557
_cell_angle_gamma 90.000000
_cell_volume 1202.680927
_symmetry_space_group_name_H-M "C 2"
_symmetry_group_IT_number 5
_symmetry_cell_setting 'monoclinic'
loop_
_space_group_symop_operation_xyz
x,y,z
-x,y,-z
1/2+x,1/2+y,z
1/2-x,1/2+y,-z
loop_
_atom_site_type_symbol
_atom_site_label
_atom_site_fract_x
_atom_site_fract_y
_atom_site_fract_z
Si Si1 0.188711 0.312880 0.726973
Si Si2 0.666401 0.401318 0.035854
Si Si3 0.112366 0.106664 0.616653
Si Si4 0.169410 0.435011 0.472603
Si Si5 0.144071 0.316765 0.208055
Si Si6 0.589314 0.605952 0.128652
O O1 0.303264 0.322782 0.844945
O O2 0.196530 0.205923 0.656777
O O3 0.231367 0.393506 0.611227
O O4 0.029333 0.332738 0.800527
O O5 0.695415 0.514241 0.085412
O O6 0.500000 0.386643 0.000000
O O7 0.772867 0.385322 0.903272
O O8 0.000000 0.130723 0.500000
O O9 0.023081 0.065147 0.751002
O O10 0.236830 0.030630 0.567731
O O11 0.189621 0.349303 0.357880
O O12 0.000000 0.465780 0.500000
O O13 0.181262 0.199879 0.182179
O O14 0.500000 0.642073 0.000000
#
# Coordination Sequence:
#
# PCOD8049106 Si02
#       6
#     4   4   4   4   4   4
#     4  10  21  39  61  83 113 157 194 228 284 351
#     4  11  22  37  58  88 117 146 193 247 285 325
#     4  11  21  39  63  85 113 155 195 230 281 353
#     4  10  21  37  59  89 118 145 189 243 287 329
#     4  10  20  38  60  82 116 156 192 229 281 352
#     4  10  20  36  59  83 110 153 195 227 276 344
#
# _framework density 19.955418999999999
#
# number of rings (size 3 to 8) (size 9 to 14) (size 15 to 20)
#    0.000    1.667    0.000    8.000    0.000    0.000 
#    0.000   12.500    0.000    1.000    0.000    0.000 
#    0.000    0.000    0.000    0.000    0.000    0.000 
#
# Total GULP energy -148805.666437 kJ/mol
# GULP energy per Si atom -12400.472203 kJ/mol
# Density = 1.991000 g / cm^3
# Si number density = 19.955419 Si / 1000 Ang^3
#
#
#
# Elastic Constant Matrix: (Units=GPa)
#
#
# Indices 1 2 3 4 5 6 
#
# 1 68.2345 67.3258 55.6783 0.0000 -5.4213 0.0000
# 2 67.3258 128.8655 49.3732 0.0000 -17.6784 0.0000
# 3 55.6783 49.3732 128.6633 0.0000 -9.0023 0.0000
# 4 0.0000 0.0000 0.0000 42.1375 0.0000 -6.9029
# 5 -5.4213 -17.6784 -9.0023 0.0000 43.5534 0.0000
# 6 0.0000 0.0000 0.0000 -6.9029 0.0000 26.2253
#
#
#
# Elastic Compliance Matrix: (Units=1/GPa)
#
#
# Indices 1 2 3 4 5 6 
#
# 1 0.040904 -0.017673 -0.011227 0.000000 -0.004402 0.000000
# 2 -0.017673 0.017141 0.001424 0.000000 0.005052 0.000000
# 3 -0.011227 0.001424 0.012204 0.000000 0.001703 0.000000
# 4 0.000000 0.000000 0.000000 0.024801 0.000000 0.006528
# 5 -0.004402 0.005052 0.001703 0.000000 0.024815 0.000000
# 6 0.000000 0.000000 0.000000 0.006528 0.000000 0.039849
#
#
# Mechanical properties :
#
#
# Convention : Reuss Voigt Hill
#
# Bulk Modulus (GPa) = 65.37774 74.50199 69.93986
# Shear Modulus (GPa) = 22.75144 32.60895 27.68020
#
# Velocity S-wave (km/s) = 3.38022 4.04677 3.72842
# Velocity P-wave (km/s) = 6.93308 7.69743 7.32523
#
# Compressibility (1/GPa) = 0.01529573
#
# Stress axis : x y z
#
# Youngs Moduli (GPa) = 24.44719 58.34041 81.94272
#
# Poissons Ratio (x) = 1.03104 0.92001
# Poissons Ratio (y) = 0.43205 -0.11666
# Poissons Ratio (z) = 0.27448 -0.08306
#
# Static dielectric constant tensor:
#      x y z
#    x 3.386090 0.000000 -0.053800 
#    y 0.000000 3.620750 0.000000 
#    z -0.053800 0.000000 4.038970 
# 
# 
# High freq. dielectric constant tensor:
#      x y z
#    x 1.746790 0.000000 -0.006850 
#    y 0.000000 1.779610 0.000000 
#    z -0.006850 0.000000 1.809390 
# 
# From -- ./inp_files/14948.got.cif
#   From: 2010.03.12/outbox.cif.g09.slc.cpg/sg5_8_cif.got.tgz:14948.got - 2010.03.31 09:47:26.
