data_PCOD8049493
_publ_section_title
;
Structure prediction by ZEFSAII (Michael W. Deem and Ramdas Pophale) SiO2 
 PCOD8049493
Probable space group: C 2
;
_chemical_formula_sum "Si O2"
_cell_formula_units_Z 26
_cell_length_a 8.442877
_cell_length_b 10.174546
_cell_length_c 17.896591
_cell_angle_alpha 90.000000
_cell_angle_beta 131.306663
_cell_angle_gamma 90.000000
_cell_volume 1154.846057
_symmetry_space_group_name_H-M "C 2"
_symmetry_group_IT_number 5
_symmetry_cell_setting 'monoclinic'
loop_
_space_group_symop_operation_xyz
x,y,z
-x,y,-z
1/2+x,1/2+y,z
1/2-x,1/2+y,-z
loop_
_atom_site_type_symbol
_atom_site_label
_atom_site_fract_x
_atom_site_fract_y
_atom_site_fract_z
Si Si1 0.107582 0.805290 0.624231
Si Si2 0.588231 0.561334 0.103411
Si Si3 0.500000 0.529467 0.500000
Si Si4 0.672472 0.732169 0.439434
Si Si5 0.239585 0.321074 0.759015
Si Si6 0.220658 0.600267 0.104717
Si Si7 0.821898 0.816595 0.184281
O O1 0.220485 0.692180 0.607942
O O2 0.201393 0.798372 0.734605
O O3 0.852348 0.805177 0.544526
O O4 0.170379 0.939672 0.598684
O O5 0.747168 0.456649 0.190324
O O6 0.403380 0.608525 0.100441
O O7 0.711388 0.690557 0.113522
O O8 0.500000 0.494614 0.000000
O O9 0.616551 0.608130 0.471678
O O10 0.464712 0.819970 0.358264
O O11 0.227728 0.195887 0.810264
O O12 0.438259 0.315464 0.766462
O O13 0.201650 0.449983 0.126266
O O14 0.000000 0.644338 0.000000
#
# Coordination Sequence:
#
# PCOD8049493 Si02
#       7
#     4   4   2   4   4   4   4
#     4  10  24  40  60  93 125 162 211 261 311 373
#     4  11  25  43  65  96 130 168 214 264 319 379
#     4  10  20  40  62  84 124 164 204 256 312 368
#     4  10  21  39  62  88 122 163 204 254 311 369
#     4  11  24  41  66  97 128 168 215 262 317 380
#     4  11  24  42  65  93 127 167 213 264 319 378
#     4  11  24  42  65  95 129 169 213 261 319 378
#
# _framework density 22.513822999999999
#
# number of rings (size 3 to 8) (size 9 to 14) (size 15 to 20)
#    0.000    1.538    0.000    4.615    0.000   13.538 
#    0.000   12.308    0.000    0.000    0.000    0.000 
#    0.000    0.000    0.000    0.000    0.000    0.000 
#
# Total GULP energy -161111.347080 kJ/mol
# GULP energy per Si atom -12393.180545 kJ/mol
# Density = 2.246258 g / cm^3
# Si number density = 22.513823 Si / 1000 Ang^3
#
#
#
# Elastic Constant Matrix: (Units=GPa)
#
#
# Indices 1 2 3 4 5 6 
#
# 1 94.2651 33.3881 23.5263 0.0000 -9.8312 0.0000
# 2 33.3881 107.5913 13.8046 0.0000 1.0130 0.0000
# 3 23.5263 13.8046 84.9258 0.0000 3.4033 0.0000
# 4 0.0000 0.0000 0.0000 33.7250 0.0000 -12.6227
# 5 -9.8312 1.0130 3.4033 0.0000 47.0696 0.0000
# 6 0.0000 0.0000 0.0000 -12.6227 0.0000 32.4270
#
#
#
# Elastic Compliance Matrix: (Units=1/GPa)
#
#
# Indices 1 2 3 4 5 6 
#
# 1 0.013001 -0.003662 -0.003127 0.000000 0.003020 0.000000
# 2 -0.003662 0.010524 -0.000659 0.000000 -0.000944 0.000000
# 3 -0.003127 -0.000659 0.012811 0.000000 -0.001565 0.000000
# 4 0.000000 0.000000 0.000000 0.034708 0.000000 0.013511
# 5 0.003020 -0.000944 -0.001565 0.000000 0.022009 0.000000
# 6 0.000000 0.000000 0.000000 0.013511 0.000000 0.036098
#
#
# Mechanical properties :
#
#
# Convention : Reuss Voigt Hill
#
# Bulk Modulus (GPa) = 46.63959 47.58003 47.10981
# Shear Modulus (GPa) = 33.07017 37.04854 35.05936
#
# Velocity S-wave (km/s) = 3.83676 4.06099 3.95047
# Velocity P-wave (km/s) = 6.35520 6.57027 6.46363
#
# Compressibility (1/GPa) = 0.02144101
#
# Stress axis : x y z
#
# Youngs Moduli (GPa) = 76.91823 95.02004 78.05733
#
# Poissons Ratio (x) = 0.34793 0.24411
# Poissons Ratio (y) = 0.28165 0.05140
# Poissons Ratio (z) = 0.24055 0.06257
#
# Static dielectric constant tensor:
#      x y z
#    x 4.287830 0.000000 0.007120 
#    y 0.000000 4.128210 0.000000 
#    z 0.007120 0.000000 4.050550 
# 
# 
# High freq. dielectric constant tensor:
#      x y z
#    x 1.900410 0.000000 -0.005520 
#    y 0.000000 1.876460 0.000000 
#    z -0.005520 0.000000 1.894630 
# 
# From -- ./inp_files/64411.got.cif
#   From: 2010.03.12/outbox.cif.g09.slc.cpg/sg5_33_cif.got.tgz:64411.got - 2010.03.31 09:47:26.
