data_PCOD8049395
_publ_section_title
;
Structure prediction by ZEFSAII (Michael W. Deem and Ramdas Pophale) SiO2 
 PCOD8049395
Probable space group: C 2
;
_chemical_formula_sum "Si O2"
_cell_formula_units_Z 28
_cell_length_a 16.340803
_cell_length_b 9.673255
_cell_length_c 9.291591
_cell_angle_alpha 90.000000
_cell_angle_beta 56.912889
_cell_angle_gamma 90.000000
_cell_volume 1230.546434
_symmetry_space_group_name_H-M "C 2"
_symmetry_group_IT_number 5
_symmetry_cell_setting 'monoclinic'
loop_
_space_group_symop_operation_xyz
x,y,z
-x,y,-z
1/2+x,1/2+y,z
1/2-x,1/2+y,-z
loop_
_atom_site_type_symbol
_atom_site_label
_atom_site_fract_x
_atom_site_fract_y
_atom_site_fract_z
Si Si1 0.000000 0.868940 0.000000
Si Si2 0.966418 0.359176 0.188804
Si Si3 0.632072 0.136391 0.788574
Si Si4 0.371192 0.439025 0.872333
Si Si5 0.000000 0.008273 0.500000
Si Si6 0.344303 0.712569 0.521120
Si Si7 0.297526 0.140288 0.967747
Si Si8 0.592855 0.932893 0.320232
O O1 0.930320 0.775983 0.168923
O O2 0.066207 0.960670 0.042225
O O3 0.929802 0.516489 0.224731
O O4 0.875913 0.267404 0.333355
O O5 0.056065 0.348089 0.215271
O O6 0.000000 0.305963 0.000000
O O7 0.736469 0.149583 0.610482
O O8 0.641830 0.100127 0.948299
O O9 0.442772 0.413352 0.669040
O O10 0.297713 0.307057 0.950915
O O11 0.311849 0.581470 0.907256
O O12 0.077229 0.099182 0.511664
O O13 0.340344 0.832471 0.646640
O O14 0.345001 0.066934 0.783643
O O15 0.500000 0.984797 0.500000
#
# Coordination Sequence:
#
# PCOD8049395 Si02
#       8
#     2   4   4   4   2   4   4   4
#     4  10  22  46  70 102 142 184 230 298 356 408
#     4  11  20  40  70 101 128 187 236 287 339 419
#     4  11  21  42  71 101 143 184 228 297 354 414
#     4  11  26  44  77  96 148 182 238 292 355 422
#     4  12  24  48  66 104 142 190 228 300 356 414
#     4  11  24  43  71  98 152 186 232 293 364 413
#     4  11  22  43  72 106 137 193 239 283 357 433
#     4  10  20  38  69 100 138 184 234 286 349 418
#
# _framework density 22.754118999999999
#
# number of rings (size 3 to 8) (size 9 to 14) (size 15 to 20)
#    0.000    1.143    5.714    2.571    1.000    1.143 
#    1.286    0.000    0.000    0.857    0.000    0.000 
#    0.000    0.000    0.000    0.000    0.000    0.000 
#
# Total GULP energy -173635.803615 kJ/mol
# GULP energy per Si atom -12402.557401 kJ/mol
# Density = 2.270233 g / cm^3
# Si number density = 22.754119 Si / 1000 Ang^3
#
#
#
# Elastic Constant Matrix: (Units=GPa)
#
#
# Indices 1 2 3 4 5 6 
#
# 1 82.3557 25.4575 26.8098 0.0000 -6.9056 0.0000
# 2 25.4575 66.8333 26.5015 0.0000 3.0333 0.0000
# 3 26.8098 26.5015 144.7975 0.0000 -0.4247 0.0000
# 4 0.0000 0.0000 0.0000 -73.0245 0.0000 -10.9114
# 5 -6.9056 3.0333 -0.4247 0.0000 38.2531 0.0000
# 6 0.0000 0.0000 0.0000 -10.9114 0.0000 34.0762
#
#
#
# Elastic Compliance Matrix: (Units=1/GPa)
#
#
# Indices 1 2 3 4 5 6 
#
# 1 0.014502 -0.004958 -0.001769 0.000000 0.002991 0.000000
# 2 -0.004958 0.017895 -0.002364 0.000000 -0.002340 0.000000
# 3 -0.001769 -0.002364 0.007666 0.000000 -0.000047 0.000000
# 4 0.000000 0.000000 0.000000 -0.013069 0.000000 -0.004185
# 5 0.002991 -0.002340 -0.000047 0.000000 0.026867 0.000000
# 6 0.000000 0.000000 0.000000 -0.004185 0.000000 0.028006
#
#
# Mechanical properties :
#
#
# Convention : Reuss Voigt Hill
#
# Bulk Modulus (GPa) = 45.70234 50.16934 47.93584
# Shear Modulus (GPa) = 46.57977 14.20880 30.39428
#
# Velocity S-wave (km/s) = 4.52939 2.50161 3.65878
# Velocity P-wave (km/s) = 6.89077 5.51728 6.24192
#
# Compressibility (1/GPa) = 0.02188072
#
# Stress axis : x y z
#
# Youngs Moduli (GPa) = 68.95704 55.88184 130.44214
#
# Poissons Ratio (x) = 0.27708 0.23073
# Poissons Ratio (y) = 0.34191 0.30837
# Poissons Ratio (z) = 0.12197 0.13211
#
# Static dielectric constant tensor:
#      x y z
#    x 5.775540 0.000000 -1.197270 
#    y 0.000000 3.805680 0.000000 
#    z -1.197270 0.000000 5.182230 
# 
# 
# High freq. dielectric constant tensor:
#      x y z
#    x 1.892910 0.000000 -0.011710 
#    y 0.000000 1.877880 0.000000 
#    z -0.011710 0.000000 1.910040 
# 
# From -- ./inp_files/23553.got.cif
#   From: 2010.03.12/outbox.cif.g09.slc.cpg/sg5_12_cif.got.tgz:23553.got - 2010.03.31 09:47:26.
