data_PCOD8049024
_publ_section_title
;
Structure prediction by ZEFSAII (Michael W. Deem and Ramdas Pophale) SiO2 
 PCOD8049024
Probable space group: C 2
;
_chemical_formula_sum "Si O2"
_cell_formula_units_Z 28
_cell_length_a 19.899647
_cell_length_b 8.994642
_cell_length_c 14.441501
_cell_angle_alpha 90.000000
_cell_angle_beta 150.982467
_cell_angle_gamma 90.000000
_cell_volume 1253.869927
_symmetry_space_group_name_H-M "C 2"
_symmetry_group_IT_number 5
_symmetry_cell_setting 'monoclinic'
loop_
_space_group_symop_operation_xyz
x,y,z
-x,y,-z
1/2+x,1/2+y,z
1/2-x,1/2+y,-z
loop_
_atom_site_type_symbol
_atom_site_label
_atom_site_fract_x
_atom_site_fract_y
_atom_site_fract_z
Si Si1 0.500000 0.643100 0.000000
Si Si2 0.854370 0.910183 0.033253
Si Si3 0.868377 0.275460 0.587706
Si Si4 0.195679 0.384812 0.166111
Si Si5 0.322280 0.385823 0.774944
Si Si6 0.659692 0.430458 0.472083
Si Si7 0.187592 0.249018 0.977677
Si Si8 0.000000 0.626856 0.000000
O O1 0.594204 0.740561 0.047339
O O2 0.602674 0.531062 0.180746
O O3 0.009678 0.876570 0.256771
O O4 0.799671 0.073050 0.993718
O O5 0.834731 0.888835 0.900125
O O6 0.755281 0.788596 0.961166
O O7 0.831842 0.370143 0.450106
O O8 0.785590 0.345291 0.574104
O O9 0.029411 0.300879 0.792853
O O10 0.826817 0.104777 0.526783
O O11 0.313905 0.393716 0.386971
O O12 0.094224 0.527714 0.045146
O O13 0.265662 0.351146 0.150738
O O14 0.398994 0.240076 0.823161
#
# Coordination Sequence:
#
# PCOD8049024 Si02
#       8
#     2   4   4   4   4   4   4   2
#     4  10  20  38  68  92 142 170 214 280 344 386
#     4  11  27  47  67  95 139 186 225 274 337 406
#     4  11  25  42  70 105 134 173 228 282 336 401
#     4  11  22  41  65 101 136 178 218 281 338 396
#     4  11  22  41  65 101 136 178 218 281 338 396
#     4  11  25  42  70 105 134 173 228 282 336 401
#     4  11  27  47  67  95 139 186 225 274 337 406
#     4  10  20  34  68 100 130 170 214 272 344 390
#
# _framework density 22.330864999999999
#
# number of rings (size 3 to 8) (size 9 to 14) (size 15 to 20)
#    0.000    1.143    2.857    3.429    8.000    2.286 
#    0.000    4.286    0.000    0.000    0.000    0.000 
#    0.000    0.000    0.000    0.000    0.000    0.000 
#
# Total GULP energy -173449.007442 kJ/mol
# GULP energy per Si atom -12389.214817 kJ/mol
# Density = 2.228004 g / cm^3
# Si number density = 22.330865 Si / 1000 Ang^3
#
#
#
# Elastic Constant Matrix: (Units=GPa)
#
#
# Indices 1 2 3 4 5 6 
#
# 1 66.9797 17.9879 41.4478 0.0000 -16.6463 0.0000
# 2 17.9879 103.3914 32.6726 0.0000 2.7024 0.0000
# 3 41.4478 32.6726 113.7384 0.0000 -23.6999 0.0000
# 4 0.0000 0.0000 0.0000 21.9559 0.0000 4.5594
# 5 -16.6463 2.7024 -23.6999 0.0000 34.1872 0.0000
# 6 0.0000 0.0000 0.0000 4.5594 0.0000 30.4285
#
#
#
# Elastic Compliance Matrix: (Units=1/GPa)
#
#
# Indices 1 2 3 4 5 6 
#
# 1 0.020470 -0.001956 -0.005597 0.000000 0.006242 0.000000
# 2 -0.001956 0.011186 -0.003370 0.000000 -0.004173 0.000000
# 3 -0.005597 -0.003370 0.013193 0.000000 0.006687 0.000000
# 4 0.000000 0.000000 0.000000 0.047009 0.000000 -0.007044
# 5 0.006242 -0.004173 0.006687 0.000000 0.037256 0.000000
# 6 0.000000 0.000000 0.000000 -0.007044 0.000000 0.033919
#
#
# Mechanical properties :
#
#
# Convention : Reuss Voigt Hill
#
# Bulk Modulus (GPa) = 43.47181 52.03622 47.75402
# Shear Modulus (GPa) = 25.96770 30.11441 28.04105
#
# Velocity S-wave (km/s) = 3.41377 3.67625 3.54744
# Velocity P-wave (km/s) = 5.92012 6.43216 6.18145
#
# Compressibility (1/GPa) = 0.02300341
#
# Stress axis : x y z
#
# Youngs Moduli (GPa) = 48.85225 89.39480 75.79584
#
# Poissons Ratio (x) = 0.17483 0.42424
# Poissons Ratio (y) = 0.09554 0.25545
# Poissons Ratio (z) = 0.27343 0.30128
#
# Static dielectric constant tensor:
#      x y z
#    x 3.808090 0.000000 -0.100290 
#    y 0.000000 4.391300 0.000000 
#    z -0.100290 0.000000 4.220790 
# 
# 
# High freq. dielectric constant tensor:
#      x y z
#    x 1.857080 0.000000 -0.015680 
#    y 0.000000 1.898870 0.000000 
#    z -0.015680 0.000000 1.883170 
# 
# From -- ./inp_files/56942.got.cif
#   From: 2010.03.12/outbox.cif.g09.slc.cpg/sg5_29_cif.got.tgz:56942.got - 2010.03.31 09:47:26.
