data_PCOD8049101
_publ_section_title
;
Structure prediction by ZEFSAII (Michael W. Deem and Ramdas Pophale) SiO2 
 PCOD8049101
Probable space group: C 2
;
_chemical_formula_sum "Si O2"
_cell_formula_units_Z 24
_cell_length_a 8.390319
_cell_length_b 11.375417
_cell_length_c 11.776346
_cell_angle_alpha 90.000000
_cell_angle_beta 80.735991
_cell_angle_gamma 90.000000
_cell_volume 1109.314279
_symmetry_space_group_name_H-M "C 2"
_symmetry_group_IT_number 5
_symmetry_cell_setting 'monoclinic'
loop_
_space_group_symop_operation_xyz
x,y,z
-x,y,-z
1/2+x,1/2+y,z
1/2-x,1/2+y,-z
loop_
_atom_site_type_symbol
_atom_site_label
_atom_site_fract_x
_atom_site_fract_y
_atom_site_fract_z
Si Si1 0.567599 0.614700 0.717112
Si Si2 0.405793 0.065113 0.353596
Si Si3 0.699764 0.962231 0.416864
Si Si4 0.787333 0.984004 0.829396
Si Si5 0.000000 0.255772 0.500000
Si Si6 0.121449 0.722156 0.199337
Si Si7 0.500000 0.079781 0.000000
O O1 0.629258 0.486749 0.661888
O O2 0.426709 0.584766 0.824088
O O3 0.497491 0.683307 0.616505
O O4 0.708086 0.684514 0.765221
O O5 0.470299 0.192289 0.301340
O O6 0.561735 0.979266 0.337312
O O7 0.323732 0.069077 0.487573
O O8 0.278855 0.000242 0.289014
O O9 0.665853 0.835159 0.477366
O O10 0.871145 0.858317 0.832205
O O11 0.643966 0.998216 0.936214
O O12 0.083981 0.656806 0.086530
#
# Coordination Sequence:
#
# PCOD8049101 Si02
#       7
#     4   4   4   4   2   4   2
#     4  11  23  35  60  93 116 150 201 229 273 353
#     4   8  17  36  57  84 120 153 187 223 278 345
#     4   9  18  35  57  85 125 162 187 223 275 340
#     4  11  23  40  61  86 113 148 196 246 293 343
#     4  10  20  36  58  88 128 158 178 230 284 330
#     4  10  22  42  62  83 114 153 189 245 295 332
#     4  10  26  44  60  82 112 148 198 248 300 348
#
# _framework density 21.634986000000001
#
# number of rings (size 3 to 8) (size 9 to 14) (size 15 to 20)
#    0.000    2.333    0.000    3.000    0.000    7.333 
#    0.000    5.000    0.000    0.000    0.000    0.000 
#    0.000    0.000    0.000    0.000    0.000    0.000 
#
# Total GULP energy -148659.980402 kJ/mol
# GULP energy per Si atom -12388.331700 kJ/mol
# Density = 2.158574 g / cm^3
# Si number density = 21.634986 Si / 1000 Ang^3
#
#
#
# Elastic Constant Matrix: (Units=GPa)
#
#
# Indices 1 2 3 4 5 6 
#
# 1 63.9231 22.4797 37.9558 0.0000 -16.3985 0.0000
# 2 22.4797 98.5650 28.3195 0.0000 -8.8535 0.0000
# 3 37.9558 28.3195 76.0060 0.0000 0.0720 0.0000
# 4 0.0000 0.0000 0.0000 18.9680 0.0000 0.2254
# 5 -16.3985 -8.8535 0.0720 0.0000 43.4365 0.0000
# 6 0.0000 0.0000 0.0000 0.2254 0.0000 28.4576
#
#
#
# Elastic Compliance Matrix: (Units=1/GPa)
#
#
# Indices 1 2 3 4 5 6 
#
# 1 0.025999 -0.001501 -0.012433 0.000000 0.009530 0.000000
# 2 -0.001501 0.011688 -0.003607 0.000000 0.001821 0.000000
# 3 -0.012433 -0.003607 0.020715 0.000000 -0.005463 0.000000
# 4 0.000000 0.000000 0.000000 0.052725 0.000000 -0.000418
# 5 0.009530 0.001821 -0.005463 0.000000 0.027000 0.000000
# 6 0.000000 0.000000 0.000000 -0.000418 0.000000 0.035143
#
#
# Mechanical properties :
#
#
# Convention : Reuss Voigt Hill
#
# Bulk Modulus (GPa) = 42.88311 46.22269 44.55290
# Shear Modulus (GPa) = 23.13473 28.15503 25.64488
#
# Velocity S-wave (km/s) = 3.27359 3.61136 3.44662
# Velocity P-wave (km/s) = 5.84404 6.22900 6.03958
#
# Compressibility (1/GPa) = 0.02331920
#
# Stress axis : x y z
#
# Youngs Moduli (GPa) = 38.46334 85.55840 48.27506
#
# Poissons Ratio (x) = 0.12845 0.60020
# Poissons Ratio (y) = 0.05775 0.17412
# Poissons Ratio (z) = 0.47821 0.30860
#
# Static dielectric constant tensor:
#      x y z
#    x 4.105600 0.000000 -0.063150 
#    y 0.000000 3.755030 0.000000 
#    z -0.063150 0.000000 3.899850 
# 
# 
# High freq. dielectric constant tensor:
#      x y z
#    x 1.860550 0.000000 0.002030 
#    y 0.000000 1.830940 0.000000 
#    z 0.002030 0.000000 1.839620 
# 
# From -- ./inp_files/35438.got.cif
#   From: 2010.03.12/outbox.cif.g09.slc.cpg/sg5_18_cif.got.tgz:35438.got - 2010.03.31 09:47:26.
