data_PCOD8049652
_publ_section_title
;
Structure prediction by ZEFSAII (Michael W. Deem and Ramdas Pophale) SiO2 
 PCOD8049652
Probable space group: C 2
;
_chemical_formula_sum "Si O2"
_cell_formula_units_Z 26
_cell_length_a 18.782325
_cell_length_b 7.842822
_cell_length_c 12.333387
_cell_angle_alpha 90.000000
_cell_angle_beta 138.171775
_cell_angle_gamma 90.000000
_cell_volume 1211.614723
_symmetry_space_group_name_H-M "C 2"
_symmetry_group_IT_number 5
_symmetry_cell_setting 'monoclinic'
loop_
_space_group_symop_operation_xyz
x,y,z
-x,y,-z
1/2+x,1/2+y,z
1/2-x,1/2+y,-z
loop_
_atom_site_type_symbol
_atom_site_label
_atom_site_fract_x
_atom_site_fract_y
_atom_site_fract_z
Si Si1 0.069019 0.914050 0.311506
Si Si2 0.107151 0.214200 0.191823
Si Si3 0.347947 0.374761 0.159074
Si Si4 0.828834 0.794587 0.366043
Si Si5 0.500000 0.024763 0.500000
Si Si6 0.125010 0.484763 0.835637
Si Si7 0.029581 0.558532 0.156541
O O1 0.148253 0.910896 0.503145
O O2 0.075795 0.729892 0.261072
O O3 0.947542 0.960687 0.210439
O O4 0.110902 0.062115 0.281818
O O5 0.212278 0.205427 0.236536
O O6 0.112425 0.400984 0.254803
O O7 0.000000 0.197479 0.000000
O O8 0.337299 0.427339 0.273541
O O9 0.365107 0.176079 0.193103
O O10 0.240966 0.400610 0.968680
O O11 0.915051 0.643450 0.465867
O O12 0.553494 0.905024 0.655658
O O13 0.073068 0.483531 0.895553
O O14 0.000000 0.604076 0.000000
#
# Coordination Sequence:
#
# PCOD8049652 Si02
#       7
#     4   4   4   4   2   4   4
#     4  11  23  41  66  99 130 176 225 273 333 406
#     4  11  26  40  69  97 132 175 227 273 334 406
#     4  10  21  39  68  91 131 170 221 274 337 391
#     4  11  21  44  64  94 134 180 212 279 346 392
#     4  10  20  42  66  90 132 176 214 272 346 382
#     4  10  21  38  66  91 122 174 214 270 333 394
#     4  10  21  42  62  93 138 169 213 274 339 394
#
# _framework density 21.458967000000001
#
# number of rings (size 3 to 8) (size 9 to 14) (size 15 to 20)
#    0.000    1.538    4.615    2.308    8.615    0.000 
#    0.000    1.538    0.000    0.000    0.000    0.000 
#    0.000    0.000    0.000    0.000    0.000    0.000 
#
# Total GULP energy -161122.648085 kJ/mol
# GULP energy per Si atom -12394.049853 kJ/mol
# Density = 2.141013 g / cm^3
# Si number density = 21.458967 Si / 1000 Ang^3
#
#
#
# Elastic Constant Matrix: (Units=GPa)
#
#
# Indices 1 2 3 4 5 6 
#
# 1 114.8922 30.9533 45.4056 0.0000 4.4491 0.0000
# 2 30.9533 67.1071 11.9716 0.0000 -6.9638 0.0000
# 3 45.4056 11.9716 133.8334 0.0000 -1.5454 0.0000
# 4 0.0000 0.0000 0.0000 21.0731 0.0000 -0.8635
# 5 4.4491 -6.9638 -1.5454 0.0000 43.0685 0.0000
# 6 0.0000 0.0000 0.0000 -0.8635 0.0000 9.6947
#
#
#
# Elastic Compliance Matrix: (Units=1/GPa)
#
#
# Indices 1 2 3 4 5 6 
#
# 1 0.011479 -0.004892 -0.003481 0.000000 -0.002102 0.000000
# 2 -0.004892 0.017480 0.000135 0.000000 0.003337 0.000000
# 3 -0.003481 0.000135 0.008649 0.000000 0.000692 0.000000
# 4 0.000000 0.000000 0.000000 0.047628 0.000000 0.004242
# 5 -0.002102 0.003337 0.000692 0.000000 0.024000 0.000000
# 6 0.000000 0.000000 0.000000 0.004242 0.000000 0.103527
#
#
# Mechanical properties :
#
#
# Convention : Reuss Voigt Hill
#
# Bulk Modulus (GPa) = 47.32319 54.72150 51.02235
# Shear Modulus (GPa) = 21.16109 29.93409 25.54759
#
# Velocity S-wave (km/s) = 3.14366 3.73895 3.45415
# Velocity P-wave (km/s) = 5.93949 6.64797 6.30369
#
# Compressibility (1/GPa) = 0.02113129
#
# Stress axis : x y z
#
# Youngs Moduli (GPa) = 87.11705 57.20793 115.62078
#
# Poissons Ratio (x) = 0.27984 0.40249
# Poissons Ratio (y) = 0.42615 -0.01555
# Poissons Ratio (z) = 0.30326 -0.00770
#
# Static dielectric constant tensor:
#      x y z
#    x 4.280820 0.000000 0.243910 
#    y 0.000000 3.585980 0.000000 
#    z 0.243910 0.000000 5.281410 
# 
# 
# High freq. dielectric constant tensor:
#      x y z
#    x 1.857080 0.000000 -0.006740 
#    y 0.000000 1.806230 0.000000 
#    z -0.006740 0.000000 1.853910 
# 
# From -- ./inp_files/46178.got.cif
#   From: 2010.03.12/outbox.cif.g09.slc.cpg/sg5_24_cif.got.tgz:46178.got - 2010.03.31 09:47:26.
