data_PCOD8049008
_publ_section_title
;
Structure prediction by ZEFSAII (Michael W. Deem and Ramdas Pophale) SiO2 
 PCOD8049008
Probable space group: C 2
;
_chemical_formula_sum "Si O2"
_cell_formula_units_Z 30
_cell_length_a 10.034759
_cell_length_b 20.380793
_cell_length_c 12.360585
_cell_angle_alpha 90.000000
_cell_angle_beta 142.547464
_cell_angle_gamma 90.000000
_cell_volume 1537.251456
_symmetry_space_group_name_H-M "C 2"
_symmetry_group_IT_number 5
_symmetry_cell_setting 'monoclinic'
loop_
_space_group_symop_operation_xyz
x,y,z
-x,y,-z
1/2+x,1/2+y,z
1/2-x,1/2+y,-z
loop_
_atom_site_type_symbol
_atom_site_label
_atom_site_fract_x
_atom_site_fract_y
_atom_site_fract_z
Si Si1 0.099703 0.824920 0.820755
Si Si2 0.500000 0.532087 0.500000
Si Si3 0.208309 0.078665 0.206386
Si Si4 0.334218 0.890797 0.482958
Si Si5 0.811855 0.434511 0.809709
Si Si6 0.297167 0.036468 0.504900
Si Si7 0.309427 0.223773 0.294431
Si Si8 0.996183 0.328062 0.787101
O O1 0.207030 0.876452 0.809979
O O2 0.087479 0.756997 0.746145
O O3 0.864926 0.852813 0.703503
O O4 0.246908 0.816606 0.023114
O O5 0.641195 0.489203 0.671845
O O6 0.662051 0.570436 0.519519
O O7 0.191530 0.058739 0.322372
O O8 0.444779 0.053628 0.315002
O O9 0.193393 0.156851 0.185267
O O10 0.000000 0.050919 0.000000
O O11 0.500000 0.916249 0.500000
O O12 0.449165 0.834188 0.629731
O O13 0.262140 0.957849 0.496420
O O14 0.916632 0.399729 0.773566
O O15 0.000000 0.470413 0.000000
O O16 0.500000 0.205617 0.500000
O O17 0.133333 0.269646 0.239242
#
# Coordination Sequence:
#
# PCOD8049008 Si02
#       8
#     4   2   4   4   4   4   4   4
#     4  10  20  34  58  92 116 144 192 253 313 359
#     4  12  20  36  58  82 126 156 206 248 296 362
#     4  11  24  45  66  89 121 165 220 266 301 363
#     4  12  22  36  53  84 127 168 203 238 307 378
#     4   9  17  29  53  85 112 141 179 234 300 351
#     4  11  24  39  59  92 122 173 215 249 308 366
#     4  11  19  39  73  92 113 148 204 268 312 355
#     4  10  20  34  58  92 116 144 192 253 313 359
#
# _framework density 19.515349000000001
#
# number of rings (size 3 to 8) (size 9 to 14) (size 15 to 20)
#    0.000    1.333    6.667    2.000    1.867    2.667 
#    0.000    0.000    5.867    0.000    0.000    0.000 
#    0.000    0.000    0.000    0.000    0.000    0.000 
#
# Total GULP energy -185850.547100 kJ/mol
# GULP energy per Si atom -12390.036473 kJ/mol
# Density = 1.947093 g / cm^3
# Si number density = 19.515349 Si / 1000 Ang^3
#
#
#
# Elastic Constant Matrix: (Units=GPa)
#
#
# Indices 1 2 3 4 5 6 
#
# 1 99.4344 12.8867 32.5061 0.0000 10.8875 -0.0001
# 2 12.8867 67.6986 22.4526 0.0000 0.8723 0.0000
# 3 32.5061 22.4526 149.5338 0.0000 7.4323 -0.0003
# 4 0.0000 0.0000 0.0000 33.9358 0.0000 -5.4806
# 5 10.8875 0.8723 7.4323 0.0000 15.1211 -0.0002
# 6 -0.0001 0.0000 -0.0003 -5.4806 -0.0002 23.0536
#
#
#
# Elastic Compliance Matrix: (Units=1/GPa)
#
#
# Indices 1 2 3 4 5 6 
#
# 1 0.011695 -0.001483 -0.001953 0.000000 -0.007375 0.000000
# 2 -0.001483 0.015735 -0.002099 0.000000 0.001192 0.000000
# 3 -0.001953 -0.002099 0.007535 0.000000 -0.002177 0.000000
# 4 0.000000 0.000000 0.000000 0.030644 0.000000 0.007285
# 5 -0.007375 0.001192 -0.002177 0.000000 0.072444 0.000001
# 6 0.000000 0.000000 0.000000 0.007285 0.000001 0.045109
#
#
# Mechanical properties :
#
#
# Convention : Reuss Voigt Hill
#
# Bulk Modulus (GPa) = 41.85233 50.26196 46.05715
# Shear Modulus (GPa) = 24.72815 31.01018 27.86917
#
# Velocity S-wave (km/s) = 3.56351 3.99057 3.78307
# Velocity P-wave (km/s) = 6.19870 6.85885 6.53712
#
# Compressibility (1/GPa) = 0.02389353
#
# Stress axis : x y z
#
# Youngs Moduli (GPa) = 85.50563 63.55403 132.70688
#
# Poissons Ratio (x) = 0.09428 0.25918
# Poissons Ratio (y) = 0.12684 0.27860
# Poissons Ratio (z) = 0.16699 0.13342
#
# Static dielectric constant tensor:
#      x y z
#    x 3.581580 0.000000 0.271190 
#    y 0.000000 3.300270 0.000000 
#    z 0.271190 0.000000 4.305000 
# 
# 
# High freq. dielectric constant tensor:
#      x y z
#    x 1.738640 0.000000 0.001010 
#    y 0.000000 1.728470 0.000000 
#    z 0.001010 0.000000 1.780890 
# 
# From -- ./inp_files/53546.got.cif
#   From: 2010.03.12/outbox.cif.g09.slc.cpg/sg5_27_cif.got.tgz:53546.got - 2010.03.31 09:47:26.
