data_PCOD8049919
_publ_section_title
;
Structure prediction by ZEFSAII (Michael W. Deem and Ramdas Pophale) SiO2 
 PCOD8049919
Probable space group: C 2
;
_chemical_formula_sum "Si O2"
_cell_formula_units_Z 22
_cell_length_a 7.877522
_cell_length_b 13.373031
_cell_length_c 10.567654
_cell_angle_alpha 90.000000
_cell_angle_beta 67.820962
_cell_angle_gamma 90.000000
_cell_volume 1030.891968
_symmetry_space_group_name_H-M "C 2"
_symmetry_group_IT_number 5
_symmetry_cell_setting 'monoclinic'
loop_
_space_group_symop_operation_xyz
x,y,z
-x,y,-z
1/2+x,1/2+y,z
1/2-x,1/2+y,-z
loop_
_atom_site_type_symbol
_atom_site_label
_atom_site_fract_x
_atom_site_fract_y
_atom_site_fract_z
Si Si1 0.924683 0.013540 0.379748
Si Si2 0.211560 0.325847 0.441075
Si Si3 0.125850 0.941587 0.079206
Si Si4 0.500000 0.054366 0.000000
Si Si5 0.822671 0.684777 0.612115
Si Si6 0.503669 0.232169 0.184799
O O1 0.861897 0.123634 0.359936
O O2 0.000000 0.013853 0.500000
O O3 0.745436 0.943601 0.421134
O O4 0.070116 0.976078 0.235588
O O5 0.300319 0.291113 0.548285
O O6 0.311496 0.269725 0.296692
O O7 0.000000 0.299638 0.500000
O O8 0.105137 0.820217 0.075919
O O9 0.000000 0.986378 0.000000
O O10 0.333180 0.981742 0.004843
O O11 0.548445 0.130679 0.873411
O O12 0.846832 0.702965 0.752714
O O13 0.000000 0.630151 0.500000
#
# Coordination Sequence:
#
# PCOD8049919 Si02
#       6
#     4   4   4   2   4   4
#     4  11  23  41  66  99 137 171 228 289 340 418
#     4  10  21  39  65  99 132 174 216 281 358 408
#     4  11  25  49  69 102 143 185 238 290 344 422
#     4  12  26  46  74  98 138 196 232 286 354 410
#     4  10  21  38  64  97 132 169 218 278 354 409
#     4  10  23  47  65  99 140 173 236 294 329 431
#
# _framework density 21.340743
#
# number of rings (size 3 to 8) (size 9 to 14) (size 15 to 20)
#    0.000    1.455    0.909    4.909    7.636    0.000 
#   21.273    0.000    0.000    0.000    0.000    0.000 
#    0.000    0.000    0.000    0.000    0.000    0.000 
#
# Total GULP energy -136344.990850 kJ/mol
# GULP energy per Si atom -12394.999168 kJ/mol
# Density = 2.129217 g / cm^3
# Si number density = 21.340743 Si / 1000 Ang^3
#
#
#
# Elastic Constant Matrix: (Units=GPa)
#
#
# Indices 1 2 3 4 5 6 
#
# 1 141.5212 44.2913 49.0280 0.0000 -0.0212 0.0000
# 2 44.2913 88.1590 26.1444 0.0000 -8.8423 0.0000
# 3 49.0280 26.1444 87.5503 0.0000 20.6598 0.0000
# 4 0.0000 0.0000 0.0000 25.3430 0.0000 3.5971
# 5 -0.0212 -8.8423 20.6598 0.0000 35.7806 0.0000
# 6 0.0000 0.0000 0.0000 3.5971 0.0000 28.8929
#
#
#
# Elastic Compliance Matrix: (Units=1/GPa)
#
#
# Indices 1 2 3 4 5 6 
#
# 1 0.009821 -0.003229 -0.005035 0.000000 0.002115 0.000000
# 2 -0.003229 0.014749 -0.004001 0.000000 0.005953 0.000000
# 3 -0.005035 -0.004001 0.018142 0.000000 -0.011467 0.000000
# 4 0.000000 0.000000 0.000000 0.040168 0.000000 -0.005001
# 5 0.002115 0.005953 -0.011467 0.000000 0.036042 0.000000
# 6 0.000000 0.000000 0.000000 -0.005001 0.000000 0.035233
#
#
# Mechanical properties :
#
#
# Convention : Reuss Voigt Hill
#
# Bulk Modulus (GPa) = 54.99602 61.79534 58.39568
# Shear Modulus (GPa) = 27.06425 31.18775 29.12600
#
# Velocity S-wave (km/s) = 3.56504 3.82700 3.69834
# Velocity P-wave (km/s) = 6.54006 6.96759 6.75720
#
# Compressibility (1/GPa) = 0.01818313
#
# Stress axis : x y z
#
# Youngs Moduli (GPa) = 101.82128 67.80123 55.12042
#
# Poissons Ratio (x) = 0.21893 0.27751
# Poissons Ratio (y) = 0.32878 0.22053
# Poissons Ratio (z) = 0.51263 0.27127
#
# Static dielectric constant tensor:
#      x y z
#    x 3.755460 0.000000 0.118310 
#    y 0.000000 3.950230 0.000000 
#    z 0.118310 0.000000 3.828330 
# 
# 
# High freq. dielectric constant tensor:
#      x y z
#    x 1.834670 0.000000 0.015330 
#    y 0.000000 1.840740 0.000000 
#    z 0.015330 0.000000 1.834310 
# 
# From -- ./inp_files/35180.got.cif
#   From: 2010.03.12/outbox.cif.g09.slc.cpg/sg5_18_cif.got.tgz:35180.got - 2010.03.31 09:47:26.
