data_PCOD8049785
_publ_section_title
;
Structure prediction by ZEFSAII (Michael W. Deem and Ramdas Pophale) SiO2 
 PCOD8049785
Probable space group: C 2
;
_chemical_formula_sum "Si O2"
_cell_formula_units_Z 26
_cell_length_a 8.789532
_cell_length_b 10.286505
_cell_length_c 20.337131
_cell_angle_alpha 90.000000
_cell_angle_beta 138.724199
_cell_angle_gamma 90.000000
_cell_volume 1212.996185
_symmetry_space_group_name_H-M "C 2"
_symmetry_group_IT_number 5
_symmetry_cell_setting 'monoclinic'
loop_
_space_group_symop_operation_xyz
x,y,z
-x,y,-z
1/2+x,1/2+y,z
1/2-x,1/2+y,-z
loop_
_atom_site_type_symbol
_atom_site_label
_atom_site_fract_x
_atom_site_fract_y
_atom_site_fract_z
Si Si1 0.496618 0.382040 0.324113
Si Si2 0.356905 0.478939 0.017067
Si Si3 0.262309 0.724031 0.064875
Si Si4 0.628227 0.393421 0.230090
Si Si5 0.020671 0.166004 0.644711
Si Si6 0.500000 0.782873 0.500000
Si Si7 0.303459 0.667019 0.707188
O O1 0.437405 0.375458 0.226686
O O2 0.401807 0.515252 0.325076
O O3 0.776052 0.373030 0.417826
O O4 0.383202 0.263548 0.324846
O O5 0.242583 0.611577 0.004266
O O6 0.521014 0.416506 0.124934
O O7 0.500000 0.520817 0.000000
O O8 0.163998 0.366886 0.939458
O O9 0.439002 0.687057 0.179698
O O10 0.000000 0.749231 0.000000
O O11 0.774697 0.263115 0.270541
O O12 0.778216 0.521406 0.299865
O O13 0.943810 0.192554 0.545004
O O14 0.817334 0.186360 0.632729
#
# Coordination Sequence:
#
# PCOD8049785 Si02
#       7
#     4   4   4   4   4   2   4
#     4  10  23  41  63  87 114 155 196 237 294 352
#     4  10  21  36  57  85 118 157 199 243 287 339
#     4  10  22  38  56  85 121 155 196 244 289 337
#     4   9  21  40  57  85 123 153 192 246 290 339
#     4  10  21  39  63  87 117 154 190 240 293 351
#     4  10  24  40  58  90 122 144 188 248 296 346
#     4  10  22  39  61  87 117 157 198 238 290 347
#
# _framework density 21.434526999999999
#
# number of rings (size 3 to 8) (size 9 to 14) (size 15 to 20)
#    0.000    2.154    0.000    1.846    0.000   16.000 
#    0.000    0.000    0.000    0.923    0.000    0.000 
#    0.000    0.000    0.000    0.000    0.000    0.000 
#
# Total GULP energy -161087.984445 kJ/mol
# GULP energy per Si atom -12391.383419 kJ/mol
# Density = 2.138574 g / cm^3
# Si number density = 21.434527 Si / 1000 Ang^3
#
#
#
# Elastic Constant Matrix: (Units=GPa)
#
#
# Indices 1 2 3 4 5 6 
#
# 1 100.6903 56.2048 39.9525 0.0000 -25.8536 0.0000
# 2 56.2048 152.6225 6.4248 0.0000 0.2830 0.0000
# 3 39.9525 6.4248 59.4774 0.0000 -13.9331 0.0000
# 4 0.0000 0.0000 0.0000 24.6125 0.0000 -5.1940
# 5 -25.8536 0.2830 -13.9331 0.0000 42.3620 0.0000
# 6 0.0000 0.0000 0.0000 -5.1940 0.0000 39.5307
#
#
#
# Elastic Compliance Matrix: (Units=1/GPa)
#
#
# Indices 1 2 3 4 5 6 
#
# 1 0.020558 -0.007127 -0.010931 0.000000 0.008999 0.000000
# 2 -0.007127 0.009056 0.003008 0.000000 -0.003421 0.000000
# 3 -0.010931 0.003008 0.024122 0.000000 0.001242 0.000000
# 4 0.000000 0.000000 0.000000 0.041788 0.000000 0.005491
# 5 0.008999 -0.003421 0.001242 0.000000 0.029529 0.000000
# 6 0.000000 0.000000 0.000000 0.005491 0.000000 0.026018
#
#
# Mechanical properties :
#
#
# Convention : Reuss Voigt Hill
#
# Bulk Modulus (GPa) = 42.30998 57.55052 49.93025
# Shear Modulus (GPa) = 26.44782 35.31492 30.88137
#
# Velocity S-wave (km/s) = 3.51649 4.06343 3.79981
# Velocity P-wave (km/s) = 6.02242 6.99450 6.52659
#
# Compressibility (1/GPa) = 0.02363508
#
# Stress axis : x y z
#
# Youngs Moduli (GPa) = 48.64379 110.41839 41.45590
#
# Poissons Ratio (x) = 0.78696 0.45316
# Poissons Ratio (y) = 0.34669 -0.12469
# Poissons Ratio (z) = 0.53174 -0.33212
#
# Static dielectric constant tensor:
#      x y z
#    x 3.940870 0.000000 -0.467290 
#    y 0.000000 4.216240 0.000000 
#    z -0.467290 0.000000 3.710570 
# 
# 
# High freq. dielectric constant tensor:
#      x y z
#    x 1.838950 0.000000 -0.032110 
#    y 0.000000 1.864680 0.000000 
#    z -0.032110 0.000000 1.820590 
# 
# From -- ./inp_files/64585.got.cif
#   From: 2010.03.12/outbox.cif.g09.slc.cpg/sg5_33_cif.got.tgz:64585.got - 2010.03.31 09:47:26.
