data_PCOD8049853
_publ_section_title
;
Structure prediction by ZEFSAII (Michael W. Deem and Ramdas Pophale) SiO2 
 PCOD8049853
Probable space group: C 2
;
_chemical_formula_sum "Si O2"
_cell_formula_units_Z 30
_cell_length_a 13.963563
_cell_length_b 8.702595
_cell_length_c 13.898961
_cell_angle_alpha 90.000000
_cell_angle_beta 60.125127
_cell_angle_gamma 90.000000
_cell_volume 1464.549975
_symmetry_space_group_name_H-M "C 2"
_symmetry_group_IT_number 5
_symmetry_cell_setting 'monoclinic'
loop_
_space_group_symop_operation_xyz
x,y,z
-x,y,-z
1/2+x,1/2+y,z
1/2-x,1/2+y,-z
loop_
_atom_site_type_symbol
_atom_site_label
_atom_site_fract_x
_atom_site_fract_y
_atom_site_fract_z
Si Si1 0.763599 0.768740 0.251721
Si Si2 0.440785 0.382372 0.730592
Si Si3 0.302115 0.934075 0.175255
Si Si4 0.539461 0.472288 0.880768
Si Si5 0.173370 0.361937 0.617307
Si Si6 0.475460 0.702527 0.622621
Si Si7 0.149045 0.697753 0.584167
Si Si8 0.500000 0.768973 0.000000
O O1 0.796441 0.619511 0.171035
O O2 0.832160 0.922162 0.191831
O O3 0.634316 0.800852 0.297043
O O4 0.781784 0.734063 0.354784
O O5 0.311024 0.343231 0.792958
O O6 0.469202 0.414153 0.826883
O O7 0.455941 0.523443 0.650648
O O8 0.520095 0.245345 0.654482
O O9 0.337970 0.892483 0.264786
O O10 0.392089 0.877482 0.051429
O O11 0.519651 0.657002 0.897486
O O12 0.500000 0.392849 0.000000
O O13 0.155780 0.515875 0.563055
O O14 0.292115 0.287139 0.533106
O O15 0.076516 0.245677 0.639549
O O16 0.500000 0.730644 0.500000
#
# Coordination Sequence:
#
# PCOD8049853 Si02
#       8
#     4   4   4   4   4   4   4   2
#     4   9  20  40  61  84 120 161 199 238 304 366
#     4  10  22  41  63  87 122 158 202 247 307 365
#     4  10  23  40  60  88 118 156 202 250 304 361
#     4   9  21  42  61  89 113 159 199 255 303 349
#     4  11  22  39  59  91 123 162 200 245 302 360
#     4  11  21  38  63  92 122 166 199 240 297 374
#     4  10  21  37  62  88 122 159 197 247 299 363
#     4  10  22  40  60  88 118 148 202 262 306 336
#
# _framework density 20.484107000000002
#
# number of rings (size 3 to 8) (size 9 to 14) (size 15 to 20)
#    0.400    1.600    1.333    1.600    4.667    2.133 
#    9.600    0.000    0.000    0.000    0.000    0.000 
#    0.000    0.000    0.000    0.000    0.000    0.000 
#
# Total GULP energy -185922.145627 kJ/mol
# GULP energy per Si atom -12394.809708 kJ/mol
# Density = 2.043748 g / cm^3
# Si number density = 20.484107 Si / 1000 Ang^3
#
#
#
# Elastic Constant Matrix: (Units=GPa)
#
#
# Indices 1 2 3 4 5 6 
#
# 1 113.8196 21.6265 37.9027 0.0000 -30.8659 0.0000
# 2 21.6265 71.0737 36.4121 0.0000 -23.1065 0.0000
# 3 37.9027 36.4121 81.8219 0.0000 -25.2322 0.0000
# 4 0.0000 0.0000 0.0000 29.7730 0.0000 -6.9494
# 5 -30.8659 -23.1065 -25.2322 0.0000 38.0341 0.0000
# 6 0.0000 0.0000 0.0000 -6.9494 0.0000 22.7384
#
#
#
# Elastic Compliance Matrix: (Units=1/GPa)
#
#
# Indices 1 2 3 4 5 6 
#
# 1 0.011912 0.000657 -0.003402 0.000000 0.007809 0.000000
# 2 0.000657 0.019954 -0.006640 0.000000 0.008251 0.000000
# 3 -0.003402 -0.006640 0.018427 0.000000 0.005430 0.000000
# 4 0.000000 0.000000 0.000000 0.036168 0.000000 0.011054
# 5 0.007809 0.008251 0.005430 0.000000 0.041244 0.000000
# 6 0.000000 0.000000 0.000000 0.011054 0.000000 0.047357
#
#
# Mechanical properties :
#
#
# Convention : Reuss Voigt Hill
#
# Bulk Modulus (GPa) = 31.72317 50.95532 41.33924
# Shear Modulus (GPa) = 24.46923 29.49402 26.98163
#
# Velocity S-wave (km/s) = 3.45997 3.79865 3.63326
# Velocity P-wave (km/s) = 5.61090 6.64599 6.15026
#
# Compressibility (1/GPa) = 0.03152270
#
# Stress axis : x y z
#
# Youngs Moduli (GPa) = 83.95228 50.11509 54.26821
#
# Poissons Ratio (x) = -0.03294 0.18463
# Poissons Ratio (y) = -0.05517 0.36034
# Poissons Ratio (z) = 0.28562 0.33276
#
# Static dielectric constant tensor:
#      x y z
#    x 3.744390 0.000000 -0.169340 
#    y 0.000000 3.689660 0.000000 
#    z -0.169340 0.000000 3.616680 
# 
# 
# High freq. dielectric constant tensor:
#      x y z
#    x 1.796300 0.000000 -0.013310 
#    y 0.000000 1.789680 0.000000 
#    z -0.013310 0.000000 1.798100 
# 
# From -- ./inp_files/54012.got.cif
#   From: 2010.03.12/outbox.cif.g09.slc.cpg/sg5_28_cif.got.tgz:54012.got - 2010.03.31 09:47:26.
