data_PCOD8049960
_publ_section_title
;
Structure prediction by ZEFSAII (Michael W. Deem and Ramdas Pophale) SiO2 
 PCOD8049960
Probable space group: C 2
;
_chemical_formula_sum "Si O2"
_cell_formula_units_Z 20
_cell_length_a 8.325528
_cell_length_b 23.414713
_cell_length_c 9.517761
_cell_angle_alpha 90.000000
_cell_angle_beta 31.741243
_cell_angle_gamma 90.000000
_cell_volume 976.091370
_symmetry_space_group_name_H-M "C 2"
_symmetry_group_IT_number 5
_symmetry_cell_setting 'monoclinic'
loop_
_space_group_symop_operation_xyz
x,y,z
-x,y,-z
1/2+x,1/2+y,z
1/2-x,1/2+y,-z
loop_
_atom_site_type_symbol
_atom_site_label
_atom_site_fract_x
_atom_site_fract_y
_atom_site_fract_z
Si Si1 0.231862 0.191800 0.090386
Si Si2 0.857063 0.531520 0.250319
Si Si3 0.090448 0.634331 0.593242
Si Si4 0.858880 0.402808 0.249175
Si Si5 0.654910 0.816598 0.236675
O O1 0.148066 0.258471 0.152157
O O2 0.938112 0.154874 0.352196
O O3 0.500000 0.177232 0.000000
O O4 0.355556 0.177612 0.842992
O O5 0.500000 0.530519 0.500000
O O6 0.955588 0.571928 0.304818
O O7 0.976152 0.467317 0.191694
O O8 0.000000 0.555680 0.000000
O O9 0.000000 0.630375 0.500000
O O10 0.500000 0.399514 0.500000
O O11 0.962950 0.364751 0.301585
O O12 0.000000 0.379096 0.000000
O O13 0.500000 0.803398 0.500000
O O14 0.000000 0.838548 0.000000
#
# Coordination Sequence:
#
# PCOD8049960 Si02
#       5
#     4   4   4   4   4
#     4  11  23  41  61  84 119 161 196 231 290 363
#     4  10  21  39  62  84 116 159 196 230 288 360
#     4  12  24  38  60  92 119 149 195 251 295 332
#     4  10  22  40  62  89 117 154 197 240 290 345
#     4  11  23  40  62  89 118 155 197 240 290 346
#
# _framework density 20.489885999999998
#
# number of rings (size 3 to 8) (size 9 to 14) (size 15 to 20)
#    0.000    1.200    0.000    7.800    0.000    3.200 
#    0.000    2.000    0.000    0.000    0.000    0.000 
#    0.000    0.000    0.000    0.000    0.000    0.000 
#
# Total GULP energy -124056.950580 kJ/mol
# GULP energy per Si atom -12405.695058 kJ/mol
# Density = 2.044325 g / cm^3
# Si number density = 20.489886 Si / 1000 Ang^3
#
#
#
# Elastic Constant Matrix: (Units=GPa)
#
#
# Indices 1 2 3 4 5 6 
#
# 1 94.8087 72.0310 38.8102 0.0000 15.6674 0.0000
# 2 72.0310 131.6613 45.7706 0.0000 15.5229 0.0000
# 3 38.8102 45.7706 147.4025 0.0000 11.8223 0.0000
# 4 0.0000 0.0000 0.0000 30.5941 0.0000 -11.9960
# 5 15.6674 15.5229 11.8223 0.0000 42.6566 0.0000
# 6 0.0000 0.0000 0.0000 -11.9960 0.0000 20.7283
#
#
#
# Elastic Compliance Matrix: (Units=1/GPa)
#
#
# Indices 1 2 3 4 5 6 
#
# 1 0.018898 -0.009345 -0.001831 0.000000 -0.003033 0.000000
# 2 -0.009345 0.013387 -0.001617 0.000000 -0.000991 0.000000
# 3 -0.001831 -0.001617 0.007841 0.000000 -0.000912 0.000000
# 4 0.000000 0.000000 0.000000 0.042280 0.000000 0.024469
# 5 -0.003033 -0.000991 -0.000912 0.000000 0.025171 0.000000
# 6 0.000000 0.000000 0.000000 0.024469 0.000000 0.062404
#
#
# Mechanical properties :
#
#
# Convention : Reuss Voigt Hill
#
# Bulk Modulus (GPa) = 68.77038 76.34401 72.55719
# Shear Modulus (GPa) = 24.94846 33.27984 29.11415
#
# Velocity S-wave (km/s) = 3.49320 4.03452 3.77358
# Velocity P-wave (km/s) = 7.06441 7.68397 7.38069
#
# Compressibility (1/GPa) = 0.01454114
#
# Stress axis : x y z
#
# Youngs Moduli (GPa) = 52.91562 74.70096 127.52835
#
# Poissons Ratio (x) = 0.69808 0.23347
# Poissons Ratio (y) = 0.49449 0.20619
# Poissons Ratio (z) = 0.09687 0.12078
#
# Static dielectric constant tensor:
#      x y z
#    x 3.447280 0.000000 -0.080570 
#    y 0.000000 3.941520 0.000000 
#    z -0.080570 0.000000 4.093580 
# 
# 
# High freq. dielectric constant tensor:
#      x y z
#    x 1.782500 0.000000 -0.001070 
#    y 0.000000 1.809220 0.000000 
#    z -0.001070 0.000000 1.829230 
# 
# From -- ./inp_files/17258.got.cif
#   From: 2010.03.12/outbox.cif.g09.slc.cpg/sg5_9_cif.got.tgz:17258.got - 2010.03.31 09:47:26.
