data_PCOD8049730
_publ_section_title
;
Structure prediction by ZEFSAII (Michael W. Deem and Ramdas Pophale) SiO2 
 PCOD8049730
Probable space group: C 2
;
_chemical_formula_sum "Si O2"
_cell_formula_units_Z 18
_cell_length_a 5.439199
_cell_length_b 24.259296
_cell_length_c 5.255276
_cell_angle_alpha 90.000000
_cell_angle_beta 87.823015
_cell_angle_gamma 90.000000
_cell_volume 692.939165
_symmetry_space_group_name_H-M "C 2"
_symmetry_group_IT_number 5
_symmetry_cell_setting 'monoclinic'
loop_
_space_group_symop_operation_xyz
x,y,z
-x,y,-z
1/2+x,1/2+y,z
1/2-x,1/2+y,-z
loop_
_atom_site_type_symbol
_atom_site_label
_atom_site_fract_x
_atom_site_fract_y
_atom_site_fract_z
Si Si1 0.162614 0.672040 0.243212
Si Si2 0.159764 0.552589 0.242750
Si Si3 0.265007 0.435621 0.347915
Si Si4 0.638691 0.787380 0.745242
Si Si5 0.500000 0.355275 0.000000
O O1 0.299916 0.612003 0.218029
O O2 0.358706 0.720869 0.260217
O O3 0.000000 0.674828 0.500000
O O4 0.000000 0.682244 0.000000
O O5 0.328817 0.498453 0.256496
O O6 0.000000 0.555846 0.500000
O O7 0.000000 0.543741 0.000000
O O8 0.500000 0.416402 0.500000
O O9 0.274686 0.394323 0.106807
O O10 0.000000 0.431562 0.500000
O O11 0.500000 0.810006 0.500000
O O12 0.500000 0.807551 0.000000
O O13 0.906341 0.815859 0.770146
#
# Coordination Sequence:
#
# PCOD8049730 Si02
#       5
#     4   4   4   4   2
#     4  10  20  44  75 108 153 197 250 327 398 473
#     4   9  21  43  75 111 153 196 254 324 398 475
#     4  11  29  51  79 115 158 212 268 331 402 477
#     4  12  29  48  76 113 154 206 268 328 402 473
#     4  12  32  50  76 110 166 210 274 332 394 484
#
# _framework density 25.976308
#
# number of rings (size 3 to 8) (size 9 to 14) (size 15 to 20)
#    0.000    1.333    1.111    1.333   12.444    0.889 
#    2.000    0.000    0.000    0.000    0.000    0.000 
#    0.000    0.000    0.000    0.000    0.000    0.000 
#
# Total GULP energy -111508.539233 kJ/mol
# GULP energy per Si atom -12389.837693 kJ/mol
# Density = 2.591718 g / cm^3
# Si number density = 25.976308 Si / 1000 Ang^3
#
#
#
# Elastic Constant Matrix: (Units=GPa)
#
#
# Indices 1 2 3 4 5 6 
#
# 1 97.4025 42.5462 43.4961 0.0000 9.5865 0.0000
# 2 42.5462 201.7642 36.9962 0.0000 6.1253 0.0000
# 3 43.4961 36.9962 179.0881 0.0000 17.2020 0.0000
# 4 0.0000 0.0000 0.0000 38.0432 0.0000 1.4136
# 5 9.5865 6.1253 17.2020 0.0000 39.8886 0.0000
# 6 0.0000 0.0000 0.0000 1.4136 0.0000 33.4117
#
#
#
# Elastic Compliance Matrix: (Units=1/GPa)
#
#
# Indices 1 2 3 4 5 6 
#
# 1 0.012439 -0.002129 -0.002426 0.000000 -0.001616 0.000000
# 2 -0.002129 0.005520 -0.000617 0.000000 -0.000070 0.000000
# 3 -0.002426 -0.000617 0.006505 0.000000 -0.002127 0.000000
# 4 0.000000 0.000000 0.000000 0.026327 0.000000 -0.001114
# 5 -0.001616 -0.000070 -0.002127 0.000000 0.026387 0.000000
# 6 0.000000 0.000000 0.000000 -0.001114 0.000000 0.029977
#
#
# Mechanical properties :
#
#
# Convention : Reuss Voigt Hill
#
# Bulk Modulus (GPa) = 70.81728 80.48133 75.64930
# Shear Modulus (GPa) = 40.91468 45.94977 43.43222
#
# Velocity S-wave (km/s) = 3.97303 4.21040 4.09344
# Velocity P-wave (km/s) = 6.95471 7.39503 7.17825
#
# Compressibility (1/GPa) = 0.01412085
#
# Stress axis : x y z
#
# Youngs Moduli (GPa) = 80.39118 181.14503 153.73261
#
# Poissons Ratio (x) = 0.38568 0.37297
# Poissons Ratio (y) = 0.17116 0.09479
# Poissons Ratio (z) = 0.19504 0.11169
#
# Static dielectric constant tensor:
#      x y z
#    x 4.265670 0.000000 -0.062720 
#    y 0.000000 5.635230 0.000000 
#    z -0.062720 0.000000 4.949470 
# 
# 
# High freq. dielectric constant tensor:
#      x y z
#    x 1.990250 0.000000 0.003590 
#    y 0.000000 2.080330 0.000000 
#    z 0.003590 0.000000 2.059520 
# 
# From -- ./inp_files/831.got.cif
#   From: 2010.03.12/outbox.cif.g09.slc.cpg/sg5_1_cif.got.tgz:831.got - 2010.03.31 09:47:26.
