data_PCOD8049868
_publ_section_title
;
Structure prediction by ZEFSAII (Michael W. Deem and Ramdas Pophale) SiO2 
 PCOD8049868
Probable space group: C 2
;
_chemical_formula_sum "Si O2"
_cell_formula_units_Z 22
_cell_length_a 10.658860
_cell_length_b 8.856429
_cell_length_c 12.254200
_cell_angle_alpha 90.000000
_cell_angle_beta 66.126398
_cell_angle_gamma 90.000000
_cell_volume 1057.815264
_symmetry_space_group_name_H-M "C 2"
_symmetry_group_IT_number 5
_symmetry_cell_setting 'monoclinic'
loop_
_space_group_symop_operation_xyz
x,y,z
-x,y,-z
1/2+x,1/2+y,z
1/2-x,1/2+y,-z
loop_
_atom_site_type_symbol
_atom_site_label
_atom_site_fract_x
_atom_site_fract_y
_atom_site_fract_z
Si Si1 0.104166 0.131970 0.055654
Si Si2 0.499166 0.976923 0.669789
Si Si3 0.599135 0.985460 0.059161
Si Si4 0.182919 0.983137 0.463408
Si Si5 0.000000 0.711242 0.500000
Si Si6 0.034321 0.135224 0.325395
O O1 0.122057 0.309229 0.032741
O O2 0.042546 0.090893 0.195550
O O3 0.000000 0.067621 0.000000
O O4 0.253260 0.061408 0.990871
O O5 0.479140 0.022246 0.801621
O O6 0.656881 0.976069 0.578898
O O7 0.434757 0.812988 0.668552
O O8 0.432237 0.106062 0.618089
O O9 0.500000 0.052214 0.000000
O O10 0.121917 0.815649 0.503595
O O11 0.145998 0.041054 0.354512
O O12 0.117323 0.094809 0.576898
#
# Coordination Sequence:
#
# PCOD8049868 Si02
#       6
#     4   4   4   4   2   4
#     4  10  22  40  60  85 117 154 193 237 285 339
#     4  11  21  36  59  84 113 148 187 233 283 338
#     4  10  23  40  60  85 117 154 193 238 286 338
#     4  10  21  38  58  82 115 149 182 235 286 334
#     4  10  22  34  56  88 110 144 192 228 280 344
#     4   9  20  38  57  81 116 150 185 231 286 337
#
# _framework density 20.797582999999999
#
# number of rings (size 3 to 8) (size 9 to 14) (size 15 to 20)
#    0.000    2.182    0.000    3.273    0.000    9.455 
#    0.000    5.455    0.000    0.000    0.000    0.000 
#    0.000    0.000    0.000    0.000    0.000    0.000 
#
# Total GULP energy -136397.628753 kJ/mol
# GULP energy per Si atom -12399.784432 kJ/mol
# Density = 2.075025 g / cm^3
# Si number density = 20.797583 Si / 1000 Ang^3
#
#
#
# Elastic Constant Matrix: (Units=GPa)
#
#
# Indices 1 2 3 4 5 6 
#
# 1 82.2947 13.5223 13.7148 0.0000 -7.6420 0.0000
# 2 13.5223 81.2281 46.5007 0.0000 9.2262 0.0000
# 3 13.7148 46.5007 111.0328 0.0000 4.8691 0.0000
# 4 0.0000 0.0000 0.0000 21.3014 0.0000 0.2328
# 5 -7.6420 9.2262 4.8691 0.0000 30.7257 0.0000
# 6 0.0000 0.0000 0.0000 0.2328 0.0000 23.1288
#
#
#
# Elastic Compliance Matrix: (Units=1/GPa)
#
#
# Indices 1 2 3 4 5 6 
#
# 1 0.013021 -0.002107 -0.000902 0.000000 0.004014 0.000000
# 2 -0.002107 0.016991 -0.006655 0.000000 -0.004571 0.000000
# 3 -0.000902 -0.006655 0.011910 0.000000 -0.000113 0.000000
# 4 0.000000 0.000000 0.000000 0.046951 0.000000 -0.000473
# 5 0.004014 -0.004571 -0.000113 0.000000 0.034935 0.000000
# 6 0.000000 0.000000 0.000000 -0.000473 0.000000 0.043241
#
#
# Mechanical properties :
#
#
# Convention : Reuss Voigt Hill
#
# Bulk Modulus (GPa) = 44.26112 46.89236 45.57674
# Shear Modulus (GPa) = 25.78551 28.41903 27.10227
#
# Velocity S-wave (km/s) = 3.52495 3.70057 3.61383
# Velocity P-wave (km/s) = 6.15590 6.39179 6.27495
#
# Compressibility (1/GPa) = 0.02259319
#
# Stress axis : x y z
#
# Youngs Moduli (GPa) = 76.80035 58.85514 83.96404
#
# Poissons Ratio (x) = 0.12402 0.07572
# Poissons Ratio (y) = 0.16184 0.55878
# Poissons Ratio (z) = 0.06926 0.39168
#
# Static dielectric constant tensor:
#      x y z
#    x 3.617130 0.000000 0.091760 
#    y 0.000000 3.873720 0.000000 
#    z 0.091760 0.000000 4.016270 
# 
# 
# High freq. dielectric constant tensor:
#      x y z
#    x 1.804630 0.000000 0.004920 
#    y 0.000000 1.817590 0.000000 
#    z 0.004920 0.000000 1.822770 
# 
# From -- ./inp_files/38120.got.cif
#   From: 2010.03.12/outbox.cif.g09.slc.cpg/sg5_20_cif.got.tgz:38120.got - 2010.03.31 09:47:26.
