data_PCOD8049228
_publ_section_title
;
Structure prediction by ZEFSAII (Michael W. Deem and Ramdas Pophale) SiO2 
 PCOD8049228
Probable space group: C 2
;
_chemical_formula_sum "Si O2"
_cell_formula_units_Z 30
_cell_length_a 4.920400
_cell_length_b 20.421610
_cell_length_c 14.878554
_cell_angle_alpha 90.000000
_cell_angle_beta 108.859949
_cell_angle_gamma 90.000000
_cell_volume 1414.768089
_symmetry_space_group_name_H-M "C 2"
_symmetry_group_IT_number 5
_symmetry_cell_setting 'monoclinic'
loop_
_space_group_symop_operation_xyz
x,y,z
-x,y,-z
1/2+x,1/2+y,z
1/2-x,1/2+y,-z
loop_
_atom_site_type_symbol
_atom_site_label
_atom_site_fract_x
_atom_site_fract_y
_atom_site_fract_z
Si Si1 0.500000 0.681840 0.500000
Si Si2 0.671227 0.469914 0.686802
Si Si3 0.121896 0.256002 0.676151
Si Si4 0.651870 0.010989 0.105476
Si Si5 0.650072 0.180586 0.726495
Si Si6 0.646780 0.598111 0.101964
Si Si7 0.394968 0.898033 0.387694
Si Si8 0.714258 0.078370 0.591565
O O1 0.686884 0.730101 0.582000
O O2 0.296219 0.639216 0.539227
O O3 0.809133 0.465359 0.801833
O O4 0.442200 0.412961 0.646804
O O5 0.498465 0.537743 0.649927
O O6 0.928952 0.457999 0.641766
O O7 0.399218 0.221534 0.751479
O O8 0.088059 0.333992 0.673006
O O9 0.826817 0.230521 0.684739
O O10 0.468750 0.074360 0.114860
O O11 0.969808 0.033821 0.113127
O O12 0.500000 0.977452 0.000000
O O13 0.858772 0.155155 0.826293
O O14 0.560287 0.113063 0.661839
O O15 0.500000 0.630448 0.000000
O O16 0.500000 0.884970 0.500000
O O17 0.500000 0.037431 0.500000
#
# Coordination Sequence:
#
# PCOD8049228 Si02
#       8
#     2   4   4   4   4   4   4   4
#     4  10  22  36  56  84 118 160 194 250 298 366
#     4  12  26  40  64  90 130 163 209 272 313 381
#     4  11  23  42  62  82 121 167 220 244 292 364
#     4  10  21  39  63  91 126 165 204 253 322 396
#     4  11  22  37  64  91 120 159 202 263 302 374
#     4  10  20  37  61  95 131 159 194 253 331 394
#     4  12  27  45  61  87 126 179 221 254 302 371
#     4  11  23  35  58  93 131 154 203 245 337 365
#
# _framework density 21.204889000000001
#
# number of rings (size 3 to 8) (size 9 to 14) (size 15 to 20)
#    0.000    1.067    3.333    3.200    5.600    0.000 
#    0.000    0.000    0.000    4.800    0.000    0.000 
#    0.000    0.000    0.000    0.000    0.000    0.000 
#
# Total GULP energy -185847.173438 kJ/mol
# GULP energy per Si atom -12389.811563 kJ/mol
# Density = 2.115663 g / cm^3
# Si number density = 21.204889 Si / 1000 Ang^3
#
#
#
# Elastic Constant Matrix: (Units=GPa)
#
#
# Indices 1 2 3 4 5 6 
#
# 1 68.6023 -1.2152 14.3110 0.0000 7.1234 0.0000
# 2 -1.2152 57.7694 22.1123 0.0000 4.1431 0.0000
# 3 14.3110 22.1123 139.4437 0.0000 7.6030 0.0000
# 4 0.0000 0.0000 0.0000 17.1156 0.0000 -1.1633
# 5 7.1234 4.1431 7.6030 0.0000 28.7407 0.0000
# 6 0.0000 0.0000 0.0000 -1.1633 0.0000 24.4527
#
#
#
# Elastic Compliance Matrix: (Units=1/GPa)
#
#
# Indices 1 2 3 4 5 6 
#
# 1 0.015292 0.001174 -0.001562 0.000000 -0.003546 0.000000
# 2 0.001174 0.018623 -0.002954 0.000000 -0.002194 0.000000
# 3 -0.001562 -0.002954 0.007869 0.000000 -0.001269 0.000000
# 4 0.000000 0.000000 0.000000 0.058616 0.000000 0.002789
# 5 -0.003546 -0.002194 -0.001269 0.000000 0.036325 0.000000
# 6 0.000000 0.000000 0.000000 0.002789 0.000000 0.041028
#
#
# Mechanical properties :
#
#
# Convention : Reuss Voigt Hill
#
# Bulk Modulus (GPa) = 28.49047 37.35904 32.92476
# Shear Modulus (GPa) = 25.49244 29.43561 27.46402
#
# Velocity S-wave (km/s) = 3.47103 3.72983 3.60276
# Velocity P-wave (km/s) = 5.43406 6.01708 5.73299
#
# Compressibility (1/GPa) = 0.03509946
#
# Stress axis : x y z
#
# Youngs Moduli (GPa) = 65.39512 53.69716 127.07639
#
# Poissons Ratio (x) = -0.06304 0.19852
# Poissons Ratio (y) = -0.07677 0.37538
# Poissons Ratio (z) = 0.10216 0.15862
#
# Static dielectric constant tensor:
#      x y z
#    x 3.953600 0.000000 0.009960 
#    y 0.000000 3.549180 0.000000 
#    z 0.009960 0.000000 4.267210 
# 
# 
# High freq. dielectric constant tensor:
#      x y z
#    x 1.845090 0.000000 0.004440 
#    y 0.000000 1.795820 0.000000 
#    z 0.004440 0.000000 1.831960 
# 
# From -- ./inp_files/49555.got.cif
#   From: 2010.03.12/outbox.cif.g09.slc.cpg/sg5_25_cif.got.tgz:49555.got - 2010.03.31 09:47:26.
