data_PCOD8049933
_publ_section_title
;
Structure prediction by ZEFSAII (Michael W. Deem and Ramdas Pophale) SiO2 
 PCOD8049933
Probable space group: C 2
;
_chemical_formula_sum "Si O2"
_cell_formula_units_Z 20
_cell_length_a 18.064780
_cell_length_b 8.865007
_cell_length_c 5.096857
_cell_angle_alpha 90.000000
_cell_angle_beta 91.865383
_cell_angle_gamma 90.000000
_cell_volume 815.800562
_symmetry_space_group_name_H-M "C 2"
_symmetry_group_IT_number 5
_symmetry_cell_setting 'monoclinic'
loop_
_space_group_symop_operation_xyz
x,y,z
-x,y,-z
1/2+x,1/2+y,z
1/2-x,1/2+y,-z
loop_
_atom_site_type_symbol
_atom_site_label
_atom_site_fract_x
_atom_site_fract_y
_atom_site_fract_z
Si Si1 0.048140 0.710100 0.241998
Si Si2 0.417916 0.538288 0.953247
Si Si3 0.088128 0.195930 0.546715
Si Si4 0.795677 0.592697 0.762689
Si Si5 0.710354 0.902046 0.714970
O O1 0.117276 0.602574 0.303884
O O2 0.000000 0.736700 0.500000
O O3 0.081320 0.866130 0.134020
O O4 0.000000 0.638128 0.000000
O O5 0.377662 0.639196 0.726223
O O6 0.500000 0.603177 0.000000
O O7 0.383719 0.568938 0.236977
O O8 0.125693 0.352276 0.638852
O O9 0.000000 0.215440 0.500000
O O10 0.761163 0.758107 0.773937
O O11 0.757855 0.494532 0.529241
O O12 0.785195 0.511045 0.037224
#
# Coordination Sequence:
#
# PCOD8049933 Si02
#       5
#     4   4   4   4   4
#     4  11  23  42  71 104 142 183 240 296 356 423
#     4   9  18  35  63 104 134 178 222 282 352 414
#     4  10  21  38  68 100 139 177 234 289 350 413
#     4  12  29  48  74 106 144 197 237 298 367 428
#     4  12  28  49  72 106 147 193 241 295 365 434
#
# _framework density 24.515798
#
# number of rings (size 3 to 8) (size 9 to 14) (size 15 to 20)
#    0.000    1.200    0.000    6.600    5.600    2.400 
#    0.000    0.000    0.000    0.000    0.000    0.000 
#    0.000    0.000    0.000    0.000    0.000    0.000 
#
# Total GULP energy -123941.769695 kJ/mol
# GULP energy per Si atom -12394.176969 kJ/mol
# Density = 2.446000 g / cm^3
# Si number density = 24.515798 Si / 1000 Ang^3
#
#
#
# Elastic Constant Matrix: (Units=GPa)
#
#
# Indices 1 2 3 4 5 6 
#
# 1 81.4465 43.2567 44.0805 0.0000 13.7741 0.0000
# 2 43.2567 104.8346 66.9385 0.0000 10.2655 0.0000
# 3 44.0805 66.9385 195.8720 0.0000 11.3132 0.0000
# 4 0.0000 0.0000 0.0000 54.6517 0.0000 11.4706
# 5 13.7741 10.2655 11.3132 0.0000 31.4031 0.0000
# 6 0.0000 0.0000 0.0000 11.4706 0.0000 35.4694
#
#
#
# Elastic Compliance Matrix: (Units=1/GPa)
#
#
# Indices 1 2 3 4 5 6 
#
# 1 0.016910 -0.005423 -0.001661 0.000000 -0.005046 0.000000
# 2 -0.005423 0.014142 -0.003557 0.000000 -0.000963 0.000000
# 3 -0.001661 -0.003557 0.006725 0.000000 -0.000532 0.000000
# 4 0.000000 0.000000 0.000000 0.019630 0.000000 -0.006348
# 5 -0.005046 -0.000963 -0.000532 0.000000 0.034564 0.000000
# 6 0.000000 0.000000 0.000000 -0.006348 0.000000 0.030246
#
#
# Mechanical properties :
#
#
# Convention : Reuss Voigt Hill
#
# Bulk Modulus (GPa) = 60.61980 76.74495 68.68238
# Shear Modulus (GPa) = 33.55749 39.49668 36.52709
#
# Velocity S-wave (km/s) = 3.70376 4.01817 3.86416
# Velocity P-wave (km/s) = 6.56285 7.27323 6.92715
#
# Compressibility (1/GPa) = 0.01649626
#
# Stress axis : x y z
#
# Youngs Moduli (GPa) = 59.13493 70.71212 148.68952
#
# Poissons Ratio (x) = 0.38347 0.24696
# Poissons Ratio (y) = 0.32068 0.52887
# Poissons Ratio (z) = 0.09822 0.25152
#
# Static dielectric constant tensor:
#      x y z
#    x 4.699610 0.000000 0.213760 
#    y 0.000000 4.162140 0.000000 
#    z 0.213760 0.000000 5.004800 
# 
# 
# High freq. dielectric constant tensor:
#      x y z
#    x 1.973950 0.000000 0.016430 
#    y 0.000000 1.962370 0.000000 
#    z 0.016430 0.000000 2.001110 
# 
# From -- ./inp_files/7924.got.cif
#   From: 2010.03.12/outbox.cif.g09.slc.cpg/sg5_4_cif.got.tgz:7924.got - 2010.03.31 09:47:26.
