data_PCOD8049692
_publ_section_title
;
Structure prediction by ZEFSAII (Michael W. Deem and Ramdas Pophale) SiO2 
 PCOD8049692
Probable space group: C 2
;
_chemical_formula_sum "Si O2"
_cell_formula_units_Z 22
_cell_length_a 24.559708
_cell_length_b 8.582852
_cell_length_c 16.244143
_cell_angle_alpha 90.000000
_cell_angle_beta 163.041399
_cell_angle_gamma 90.000000
_cell_volume 998.755648
_symmetry_space_group_name_H-M "C 2"
_symmetry_group_IT_number 5
_symmetry_cell_setting 'monoclinic'
loop_
_space_group_symop_operation_xyz
x,y,z
-x,y,-z
1/2+x,1/2+y,z
1/2-x,1/2+y,-z
loop_
_atom_site_type_symbol
_atom_site_label
_atom_site_fract_x
_atom_site_fract_y
_atom_site_fract_z
Si Si1 0.389815 0.954490 0.760445
Si Si2 0.173645 0.707751 0.692837
Si Si3 0.710925 0.041069 0.118640
Si Si4 0.000000 0.291373 0.500000
Si Si5 0.910914 0.206488 0.658624
Si Si6 0.490506 0.956142 0.647686
O O1 0.342552 0.798579 0.641294
O O2 0.205493 0.048711 0.519716
O O3 0.500000 0.899171 0.000000
O O4 0.520460 0.067937 0.893817
O O5 0.180249 0.893004 0.683731
O O6 0.144643 0.604267 0.567960
O O7 0.000000 0.669205 0.500000
O O8 0.370479 0.660156 0.019475
O O9 0.664314 0.007746 0.955456
O O10 0.836274 0.192185 0.304383
O O11 0.923493 0.394749 0.314198
O O12 0.876409 0.319644 0.530218
#
# Coordination Sequence:
#
# PCOD8049692 Si02
#       6
#     4   4   4   2   4   4
#     4  10  22  44  62  90 127 164 213 258 310 366
#     4  10  20  43  62  89 130 164 202 254 311 373
#     4  10  25  39  62  92 124 167 209 253 310 372
#     4  12  22  36  62  92 122 166 202 256 312 360
#     4  10  25  42  64  96 124 166 214 256 310 374
#     4  10  23  39  61  95 123 161 210 248 318 369
#
# _framework density 22.027408999999999
#
# number of rings (size 3 to 8) (size 9 to 14) (size 15 to 20)
#    0.000    2.182    1.818    1.091    5.091    8.727 
#    0.000    0.000    0.000    0.000    0.000    0.000 
#    0.000    0.000    0.000    0.000    0.000    0.000 
#
# Total GULP energy -136342.782480 kJ/mol
# GULP energy per Si atom -12394.798407 kJ/mol
# Density = 2.197727 g / cm^3
# Si number density = 22.027409 Si / 1000 Ang^3
#
#
#
# Elastic Constant Matrix: (Units=GPa)
#
#
# Indices 1 2 3 4 5 6 
#
# 1 82.6028 25.4304 31.3102 0.0000 -15.4058 0.0000
# 2 25.4304 87.2653 45.3708 0.0000 -8.0198 0.0000
# 3 31.3102 45.3708 84.2969 0.0000 -0.8270 0.0000
# 4 0.0000 0.0000 0.0000 26.6108 0.0000 -4.2646
# 5 -15.4058 -8.0198 -0.8270 0.0000 42.5646 0.0000
# 6 0.0000 0.0000 0.0000 -4.2646 0.0000 41.8013
#
#
#
# Elastic Compliance Matrix: (Units=1/GPa)
#
#
# Indices 1 2 3 4 5 6 
#
# 1 0.015372 -0.001473 -0.004866 0.000000 0.005192 0.000000
# 2 -0.001473 0.016402 -0.008257 0.000000 0.002397 0.000000
# 3 -0.004866 -0.008257 0.018086 0.000000 -0.002966 0.000000
# 4 0.000000 0.000000 0.000000 0.038203 0.000000 0.003898
# 5 0.005192 0.002397 -0.002966 0.000000 0.025767 0.000000
# 6 0.000000 0.000000 0.000000 0.003898 0.000000 0.024320
#
#
# Mechanical properties :
#
#
# Convention : Reuss Voigt Hill
#
# Bulk Modulus (GPa) = 48.38556 50.93197 49.65876
# Shear Modulus (GPa) = 28.69739 32.33225 30.51482
#
# Velocity S-wave (km/s) = 3.61335 3.83537 3.72602
# Velocity P-wave (km/s) = 6.27871 6.54108 6.41124
#
# Compressibility (1/GPa) = 0.02066733
#
# Stress axis : x y z
#
# Youngs Moduli (GPa) = 65.05218 60.96844 55.29270
#
# Poissons Ratio (x) = 0.08978 0.26906
# Poissons Ratio (y) = 0.09579 0.45658
# Poissons Ratio (z) = 0.31656 0.50345
#
# Static dielectric constant tensor:
#      x y z
#    x 3.998650 0.000000 -0.152890 
#    y 0.000000 3.909070 0.000000 
#    z -0.152890 0.000000 3.804100 
# 
# 
# High freq. dielectric constant tensor:
#      x y z
#    x 1.867480 0.000000 -0.011280 
#    y 0.000000 1.864540 0.000000 
#    z -0.011280 0.000000 1.851830 
# 
# From -- ./inp_files/57659.got.cif
#   From: 2010.03.12/outbox.cif.g09.slc.cpg/sg5_29_cif.got.tgz:57659.got - 2010.03.31 09:47:26.
