data_PCOD8049984
_publ_section_title
;
Structure prediction by ZEFSAII (Michael W. Deem and Ramdas Pophale) SiO2 
 PCOD8049984
Probable space group: C 2
;
_chemical_formula_sum "Si O2"
_cell_formula_units_Z 24
_cell_length_a 11.118969
_cell_length_b 9.770869
_cell_length_c 22.596005
_cell_angle_alpha 90.000000
_cell_angle_beta 153.084255
_cell_angle_gamma 90.000000
_cell_volume 1111.272198
_symmetry_space_group_name_H-M "C 2"
_symmetry_group_IT_number 5
_symmetry_cell_setting 'monoclinic'
loop_
_space_group_symop_operation_xyz
x,y,z
-x,y,-z
1/2+x,1/2+y,z
1/2-x,1/2+y,-z
loop_
_atom_site_type_symbol
_atom_site_label
_atom_site_fract_x
_atom_site_fract_y
_atom_site_fract_z
Si Si1 0.499021 0.378870 0.068039
Si Si2 0.817929 0.736227 0.263362
Si Si3 0.270958 0.657713 0.984212
Si Si4 0.517549 0.446402 0.573309
Si Si5 0.848054 0.718444 0.702368
Si Si6 0.415220 0.947040 0.339905
O O1 0.393141 0.226457 0.034011
O O2 0.796021 0.393178 0.224767
O O3 0.500000 0.410438 0.000000
O O4 0.308014 0.495843 0.013074
O O5 0.829010 0.603961 0.310972
O O6 0.799185 0.863183 0.300341
O O7 0.074959 0.735324 0.332782
O O8 0.557049 0.732353 0.107683
O O9 0.117191 0.687102 0.856065
O O10 0.500000 0.379532 0.500000
O O11 0.635716 0.598021 0.618569
O O12 0.230339 0.440812 0.477134
O O13 0.708075 0.858738 0.660984
#
# Coordination Sequence:
#
# PCOD8049984 Si02
#       6
#     4   4   4   4   4   4
#     4  10  21  39  63  91 132 167 211 263 317 371
#     4  11  23  43  66  95 131 169 211 266 319 378
#     4  10  21  39  69  97 123 168 214 261 324 375
#     4  12  25  42  66  94 130 172 215 255 321 382
#     4  11  23  45  66  94 131 165 216 269 315 380
#     4  10  23  41  62  95 126 169 215 260 316 381
#
# _framework density 21.596868000000001
#
# number of rings (size 3 to 8) (size 9 to 14) (size 15 to 20)
#    0.000    1.333    1.667    4.500    2.333    0.000 
#    6.000   10.833    0.000    0.000    0.000    0.000 
#    0.000    0.000    0.000    0.000    0.000    0.000 
#
# Total GULP energy -148768.262114 kJ/mol
# GULP energy per Si atom -12397.355176 kJ/mol
# Density = 2.154771 g / cm^3
# Si number density = 21.596868 Si / 1000 Ang^3
#
#
#
# Elastic Constant Matrix: (Units=GPa)
#
#
# Indices 1 2 3 4 5 6 
#
# 1 82.4629 56.8532 32.2245 0.0019 -7.1298 0.0004
# 2 56.8532 103.0045 31.3704 0.0016 -10.2573 0.0004
# 3 32.2245 31.3704 101.1673 0.0023 5.2577 0.0019
# 4 0.0019 0.0016 0.0023 32.1317 0.0011 -0.0034
# 5 -7.1298 -10.2573 5.2577 0.0011 22.5394 0.0003
# 6 0.0004 0.0004 0.0019 -0.0034 0.0003 26.5138
#
#
#
# Elastic Compliance Matrix: (Units=1/GPa)
#
#
# Indices 1 2 3 4 5 6 
#
# 1 0.020717 -0.010047 -0.003630 -0.000001 0.002828 0.000000
# 2 -0.010047 0.016376 -0.002126 0.000000 0.004770 0.000000
# 3 -0.003630 -0.002126 0.011955 0.000000 -0.004904 -0.000001
# 4 -0.000001 0.000000 0.000000 0.031122 -0.000002 0.000004
# 5 0.002828 0.004770 -0.004904 -0.000002 0.048576 0.000000
# 6 0.000000 0.000000 -0.000001 0.000004 0.000000 0.037716
#
#
# Mechanical properties :
#
#
# Convention : Reuss Voigt Hill
#
# Bulk Modulus (GPa) = 57.33427 58.61453 57.97440
# Shear Modulus (GPa) = 24.52390 27.31610 25.92000
#
# Velocity S-wave (km/s) = 3.37342 3.56029 3.46811
# Velocity P-wave (km/s) = 6.46362 6.64079 6.55280
#
# Compressibility (1/GPa) = 0.01744158
#
# Stress axis : x y z
#
# Youngs Moduli (GPa) = 48.26979 61.06372 83.64736
#
# Poissons Ratio (x) = 0.61353 0.30366
# Poissons Ratio (y) = 0.48499 0.17780
# Poissons Ratio (z) = 0.17523 0.12980
#
# Static dielectric constant tensor:
#      x y z
#    x 3.611880 0.000000 0.024520 
#    y 0.000000 3.942760 0.000000 
#    z 0.024520 0.000000 4.173630 
# 
# 
# High freq. dielectric constant tensor:
#      x y z
#    x 1.823210 0.000000 0.003510 
#    y 0.000000 1.843850 0.000000 
#    z 0.003510 0.000000 1.871630 
# 
# From -- ./inp_files/47248.got.cif
#   From: 2010.03.12/outbox.cif.g09.slc.cpg/sg5_24_cif.got.tgz:47248.got - 2010.03.31 09:47:26.
