data_PCOD8049188
_publ_section_title
;
Structure prediction by ZEFSAII (Michael W. Deem and Ramdas Pophale) SiO2 
 PCOD8049188
Probable space group: C 2
;
_chemical_formula_sum "Si O2"
_cell_formula_units_Z 32
_cell_length_a 8.486197
_cell_length_b 11.642930
_cell_length_c 19.779889
_cell_angle_alpha 90.000000
_cell_angle_beta 48.545808
_cell_angle_gamma 90.000000
_cell_volume 1464.746045
_symmetry_space_group_name_H-M "C 2"
_symmetry_group_IT_number 5
_symmetry_cell_setting 'monoclinic'
loop_
_space_group_symop_operation_xyz
x,y,z
-x,y,-z
1/2+x,1/2+y,z
1/2-x,1/2+y,-z
loop_
_atom_site_type_symbol
_atom_site_label
_atom_site_fract_x
_atom_site_fract_y
_atom_site_fract_z
Si Si1 0.936142 0.302950 0.705585
Si Si2 0.315599 0.883934 0.603417
Si Si3 0.676218 0.140173 0.398554
Si Si4 0.456475 0.784055 0.846139
Si Si5 0.780041 0.319867 0.034979
Si Si6 0.949414 0.647092 0.183347
Si Si7 0.421067 0.213365 0.717227
Si Si8 0.300108 0.056948 0.098275
O O1 0.154590 0.237932 0.640948
O O2 0.912237 0.354588 0.788801
O O3 0.917505 0.393690 0.649990
O O4 0.760854 0.211327 0.738177
O O5 0.500000 0.841544 0.500000
O O6 0.111367 0.803989 0.657277
O O7 0.240966 0.012905 0.606304
O O8 0.500000 0.179390 0.500000
O O9 0.586991 0.138838 0.347806
O O10 0.384145 0.651133 0.853495
O O11 0.704269 0.782574 0.793197
O O12 0.317989 0.843024 0.944240
O O13 0.597911 0.228812 0.096095
O O14 0.716855 0.436760 0.092103
O O15 0.000000 0.269076 0.000000
O O16 0.051989 0.622755 0.227543
O O17 0.884046 0.540405 0.152948
O O18 0.500000 0.101228 0.000000
#
# Coordination Sequence:
#
# PCOD8049188 Si02
#       8
#     4   4   4   4   4   4   4   4
#     4   9  21  37  61  91 119 153 195 251 293 345
#     4  10  21  41  65  90 120 156 193 237 304 368
#     4  10  21  41  64  90 122 154 193 241 300 365
#     4  10  20  39  59  86 126 153 206 252 286 351
#     4  11  21  37  61  86 115 168 199 243 303 337
#     4  10  20  37  59  83 125 152 203 251 284 353
#     4  10  21  38  63  89 120 157 193 250 297 347
#     4  10  21  37  62  82 115 164 202 244 299 339
#
# _framework density 21.846791
#
# number of rings (size 3 to 8) (size 9 to 14) (size 15 to 20)
#    0.000    2.000    2.500    0.750    0.000    6.000 
#    4.500    3.750   16.500   13.500    0.000    0.000 
#    0.000    0.000    0.000    0.000    0.000    0.000 
#
# Total GULP energy -198234.774264 kJ/mol
# GULP energy per Si atom -12389.673391 kJ/mol
# Density = 2.179707 g / cm^3
# Si number density = 21.846791 Si / 1000 Ang^3
#
#
#
# Elastic Constant Matrix: (Units=GPa)
#
#
# Indices 1 2 3 4 5 6 
#
# 1 81.9302 4.8806 27.0941 0.0002 10.1657 -0.0003
# 2 4.8806 47.8344 10.7122 0.0002 -6.6915 -0.0003
# 3 27.0941 10.7122 115.0756 0.0002 13.9945 -0.0003
# 4 0.0002 0.0002 0.0002 0.6037 -0.0001 33.0790
# 5 10.1657 -6.6915 13.9945 -0.0001 36.9103 0.0001
# 6 -0.0003 -0.0003 -0.0003 33.0790 0.0001 -18.3467
#
#
#
# Elastic Compliance Matrix: (Units=1/GPa)
#
#
# Indices 1 2 3 4 5 6 
#
# 1 0.013537 -0.001178 -0.002724 0.000000 -0.002909 0.000000
# 2 -0.001178 0.022314 -0.002444 0.000000 0.005296 0.000000
# 3 -0.002724 -0.002444 0.009982 0.000000 -0.003477 0.000000
# 4 0.000000 0.000000 0.000000 0.016599 0.000000 0.029928
# 5 -0.002909 0.005296 -0.003477 0.000000 0.030173 0.000000
# 6 0.000000 0.000000 0.000000 0.029928 0.000000 -0.000546
#
#
# Mechanical properties :
#
#
# Convention : Reuss Voigt Hill
#
# Bulk Modulus (GPa) = 30.17404 36.69044 33.43224
# Shear Modulus (GPa) = 43.17896 17.31034 30.24465
#
# Velocity S-wave (km/s) = 4.45054 2.81793 3.72479
# Velocity P-wave (km/s) = 6.34440 5.23627 5.81678
#
# Compressibility (1/GPa) = 0.03314107
#
# Stress axis : x y z
#
# Youngs Moduli (GPa) = 73.86919 44.81521 100.18394
#
# Poissons Ratio (x) = 0.05280 0.27289
# Poissons Ratio (y) = 0.08704 0.24483
# Poissons Ratio (z) = 0.20121 0.10952
#
# Static dielectric constant tensor:
#      x y z
#    x 5.672260 0.000000 0.746870 
#    y 0.000000 3.405100 0.000000 
#    z 0.746870 0.000000 4.409620 
# 
# 
# High freq. dielectric constant tensor:
#      x y z
#    x 1.867400 0.000000 0.010400 
#    y 0.000000 1.820250 0.000000 
#    z 0.010400 0.000000 1.879520 
# 
# From -- ./inp_files/64554.got.cif
#   From: 2010.03.12/outbox.cif.g09.slc.cpg/sg5_33_cif.got.tgz:64554.got - 2010.03.31 09:47:26.
