data_PCOD8049337
_publ_section_title
;
Structure prediction by ZEFSAII (Michael W. Deem and Ramdas Pophale) SiO2 
 PCOD8049337
Probable space group: C 2
;
_chemical_formula_sum "Si O2"
_cell_formula_units_Z 24
_cell_length_a 15.197505
_cell_length_b 16.011766
_cell_length_c 8.692281
_cell_angle_alpha 90.000000
_cell_angle_beta 35.040224
_cell_angle_gamma 90.000000
_cell_volume 1214.427786
_symmetry_space_group_name_H-M "C 2"
_symmetry_group_IT_number 5
_symmetry_cell_setting 'monoclinic'
loop_
_space_group_symop_operation_xyz
x,y,z
-x,y,-z
1/2+x,1/2+y,z
1/2-x,1/2+y,-z
loop_
_atom_site_type_symbol
_atom_site_label
_atom_site_fract_x
_atom_site_fract_y
_atom_site_fract_z
Si Si1 0.424797 0.720550 0.254598
Si Si2 0.330355 0.798772 0.670826
Si Si3 0.809837 0.586628 0.435251
Si Si4 0.412512 0.584198 0.785207
Si Si5 0.843721 0.627016 0.040647
Si Si6 0.852344 0.955229 0.125578
O O1 0.345121 0.794247 0.463928
O O2 0.308473 0.656439 0.339966
O O3 0.534990 0.672630 0.218423
O O4 0.500000 0.764899 0.000000
O O5 0.500000 0.798611 0.500000
O O6 0.222591 0.721190 0.872160
O O7 0.241608 0.884554 0.831833
O O8 0.796145 0.580428 0.268574
O O9 0.764304 0.502028 0.589484
O O10 0.976099 0.621008 0.243423
O O11 0.500000 0.566576 0.500000
O O12 0.233155 0.582587 0.995849
O O13 0.433504 0.514557 0.884220
O O14 0.000000 0.915872 0.000000
#
# Coordination Sequence:
#
# PCOD8049337 Si02
#       6
#     4   4   4   4   4   4
#     4  11  19  41  66  88 116 169 213 252 303 375
#     4  11  24  42  61  91 131 164 199 261 321 359
#     4  10  20  38  62  94 119 159 214 249 302 370
#     4  12  19  40  68  86 118 167 215 258 299 366
#     4  10  21  38  68  87 120 166 213 253 300 373
#     4  12  25  40  62  94 132 162 203 262 317 363
#
# _framework density 19.762394
#
# number of rings (size 3 to 8) (size 9 to 14) (size 15 to 20)
#    0.000    1.000    8.333    0.000    7.000    0.000 
#    3.000    1.667    3.667    0.000    0.000    0.000 
#    0.000    0.000    0.000    0.000    0.000    0.000 
#
# Total GULP energy -148681.542845 kJ/mol
# GULP energy per Si atom -12390.128570 kJ/mol
# Density = 1.971741 g / cm^3
# Si number density = 19.762394 Si / 1000 Ang^3
#
#
#
# Elastic Constant Matrix: (Units=GPa)
#
#
# Indices 1 2 3 4 5 6 
#
# 1 95.0676 19.8086 33.2686 0.0001 -24.2548 0.0000
# 2 19.8086 60.9460 14.1394 0.0000 -2.3381 0.0000
# 3 33.2686 14.1394 72.9079 0.0001 -5.7472 0.0000
# 4 0.0001 0.0000 0.0001 25.2777 0.0000 -6.9593
# 5 -24.2548 -2.3381 -5.7472 0.0000 37.0690 0.0000
# 6 0.0000 0.0000 0.0000 -6.9593 0.0000 24.3273
#
#
#
# Elastic Compliance Matrix: (Units=1/GPa)
#
#
# Indices 1 2 3 4 5 6 
#
# 1 0.015537 -0.003375 -0.005721 0.000000 0.009066 0.000000
# 2 -0.003375 0.017926 -0.002046 0.000000 -0.001395 0.000000
# 3 -0.005721 -0.002046 0.016621 0.000000 -0.001295 0.000000
# 4 0.000000 0.000000 0.000000 0.042943 0.000000 0.012285
# 5 0.009066 -0.001395 -0.001295 0.000000 0.032620 0.000000
# 6 0.000000 0.000000 0.000000 0.012285 0.000000 0.044620
#
#
# Mechanical properties :
#
#
# Convention : Reuss Voigt Hill
#
# Bulk Modulus (GPa) = 35.97057 40.37273 38.17165
# Shear Modulus (GPa) = 24.77482 28.11514 26.44498
#
# Velocity S-wave (km/s) = 3.54451 3.77591 3.66204
# Velocity P-wave (km/s) = 5.91544 6.28358 6.10229
#
# Compressibility (1/GPa) = 0.02780051
#
# Stress axis : x y z
#
# Youngs Moduli (GPa) = 64.36245 55.78454 60.16468
#
# Poissons Ratio (x) = 0.18826 0.34417
# Poissons Ratio (y) = 0.21721 0.12313
# Poissons Ratio (z) = 0.36819 0.11416
#
# Static dielectric constant tensor:
#      x y z
#    x 3.906810 0.000000 -0.159220 
#    y 0.000000 3.280750 0.000000 
#    z -0.159220 0.000000 3.687920 
# 
# 
# High freq. dielectric constant tensor:
#      x y z
#    x 1.788810 0.000000 -0.008030 
#    y 0.000000 1.735240 0.000000 
#    z -0.008030 0.000000 1.772760 
# 
# From -- ./inp_files/24478.got.cif
#   From: 2010.03.12/outbox.cif.g09.slc.cpg/sg5_13_cif.got.tgz:24478.got - 2010.03.31 09:47:26.
