data_PCOD8049316
_publ_section_title
;
Structure prediction by ZEFSAII (Michael W. Deem and Ramdas Pophale) SiO2 
 PCOD8049316
Probable space group: C 2
;
_chemical_formula_sum "Si O2"
_cell_formula_units_Z 28
_cell_length_a 16.303674
_cell_length_b 8.375870
_cell_length_c 14.111882
_cell_angle_alpha 90.000000
_cell_angle_beta 128.618417
_cell_angle_gamma 90.000000
_cell_volume 1505.668032
_symmetry_space_group_name_H-M "C 2"
_symmetry_group_IT_number 5
_symmetry_cell_setting 'monoclinic'
loop_
_space_group_symop_operation_xyz
x,y,z
-x,y,-z
1/2+x,1/2+y,z
1/2-x,1/2+y,-z
loop_
_atom_site_type_symbol
_atom_site_label
_atom_site_fract_x
_atom_site_fract_y
_atom_site_fract_z
Si Si1 0.869572 0.261100 0.114778
Si Si2 0.000254 0.711192 0.255051
Si Si3 0.526603 0.966512 0.118905
Si Si4 0.407028 0.343639 0.505078
Si Si5 0.798125 0.214002 0.738886
Si Si6 0.055349 0.052610 0.303093
Si Si7 0.775448 0.566728 0.122809
O O1 0.923085 0.368515 0.072847
O O2 0.797611 0.376694 0.128282
O O3 0.962388 0.183194 0.245205
O O4 0.802282 0.122842 0.016648
O O5 0.055692 0.596197 0.219147
O O6 0.880682 0.667643 0.187488
O O7 0.063860 0.699668 0.400677
O O8 0.005336 0.892817 0.219944
O O9 0.623583 0.850370 0.170226
O O10 0.500000 0.052482 0.000000
O O11 0.500000 0.371584 0.500000
O O12 0.303422 0.303251 0.373505
O O13 0.397308 0.508909 0.558971
O O14 0.849120 0.111282 0.692211
O O15 0.772270 0.097656 0.807790
#
# Coordination Sequence:
#
# PCOD8049316 Si02
#       7
#     4   4   4   4   4   4   4
#     4  10  21  38  60  90 125 156 206 246 312 361
#     4   9  21  38  58  87 118 159 201 241 299 359
#     4  10  20  38  61  90 123 158 195 251 309 362
#     4  10  21  40  63  79 120 163 199 244 301 360
#     4  11  21  38  63  87 119 160 203 249 310 354
#     4   9  22  40  57  89 117 159 199 258 297 356
#     4  11  20  37  62  89 119 167 195 253 304 369
#
# _framework density 18.596395999999999
#
# number of rings (size 3 to 8) (size 9 to 14) (size 15 to 20)
#    0.857    1.143    2.857    0.857    2.000    0.000 
#    7.714    1.429    0.000    0.000    0.000    0.000 
#    0.000    0.000    0.000    0.000    0.000    0.000 
#
# Total GULP energy -173519.244400 kJ/mol
# GULP energy per Si atom -12394.231743 kJ/mol
# Density = 1.855407 g / cm^3
# Si number density = 18.596396 Si / 1000 Ang^3
#
#
#
# Elastic Constant Matrix: (Units=GPa)
#
#
# Indices 1 2 3 4 5 6 
#
# 1 118.4295 50.6947 49.2475 0.0000 -11.3504 0.0000
# 2 50.6947 85.1513 17.2685 0.0000 -9.8974 0.0000
# 3 49.2475 17.2685 68.7783 0.0000 -18.6572 0.0000
# 4 0.0000 0.0000 0.0000 16.7679 0.0000 -5.9325
# 5 -11.3504 -9.8974 -18.6572 0.0000 25.7514 0.0000
# 6 0.0000 0.0000 0.0000 -5.9325 0.0000 33.1456
#
#
#
# Elastic Compliance Matrix: (Units=1/GPa)
#
#
# Indices 1 2 3 4 5 6 
#
# 1 0.015625 -0.007633 -0.010205 0.000000 -0.003440 0.000000
# 2 -0.007633 0.016307 0.002686 0.000000 0.004850 0.000000
# 3 -0.010205 0.002686 0.025181 0.000000 0.014778 0.000000
# 4 0.000000 0.000000 0.000000 0.063670 0.000000 0.011396
# 5 -0.003440 0.004850 0.014778 0.000000 0.049888 0.000000
# 6 0.000000 0.000000 0.000000 0.011396 0.000000 0.032210
#
#
# Mechanical properties :
#
#
# Convention : Reuss Voigt Hill
#
# Bulk Modulus (GPa) = 37.29855 56.30894 46.80375
# Shear Modulus (GPa) = 20.65114 25.47620 23.06367
#
# Velocity S-wave (km/s) = 3.33602 3.70530 3.52550
# Velocity P-wave (km/s) = 5.91093 6.97502 6.46491
#
# Compressibility (1/GPa) = 0.02681069
#
# Stress axis : x y z
#
# Youngs Moduli (GPa) = 64.00065 61.32443 39.71290
#
# Poissons Ratio (x) = 0.46806 0.40526
# Poissons Ratio (y) = 0.48849 -0.10669
# Poissons Ratio (z) = 0.65311 -0.16475
#
# Static dielectric constant tensor:
#      x y z
#    x 3.459540 0.000000 0.024510 
#    y 0.000000 3.334730 0.000000 
#    z 0.024510 0.000000 3.347590 
# 
# 
# High freq. dielectric constant tensor:
#      x y z
#    x 1.726800 0.000000 0.003920 
#    y 0.000000 1.709110 0.000000 
#    z 0.003920 0.000000 1.719540 
# 
# From -- ./inp_files/54209.got.cif
#   From: 2010.03.12/outbox.cif.g09.slc.cpg/sg5_28_cif.got.tgz:54209.got - 2010.03.31 09:47:26.
