data_PCOD8049953
_publ_section_title
;
Structure prediction by ZEFSAII (Michael W. Deem and Ramdas Pophale) SiO2 
 PCOD8049953
Probable space group: C 2
;
_chemical_formula_sum "Si O2"
_cell_formula_units_Z 24
_cell_length_a 7.967926
_cell_length_b 11.431227
_cell_length_c 16.836053
_cell_angle_alpha 90.000000
_cell_angle_beta 53.320803
_cell_angle_gamma 90.000000
_cell_volume 1229.840453
_symmetry_space_group_name_H-M "C 2"
_symmetry_group_IT_number 5
_symmetry_cell_setting 'monoclinic'
loop_
_space_group_symop_operation_xyz
x,y,z
-x,y,-z
1/2+x,1/2+y,z
1/2-x,1/2+y,-z
loop_
_atom_site_type_symbol
_atom_site_label
_atom_site_fract_x
_atom_site_fract_y
_atom_site_fract_z
Si Si1 0.834081 0.771220 0.268603
Si Si2 0.038506 0.613588 0.338775
Si Si3 0.582987 0.872970 0.566584
Si Si4 0.538745 0.512520 0.826844
Si Si5 0.500000 0.251577 0.500000
Si Si6 0.500000 0.399749 0.000000
Si Si7 0.825725 0.679003 0.104478
O O1 0.583576 0.791882 0.339326
O O2 0.900903 0.693045 0.174152
O O3 0.899571 0.704352 0.328991
O O4 0.949849 0.897645 0.232119
O O5 0.238304 0.576048 0.230679
O O6 0.901082 0.500468 0.398412
O O7 0.109384 0.673474 0.401178
O O8 0.500000 0.882074 0.500000
O O9 0.817371 0.824694 0.508404
O O10 0.384601 0.606532 0.833032
O O11 0.454649 0.481744 0.938081
O O12 0.301839 0.312468 0.075483
O O13 0.000000 0.613556 0.000000
#
# Coordination Sequence:
#
# PCOD8049953 Si02
#       7
#     4   4   4   4   2   2   4
#     4  10  22  42  60  90 125 161 198 265 311 357
#     4  11  24  40  64  91 125 165 209 255 312 372
#     4  11  23  42  64  91 131 160 207 265 304 368
#     4  10  21  39  61  86 126 160 205 255 308 375
#     4  12  24  40  66  98 118 174 214 244 320 366
#     4   8  20  36  60  86 122 156 198 254 308 350
#     4   9  20  40  59  88 122 157 203 253 306 365
#
# _framework density 19.514724999999999
#
# number of rings (size 3 to 8) (size 9 to 14) (size 15 to 20)
#    0.500    1.333    2.500    1.000    2.333    2.667 
#    3.000    0.000    0.000    0.000    0.000    0.000 
#    0.000    0.000    0.000    0.000    0.000    0.000 
#
# Total GULP energy -148726.568641 kJ/mol
# GULP energy per Si atom -12393.880720 kJ/mol
# Density = 1.947031 g / cm^3
# Si number density = 19.514725 Si / 1000 Ang^3
#
#
#
# Elastic Constant Matrix: (Units=GPa)
#
#
# Indices 1 2 3 4 5 6 
#
# 1 91.5395 55.3371 38.3868 0.0001 3.8660 -0.0001
# 2 55.3371 100.2391 35.5841 0.0000 2.9903 0.0000
# 3 38.3868 35.5841 94.4243 0.0002 12.4871 -0.0001
# 4 0.0001 0.0000 0.0002 32.5232 -0.0001 -1.3793
# 5 3.8660 2.9903 12.4871 -0.0001 29.7269 0.0000
# 6 -0.0001 0.0000 -0.0001 -1.3793 0.0000 31.2080
#
#
#
# Elastic Compliance Matrix: (Units=1/GPa)
#
#
# Indices 1 2 3 4 5 6 
#
# 1 0.017640 -0.008298 -0.004078 0.000000 0.000253 0.000000
# 2 -0.008298 0.015434 -0.002520 0.000000 0.000585 0.000000
# 3 -0.004078 -0.002520 0.013865 0.000000 -0.005040 0.000000
# 4 0.000000 0.000000 0.000000 0.030805 0.000000 0.001362
# 5 0.000253 0.000585 -0.005040 0.000000 0.035665 0.000000
# 6 0.000000 0.000000 0.000000 0.001362 0.000000 0.032103
#
#
# Mechanical properties :
#
#
# Convention : Reuss Voigt Hill
#
# Bulk Modulus (GPa) = 58.32090 60.53543 59.42817
# Shear Modulus (GPa) = 27.62131 29.15127 28.38629
#
# Velocity S-wave (km/s) = 3.76627 3.86918 3.81807
# Velocity P-wave (km/s) = 6.99025 7.14482 7.06795
#
# Compressibility (1/GPa) = 0.01714651
#
# Stress axis : x y z
#
# Youngs Moduli (GPa) = 56.68996 64.79031 72.12652
#
# Poissons Ratio (x) = 0.53764 0.29410
# Poissons Ratio (y) = 0.47042 0.18179
# Poissons Ratio (z) = 0.23116 0.16330
#
# Static dielectric constant tensor:
#      x y z
#    x 3.087930 0.000000 0.062340 
#    y 0.000000 3.572720 0.000000 
#    z 0.062340 0.000000 3.742540 
# 
# 
# High freq. dielectric constant tensor:
#      x y z
#    x 1.725540 0.000000 0.011990 
#    y 0.000000 1.763360 0.000000 
#    z 0.011990 0.000000 1.780450 
# 
# From -- ./inp_files/50079.got.cif
#   From: 2010.03.12/outbox.cif.g09.slc.cpg/sg5_26_cif.got.tgz:50079.got - 2010.03.31 09:47:26.
