data_PCOD8049963
_publ_section_title
;
Structure prediction by ZEFSAII (Michael W. Deem and Ramdas Pophale) SiO2 
 PCOD8049963
Probable space group: C 2
;
_chemical_formula_sum "Si O2"
_cell_formula_units_Z 32
_cell_length_a 26.868564
_cell_length_b 8.904752
_cell_length_c 8.900757
_cell_angle_alpha 90.000000
_cell_angle_beta 48.697881
_cell_angle_gamma 90.000000
_cell_volume 1599.822401
_symmetry_space_group_name_H-M "C 2"
_symmetry_group_IT_number 5
_symmetry_cell_setting 'monoclinic'
loop_
_space_group_symop_operation_xyz
x,y,z
-x,y,-z
1/2+x,1/2+y,z
1/2-x,1/2+y,-z
loop_
_atom_site_type_symbol
_atom_site_label
_atom_site_fract_x
_atom_site_fract_y
_atom_site_fract_z
Si Si1 0.246680 0.263540 0.847626
Si Si2 0.870474 0.418426 0.086410
Si Si3 0.380104 0.266323 0.063602
Si Si4 0.370954 0.913406 0.431042
Si Si5 0.000056 0.232990 0.173443
Si Si6 0.502380 0.418363 0.672344
Si Si7 0.121567 0.758398 0.585031
Si Si8 0.238819 0.913550 0.867570
O O1 0.179500 0.337088 0.924933
O O2 0.302991 0.291694 0.611277
O O3 0.233334 0.089910 0.902021
O O4 0.270632 0.334166 0.955061
O O5 0.866848 0.593098 0.055321
O O6 0.850281 0.389794 0.299087
O O7 0.943653 0.356430 0.908166
O O8 0.388372 0.300579 0.222440
O O9 0.319406 0.364533 0.126692
O O10 0.447852 0.308095 0.847914
O O11 0.430451 0.805088 0.359987
O O12 0.308970 0.867531 0.656321
O O13 0.394914 0.083779 0.411105
O O14 0.012963 0.087547 0.247351
O O15 0.000000 0.184139 0.000000
O O16 0.500000 0.409683 0.500000
O O17 0.574219 0.364433 0.582768
#
# Coordination Sequence:
#
# PCOD8049963 Si02
#       8
#     4   4   4   4   4   4   4   4
#     4  11  23  39  59  87 123 156 193 239 292 347
#     4  10  21  39  63  88 115 152 198 245 290 343
#     4  11  22  40  64  87 115 153 198 242 290 345
#     4   9  21  40  62  87 115 153 198 243 291 343
#     4  10  21  39  62  87 116 153 199 244 288 343
#     4  12  25  39  58  88 122 154 192 239 293 349
#     4  10  22  41  63  86 115 154 197 242 290 345
#     4  11  23  39  59  88 123 157 193 238 292 347
#
# _framework density 20.002217999999999
#
# number of rings (size 3 to 8) (size 9 to 14) (size 15 to 20)
#    0.000    1.500    0.000    4.875    0.000    8.000 
#    0.000    1.250    0.000    0.000    0.000    0.000 
#    0.000    0.000    0.000    0.000    0.000    0.000 
#
# Total GULP energy -198516.751088 kJ/mol
# GULP energy per Si atom -12407.296943 kJ/mol
# Density = 1.995669 g / cm^3
# Si number density = 20.002218 Si / 1000 Ang^3
#
#
#
# Elastic Constant Matrix: (Units=GPa)
#
#
# Indices 1 2 3 4 5 6 
#
# 1 104.2000 47.6130 42.1400 0.0000 2.5539 0.0000
# 2 47.6130 92.3361 35.4129 0.0000 1.0218 0.0000
# 3 42.1400 35.4129 85.7062 0.0000 7.0291 0.0000
# 4 0.0000 0.0000 0.0000 28.4763 0.0000 0.6734
# 5 2.5539 1.0218 7.0291 0.0000 30.2905 0.0000
# 6 0.0000 0.0000 0.0000 0.6734 0.0000 33.9891
#
#
#
# Elastic Compliance Matrix: (Units=1/GPa)
#
#
# Indices 1 2 3 4 5 6 
#
# 1 0.013939 -0.005416 -0.004622 0.000000 0.000080 0.000000
# 2 -0.005416 0.014993 -0.003597 0.000000 0.000785 0.000000
# 3 -0.004622 -0.003597 0.015683 0.000000 -0.003128 0.000000
# 4 0.000000 0.000000 0.000000 0.035133 0.000000 -0.000696
# 5 0.000080 0.000785 -0.003128 0.000000 0.033706 0.000000
# 6 0.000000 0.000000 0.000000 -0.000696 0.000000 0.029435
#
#
# Mechanical properties :
#
#
# Convention : Reuss Voigt Hill
#
# Bulk Modulus (GPa) = 57.65049 59.17488 58.41269
# Shear Modulus (GPa) = 28.41851 29.02295 28.72073
#
# Velocity S-wave (km/s) = 3.77340 3.81331 3.79341
# Velocity P-wave (km/s) = 6.91877 7.00263 6.96083
#
# Compressibility (1/GPa) = 0.01734591
#
# Stress axis : x y z
#
# Youngs Moduli (GPa) = 71.74137 66.69632 63.76257
#
# Poissons Ratio (x) = 0.36121 0.29473
# Poissons Ratio (y) = 0.38853 0.22934
# Poissons Ratio (z) = 0.33161 0.23989
#
# Static dielectric constant tensor:
#      x y z
#    x 3.599990 0.000000 -0.006770 
#    y 0.000000 3.677300 0.000000 
#    z -0.006770 0.000000 3.734920 
# 
# 
# High freq. dielectric constant tensor:
#      x y z
#    x 1.787030 0.000000 -0.004590 
#    y 0.000000 1.790830 0.000000 
#    z -0.004590 0.000000 1.789910 
# 
# From -- ./inp_files/31647.got.cif
#   From: 2010.03.12/outbox.cif.g09.slc.cpg/sg5_16_cif.got.tgz:31647.got - 2010.03.31 09:47:26.
