data_PCOD8049087
_publ_section_title
;
Structure prediction by ZEFSAII (Michael W. Deem and Ramdas Pophale) SiO2 
 PCOD8049087
Probable space group: C 2
;
_chemical_formula_sum "Si O2"
_cell_formula_units_Z 32
_cell_length_a 18.531821
_cell_length_b 6.632623
_cell_length_c 16.526327
_cell_angle_alpha 90.000000
_cell_angle_beta 127.275349
_cell_angle_gamma 90.000000
_cell_volume 1616.395884
_symmetry_space_group_name_H-M "C 2"
_symmetry_group_IT_number 5
_symmetry_cell_setting 'monoclinic'
loop_
_space_group_symop_operation_xyz
x,y,z
-x,y,-z
1/2+x,1/2+y,z
1/2-x,1/2+y,-z
loop_
_atom_site_type_symbol
_atom_site_label
_atom_site_fract_x
_atom_site_fract_y
_atom_site_fract_z
Si Si1 0.626803 0.647010 0.755464
Si Si2 0.332500 0.841943 0.764239
Si Si3 0.688097 0.667375 0.621813
Si Si4 0.542130 0.077193 0.261613
Si Si5 0.661754 0.458377 0.329734
Si Si6 0.422702 0.720497 0.601933
Si Si7 0.731401 0.844630 0.104810
Si Si8 0.662602 0.998185 0.894974
O O1 0.657903 0.738940 0.690141
O O2 0.519266 0.620108 0.686982
O O3 0.671690 0.431808 0.801070
O O4 0.664471 0.785410 0.852149
O O5 0.421994 0.952452 0.791592
O O6 0.339787 0.605371 0.748709
O O7 0.334633 0.847160 0.862723
O O8 0.243103 0.955042 0.665432
O O9 0.746255 0.834477 0.613953
O O10 0.597374 0.671493 0.505579
O O11 0.572506 0.955632 0.364756
O O12 0.434517 0.101914 0.183560
O O13 0.578607 0.303654 0.280746
O O14 0.657480 0.605016 0.404355
O O15 0.754912 0.624203 0.087563
O O16 0.680792 0.974230 0.002427
#
# Coordination Sequence:
#
# PCOD8049087 Si02
#       8
#     4   4   4   4   4   4   4   4
#     4  10  21  40  54  86 116 150 187 242 288 348
#     4   9  21  38  56  83 117 153 188 241 285 344
#     4  10  21  34  59  83 118 151 193 230 286 339
#     4   9  21  38  56  83 117 153 188 241 285 344
#     4  10  20  36  56  83 118 150 193 232 286 340
#     4  10  21  34  59  83 118 151 193 230 286 339
#     4  11  21  37  62  84 111 149 195 240 296 346
#     4  11  21  37  62  84 111 149 195 240 296 346
#
# _framework density 19.797132000000001
#
# number of rings (size 3 to 8) (size 9 to 14) (size 15 to 20)
#    0.000    2.000    1.250    1.875    5.250    0.500 
#    0.000    0.000    0.000    6.000    0.000    0.000 
#    0.000    0.000    0.000    0.000    0.000    0.000 
#
# Total GULP energy -198301.026763 kJ/mol
# GULP energy per Si atom -12393.814173 kJ/mol
# Density = 1.975207 g / cm^3
# Si number density = 19.797132 Si / 1000 Ang^3
#
#
#
# Elastic Constant Matrix: (Units=GPa)
#
#
# Indices 1 2 3 4 5 6 
#
# 1 67.2995 12.9128 24.5307 0.0000 -15.8402 0.0000
# 2 12.9128 76.8056 22.6093 0.0000 -3.1279 0.0001
# 3 24.5307 22.6093 98.3439 0.0000 -22.1131 0.0000
# 4 0.0000 0.0000 0.0000 18.4807 0.0000 -4.0134
# 5 -15.8402 -3.1279 -22.1131 0.0000 26.4190 0.0000
# 6 0.0000 0.0001 0.0000 -4.0134 0.0000 33.4232
#
#
#
# Elastic Compliance Matrix: (Units=1/GPa)
#
#
# Indices 1 2 3 4 5 6 
#
# 1 0.018094 -0.002081 -0.002034 0.000000 0.008900 0.000000
# 2 -0.002081 0.014239 -0.003272 0.000000 -0.002300 0.000000
# 3 -0.002034 -0.003272 0.013632 0.000000 0.009804 0.000000
# 4 0.000000 0.000000 0.000000 0.055559 0.000000 0.006671
# 5 0.008900 -0.002300 0.009804 0.000000 0.051121 0.000000
# 6 0.000000 0.000000 0.000000 0.006671 0.000000 0.030720
#
#
# Mechanical properties :
#
#
# Convention : Reuss Voigt Hill
#
# Bulk Modulus (GPa) = 32.05861 40.28386 36.17123
# Shear Modulus (GPa) = 23.97650 27.82433 25.90042
#
# Velocity S-wave (km/s) = 3.48388 3.75303 3.62096
# Velocity P-wave (km/s) = 5.69315 6.25882 5.98267
#
# Compressibility (1/GPa) = 0.03119287
#
# Stress axis : x y z
#
# Youngs Moduli (GPa) = 55.26583 70.22877 73.35538
#
# Poissons Ratio (x) = 0.14614 0.14919
# Poissons Ratio (y) = 0.11501 0.24000
# Poissons Ratio (z) = 0.11240 0.22977
#
# Static dielectric constant tensor:
#      x y z
#    x 3.700310 0.000000 -0.119310 
#    y 0.000000 3.584720 0.000000 
#    z -0.119310 0.000000 3.425980 
# 
# 
# High freq. dielectric constant tensor:
#      x y z
#    x 1.783530 0.000000 -0.008050 
#    y 0.000000 1.767810 0.000000 
#    z -0.008050 0.000000 1.755350 
# 
# From -- ./inp_files/49519.got.cif
#   From: 2010.03.12/outbox.cif.g09.slc.cpg/sg5_25_cif.got.tgz:49519.got - 2010.03.31 09:47:26.
