data_PCOD8049096
_publ_section_title
;
Structure prediction by ZEFSAII (Michael W. Deem and Ramdas Pophale) SiO2 
 PCOD8049096
Probable space group: C 2
;
_chemical_formula_sum "Si O2"
_cell_formula_units_Z 24
_cell_length_a 13.553706
_cell_length_b 9.426650
_cell_length_c 9.592247
_cell_angle_alpha 90.000000
_cell_angle_beta 95.029677
_cell_angle_gamma 90.000000
_cell_volume 1220.844311
_symmetry_space_group_name_H-M "C 2"
_symmetry_group_IT_number 5
_symmetry_cell_setting 'monoclinic'
loop_
_space_group_symop_operation_xyz
x,y,z
-x,y,-z
1/2+x,1/2+y,z
1/2-x,1/2+y,-z
loop_
_atom_site_type_symbol
_atom_site_label
_atom_site_fract_x
_atom_site_fract_y
_atom_site_fract_z
Si Si1 0.833748 0.449860 0.234287
Si Si2 0.355102 0.621729 0.736159
Si Si3 0.887445 0.209521 0.445251
Si Si4 0.921677 0.017467 0.206649
Si Si5 0.692312 0.722295 0.992749
Si Si6 0.410614 0.207043 0.097954
O O1 0.720494 0.495388 0.239222
O O2 0.862709 0.361015 0.374181
O O3 0.844031 0.355977 0.097466
O O4 0.908160 0.581412 0.213883
O O5 0.327407 0.684707 0.580857
O O6 0.464971 0.563059 0.764667
O O7 0.337531 0.745439 0.848735
O O8 0.865224 0.078517 0.336857
O O9 0.000000 0.213985 0.500000
O O10 0.866960 0.082376 0.065356
O O11 0.916996 0.848928 0.191538
O O12 0.810236 0.699595 0.994256
O O13 0.500000 0.192829 0.000000
#
# Coordination Sequence:
#
# PCOD8049096 Si02
#       6
#     4   4   4   4   4   4
#     4  10  22  37  56  87 113 140 188 239 279 321
#     4  10  20  37  62  82 109 153 190 222 275 341
#     4   9  21  40  58  78 113 155 189 221 276 343
#     4  10  20  38  60  83 112 151 189 223 272 342
#     4  10  20  36  58  83 112 147 187 226 276 340
#     4  11  21  34  55  87 116 142 184 241 283 317
#
# _framework density 19.658525999999998
#
# number of rings (size 3 to 8) (size 9 to 14) (size 15 to 20)
#    0.000    2.000    0.000    4.500    0.000    6.667 
#    0.000    7.500    0.000    2.000    0.000    0.000 
#    0.000    0.000    0.000    0.000    0.000    0.000 
#
# Total GULP energy -148744.553121 kJ/mol
# GULP energy per Si atom -12395.379427 kJ/mol
# Density = 1.961378 g / cm^3
# Si number density = 19.658526 Si / 1000 Ang^3
#
#
#
# Elastic Constant Matrix: (Units=GPa)
#
#
# Indices 1 2 3 4 5 6 
#
# 1 64.6607 42.0011 36.8070 0.0000 -6.0859 0.0000
# 2 42.0011 131.8942 66.4120 0.0000 -6.3214 0.0000
# 3 36.8070 66.4120 150.3060 0.0000 -13.9284 0.0000
# 4 0.0000 0.0000 0.0000 23.2821 0.0000 3.6491
# 5 -6.0859 -6.3214 -13.9284 0.0000 27.7845 0.0000
# 6 0.0000 0.0000 0.0000 3.6491 0.0000 21.2997
#
#
#
# Elastic Compliance Matrix: (Units=1/GPa)
#
#
# Indices 1 2 3 4 5 6 
#
# 1 0.020439 -0.005126 -0.002552 0.000000 0.002031 0.000000
# 2 -0.005126 0.011037 -0.003663 0.000000 -0.000448 0.000000
# 3 -0.002552 -0.003663 0.009195 0.000000 0.003217 0.000000
# 4 0.000000 0.000000 0.000000 0.044137 0.000000 -0.007562
# 5 0.002031 -0.000448 0.003217 0.000000 0.037947 0.000000
# 6 0.000000 0.000000 0.000000 -0.007562 0.000000 0.048244
#
#
# Mechanical properties :
#
#
# Convention : Reuss Voigt Hill
#
# Bulk Modulus (GPa) = 55.59102 70.81123 63.20113
# Shear Modulus (GPa) = 25.04042 27.91599 26.47820
#
# Velocity S-wave (km/s) = 3.57286 3.77244 3.67400
# Velocity P-wave (km/s) = 6.73500 7.42118 7.08640
#
# Compressibility (1/GPa) = 0.01798852
#
# Stress axis : x y z
#
# Youngs Moduli (GPa) = 48.92592 90.60258 108.76061
#
# Poissons Ratio (x) = 0.46447 0.27753
# Poissons Ratio (y) = 0.25082 0.39838
# Poissons Ratio (z) = 0.12485 0.33187
#
# Static dielectric constant tensor:
#      x y z
#    x 3.584710 0.000000 -0.082360 
#    y 0.000000 3.642680 0.000000 
#    z -0.082360 0.000000 4.347990 
# 
# 
# High freq. dielectric constant tensor:
#      x y z
#    x 1.764360 0.000000 -0.000970 
#    y 0.000000 1.760750 0.000000 
#    z -0.000970 0.000000 1.772190 
# 
# From -- ./inp_files/22781.got.cif
#   From: 2010.03.12/outbox.cif.g09.slc.cpg/sg5_12_cif.got.tgz:22781.got - 2010.03.31 09:47:26.
