data_PCOD8049602
_publ_section_title
;
Structure prediction by ZEFSAII (Michael W. Deem and Ramdas Pophale) SiO2 
 PCOD8049602
Probable space group: C 2
;
_chemical_formula_sum "Si O2"
_cell_formula_units_Z 26
_cell_length_a 18.223329
_cell_length_b 9.897229
_cell_length_c 7.692851
_cell_angle_alpha 90.000000
_cell_angle_beta 58.443412
_cell_angle_gamma 90.000000
_cell_volume 1182.309836
_symmetry_space_group_name_H-M "C 2"
_symmetry_group_IT_number 5
_symmetry_cell_setting 'monoclinic'
loop_
_space_group_symop_operation_xyz
x,y,z
-x,y,-z
1/2+x,1/2+y,z
1/2-x,1/2+y,-z
loop_
_atom_site_type_symbol
_atom_site_label
_atom_site_fract_x
_atom_site_fract_y
_atom_site_fract_z
Si Si1 0.485837 0.454300 0.708817
Si Si2 0.446806 0.201226 0.224543
Si Si3 0.668067 0.906594 0.263517
Si Si4 0.694245 0.406285 0.196992
Si Si5 0.780801 0.656392 0.590666
Si Si6 0.000000 0.549997 0.500000
Si Si7 0.640867 0.636969 0.504678
O O1 0.500000 0.391781 0.500000
O O2 0.526399 0.358788 0.805431
O O3 0.381467 0.451087 0.847552
O O4 0.538606 0.597802 0.656038
O O5 0.343490 0.181970 0.343448
O O6 0.469762 0.139509 0.379717
O O7 0.500000 0.132771 0.000000
O O8 0.654764 0.757574 0.354063
O O9 0.712178 0.002947 0.351793
O O10 0.574340 0.957849 0.329918
O O11 0.719132 0.908697 0.020133
O O12 0.691537 0.256729 0.286439
O O13 0.692539 0.509510 0.360302
O O14 0.683596 0.674982 0.638106
#
# Coordination Sequence:
#
# PCOD8049602 Si02
#       7
#     4   4   4   4   4   2   4
#     4  10  20  41  66  93 133 177 229 287 336 417
#     4  11  22  39  72  95 129 179 241 287 346 416
#     4  11  25  41  70  95 137 186 223 289 367 416
#     4  11  23  43  73  94 134 189 243 273 356 435
#     4  11  23  44  64 104 133 176 237 297 336 431
#     4  10  24  46  62 100 142 178 236 294 350 436
#     4  11  24  40  67  97 145 171 220 298 360 394
#
# _framework density 21.990852
#
# number of rings (size 3 to 8) (size 9 to 14) (size 15 to 20)
#    0.000    1.231    3.846    2.769    7.538    0.000 
#    0.000    0.000    0.000    0.000    0.000    0.000 
#    0.000    0.000    0.000    0.000    0.000    0.000 
#
# Total GULP energy -161051.759314 kJ/mol
# GULP energy per Si atom -12388.596870 kJ/mol
# Density = 2.194080 g / cm^3
# Si number density = 21.990852 Si / 1000 Ang^3
#
#
#
# Elastic Constant Matrix: (Units=GPa)
#
#
# Indices 1 2 3 4 5 6 
#
# 1 108.7198 25.5881 24.8735 0.0000 -19.3502 0.0000
# 2 25.5881 99.2722 24.7770 0.0000 -7.0237 0.0000
# 3 24.8735 24.7770 120.3966 0.0000 -21.7575 0.0000
# 4 0.0000 0.0000 0.0000 2.9008 0.0000 -35.6539
# 5 -19.3502 -7.0237 -21.7575 0.0000 27.5433 0.0000
# 6 0.0000 0.0000 0.0000 -35.6539 0.0000 -29.8980
#
#
#
# Elastic Compliance Matrix: (Units=1/GPa)
#
#
# Indices 1 2 3 4 5 6 
#
# 1 0.011057 -0.002222 -0.000613 0.000000 0.006717 0.000000
# 2 -0.002222 0.011096 -0.001861 0.000000 -0.000201 0.000000
# 3 -0.000613 -0.001861 0.010093 0.000000 0.007067 0.000000
# 4 0.000000 0.000000 0.000000 0.022017 0.000000 -0.026256
# 5 0.006717 -0.000201 0.007067 0.000000 0.046557 0.000000
# 6 0.000000 0.000000 0.000000 -0.026256 0.000000 -0.002136
#
#
# Mechanical properties :
#
#
# Convention : Reuss Voigt Hill
#
# Bulk Modulus (GPa) = 43.75622 53.20731 48.48177
# Shear Modulus (GPa) = 43.21792 16.98588 30.10190
#
# Velocity S-wave (km/s) = 4.43794 2.78224 3.70379
# Velocity P-wave (km/s) = 6.79714 5.87953 6.35492
#
# Compressibility (1/GPa) = 0.02285389
#
# Stress axis : x y z
#
# Youngs Moduli (GPa) = 90.44374 90.12104 99.08155
#
# Poissons Ratio (x) = 0.20022 0.06076
# Poissons Ratio (y) = 0.20093 0.18438
# Poissons Ratio (z) = 0.05546 0.16771
#
# Static dielectric constant tensor:
#      x y z
#    x 4.269980 0.000000 -0.544200 
#    y 0.000000 3.945440 0.000000 
#    z -0.544200 0.000000 4.538430 
# 
# 
# High freq. dielectric constant tensor:
#      x y z
#    x 1.865030 0.000000 -0.012290 
#    y 0.000000 1.859360 0.000000 
#    z -0.012290 0.000000 1.855380 
# 
# From -- ./inp_files/29092.got.cif
#   From: 2010.03.12/outbox.cif.g09.slc.cpg/sg5_15_cif.got.tgz:29092.got - 2010.03.31 09:47:26.
