data_PCOD8049261
_publ_section_title
;
Structure prediction by ZEFSAII (Michael W. Deem and Ramdas Pophale) SiO2 
 PCOD8049261
Probable space group: C 2
;
_chemical_formula_sum "Si O2"
_cell_formula_units_Z 20
_cell_length_a 23.851662
_cell_length_b 4.817841
_cell_length_c 16.886362
_cell_angle_alpha 90.000000
_cell_angle_beta 25.406126
_cell_angle_gamma 90.000000
_cell_volume 832.523692
_symmetry_space_group_name_H-M "C 2"
_symmetry_group_IT_number 5
_symmetry_cell_setting 'monoclinic'
loop_
_space_group_symop_operation_xyz
x,y,z
-x,y,-z
1/2+x,1/2+y,z
1/2-x,1/2+y,-z
loop_
_atom_site_type_symbol
_atom_site_label
_atom_site_fract_x
_atom_site_fract_y
_atom_site_fract_z
Si Si1 0.663261 0.186300 0.097624
Si Si2 0.943122 0.931813 0.489867
Si Si3 0.916990 0.197567 0.183638
Si Si4 0.776434 0.433030 0.675043
Si Si5 0.950445 0.720484 0.924749
O O1 0.554442 0.304683 0.293627
O O2 0.779544 0.406978 0.937128
O O3 0.603091 0.108098 0.089400
O O4 0.839138 0.688487 0.644073
O O5 0.000000 0.043996 0.500000
O O6 0.882563 0.195174 0.519921
O O7 0.772360 0.087806 0.344132
O O8 0.000000 0.128486 0.000000
O O9 0.937590 0.515835 0.181857
O O10 0.973875 0.011374 0.182955
O O11 0.668681 0.264143 0.862500
#
# Coordination Sequence:
#
# PCOD8049261 Si02
#       5
#     4   4   4   4   4
#     4  12  25  43  64  92 127 168 211 260 316 377
#     4  12  24  41  64  95 128 166 209 261 317 372
#     4  10  20  37  64  94 123 162 208 252 303 370
#     4  11  22  40  65  94 127 165 210 260 308 369
#     4  11  21  39  65  93 124 165 209 253 304 370
#
# _framework density 24.023339
#
# number of rings (size 3 to 8) (size 9 to 14) (size 15 to 20)
#    0.000    0.800    0.000   10.800    0.000    0.000 
#    0.000    4.000    0.000    4.800    0.000    0.000 
#    0.000    0.000    0.000    0.000    0.000    0.000 
#
# Total GULP energy -123954.955511 kJ/mol
# GULP energy per Si atom -12395.495551 kJ/mol
# Density = 2.396866 g / cm^3
# Si number density = 24.023339 Si / 1000 Ang^3
#
#
#
# Elastic Constant Matrix: (Units=GPa)
#
#
# Indices 1 2 3 4 5 6 
#
# 1 124.6794 36.4189 37.0823 0.0641 -10.0474 -0.0594
# 2 36.4189 129.6682 14.8621 0.3253 -16.9570 -0.0179
# 3 37.0823 14.8621 45.5417 0.1162 -10.4966 -0.1476
# 4 0.0641 0.3253 0.1162 36.4912 -0.0151 -22.7616
# 5 -10.0474 -16.9570 -10.4966 -0.0151 25.8363 0.0474
# 6 -0.0594 -0.0179 -0.1476 -22.7616 0.0474 54.8341
#
#
#
# Elastic Compliance Matrix: (Units=1/GPa)
#
#
# Indices 1 2 3 4 5 6 
#
# 1 0.011150 -0.002235 -0.008482 0.000027 -0.000577 0.000000
# 2 -0.002235 0.008995 0.000049 -0.000103 0.005055 -0.000047
# 3 -0.008482 0.000049 0.030999 -0.000053 0.009328 0.000044
# 4 0.000027 -0.000103 -0.000053 0.036980 -0.000085 0.015350
# 5 -0.000577 0.005055 0.009328 -0.000085 0.045588 -0.000049
# 6 0.000000 -0.000047 0.000044 0.015350 -0.000049 0.024609
#
#
# Mechanical properties :
#
#
# Convention : Reuss Voigt Hill
#
# Bulk Modulus (GPa) = 33.54809 52.95734 43.25272
# Shear Modulus (GPa) = 26.37245 37.53406 31.95325
#
# Velocity S-wave (km/s) = 3.31688 3.95701 3.65100
# Velocity P-wave (km/s) = 5.35388 6.55509 5.98470
#
# Compressibility (1/GPa) = 0.02980796
#
# Stress axis : x y z
#
# Youngs Moduli (GPa) = 89.68852 111.16923 32.25943
#
# Poissons Ratio (x) = 0.24844 0.27364
# Poissons Ratio (y) = 0.20044 -0.00159
# Poissons Ratio (z) = 0.76077 -0.00549
#
# Static dielectric constant tensor:
#      x y z
#    x 4.682920 -0.001180 -0.549440 
#    y -0.001180 4.534820 0.000400 
#    z -0.549440 0.000400 4.128680 
# 
# 
# High freq. dielectric constant tensor:
#      x y z
#    x 1.954630 -0.000020 -0.032880 
#    y -0.000020 1.975290 0.000020 
#    z -0.032880 0.000020 1.922200 
# 
# From -- ./inp_files/56451.got.cif
#   From: 2010.03.12/outbox.cif.g09.slc.cpg/sg5_29_cif.got.tgz:56451.got - 2010.03.31 09:47:26.
