data_PCOD8049372
_publ_section_title
;
Structure prediction by ZEFSAII (Michael W. Deem and Ramdas Pophale) SiO2 
 PCOD8049372
Probable space group: C 2
;
_chemical_formula_sum "Si O2"
_cell_formula_units_Z 26
_cell_length_a 10.859413
_cell_length_b 20.344907
_cell_length_c 8.079150
_cell_angle_alpha 90.000000
_cell_angle_beta 139.522218
_cell_angle_gamma 90.000000
_cell_volume 1158.710352
_symmetry_space_group_name_H-M "C 2"
_symmetry_group_IT_number 5
_symmetry_cell_setting 'monoclinic'
loop_
_space_group_symop_operation_xyz
x,y,z
-x,y,-z
1/2+x,1/2+y,z
1/2-x,1/2+y,-z
loop_
_atom_site_type_symbol
_atom_site_label
_atom_site_fract_x
_atom_site_fract_y
_atom_site_fract_z
Si Si1 0.268231 0.712650 0.123299
Si Si2 0.860067 0.980557 0.703178
Si Si3 0.945797 0.121884 0.757302
Si Si4 0.786748 0.861911 0.409996
Si Si5 0.841593 0.723940 0.625786
Si Si6 0.860614 0.350545 0.080320
Si Si7 0.500000 0.936931 0.500000
O O1 0.389581 0.649102 0.194640
O O2 0.283684 0.730066 0.333838
O O3 0.345875 0.773432 0.098546
O O4 0.050174 0.695806 0.866748
O O5 0.896079 0.921076 0.611830
O O6 0.638958 0.981743 0.533408
O O7 0.892695 0.048979 0.637932
O O8 0.000000 0.970273 0.000000
O O9 0.767462 0.170480 0.593600
O O10 0.000000 0.110553 0.000000
O O11 0.866640 0.793314 0.560506
O O12 0.565199 0.865509 0.217276
O O13 0.804146 0.867520 0.225899
O O14 0.850621 0.392831 0.238709
#
# Coordination Sequence:
#
# PCOD8049372 Si02
#       7
#     4   4   4   4   4   4   2
#     4  11  23  40  66  97 132 175 219 277 338 387
#     4  10  24  43  65  93 135 181 220 273 334 403
#     4  11  24  43  64  95 135 178 220 274 335 400
#     4  10  21  39  67 102 131 168 228 276 332 395
#     4  11  24  40  68  96 131 174 228 275 330 398
#     4  10  20  38  66 101 132 170 213 285 332 388
#     4  10  22  42  66  94 132 178 216 270 342 396
#
# _framework density 22.438739000000002
#
# number of rings (size 3 to 8) (size 9 to 14) (size 15 to 20)
#    0.000    1.538    1.538    3.231    4.308    4.923 
#    0.000   12.308    0.000    0.000    0.000    0.000 
#    0.000    0.000    0.000    0.000    0.000    0.000 
#
# Total GULP energy -161168.510035 kJ/mol
# GULP energy per Si atom -12397.577695 kJ/mol
# Density = 2.238767 g / cm^3
# Si number density = 22.438739 Si / 1000 Ang^3
#
#
#
# Elastic Constant Matrix: (Units=GPa)
#
#
# Indices 1 2 3 4 5 6 
#
# 1 94.4084 55.8873 26.0975 0.0000 -5.5120 0.0000
# 2 55.8873 187.2486 66.4267 0.0000 -1.2151 0.0000
# 3 26.0975 66.4267 92.8270 0.0000 -20.1171 0.0000
# 4 0.0000 0.0000 0.0000 30.1268 0.0000 3.2037
# 5 -5.5120 -1.2151 -20.1171 0.0000 25.5700 0.0000
# 6 0.0000 0.0000 0.0000 3.2037 0.0000 29.7769
#
#
#
# Elastic Compliance Matrix: (Units=1/GPa)
#
#
# Indices 1 2 3 4 5 6 
#
# 1 0.013056 -0.003685 -0.000556 0.000000 0.002202 0.000000
# 2 -0.003685 0.008643 -0.006308 0.000000 -0.005346 0.000000
# 3 -0.000556 -0.006308 0.018508 0.000000 0.014141 0.000000
# 4 0.000000 0.000000 0.000000 0.033577 0.000000 -0.003613
# 5 0.002202 -0.005346 0.014141 0.000000 0.050454 0.000000
# 6 0.000000 0.000000 0.000000 -0.003613 0.000000 0.033972
#
#
# Mechanical properties :
#
#
# Convention : Reuss Voigt Hill
#
# Bulk Modulus (GPa) = 52.33287 74.58968 63.46128
# Shear Modulus (GPa) = 26.92829 32.16624 29.54726
#
# Velocity S-wave (km/s) = 3.46798 3.79028 3.63271
# Velocity P-wave (km/s) = 6.27766 7.24352 6.77782
#
# Compressibility (1/GPa) = 0.01910845
#
# Stress axis : x y z
#
# Youngs Moduli (GPa) = 76.59236 115.69571 54.03196
#
# Poissons Ratio (x) = 0.42635 0.03007
# Poissons Ratio (y) = 0.28225 0.34082
# Poissons Ratio (z) = 0.04262 0.72978
#
# Static dielectric constant tensor:
#      x y z
#    x 4.123110 0.000000 -0.256300 
#    y 0.000000 3.989320 0.000000 
#    z -0.256300 0.000000 4.516440 
# 
# 
# High freq. dielectric constant tensor:
#      x y z
#    x 1.886820 0.000000 0.005230 
#    y 0.000000 1.869080 0.000000 
#    z 0.005230 0.000000 1.900440 
# 
# From -- ./inp_files/22023.got.cif
#   From: 2010.03.12/outbox.cif.g09.slc.cpg/sg5_12_cif.got.tgz:22023.got - 2010.03.31 09:47:26.
