data_PCOD8049193
_publ_section_title
;
Structure prediction by ZEFSAII (Michael W. Deem and Ramdas Pophale) SiO2 
 PCOD8049193
Probable space group: C 2
;
_chemical_formula_sum "Si O2"
_cell_formula_units_Z 28
_cell_length_a 12.920316
_cell_length_b 13.508792
_cell_length_c 8.612471
_cell_angle_alpha 90.000000
_cell_angle_beta 105.068689
_cell_angle_gamma 90.000000
_cell_volume 1451.514430
_symmetry_space_group_name_H-M "C 2"
_symmetry_group_IT_number 5
_symmetry_cell_setting 'monoclinic'
loop_
_space_group_symop_operation_xyz
x,y,z
-x,y,-z
1/2+x,1/2+y,z
1/2-x,1/2+y,-z
loop_
_atom_site_type_symbol
_atom_site_label
_atom_site_fract_x
_atom_site_fract_y
_atom_site_fract_z
Si Si1 0.309495 0.505980 0.554356
Si Si2 0.112395 0.602342 0.610561
Si Si3 0.112519 0.653128 0.955131
Si Si4 0.707712 0.640623 0.741251
Si Si5 0.154865 0.779875 0.405278
Si Si6 0.983814 0.061704 0.176226
Si Si7 0.046190 0.848978 0.855829
O O1 0.198455 0.520729 0.598445
O O2 0.304911 0.553231 0.384917
O O3 0.321128 0.389731 0.529548
O O4 0.401751 0.557366 0.694067
O O5 0.107062 0.595104 0.793085
O O6 0.143819 0.710387 0.552560
O O7 0.000000 0.566263 0.500000
O O8 0.140382 0.769684 0.925896
O O9 0.205991 0.607730 0.096120
O O10 0.000000 0.645731 0.000000
O O11 0.750596 0.739899 0.671946
O O12 0.591519 0.649251 0.781614
O O13 0.040776 0.783224 0.273396
O O14 0.923756 0.956706 0.200983
O O15 0.000000 0.083431 0.000000
O O16 0.000000 0.886514 0.000000
#
# Coordination Sequence:
#
# PCOD8049193 Si02
#       7
#     4   4   4   4   4   4   4
#     4  10  23  39  56  89 119 156 198 246 290 349
#     4  11  21  36  61  88 115 155 198 244 295 346
#     4  11  19  35  57  88 118 149 192 245 295 342
#     4  11  21  36  60  88 118 161 189 245 298 349
#     4  10  20  37  59  87 118 150 199 242 293 341
#     4  10  21  36  58  89 119 152 200 242 295 344
#     4   9  16  32  57  86 117 146 191 249 282 332
#
# _framework density 19.290198
#
# number of rings (size 3 to 8) (size 9 to 14) (size 15 to 20)
#    0.000    1.714    4.286    2.143    2.000    0.000 
#    0.000    2.857    0.000    0.857    0.000    0.000 
#    0.000    0.000    0.000    0.000    0.000    0.000 
#
# Total GULP energy -173450.815876 kJ/mol
# GULP energy per Si atom -12389.343991 kJ/mol
# Density = 1.924629 g / cm^3
# Si number density = 19.290198 Si / 1000 Ang^3
#
#
#
# Elastic Constant Matrix: (Units=GPa)
#
#
# Indices 1 2 3 4 5 6 
#
# 1 105.0442 21.7099 41.0653 0.0000 4.1437 0.0000
# 2 21.7099 47.3090 27.4511 0.0000 7.1543 0.0000
# 3 41.0653 27.4511 139.3587 0.0000 6.7154 0.0000
# 4 0.0000 0.0000 0.0000 28.3619 0.0000 4.9529
# 5 4.1437 7.1543 6.7154 0.0000 33.3966 0.0000
# 6 0.0000 0.0000 0.0000 4.9529 0.0000 25.0997
#
#
#
# Elastic Compliance Matrix: (Units=1/GPa)
#
#
# Indices 1 2 3 4 5 6 
#
# 1 0.011298 -0.003659 -0.002604 0.000000 -0.000094 0.000000
# 2 -0.003659 0.025651 -0.003768 0.000000 -0.004283 0.000000
# 3 -0.002604 -0.003768 0.008715 0.000000 -0.000622 0.000000
# 4 0.000000 0.000000 0.000000 0.036517 0.000000 -0.007206
# 5 -0.000094 -0.004283 -0.000622 0.000000 0.030998 0.000000
# 6 0.000000 0.000000 0.000000 -0.007206 0.000000 0.041263
#
#
# Mechanical properties :
#
#
# Convention : Reuss Voigt Hill
#
# Bulk Modulus (GPa) = 39.06009 52.46270 45.76140
# Shear Modulus (GPa) = 27.31679 30.80403 29.06041
#
# Velocity S-wave (km/s) = 3.76719 4.00043 3.88556
# Velocity P-wave (km/s) = 6.26218 6.97090 6.62602
#
# Compressibility (1/GPa) = 0.02560158
#
# Stress axis : x y z
#
# Youngs Moduli (GPa) = 88.51347 38.98478 114.74200
#
# Poissons Ratio (x) = 0.14266 0.29876
# Poissons Ratio (y) = 0.32390 0.43235
# Poissons Ratio (z) = 0.23047 0.14690
#
# Static dielectric constant tensor:
#      x y z
#    x 3.412210 0.000000 0.029690 
#    y 0.000000 3.386200 0.000000 
#    z 0.029690 0.000000 3.684100 
# 
# 
# High freq. dielectric constant tensor:
#      x y z
#    x 1.736540 0.000000 -0.010520 
#    y 0.000000 1.723760 0.000000 
#    z -0.010520 0.000000 1.774090 
# 
# From -- ./inp_files/20347.got.cif
#   From: 2010.03.12/outbox.cif.g09.slc.cpg/sg5_11_cif.got.tgz:20347.got - 2010.03.31 09:47:26.
