data_PCOD8049069
_publ_section_title
;
Structure prediction by ZEFSAII (Michael W. Deem and Ramdas Pophale) SiO2 
 PCOD8049069
Probable space group: C 2
;
_chemical_formula_sum "Si O2"
_cell_formula_units_Z 28
_cell_length_a 18.689051
_cell_length_b 17.293736
_cell_length_c 12.384315
_cell_angle_alpha 90.000000
_cell_angle_beta 160.116324
_cell_angle_gamma 90.000000
_cell_volume 1361.349265
_symmetry_space_group_name_H-M "C 2"
_symmetry_group_IT_number 5
_symmetry_cell_setting 'monoclinic'
loop_
_space_group_symop_operation_xyz
x,y,z
-x,y,-z
1/2+x,1/2+y,z
1/2-x,1/2+y,-z
loop_
_atom_site_type_symbol
_atom_site_label
_atom_site_fract_x
_atom_site_fract_y
_atom_site_fract_z
Si Si1 0.622081 0.485620 0.863656
Si Si2 0.810462 0.129277 0.797054
Si Si3 0.846175 0.624301 0.079344
Si Si4 0.822389 0.951218 0.826675
Si Si5 0.270875 0.245066 0.135413
Si Si6 0.170000 0.533508 0.154854
Si Si7 0.096008 0.406025 0.887506
O O1 0.382805 0.513759 0.519097
O O2 0.779057 0.559344 0.072506
O O3 0.656370 0.429965 0.016908
O O4 0.679769 0.428554 0.847080
O O5 0.596930 0.130254 0.426094
O O6 0.797098 0.173295 0.889591
O O7 0.869565 0.041712 0.905513
O O8 0.000000 0.168684 0.000000
O O9 0.766217 0.709154 0.006300
O O10 0.772944 0.598949 0.854854
O O11 0.594322 0.927709 0.461687
O O12 0.000000 0.913611 0.000000
O O13 0.500000 0.273659 0.500000
O O14 0.102940 0.313822 0.913783
O O15 0.071385 0.455356 0.962365
O O16 0.000000 0.565278 0.000000
#
# Coordination Sequence:
#
# PCOD8049069 Si02
#       7
#     4   4   4   4   4   4   4
#     4  11  21  37  60  87 120 162 207 255 306 368
#     4  10  20  35  63  94 121 160 209 261 306 373
#     4  10  20  37  60  88 120 164 213 252 303 372
#     4  11  21  37  63  94 120 158 213 258 304 370
#     4  10  21  38  63  92 127 164 209 261 315 377
#     4  11  23  37  59  91 128 162 205 265 316 371
#     4  11  22  39  63  92 123 160 212 260 314 367
#
# _framework density 20.567829
#
# number of rings (size 3 to 8) (size 9 to 14) (size 15 to 20)
#    0.000    1.429    4.286    3.857    2.000    0.571 
#    0.000    5.714    0.000    1.714    0.000    0.000 
#    0.000    0.000    0.000    0.000    0.000    0.000 
#
# Total GULP energy -173488.873258 kJ/mol
# GULP energy per Si atom -12392.062376 kJ/mol
# Density = 2.052102 g / cm^3
# Si number density = 20.567829 Si / 1000 Ang^3
#
#
#
# Elastic Constant Matrix: (Units=GPa)
#
#
# Indices 1 2 3 4 5 6 
#
# 1 94.9702 17.2847 39.0557 0.0000 -0.0901 0.0000
# 2 17.2847 77.5957 19.5725 0.0000 -10.8571 0.0000
# 3 39.0557 19.5725 112.8692 -0.0003 3.2989 -0.0001
# 4 0.0000 0.0000 -0.0003 22.6950 0.0000 2.4880
# 5 -0.0901 -10.8571 3.2989 0.0000 33.2309 0.0000
# 6 0.0000 0.0000 -0.0001 2.4880 0.0000 12.9326
#
#
#
# Elastic Compliance Matrix: (Units=1/GPa)
#
#
# Indices 1 2 3 4 5 6 
#
# 1 0.012506 -0.001796 -0.004012 0.000000 -0.000154 0.000000
# 2 -0.001796 0.014491 -0.002036 0.000000 0.004932 0.000000
# 3 -0.004012 -0.002036 0.010652 0.000000 -0.001733 0.000000
# 4 0.000000 0.000000 0.000000 0.045012 0.000000 -0.008660
# 5 -0.000154 0.004932 -0.001733 0.000000 0.031875 0.000000
# 6 0.000000 0.000000 0.000000 -0.008660 0.000000 0.078990
#
#
# Mechanical properties :
#
#
# Convention : Reuss Voigt Hill
#
# Bulk Modulus (GPa) = 45.53131 48.58454 47.05793
# Shear Modulus (GPa) = 23.09126 27.73982 25.41554
#
# Velocity S-wave (km/s) = 3.35429 3.67645 3.51906
# Velocity P-wave (km/s) = 6.09810 6.45714 6.28019
#
# Compressibility (1/GPa) = 0.02196291
#
# Stress axis : x y z
#
# Youngs Moduli (GPa) = 79.96183 69.00943 93.88284
#
# Poissons Ratio (x) = 0.12391 0.37661
# Poissons Ratio (y) = 0.14357 0.19111
# Poissons Ratio (z) = 0.32077 0.14048
#
# Static dielectric constant tensor:
#      x y z
#    x 4.108030 0.000000 0.224880 
#    y 0.000000 3.529650 0.000000 
#    z 0.224880 0.000000 3.654610 
# 
# 
# High freq. dielectric constant tensor:
#      x y z
#    x 1.810300 0.000000 0.006980 
#    y 0.000000 1.769600 0.000000 
#    z 0.006980 0.000000 1.800530 
# 
# From -- ./inp_files/45165.got.cif
#   From: 2010.03.12/outbox.cif.g09.slc.cpg/sg5_23_cif.got.tgz:45165.got - 2010.03.31 09:47:26.
