data_PCOD8049437
_publ_section_title
;
Structure prediction by ZEFSAII (Michael W. Deem and Ramdas Pophale) SiO2 
 PCOD8049437
Probable space group: C 2
;
_chemical_formula_sum "Si O2"
_cell_formula_units_Z 32
_cell_length_a 23.456386
_cell_length_b 14.198665
_cell_length_c 9.478953
_cell_angle_alpha 90.000000
_cell_angle_beta 28.798769
_cell_angle_gamma 90.000000
_cell_volume 1520.817302
_symmetry_space_group_name_H-M "C 2"
_symmetry_group_IT_number 5
_symmetry_cell_setting 'monoclinic'
loop_
_space_group_symop_operation_xyz
x,y,z
-x,y,-z
1/2+x,1/2+y,z
1/2-x,1/2+y,-z
loop_
_atom_site_type_symbol
_atom_site_label
_atom_site_fract_x
_atom_site_fract_y
_atom_site_fract_z
Si Si1 0.793467 0.313550 0.623704
Si Si2 0.154950 0.081238 0.944082
Si Si3 0.357702 0.155689 0.175873
Si Si4 0.114966 0.685440 0.568816
Si Si5 0.228329 0.872516 0.263319
Si Si6 0.258690 0.469133 0.485286
Si Si7 0.968045 0.272717 0.732528
Si Si8 0.370913 0.417621 0.802906
O O1 0.748015 0.210391 0.674154
O O2 0.803904 0.387237 0.471704
O O3 0.921001 0.304307 0.416689
O O4 0.701870 0.349664 0.938070
O O5 0.295468 0.100523 0.664206
O O6 0.142738 0.023024 0.823304
O O7 0.080171 0.176188 0.095519
O O8 0.108758 0.020079 0.173579
O O9 0.373718 0.208556 0.289703
O O10 0.333997 0.045521 0.253633
O O11 0.480080 0.159819 0.821565
O O12 0.154736 0.777116 0.396718
O O13 0.181886 0.922829 0.505891
O O14 0.198842 0.935979 0.191773
O O15 0.368683 0.852978 0.965852
O O16 0.000000 0.258302 0.500000
O O17 0.500000 0.372108 0.500000
#
# Coordination Sequence:
#
# PCOD8049437 Si02
#       8
#     4   4   4   4   4   4   4   4
#     4  11  23  43  67  98 135 173 228 275 337 411
#     4   9  22  41  65  95 133 172 219 284 333 403
#     4  10  20  39  65  95 128 172 215 273 332 396
#     4   9  19  39  63  89 131 167 211 266 338 385
#     4  11  22  42  65  95 131 174 221 276 333 404
#     4  10  23  42  66 102 131 169 226 278 338 397
#     4  11  23  43  69  94 136 184 225 275 342 403
#     4  11  23  41  66  93 131 178 222 271 342 400
#
# _framework density 21.041318
#
# number of rings (size 3 to 8) (size 9 to 14) (size 15 to 20)
#    0.000    1.750    2.500    1.125    0.000    7.500 
#    0.000    5.000    0.000    0.000    0.000    0.000 
#    0.000    0.000    0.000    0.000    0.000    0.000 
#
# Total GULP energy -198383.597485 kJ/mol
# GULP energy per Si atom -12398.974843 kJ/mol
# Density = 2.099343 g / cm^3
# Si number density = 21.041318 Si / 1000 Ang^3
#
#
#
# Elastic Constant Matrix: (Units=GPa)
#
#
# Indices 1 2 3 4 5 6 
#
# 1 121.0424 47.0787 50.9754 0.0000 1.2808 0.0000
# 2 47.0787 93.2515 44.6529 0.0000 -0.9011 0.0000
# 3 50.9754 44.6529 113.9053 0.0000 -8.7150 0.0000
# 4 0.0000 0.0000 0.0000 25.4226 0.0000 4.2417
# 5 1.2808 -0.9011 -8.7150 0.0000 38.4722 0.0000
# 6 0.0000 0.0000 0.0000 4.2417 0.0000 18.7034
#
#
#
# Elastic Compliance Matrix: (Units=1/GPa)
#
#
# Indices 1 2 3 4 5 6 
#
# 1 0.011357 -0.004020 -0.003605 0.000000 -0.001289 0.000000
# 2 -0.004020 0.014654 -0.003978 0.000000 -0.000424 0.000000
# 3 -0.003605 -0.003978 0.012165 0.000000 0.002783 0.000000
# 4 0.000000 0.000000 0.000000 0.040882 0.000000 -0.009271
# 5 -0.001289 -0.000424 0.002783 0.000000 0.026656 0.000000
# 6 0.000000 0.000000 0.000000 -0.009271 0.000000 0.055569
#
#
# Mechanical properties :
#
#
# Convention : Reuss Voigt Hill
#
# Bulk Modulus (GPa) = 66.80201 68.17925 67.49063
# Shear Modulus (GPa) = 26.38813 28.88578 27.63695
#
# Velocity S-wave (km/s) = 3.54518 3.70917 3.62810
# Velocity P-wave (km/s) = 6.96956 7.12859 7.04952
#
# Compressibility (1/GPa) = 0.01496961
#
# Stress axis : x y z
#
# Youngs Moduli (GPa) = 88.05140 68.24135 82.20237
#
# Poissons Ratio (x) = 0.27431 0.29637
# Poissons Ratio (y) = 0.35394 0.32701
# Poissons Ratio (z) = 0.31746 0.27147
#
# Static dielectric constant tensor:
#      x y z
#    x 3.628910 0.000000 0.122850 
#    y 0.000000 3.749830 0.000000 
#    z 0.122850 0.000000 3.967890 
# 
# 
# High freq. dielectric constant tensor:
#      x y z
#    x 1.807290 0.000000 0.008380 
#    y 0.000000 1.822850 0.000000 
#    z 0.008380 0.000000 1.833730 
# 
# From -- ./inp_files/31062.got.cif
#   From: 2010.03.12/outbox.cif.g09.slc.cpg/sg5_16_cif.got.tgz:31062.got - 2010.03.31 09:47:26.
