data_PCOD8049049
_publ_section_title
;
Structure prediction by ZEFSAII (Michael W. Deem and Ramdas Pophale) SiO2 
 PCOD8049049
Probable space group: C 2
;
_chemical_formula_sum "Si O2"
_cell_formula_units_Z 32
_cell_length_a 21.882570
_cell_length_b 5.793299
_cell_length_c 15.886264
_cell_angle_alpha 90.000000
_cell_angle_beta 121.117816
_cell_angle_gamma 90.000000
_cell_volume 1724.145065
_symmetry_space_group_name_H-M "C 2"
_symmetry_group_IT_number 5
_symmetry_cell_setting 'monoclinic'
loop_
_space_group_symop_operation_xyz
x,y,z
-x,y,-z
1/2+x,1/2+y,z
1/2-x,1/2+y,-z
loop_
_atom_site_type_symbol
_atom_site_label
_atom_site_fract_x
_atom_site_fract_y
_atom_site_fract_z
Si Si1 0.780464 0.138860 0.990876
Si Si2 0.840669 0.605254 0.564774
Si Si3 0.285082 0.285152 0.219623
Si Si4 0.891789 0.095397 0.195992
Si Si5 0.918991 0.481234 0.341688
Si Si6 0.480625 0.352900 0.646880
Si Si7 0.598886 0.716694 0.504969
Si Si8 0.764874 0.916850 0.382740
O O1 0.863251 0.135976 0.080504
O O2 0.749655 0.381301 0.007804
O O3 0.770609 0.161891 0.883496
O O4 0.904186 0.784997 0.632639
O O5 0.875028 0.374712 0.553041
O O6 0.783705 0.701379 0.456466
O O7 0.799300 0.561234 0.622074
O O8 0.324860 0.498862 0.202802
O O9 0.239695 0.350877 0.270496
O O10 0.344935 0.113432 0.296271
O O11 0.917658 0.331661 0.255779
O O12 0.959121 0.919491 0.240879
O O13 0.930466 0.345624 0.435272
O O14 0.988387 0.643888 0.386210
O O15 0.468236 0.569217 0.576336
O O16 0.663488 0.559117 0.580833
#
# Coordination Sequence:
#
# PCOD8049049 Si02
#       8
#     4   4   4   4   4   4   4   4
#     4  10  20  36  61  91 127 155 195 249 315 372
#     4  11  22  37  55  78 117 159 202 239 285 348
#     4  10  20  35  57  90 118 149 193 246 309 356
#     4  10  20  36  56  84 124 149 189 242 304 370
#     4  11  20  37  55  81 121 153 188 244 298 368
#     4  10  25  36  52  84 117 162 197 234 299 360
#     4  11  22  37  53  82 118 156 195 243 291 356
#     4  11  21  37  57  82 116 155 201 246 291 342
#
# _framework density 18.559923000000001
#
# number of rings (size 3 to 8) (size 9 to 14) (size 15 to 20)
#    0.000    1.500    5.000    0.750    0.000    3.000 
#    0.000    0.000    0.000    0.000    0.000    5.250 
#    0.000    0.000    0.000    0.000    0.000    0.000 
#
# Total GULP energy -198292.204098 kJ/mol
# GULP energy per Si atom -12393.262756 kJ/mol
# Density = 1.851768 g / cm^3
# Si number density = 18.559923 Si / 1000 Ang^3
#
#
#
# Elastic Constant Matrix: (Units=GPa)
#
#
# Indices 1 2 3 4 5 6 
#
# 1 74.4601 22.5662 62.4437 0.0000 0.0418 0.0000
# 2 22.5662 87.9217 33.9346 0.0000 3.5614 -0.0001
# 3 62.4437 33.9346 125.9785 0.0000 3.0300 0.0000
# 4 0.0000 0.0000 0.0000 29.6527 -0.0001 2.6601
# 5 0.0418 3.5614 3.0300 -0.0001 18.9713 0.0000
# 6 0.0000 -0.0001 0.0000 2.6601 0.0000 28.1010
#
#
#
# Elastic Compliance Matrix: (Units=1/GPa)
#
#
# Indices 1 2 3 4 5 6 
#
# 1 0.023287 -0.001770 -0.011115 0.000000 0.002056 0.000000
# 2 -0.001770 0.012893 -0.002547 0.000000 -0.002010 0.000000
# 3 -0.011115 -0.002547 0.014176 0.000000 -0.001761 0.000000
# 4 0.000000 0.000000 0.000000 0.034013 0.000000 -0.003220
# 5 0.002056 -0.002010 -0.001761 0.000000 0.053365 0.000000
# 6 0.000000 0.000000 0.000000 -0.003220 0.000000 0.035891
#
#
# Mechanical properties :
#
#
# Convention : Reuss Voigt Hill
#
# Bulk Modulus (GPa) = 51.30755 58.47216 54.88985
# Shear Modulus (GPa) = 23.69835 26.63938 25.16887
#
# Velocity S-wave (km/s) = 3.57719 3.79267 3.68650
# Velocity P-wave (km/s) = 6.69074 7.12405 6.91079
#
# Compressibility (1/GPa) = 0.01949031
#
# Stress axis : x y z
#
# Youngs Moduli (GPa) = 42.94300 77.56401 70.54275
#
# Poissons Ratio (x) = 0.13729 0.78409
# Poissons Ratio (y) = 0.07601 0.17968
# Poissons Ratio (z) = 0.47732 0.19757
#
# Static dielectric constant tensor:
#      x y z
#    x 3.137560 0.000000 0.146910 
#    y 0.000000 3.794370 0.000000 
#    z 0.146910 0.000000 3.630990 
# 
# 
# High freq. dielectric constant tensor:
#      x y z
#    x 1.680590 0.000000 0.015040 
#    y 0.000000 1.743060 0.000000 
#    z 0.015040 0.000000 1.715370 
# 
# From -- ./inp_files/63127.got.cif
#   From: 2010.03.12/outbox.cif.g09.slc.cpg/sg5_32_cif.got.tgz:63127.got - 2010.03.31 09:47:26.
