data_PCOD8049488
_publ_section_title
;
Structure prediction by ZEFSAII (Michael W. Deem and Ramdas Pophale) SiO2 
 PCOD8049488
Probable space group: C 2
;
_chemical_formula_sum "Si O2"
_cell_formula_units_Z 32
_cell_length_a 11.358116
_cell_length_b 8.808018
_cell_length_c 19.548345
_cell_angle_alpha 90.000000
_cell_angle_beta 132.081580
_cell_angle_gamma 90.000000
_cell_volume 1451.477706
_symmetry_space_group_name_H-M "C 2"
_symmetry_group_IT_number 5
_symmetry_cell_setting 'monoclinic'
loop_
_space_group_symop_operation_xyz
x,y,z
-x,y,-z
1/2+x,1/2+y,z
1/2-x,1/2+y,-z
loop_
_atom_site_type_symbol
_atom_site_label
_atom_site_fract_x
_atom_site_fract_y
_atom_site_fract_z
Si Si1 0.869958 0.592970 0.395617
Si Si2 0.375104 0.352711 0.295943
Si Si3 0.517832 0.129724 0.770931
Si Si4 0.322045 0.704172 0.958813
Si Si5 0.093141 0.430248 0.387523
Si Si6 0.855229 0.074612 0.578675
Si Si7 0.720056 0.041814 0.045759
Si Si8 0.619891 0.063565 0.147219
O O1 0.820740 0.742409 0.335095
O O2 0.721775 0.522467 0.379030
O O3 0.000000 0.650660 0.500000
O O4 0.938339 0.463176 0.373155
O O5 0.488172 0.266806 0.285540
O O6 0.473960 0.496316 0.363009
O O7 0.211951 0.408325 0.199423
O O8 0.701981 0.101697 0.865986
O O9 0.448757 0.978373 0.706796
O O10 0.404259 0.164741 0.793387
O O11 0.229373 0.866517 0.923309
O O12 0.500000 0.708799 0.000000
O O13 0.335856 0.633962 0.040791
O O14 0.130065 0.254958 0.411273
O O15 0.243578 0.529259 0.471614
O O16 0.710226 0.133898 0.115256
O O17 0.551439 0.016545 0.944873
#
# Coordination Sequence:
#
# PCOD8049488 Si02
#       8
#     4   4   4   4   4   4   4   4
#     4   9  20  38  58  84 123 162 203 255 306 358
#     4  11  21  38  61  90 121 164 210 256 308 365
#     4  10  21  39  65  90 127 166 207 261 310 366
#     4  11  21  44  65  92 125 165 207 257 314 369
#     4  10  21  40  61  93 123 164 211 251 310 371
#     4  11  22  40  64  88 125 167 206 254 310 367
#     4  10  21  42  66  87 126 168 203 254 317 371
#     4  10  20  40  61  89 126 164 203 256 310 368
#
# _framework density 22.046498
#
# number of rings (size 3 to 8) (size 9 to 14) (size 15 to 20)
#    0.000    1.750    2.500    3.000    0.000    1.000 
#   15.750    6.875    0.000    0.000    0.000    0.000 
#    0.000    0.000    0.000    0.000    0.000    0.000 
#
# Total GULP energy -198245.476067 kJ/mol
# GULP energy per Si atom -12390.342254 kJ/mol
# Density = 2.199632 g / cm^3
# Si number density = 22.046498 Si / 1000 Ang^3
#
#
#
# Elastic Constant Matrix: (Units=GPa)
#
#
# Indices 1 2 3 4 5 6 
#
# 1 105.4661 19.6716 23.3097 0.0000 -23.3105 0.0000
# 2 19.6716 61.8966 13.3816 0.0000 -4.5060 0.0000
# 3 23.3097 13.3816 65.1423 0.0000 -23.6064 0.0000
# 4 0.0000 0.0000 0.0000 24.1651 0.0000 -1.1697
# 5 -23.3105 -4.5060 -23.6064 0.0000 32.0249 0.0000
# 6 0.0000 0.0000 0.0000 -1.1697 0.0000 21.9983
#
#
#
# Elastic Compliance Matrix: (Units=1/GPa)
#
#
# Indices 1 2 3 4 5 6 
#
# 1 0.011925 -0.003045 -0.000889 0.000000 0.007597 0.000000
# 2 -0.003045 0.017686 -0.003336 0.000000 -0.002187 0.000000
# 3 -0.000889 -0.003336 0.021763 0.000000 0.014926 0.000000
# 4 0.000000 0.000000 0.000000 0.041489 0.000000 0.002206
# 5 0.007597 -0.002187 0.014926 0.000000 0.047450 0.000000
# 6 0.000000 0.000000 0.000000 0.002206 0.000000 0.045575
#
#
# Mechanical properties :
#
#
# Convention : Reuss Voigt Hill
#
# Bulk Modulus (GPa) = 27.14826 38.35899 32.75363
# Shear Modulus (GPa) = 23.50671 27.38047 25.44359
#
# Velocity S-wave (km/s) = 3.26887 3.52794 3.40087
# Velocity P-wave (km/s) = 5.15637 5.83370 5.50546
#
# Compressibility (1/GPa) = 0.03683477
#
# Stress axis : x y z
#
# Youngs Moduli (GPa) = 83.85676 56.54298 45.94913
#
# Poissons Ratio (x) = 0.17216 0.04084
# Poissons Ratio (y) = 0.25533 0.15329
# Poissons Ratio (z) = 0.07453 0.18863
#
# Static dielectric constant tensor:
#      x y z
#    x 4.341820 0.000000 -0.379010 
#    y 0.000000 3.661820 0.000000 
#    z -0.379010 0.000000 4.187600 
# 
# 
# High freq. dielectric constant tensor:
#      x y z
#    x 1.870510 0.000000 -0.016300 
#    y 0.000000 1.835810 0.000000 
#    z -0.016300 0.000000 1.877500 
# 
# From -- ./inp_files/65140.got.cif
#   From: 2010.03.12/outbox.cif.g09.slc.cpg/sg5_33_cif.got.tgz:65140.got - 2010.03.31 09:47:26.
