data_PCOD8049435
_publ_section_title
;
Structure prediction by ZEFSAII (Michael W. Deem and Ramdas Pophale) SiO2 
 PCOD8049435
Probable space group: C 2
;
_chemical_formula_sum "Si O2"
_cell_formula_units_Z 30
_cell_length_a 9.221704
_cell_length_b 15.226403
_cell_length_c 10.395240
_cell_angle_alpha 90.000000
_cell_angle_beta 106.647295
_cell_angle_gamma 90.000000
_cell_volume 1398.452455
_symmetry_space_group_name_H-M "C 2"
_symmetry_group_IT_number 5
_symmetry_cell_setting 'monoclinic'
loop_
_space_group_symop_operation_xyz
x,y,z
-x,y,-z
1/2+x,1/2+y,z
1/2-x,1/2+y,-z
loop_
_atom_site_type_symbol
_atom_site_label
_atom_site_fract_x
_atom_site_fract_y
_atom_site_fract_z
Si Si1 0.795332 0.727290 0.178216
Si Si2 0.000000 0.298586 0.000000
Si Si3 0.382964 0.419435 0.569855
Si Si4 0.771708 0.593325 0.522769
Si Si5 0.574172 0.059813 0.702342
Si Si6 0.392716 0.858142 0.233118
Si Si7 0.671760 0.775399 0.424120
Si Si8 0.552972 0.354512 0.149861
O O1 0.837297 0.624136 0.177950
O O2 0.762260 0.763888 0.313138
O O3 0.938811 0.776923 0.155171
O O4 0.646259 0.737222 0.054130
O O5 0.025639 0.360804 0.884411
O O6 0.500000 0.376088 0.500000
O O7 0.351379 0.516491 0.509603
O O8 0.236929 0.355513 0.527317
O O9 0.448400 0.424349 0.732244
O O10 0.870503 0.591158 0.421038
O O11 0.685776 0.686566 0.511959
O O12 0.892585 0.576455 0.668921
O O13 0.620492 0.959162 0.728902
O O14 0.494971 0.798922 0.355134
O O15 0.224436 0.817509 0.180406
O O16 0.500000 0.397745 0.000000
#
# Coordination Sequence:
#
# PCOD8049435 Si02
#       8
#     4   2   4   4   4   4   4   4
#     4  10  21  42  66  92 130 172 222 262 336 393
#     4  10  22  42  64  90 126 184 218 264 326 406
#     4  12  23  41  67  98 131 175 224 274 330 392
#     4  10  21  39  62  98 130 161 215 271 342 387
#     4  10  20  39  65  94 126 166 214 277 329 392
#     4  11  22  42  66  93 132 172 221 270 332 388
#     4  10  22  41  69  96 126 171 215 279 331 388
#     4  12  24  42  67  96 133 177 218 269 329 399
#
# _framework density 21.452283999999999
#
# number of rings (size 3 to 8) (size 9 to 14) (size 15 to 20)
#    0.000    1.333    5.333    0.800    1.867    0.533 
#    7.200    0.000    0.000    0.000    0.000    0.000 
#    0.000    0.000    0.000    0.000    0.000    0.000 
#
# Total GULP energy -185926.565901 kJ/mol
# GULP energy per Si atom -12395.104393 kJ/mol
# Density = 2.140346 g / cm^3
# Si number density = 21.452284 Si / 1000 Ang^3
#
#
#
# Elastic Constant Matrix: (Units=GPa)
#
#
# Indices 1 2 3 4 5 6 
#
# 1 119.5329 39.2674 33.5477 0.0000 34.2789 0.0000
# 2 39.2674 136.3255 29.8694 0.0000 29.3994 0.0000
# 3 33.5477 29.8694 94.6233 0.0000 27.3770 0.0000
# 4 0.0000 0.0000 0.0000 22.1452 0.0000 5.2446
# 5 34.2789 29.3994 27.3770 0.0000 34.5509 0.0000
# 6 0.0000 0.0000 0.0000 5.2446 0.0000 27.8407
#
#
#
# Elastic Compliance Matrix: (Units=1/GPa)
#
#
# Indices 1 2 3 4 5 6 
#
# 1 0.011884 -0.001022 -0.000948 0.000000 -0.010169 0.000000
# 2 -0.001022 0.009120 -0.000733 0.000000 -0.006165 0.000000
# 3 -0.000948 -0.000733 0.013861 0.000000 -0.009418 0.000000
# 4 0.000000 0.000000 0.000000 0.047265 0.000000 -0.008904
# 5 -0.010169 -0.006165 -0.009418 0.000000 0.051741 0.000000
# 6 0.000000 0.000000 0.000000 -0.008904 0.000000 0.037596
#
#
# Mechanical properties :
#
#
# Convention : Reuss Voigt Hill
#
# Bulk Modulus (GPa) = 33.94642 61.76119 47.85381
# Shear Modulus (GPa) = 26.78191 33.42717 30.10454
#
# Velocity S-wave (km/s) = 3.53716 3.95170 3.75016
# Velocity P-wave (km/s) = 5.70443 7.04796 6.41149
#
# Compressibility (1/GPa) = 0.02945818
#
# Stress axis : x y z
#
# Youngs Moduli (GPa) = 84.14545 109.64944 72.14618
#
# Poissons Ratio (x) = 0.11209 0.06843
# Poissons Ratio (y) = 0.08602 0.05285
# Poissons Ratio (z) = 0.07981 0.08033
#
# Static dielectric constant tensor:
#      x y z
#    x 4.038730 0.000000 0.189670 
#    y 0.000000 3.610400 0.000000 
#    z 0.189670 0.000000 4.055210 
# 
# 
# High freq. dielectric constant tensor:
#      x y z
#    x 1.857140 0.000000 0.010940 
#    y 0.000000 1.818560 0.000000 
#    z 0.010940 0.000000 1.835630 
# 
# From -- ./inp_files/36117.got.cif
#   From: 2010.03.12/outbox.cif.g09.slc.cpg/sg5_19_cif.got.tgz:36117.got - 2010.03.31 09:47:26.
