data_PCOD8049938
_publ_section_title
;
Structure prediction by ZEFSAII (Michael W. Deem and Ramdas Pophale) SiO2 
 PCOD8049938
Probable space group: C 2
;
_chemical_formula_sum "Si O2"
_cell_formula_units_Z 22
_cell_length_a 8.143627
_cell_length_b 17.800054
_cell_length_c 7.750072
_cell_angle_alpha 90.000000
_cell_angle_beta 55.190611
_cell_angle_gamma 90.000000
_cell_volume 922.396270
_symmetry_space_group_name_H-M "C 2"
_symmetry_group_IT_number 5
_symmetry_cell_setting 'monoclinic'
loop_
_space_group_symop_operation_xyz
x,y,z
-x,y,-z
1/2+x,1/2+y,z
1/2-x,1/2+y,-z
loop_
_atom_site_type_symbol
_atom_site_label
_atom_site_fract_x
_atom_site_fract_y
_atom_site_fract_z
Si Si1 0.216505 0.643380 0.809625
Si Si2 0.712394 0.120028 0.417206
Si Si3 0.222183 0.783018 0.304442
Si Si4 0.538687 0.504362 0.276907
Si Si5 0.355294 0.794475 0.847204
Si Si6 0.500000 0.389702 0.000000
O O1 0.232016 0.650869 0.597309
O O2 0.268758 0.559184 0.839996
O O3 0.364986 0.705970 0.796369
O O4 0.000000 0.666521 0.000000
O O5 0.500000 0.083044 0.500000
O O6 0.740901 0.192682 0.279393
O O7 0.863537 0.052757 0.295311
O O8 0.408482 0.818241 0.306105
O O9 0.000000 0.808506 0.500000
O O10 0.259490 0.811459 0.090579
O O11 0.500000 0.478300 0.500000
O O12 0.568508 0.435922 0.128785
O O13 0.197095 0.840799 0.822918
#
# Coordination Sequence:
#
# PCOD8049938 Si02
#       6
#     4   4   4   4   4   2
#     4  11  21  40  71 101 139 179 250 303 349 426
#     4  10  21  38  70 107 130 178 243 304 358 408
#     4  10  22  42  72 102 140 181 241 308 354 421
#     4  10  25  47  71 101 143 193 244 291 361 439
#     4  11  24  43  67 111 141 188 241 298 369 433
#     4  12  28  46  70 104 162 190 232 296 380 438
#
# _framework density 23.850918
#
# number of rings (size 3 to 8) (size 9 to 14) (size 15 to 20)
#    0.000    1.455    2.727    2.182    5.091    0.727 
#    3.273    1.818    0.000    0.000    0.000    0.000 
#    0.000    0.000    0.000    0.000    0.000    0.000 
#
# Total GULP energy -136305.017658 kJ/mol
# GULP energy per Si atom -12391.365242 kJ/mol
# Density = 2.379663 g / cm^3
# Si number density = 23.850918 Si / 1000 Ang^3
#
#
#
# Elastic Constant Matrix: (Units=GPa)
#
#
# Indices 1 2 3 4 5 6 
#
# 1 136.0476 32.6639 37.2028 0.0000 -30.0039 0.0000
# 2 32.6639 88.3178 22.8606 0.0000 0.7664 0.0000
# 3 37.2028 22.8606 83.4466 0.0000 -23.6244 0.0000
# 4 0.0000 0.0000 0.0000 19.6698 0.0000 -2.8377
# 5 -30.0039 0.7664 -23.6244 0.0000 42.8433 0.0000
# 6 0.0000 0.0000 0.0000 -2.8377 0.0000 47.0359
#
#
#
# Elastic Compliance Matrix: (Units=1/GPa)
#
#
# Indices 1 2 3 4 5 6 
#
# 1 0.009965 -0.003260 -0.001845 0.000000 0.006020 0.000000
# 2 -0.003260 0.013473 -0.003498 0.000000 -0.004453 0.000000
# 3 -0.001845 -0.003498 0.015899 0.000000 0.007537 0.000000
# 4 0.000000 0.000000 0.000000 0.051286 0.000000 0.003094
# 5 0.006020 -0.004453 0.007537 0.000000 0.031792 0.000000
# 6 0.000000 0.000000 0.000000 0.003094 0.000000 0.021447
#
#
# Mechanical properties :
#
#
# Convention : Reuss Voigt Hill
#
# Bulk Modulus (GPa) = 45.18966 54.80740 49.99853
# Shear Modulus (GPa) = 29.68323 36.24876 32.96600
#
# Velocity S-wave (km/s) = 3.53162 3.90270 3.72179
# Velocity P-wave (km/s) = 5.96805 6.58309 6.28310
#
# Compressibility (1/GPa) = 0.02212895
#
# Stress axis : x y z
#
# Youngs Moduli (GPa) = 100.34805 74.22467 62.89883
#
# Poissons Ratio (x) = 0.24198 0.11608
# Poissons Ratio (y) = 0.32715 0.22003
# Poissons Ratio (z) = 0.18519 0.25965
#
# Static dielectric constant tensor:
#      x y z
#    x 4.601070 0.000000 -0.077900 
#    y 0.000000 4.035060 0.000000 
#    z -0.077900 0.000000 4.035990 
# 
# 
# High freq. dielectric constant tensor:
#      x y z
#    x 1.971590 0.000000 -0.005950 
#    y 0.000000 1.924210 0.000000 
#    z -0.005950 0.000000 1.930580 
# 
# From -- ./inp_files/16039.got.cif
#   From: 2010.03.12/outbox.cif.g09.slc.cpg/sg5_9_cif.got.tgz:16039.got - 2010.03.31 09:47:26.
