data_PCOD8049127
_publ_section_title
;
Structure prediction by ZEFSAII (Michael W. Deem and Ramdas Pophale) SiO2 
 PCOD8049127
Probable space group: C 2
;
_chemical_formula_sum "Si O2"
_cell_formula_units_Z 8
_cell_length_a 8.566146
_cell_length_b 5.362832
_cell_length_c 20.663066
_cell_angle_alpha 90.000000
_cell_angle_beta 18.922187
_cell_angle_gamma 90.000000
_cell_volume 307.821973
_symmetry_space_group_name_H-M "C 2"
_symmetry_group_IT_number 5
_symmetry_cell_setting 'monoclinic'
loop_
_space_group_symop_operation_xyz
x,y,z
-x,y,-z
1/2+x,1/2+y,z
1/2-x,1/2+y,-z
loop_
_atom_site_type_symbol
_atom_site_label
_atom_site_fract_x
_atom_site_fract_y
_atom_site_fract_z
Si Si1 0.422843 0.216590 0.725233
Si Si2 0.062212 0.216584 0.721287
O O1 0.242918 0.215593 0.723005
O O2 0.242344 0.468318 0.832868
O O3 0.000000 0.217552 0.500000
O O4 0.243170 0.965371 0.832844
O O5 0.500000 0.217544 0.500000
#
# Coordination Sequence:
#
# PCOD8049127 Si02
#       2
#     4   4
#     4  10  20  36  61  93 122 158 215 273 309 364
#     4  12  23  42  70  99 127 176 228 265 318 400
#
# _framework density 25.989046999999999
#
# number of rings (size 3 to 8) (size 9 to 14) (size 15 to 20)
#    0.000    1.000    0.000   11.500    0.000    0.000 
#    0.000    6.000    0.000    0.000    0.000    0.000 
#    0.000    0.000    0.000    0.000    0.000    0.000 
#
# Total GULP energy -49580.021533 kJ/mol
# GULP energy per Si atom -12395.005383 kJ/mol
# Density = 2.592989 g / cm^3
# Si number density = 25.989047 Si / 1000 Ang^3
#
#
#
# Elastic Constant Matrix: (Units=GPa)
#
#
# Indices 1 2 3 4 5 6 
#
# 1 319.1186 139.2933 15.7325 -0.5011 -41.5774 0.3889
# 2 139.2933 365.4746 -9.2964 -1.0570 -21.9977 -0.0881
# 3 15.7325 -9.2964 18.1245 0.0371 0.5385 0.1247
# 4 -0.5011 -1.0570 0.0371 -25.6640 0.1610 -13.9924
# 5 -41.5774 -21.9977 0.5385 0.1610 18.2308 -0.2191
# 6 0.3889 -0.0881 0.1247 -13.9924 -0.2191 56.0949
#
#
#
# Elastic Compliance Matrix: (Units=1/GPa)
#
#
# Indices 1 2 3 4 5 6 
#
# 1 0.005550 -0.001612 -0.005968 0.000008 0.010889 0.000017
# 2 -0.001612 0.003455 0.003159 -0.000097 0.000400 -0.000013
# 3 -0.005968 0.003159 0.062321 0.000069 -0.011642 -0.000120
# 4 0.000008 -0.000097 0.000069 -0.034296 0.000101 -0.008555
# 5 0.010889 0.000400 -0.011642 0.000101 0.080516 0.000291
# 6 0.000017 -0.000013 -0.000120 -0.008555 0.000291 0.015694
#
#
# Mechanical properties :
#
#
# Convention : Reuss Voigt Hill
#
# Bulk Modulus (GPa) = 16.00373 110.46405 63.23389
# Shear Modulus (GPa) = 30.69192 46.86489 38.77841
#
# Velocity S-wave (km/s) = 3.44023 4.25108 3.86697
# Velocity P-wave (km/s) = 4.68524 8.16651 6.65746
#
# Compressibility (1/GPa) = 0.06248543
#
# Stress axis : x y z
#
# Youngs Moduli (GPa) = 180.17780 289.47059 16.04585
#
# Poissons Ratio (x) = 0.46653 0.09576
# Poissons Ratio (y) = 0.29038 -0.05069
# Poissons Ratio (z) = 1.07529 -0.91452
#
# Static dielectric constant tensor:
#      x y z
#    x 4.603620 0.022050 0.033300 
#    y 0.022050 32.252840 0.187970 
#    z 0.033300 0.187970 4.398200 
# 
# 
# High freq. dielectric constant tensor:
#      x y z
#    x 2.054240 -0.000030 -0.013850 
#    y -0.000030 2.092940 0.000010 
#    z -0.013850 0.000010 1.981120 
# 
# From -- ./inp_files/67824.got.cif
#   From: 2010.03.12/outbox.cif.g09.slc.cpg/sg5_34_cif.got.tgz:67824.got - 2010.03.31 09:47:26.
