data_PCOD8049651
_publ_section_title
;
Structure prediction by ZEFSAII (Michael W. Deem and Ramdas Pophale) SiO2 
 PCOD8049651
Probable space group: C 2
;
_chemical_formula_sum "Si O2"
_cell_formula_units_Z 32
_cell_length_a 10.355507
_cell_length_b 9.217190
_cell_length_c 26.898136
_cell_angle_alpha 90.000000
_cell_angle_beta 33.686139
_cell_angle_gamma 90.000000
_cell_volume 1423.986071
_symmetry_space_group_name_H-M "C 2"
_symmetry_group_IT_number 5
_symmetry_cell_setting 'monoclinic'
loop_
_space_group_symop_operation_xyz
x,y,z
-x,y,-z
1/2+x,1/2+y,z
1/2-x,1/2+y,-z
loop_
_atom_site_type_symbol
_atom_site_label
_atom_site_fract_x
_atom_site_fract_y
_atom_site_fract_z
Si Si1 0.002363 0.058150 0.103283
Si Si2 0.383519 0.028151 0.847374
Si Si3 0.408740 0.338082 0.791468
Si Si4 0.382586 0.709040 0.373427
Si Si5 0.824540 0.482599 0.704981
Si Si6 0.462992 0.209973 0.431568
Si Si7 0.089546 0.391696 0.055849
Si Si8 0.632356 0.417320 0.302525
O O1 0.105553 0.219442 0.061623
O O2 0.857587 0.991318 0.103020
O O3 0.823686 0.066528 0.206143
O O4 0.212288 0.943841 0.046809
O O5 0.439462 0.194497 0.814721
O O6 0.354599 0.998248 0.915330
O O7 0.603573 0.928358 0.760736
O O8 0.638851 0.431955 0.723584
O O9 0.379084 0.309010 0.741506
O O10 0.168590 0.421740 0.883767
O O11 0.532201 0.852630 0.316230
O O12 0.172331 0.703682 0.402940
O O13 0.551621 0.574606 0.310214
O O14 0.283736 0.702599 0.461610
O O15 0.010846 0.583444 0.617475
O O16 0.469254 0.360389 0.399016
#
# Coordination Sequence:
#
# PCOD8049651 Si02
#       8
#     4   4   4   4   4   4   4   4
#     4  11  25  42  67  97 134 175 227 274 326 397
#     4  10  20  42  66  89 128 174 221 265 330 383
#     4  10  22  39  69  94 127 178 216 271 325 390
#     4  11  24  42  67  97 130 174 215 276 336 393
#     4  12  23  43  66 100 132 176 221 269 336 392
#     4  11  24  42  65  98 134 164 222 277 329 399
#     4  10  24  44  63  98 132 176 224 275 325 383
#     4  11  21  42  67  94 130 173 220 268 333 394
#
# _framework density 22.472128999999999
#
# number of rings (size 3 to 8) (size 9 to 14) (size 15 to 20)
#    0.000    1.250    2.500    4.125    1.750    0.500 
#    6.750    0.000    0.000    0.000    0.000    0.000 
#    0.000    0.000    0.000    0.000    0.000    0.000 
#
# Total GULP energy -198294.502207 kJ/mol
# GULP energy per Si atom -12393.406388 kJ/mol
# Density = 2.242098 g / cm^3
# Si number density = 22.472129 Si / 1000 Ang^3
#
#
#
# Elastic Constant Matrix: (Units=GPa)
#
#
# Indices 1 2 3 4 5 6 
#
# 1 68.9918 24.2385 6.5517 0.0002 2.2269 -0.0003
# 2 24.2385 101.0711 33.7070 -0.0012 10.1327 -0.0003
# 3 6.5517 33.7070 74.9876 0.0013 -8.0874 -0.0005
# 4 0.0002 -0.0012 0.0013 39.5682 0.0011 1.5988
# 5 2.2269 10.1327 -8.0874 0.0011 23.4719 -0.0001
# 6 -0.0003 -0.0003 -0.0005 1.5988 -0.0001 30.8696
#
#
#
# Elastic Compliance Matrix: (Units=1/GPa)
#
#
# Indices 1 2 3 4 5 6 
#
# 1 0.015840 -0.003985 0.000448 0.000000 0.000372 0.000000
# 2 -0.003985 0.013901 -0.006758 0.000001 -0.007951 0.000000
# 3 0.000448 -0.006758 0.017286 -0.000001 0.008831 0.000000
# 4 0.000000 0.000001 -0.000001 0.025326 -0.000002 -0.001312
# 5 0.000372 -0.007951 0.008831 -0.000002 0.049044 0.000000
# 6 0.000000 0.000000 0.000000 -0.001312 0.000000 0.032462
#
#
# Mechanical properties :
#
#
# Convention : Reuss Voigt Hill
#
# Bulk Modulus (GPa) = 37.82675 41.56054 39.69365
# Shear Modulus (GPa) = 27.28335 30.81883 29.05109
#
# Velocity S-wave (km/s) = 3.48817 3.70729 3.59940
# Velocity P-wave (km/s) = 5.75260 6.07122 5.91406
#
# Compressibility (1/GPa) = 0.02643632
#
# Stress axis : x y z
#
# Youngs Moduli (GPa) = 63.13099 71.93967 57.84888
#
# Poissons Ratio (x) = 0.28670 -0.02589
# Poissons Ratio (y) = 0.25159 0.39092
# Poissons Ratio (z) = -0.02825 0.48614
#
# Static dielectric constant tensor:
#      x y z
#    x 4.032640 0.000000 -0.055760 
#    y 0.000000 3.887490 0.000010 
#    z -0.055760 0.000010 4.267500 
# 
# 
# High freq. dielectric constant tensor:
#      x y z
#    x 1.881270 0.000000 -0.002700 
#    y 0.000000 1.880770 0.000000 
#    z -0.002700 0.000000 1.895340 
# 
# From -- ./inp_files/71747.got.cif
#   From: 2010.03.12/outbox.cif.g09.slc.cpg/sg5_36_cif.got.tgz:71747.got - 2010.03.31 09:47:26.
