data_PCOD8049441
_publ_section_title
;
Structure prediction by ZEFSAII (Michael W. Deem and Ramdas Pophale) SiO2 
 PCOD8049441
Probable space group: C 2
;
_chemical_formula_sum "Si O2"
_cell_formula_units_Z 26
_cell_length_a 14.733645
_cell_length_b 8.889031
_cell_length_c 18.283832
_cell_angle_alpha 90.000000
_cell_angle_beta 30.835312
_cell_angle_gamma 90.000000
_cell_volume 1227.402075
_symmetry_space_group_name_H-M "C 2"
_symmetry_group_IT_number 5
_symmetry_cell_setting 'monoclinic'
loop_
_space_group_symop_operation_xyz
x,y,z
-x,y,-z
1/2+x,1/2+y,z
1/2-x,1/2+y,-z
loop_
_atom_site_type_symbol
_atom_site_label
_atom_site_fract_x
_atom_site_fract_y
_atom_site_fract_z
Si Si1 0.118833 0.372260 0.553220
Si Si2 0.500000 0.051422 0.500000
Si Si3 0.213105 0.300589 0.706418
Si Si4 0.115800 0.361006 0.142598
Si Si5 0.597312 0.124771 0.046079
Si Si6 0.353726 0.545298 0.494707
Si Si7 0.236326 0.532405 0.799617
O O1 0.013835 0.449474 0.560852
O O2 0.283888 0.470119 0.468286
O O3 0.213291 0.218066 0.460227
O O4 0.964590 0.357504 0.720614
O O5 0.326974 0.152805 0.623661
O O6 0.290728 0.442417 0.605575
O O7 0.204284 0.360227 0.795564
O O8 0.016986 0.259177 0.814557
O O9 0.311695 0.287894 0.005828
O O10 0.116374 0.529299 0.107927
O O11 0.698357 0.036020 0.911719
O O12 0.393181 0.141651 0.159769
O O13 0.562273 0.573563 0.353529
#
# Coordination Sequence:
#
# PCOD8049441 Si02
#       7
#     4   2   4   4   4   4   4
#     4  11  25  39  64  93 130 160 213 257 325 372
#     4  12  24  38  62 104 122 160 200 266 332 372
#     4  10  22  41  67  91 132 160 203 260 323 375
#     4  10  22  44  58  91 122 167 211 254 304 375
#     4  10  22  40  64  86 123 169 212 249 305 364
#     4  11  21  42  64  91 129 166 201 263 319 381
#     4  10  20  39  66  87 120 168 205 248 311 371
#
# _framework density 21.182953000000001
#
# number of rings (size 3 to 8) (size 9 to 14) (size 15 to 20)
#    0.000    1.538    3.077    1.846    2.154    1.231 
#    8.308    0.000    0.000    0.000    0.000    0.000 
#    0.000    0.000    0.000    0.000    0.000    0.000 
#
# Total GULP energy -161093.389570 kJ/mol
# GULP energy per Si atom -12391.799198 kJ/mol
# Density = 2.113474 g / cm^3
# Si number density = 21.182953 Si / 1000 Ang^3
#
#
#
# Elastic Constant Matrix: (Units=GPa)
#
#
# Indices 1 2 3 4 5 6 
#
# 1 95.4141 41.7699 16.4440 0.0014 -7.0957 -0.0005
# 2 41.7699 107.6045 16.1090 0.0013 -10.1314 -0.0009
# 3 16.4440 16.1090 66.8932 0.0043 -32.4898 -0.0023
# 4 0.0014 0.0013 0.0043 15.3730 -0.0022 -5.7586
# 5 -7.0957 -10.1314 -32.4898 -0.0022 35.9179 0.0008
# 6 -0.0005 -0.0009 -0.0023 -5.7586 0.0008 28.1163
#
#
#
# Elastic Compliance Matrix: (Units=1/GPa)
#
#
# Indices 1 2 3 4 5 6 
#
# 1 0.012913 -0.004732 -0.002576 0.000000 -0.001114 0.000000
# 2 -0.004732 0.011399 -0.000846 0.000000 0.001516 0.000000
# 3 -0.002576 -0.000846 0.027509 -0.000004 0.024136 0.000001
# 4 0.000000 0.000000 -0.000004 0.070454 0.000001 0.014430
# 5 -0.001114 0.001516 0.024136 0.000001 0.049881 0.000001
# 6 0.000000 0.000000 0.000001 0.014430 0.000001 0.038522
#
#
# Mechanical properties :
#
#
# Convention : Reuss Voigt Hill
#
# Bulk Modulus (GPa) = 28.15758 46.50640 37.33199
# Shear Modulus (GPa) = 20.93593 28.92072 24.92833
#
# Velocity S-wave (km/s) = 3.14720 3.69898 3.43419
# Velocity P-wave (km/s) = 5.15052 6.34394 5.77813
#
# Compressibility (1/GPa) = 0.03551441
#
# Stress axis : x y z
#
# Youngs Moduli (GPa) = 77.43990 87.72356 36.35202
#
# Poissons Ratio (x) = 0.41510 0.09363
# Poissons Ratio (y) = 0.36644 0.03075
# Poissons Ratio (z) = 0.19947 0.07420
#
# Static dielectric constant tensor:
#      x y z
#    x 4.184350 0.000000 -0.061030 
#    y 0.000000 3.679480 0.000000 
#    z -0.061030 0.000000 4.057200 
# 
# 
# High freq. dielectric constant tensor:
#      x y z
#    x 1.849090 0.000000 -0.009580 
#    y 0.000000 1.807130 0.000000 
#    z -0.009580 0.000000 1.825690 
# 
# From -- ./inp_files/65867.got.cif
#   From: 2010.03.12/outbox.cif.g09.slc.cpg/sg5_33_cif.got.tgz:65867.got - 2010.03.31 09:47:26.
