data_PCOD8049628
_publ_section_title
;
Structure prediction by ZEFSAII (Michael W. Deem and Ramdas Pophale) SiO2 
 PCOD8049628
Probable space group: C 2
;
_chemical_formula_sum "Si O2"
_cell_formula_units_Z 20
_cell_length_a 15.646471
_cell_length_b 8.761721
_cell_length_c 7.398487
_cell_angle_alpha 90.000000
_cell_angle_beta 70.563131
_cell_angle_gamma 90.000000
_cell_volume 956.454784
_symmetry_space_group_name_H-M "C 2"
_symmetry_group_IT_number 5
_symmetry_cell_setting 'monoclinic'
loop_
_space_group_symop_operation_xyz
x,y,z
-x,y,-z
1/2+x,1/2+y,z
1/2-x,1/2+y,-z
loop_
_atom_site_type_symbol
_atom_site_label
_atom_site_fract_x
_atom_site_fract_y
_atom_site_fract_z
Si Si1 0.725694 0.407040 0.820999
Si Si2 0.275549 0.047259 0.131557
Si Si3 0.000000 0.718153 0.500000
Si Si4 0.641227 0.465511 0.511547
Si Si5 0.083775 0.462119 0.226794
Si Si6 0.000000 0.212614 0.500000
O O1 0.713157 0.227591 0.862479
O O2 0.658835 0.465445 0.712711
O O3 0.830380 0.444243 0.695351
O O4 0.703802 0.500963 0.021788
O O5 0.238341 0.971074 0.341168
O O6 0.374531 0.974443 0.006839
O O7 0.913545 0.815333 0.502368
O O8 0.971988 0.614835 0.690205
O O9 0.586580 0.614201 0.492151
O O10 0.021232 0.314866 0.307178
#
# Coordination Sequence:
#
# PCOD8049628 Si02
#       6
#     4   4   2   4   4   2
#     4  10  23  39  70  87 122 166 213 245 302 371
#     4  10  21  42  65  92 118 163 216 251 282 388
#     4  10  22  36  62  98 132 156 192 270 308 360
#     4  11  22  39  70  89 126 161 208 249 317 356
#     4   9  21  41  65  83 135 159 202 252 309 353
#     4  10  20  42  62 100 124 158 196 272 306 358
#
# _framework density 20.910557000000001
#
# number of rings (size 3 to 8) (size 9 to 14) (size 15 to 20)
#    1.200    0.800    2.000    1.200    2.800    0.000 
#    0.000    9.000    8.800    0.000    0.000    0.000 
#    0.000    0.000    0.000    0.000    0.000    0.000 
#
# Total GULP energy -123898.623219 kJ/mol
# GULP energy per Si atom -12389.862322 kJ/mol
# Density = 2.086296 g / cm^3
# Si number density = 20.910557 Si / 1000 Ang^3
#
#
#
# Elastic Constant Matrix: (Units=GPa)
#
#
# Indices 1 2 3 4 5 6 
#
# 1 22.8096 24.9733 27.1068 0.0000 -10.3151 0.0000
# 2 24.9733 126.8811 46.2159 0.0000 -10.0626 0.0000
# 3 27.1068 46.2159 101.5146 0.0000 -8.7821 0.0000
# 4 0.0000 0.0000 0.0000 23.1275 0.0000 -11.1798
# 5 -10.3151 -10.0626 -8.7821 0.0000 42.2889 0.0000
# 6 0.0000 0.0000 0.0000 -11.1798 0.0000 6.7600
#
#
#
# Elastic Compliance Matrix: (Units=1/GPa)
#
#
# Indices 1 2 3 4 5 6 
#
# 1 0.078194 -0.008545 -0.015799 0.000000 0.013759 0.000000
# 2 -0.008545 0.010462 -0.002491 0.000000 -0.000112 0.000000
# 3 -0.015799 -0.002491 0.015090 0.000000 -0.001313 0.000000
# 4 0.000000 0.000000 0.000000 0.215613 0.000000 0.356587
# 5 0.013759 -0.000112 -0.001313 0.000000 0.026704 0.000000
# 6 0.000000 0.000000 0.000000 0.356587 0.000000 0.737663
#
#
# Mechanical properties :
#
#
# Convention : Reuss Voigt Hill
#
# Bulk Modulus (GPa) = 19.96956 49.75525 34.86241
# Shear Modulus (GPa) = 4.33243 24.62922 14.48082
#
# Velocity S-wave (km/s) = 1.44097 3.43569 2.63442
# Velocity P-wave (km/s) = 3.51272 6.29163 5.09528
#
# Compressibility (1/GPa) = 0.05007621
#
# Stress axis : x y z
#
# Youngs Moduli (GPa) = 12.78868 95.58800 66.26885
#
# Poissons Ratio (x) = 0.81675 1.04701
# Poissons Ratio (y) = 0.10927 0.16507
# Poissons Ratio (z) = 0.20205 0.23810
#
# Static dielectric constant tensor:
#      x y z
#    x 3.535860 0.000000 -0.254690 
#    y 0.000000 3.788840 0.000000 
#    z -0.254690 0.000000 3.676760 
# 
# 
# High freq. dielectric constant tensor:
#      x y z
#    x 1.791740 0.000000 -0.024130 
#    y 0.000000 1.831770 0.000000 
#    z -0.024130 0.000000 1.809400 
# 
# From -- ./inp_files/9163.got.cif
#   From: 2010.03.12/outbox.cif.g09.slc.cpg/sg5_5_cif.got.tgz:9163.got - 2010.03.31 09:47:26.
