data_PCOD8049050
_publ_section_title
;
Structure prediction by ZEFSAII (Michael W. Deem and Ramdas Pophale) SiO2 
 PCOD8049050
Probable space group: C 2
;
_chemical_formula_sum "Si O2"
_cell_formula_units_Z 32
_cell_length_a 17.179731
_cell_length_b 8.840402
_cell_length_c 11.080734
_cell_angle_alpha 90.000000
_cell_angle_beta 81.930220
_cell_angle_gamma 90.000000
_cell_volume 1666.230250
_symmetry_space_group_name_H-M "C 2"
_symmetry_group_IT_number 5
_symmetry_cell_setting 'monoclinic'
loop_
_space_group_symop_operation_xyz
x,y,z
-x,y,-z
1/2+x,1/2+y,z
1/2-x,1/2+y,-z
loop_
_atom_site_type_symbol
_atom_site_label
_atom_site_fract_x
_atom_site_fract_y
_atom_site_fract_z
Si Si1 0.976807 0.996200 0.867478
Si Si2 0.915435 0.264098 0.741075
Si Si3 0.854897 0.031559 0.577677
Si Si4 0.102263 0.766382 0.263889
Si Si5 0.017780 0.519283 0.635092
Si Si6 0.318192 0.112270 0.431855
Si Si7 0.869097 0.938509 0.322877
Si Si8 0.206233 0.513029 0.284757
O O1 0.050911 0.946890 0.768636
O O2 0.911366 0.870178 0.850735
O O3 0.937003 0.160427 0.852547
O O4 0.000000 0.985846 0.000000
O O5 0.834392 0.360110 0.757758
O O6 0.987453 0.378079 0.717203
O O7 0.910839 0.151158 0.629976
O O8 0.873134 0.865700 0.625610
O O9 0.878706 0.051923 0.432993
O O10 0.762521 0.068556 0.616419
O O11 0.173292 0.652686 0.212878
O O12 0.023258 0.674874 0.314566
O O13 0.110285 0.520293 0.643311
O O14 0.000000 0.492493 0.500000
O O15 0.339551 0.286213 0.397647
O O16 0.316834 0.060565 0.572644
O O17 0.799402 0.994119 0.249206
#
# Coordination Sequence:
#
# PCOD8049050 Si02
#       8
#     4   4   4   4   4   4   4   4
#     4  11  26  43  59  78 111 157 213 250 274 323
#     4  10  22  36  56  85 120 148 189 237 293 341
#     4  10  21  32  55  90 119 154 174 227 298 360
#     4  10  20  37  60  83 118 151 191 232 291 348
#     4  11  19  32  56  90 123 147 180 224 290 359
#     4  11  19  32  55  92 132 143 177 224 289 367
#     4  11  21  35  59  87 124 153 185 232 289 346
#     4  10  20  35  57  91 123 148 176 229 298 357
#
# _framework density 19.205029
#
# number of rings (size 3 to 8) (size 9 to 14) (size 15 to 20)
#    0.000    1.500    6.250    0.000    1.750    2.000 
#    0.000    3.750    0.000    0.000    0.000    0.000 
#    0.000    0.000    0.000    0.000    0.000    0.000 
#
# Total GULP energy -198227.295103 kJ/mol
# GULP energy per Si atom -12389.205944 kJ/mol
# Density = 1.916132 g / cm^3
# Si number density = 19.205029 Si / 1000 Ang^3
#
#
#
# Elastic Constant Matrix: (Units=GPa)
#
#
# Indices 1 2 3 4 5 6 
#
# 1 91.8722 29.7503 24.0992 0.0000 12.9015 0.0000
# 2 29.7503 98.7847 28.0315 0.0000 10.1083 0.0000
# 3 24.0992 28.0315 68.7315 0.0000 23.1482 0.0000
# 4 0.0000 0.0000 0.0000 13.7568 0.0000 6.4691
# 5 12.9015 10.1083 23.1482 0.0000 19.0552 0.0000
# 6 0.0000 0.0000 0.0000 6.4691 0.0000 26.5829
#
#
#
# Elastic Compliance Matrix: (Units=1/GPa)
#
#
# Indices 1 2 3 4 5 6 
#
# 1 0.012992 -0.002922 -0.001562 0.000000 -0.005348 0.000000
# 2 -0.002922 0.012110 -0.004091 0.000000 0.000524 0.000000
# 3 -0.001562 -0.004091 0.026535 0.000000 -0.029006 0.000000
# 4 0.000000 0.000000 0.000000 0.082085 0.000000 -0.019976
# 5 -0.005348 0.000524 -0.029006 0.000000 0.091059 0.000000
# 6 0.000000 0.000000 0.000000 -0.019976 0.000000 0.042479
#
#
# Mechanical properties :
#
#
# Convention : Reuss Voigt Hill
#
# Bulk Modulus (GPa) = 28.99715 47.01672 38.00693
# Shear Modulus (GPa) = 16.89727 23.71280 20.30503
#
# Velocity S-wave (km/s) = 2.96942 3.51767 3.25511
# Velocity P-wave (km/s) = 5.18537 6.40572 5.82758
#
# Compressibility (1/GPa) = 0.03448615
#
# Stress axis : x y z
#
# Youngs Moduli (GPa) = 76.97176 82.57435 37.68651
#
# Poissons Ratio (x) = 0.24129 0.05888
# Poissons Ratio (y) = 0.22492 0.15417
# Poissons Ratio (z) = 0.12025 0.33781
#
# Static dielectric constant tensor:
#      x y z
#    x 3.823160 0.000000 0.244540 
#    y 0.000000 3.857900 0.000000 
#    z 0.244540 0.000000 2.980410 
# 
# 
# High freq. dielectric constant tensor:
#      x y z
#    x 1.763110 0.000000 0.024310 
#    y 0.000000 1.764910 0.000000 
#    z 0.024310 0.000000 1.681280 
# 
# From -- ./inp_files/44169.got.cif
#   From: 2010.03.12/outbox.cif.g09.slc.cpg/sg5_23_cif.got.tgz:44169.got - 2010.03.31 09:47:26.
