data_PCOD8049665
_publ_section_title
;
Structure prediction by ZEFSAII (Michael W. Deem and Ramdas Pophale) SiO2 
 PCOD8049665
Probable space group: C 2
;
_chemical_formula_sum "Si O2"
_cell_formula_units_Z 30
_cell_length_a 23.143554
_cell_length_b 8.542618
_cell_length_c 7.906690
_cell_angle_alpha 90.000000
_cell_angle_beta 114.116032
_cell_angle_gamma 90.000000
_cell_volume 1426.767678
_symmetry_space_group_name_H-M "C 2"
_symmetry_group_IT_number 5
_symmetry_cell_setting 'monoclinic'
loop_
_space_group_symop_operation_xyz
x,y,z
-x,y,-z
1/2+x,1/2+y,z
1/2-x,1/2+y,-z
loop_
_atom_site_type_symbol
_atom_site_label
_atom_site_fract_x
_atom_site_fract_y
_atom_site_fract_z
Si Si1 0.303749 0.401430 0.178671
Si Si2 0.000000 0.163460 0.000000
Si Si3 0.069350 0.592937 0.915567
Si Si4 0.186631 0.385282 0.528496
Si Si5 0.193379 0.544765 0.873754
Si Si6 0.944780 0.439923 0.757179
Si Si7 0.691508 0.522433 0.462337
Si Si8 0.109794 0.935168 0.040717
O O1 0.288212 0.217644 0.166475
O O2 0.335193 0.448557 0.395258
O O3 0.237675 0.496099 0.083363
O O4 0.348814 0.455494 0.079104
O O5 0.027234 0.264306 0.190665
O O6 0.054959 0.062367 0.979857
O O7 0.119993 0.546721 0.835482
O O8 0.998540 0.562275 0.756482
O O9 0.078998 0.477367 0.083012
O O10 0.076285 0.767531 0.993641
O O11 0.206885 0.413891 0.746617
O O12 0.115398 0.452707 0.435724
O O13 0.234448 0.479761 0.465753
O O14 0.185982 0.207867 0.466930
O O15 0.653259 0.450088 0.259333
#
# Coordination Sequence:
#
# PCOD8049665 Si02
#       8
#     4   2   4   4   4   4   4   4
#     4  11  25  42  66 100 135 175 226 278 345 390
#     4  10  20  42  68  90 134 176 222 278 328 394
#     4   9  22  40  65  94 126 180 219 269 333 398
#     4  12  25  43  66 101 138 173 230 276 344 399
#     4  11  23  42  66  95 139 176 222 284 331 409
#     4  10  22  40  66  96 127 181 224 268 338 399
#     4  12  26  42  70 102 133 179 222 286 335 408
#     4  11  23  45  68  99 132 176 227 274 340 397
#
# _framework density 21.026551000000001
#
# number of rings (size 3 to 8) (size 9 to 14) (size 15 to 20)
#    0.000    1.333    2.667    3.200    5.600    4.800 
#    0.000    0.667    0.000    0.000    0.000    0.000 
#    0.000    0.000    0.000    0.000    0.000    0.000 
#
# Total GULP energy -185995.351974 kJ/mol
# GULP energy per Si atom -12399.690132 kJ/mol
# Density = 2.097869 g / cm^3
# Si number density = 21.026551 Si / 1000 Ang^3
#
#
#
# Elastic Constant Matrix: (Units=GPa)
#
#
# Indices 1 2 3 4 5 6 
#
# 1 114.6095 63.9021 60.9610 0.0000 9.9091 0.0000
# 2 63.9021 119.3640 37.5720 0.0000 9.5151 0.0000
# 3 60.9610 37.5720 102.3626 0.0000 -2.7619 0.0000
# 4 0.0000 0.0000 0.0000 22.2000 0.0000 1.7409
# 5 9.9091 9.5151 -2.7619 0.0000 37.4039 0.0000
# 6 0.0000 0.0000 0.0000 1.7409 0.0000 36.3444
#
#
#
# Elastic Compliance Matrix: (Units=1/GPa)
#
#
# Indices 1 2 3 4 5 6 
#
# 1 0.016541 -0.006169 -0.007678 0.000000 -0.003380 0.000000
# 2 -0.006169 0.012047 -0.000788 0.000000 -0.001488 0.000000
# 3 -0.007678 -0.000788 0.014720 0.000000 0.003321 0.000000
# 4 0.000000 0.000000 0.000000 0.045215 0.000000 -0.002166
# 5 -0.003380 -0.001488 0.003321 0.000000 0.028254 0.000000
# 6 0.000000 0.000000 0.000000 -0.002166 0.000000 0.027618
#
#
# Mechanical properties :
#
#
# Convention : Reuss Voigt Hill
#
# Bulk Modulus (GPa) = 71.23114 73.46737 72.34925
# Shear Modulus (GPa) = 28.03553 30.78307 29.40930
#
# Velocity S-wave (km/s) = 3.65545 3.83039 3.74394
# Velocity P-wave (km/s) = 7.19491 7.38774 7.29196
#
# Compressibility (1/GPa) = 0.01403880
#
# Stress axis : x y z
#
# Youngs Moduli (GPa) = 60.45614 83.00712 67.93319
#
# Poissons Ratio (x) = 0.51209 0.52156
# Poissons Ratio (y) = 0.37297 0.05353
# Poissons Ratio (z) = 0.46416 0.06541
#
# Static dielectric constant tensor:
#      x y z
#    x 3.951570 0.000000 0.230240 
#    y 0.000000 3.897640 0.000000 
#    z 0.230240 0.000000 3.775380 
# 
# 
# High freq. dielectric constant tensor:
#      x y z
#    x 1.832380 0.000000 0.006170 
#    y 0.000000 1.832580 0.000000 
#    z 0.006170 0.000000 1.813040 
# 
# From -- ./inp_files/30692.got.cif
#   From: 2010.03.12/outbox.cif.g09.slc.cpg/sg5_16_cif.got.tgz:30692.got - 2010.03.31 09:47:26.
