data_PCOD8049548
_publ_section_title
;
Structure prediction by ZEFSAII (Michael W. Deem and Ramdas Pophale) SiO2 
 PCOD8049548
Probable space group: C 2
;
_chemical_formula_sum "Si O2"
_cell_formula_units_Z 30
_cell_length_a 11.606244
_cell_length_b 12.704561
_cell_length_c 21.622058
_cell_angle_alpha 90.000000
_cell_angle_beta 27.524570
_cell_angle_gamma 90.000000
_cell_volume 1473.369104
_symmetry_space_group_name_H-M "C 2"
_symmetry_group_IT_number 5
_symmetry_cell_setting 'monoclinic'
loop_
_space_group_symop_operation_xyz
x,y,z
-x,y,-z
1/2+x,1/2+y,z
1/2-x,1/2+y,-z
loop_
_atom_site_type_symbol
_atom_site_label
_atom_site_fract_x
_atom_site_fract_y
_atom_site_fract_z
Si Si1 0.014188 0.457290 0.598021
Si Si2 0.000000 0.294356 0.500000
Si Si3 0.808152 0.678177 0.265631
Si Si4 0.251081 0.980892 0.148403
Si Si5 0.128294 0.132233 0.617031
Si Si6 0.028370 0.890249 0.139496
Si Si7 0.500202 0.953477 0.155287
Si Si8 0.722082 0.859081 0.620908
O O1 0.094500 0.366090 0.511833
O O2 0.129562 0.566940 0.519930
O O3 0.113029 0.430018 0.618536
O O4 0.714589 0.465230 0.744013
O O5 0.236220 0.222419 0.367743
O O6 0.543054 0.658008 0.359845
O O7 0.975492 0.574332 0.189622
O O8 0.957572 0.769406 0.157542
O O9 0.155934 0.891039 0.146795
O O10 0.314524 0.932240 0.185644
O O11 0.500000 0.033452 0.000000
O O12 0.038002 0.068641 0.254480
O O13 0.225375 0.236542 0.603472
O O14 0.213823 0.933461 0.999065
O O15 0.435048 0.875377 0.241762
O O16 0.000000 0.900383 0.500000
#
# Coordination Sequence:
#
# PCOD8049548 Si02
#       8
#     4   2   4   4   4   4   4   4
#     4  11  24  42  64  92 125 169 212 260 305 386
#     4  10  20  40  68  86 122 166 214 256 292 390
#     4  10  21  40  68  92 119 174 213 249 323 375
#     4   9  20  40  67  90 121 169 211 254 305 378
#     4  11  22  40  62  95 127 165 210 258 325 365
#     4  10  21  44  69  90 124 169 220 253 303 384
#     4  10  24  41  66  93 130 162 205 269 315 375
#     4  12  26  39  58  98 132 159 204 268 325 367
#
# _framework density 20.361498000000001
#
# number of rings (size 3 to 8) (size 9 to 14) (size 15 to 20)
#    0.000    1.600    2.667    3.200    5.600    3.733 
#    0.000    0.000    5.867    0.000    0.000    0.000 
#    0.000    0.000    0.000    0.000    0.000    0.000 
#
# Total GULP energy -185990.364330 kJ/mol
# GULP energy per Si atom -12399.357622 kJ/mol
# Density = 2.031515 g / cm^3
# Si number density = 20.361498 Si / 1000 Ang^3
#
#
#
# Elastic Constant Matrix: (Units=GPa)
#
#
# Indices 1 2 3 4 5 6 
#
# 1 92.1656 32.3471 58.5224 -0.0064 10.5656 0.0034
# 2 32.3471 124.4790 74.3311 -0.0064 2.1127 0.0181
# 3 58.5224 74.3311 164.7084 -0.0604 1.8237 0.0302
# 4 -0.0064 -0.0064 -0.0604 35.7934 0.0111 -6.0562
# 5 10.5656 2.1127 1.8237 0.0111 36.3748 -0.0015
# 6 0.0034 0.0181 0.0302 -6.0562 -0.0015 28.3688
#
#
#
# Elastic Compliance Matrix: (Units=1/GPa)
#
#
# Indices 1 2 3 4 5 6 
#
# 1 0.014636 -0.000899 -0.004751 -0.000004 -0.003961 0.000003
# 2 -0.000899 0.011058 -0.004669 -0.000007 -0.000147 -0.000003
# 3 -0.004751 -0.004669 0.009854 0.000014 0.001157 -0.000004
# 4 -0.000004 -0.000007 0.000014 0.028985 -0.000008 0.006188
# 5 -0.003961 -0.000147 0.001157 -0.000008 0.028593 -0.000001
# 6 0.000003 -0.000003 -0.000004 0.006188 -0.000001 0.036571
#
#
# Mechanical properties :
#
#
# Convention : Reuss Voigt Hill
#
# Bulk Modulus (GPa) = 67.07165 79.08381 73.07773
# Shear Modulus (GPa) = 32.19484 34.51755 33.35620
#
# Velocity S-wave (km/s) = 3.98070 4.12179 4.05186
# Velocity P-wave (km/s) = 7.35798 7.84706 7.60645
#
# Compressibility (1/GPa) = 0.01490943
#
# Stress axis : x y z
#
# Youngs Moduli (GPa) = 68.32334 90.43421 101.48580
#
# Poissons Ratio (x) = 0.08133 0.48213
# Poissons Ratio (y) = 0.06145 0.47385
# Poissons Ratio (z) = 0.32458 0.42224
#
# Static dielectric constant tensor:
#      x y z
#    x 3.717790 0.000020 0.042440 
#    y 0.000020 3.660350 -0.000020 
#    z 0.042440 -0.000020 3.886810 
# 
# 
# High freq. dielectric constant tensor:
#      x y z
#    x 1.793790 0.000000 0.002890 
#    y 0.000000 1.783120 0.000000 
#    z 0.002890 0.000000 1.805770 
# 
# From -- ./inp_files/65304.got.cif
#   From: 2010.03.12/outbox.cif.g09.slc.cpg/sg5_33_cif.got.tgz:65304.got - 2010.03.31 09:47:26.
