data_PCOD8049973
_publ_section_title
;
Structure prediction by ZEFSAII (Michael W. Deem and Ramdas Pophale) SiO2 
 PCOD8049973
Probable space group: C 2
;
_chemical_formula_sum "Si O2"
_cell_formula_units_Z 20
_cell_length_a 22.044593
_cell_length_b 8.157276
_cell_length_c 8.905580
_cell_angle_alpha 90.000000
_cell_angle_beta 30.686893
_cell_angle_gamma 90.000000
_cell_volume 817.286528
_symmetry_space_group_name_H-M "C 2"
_symmetry_group_IT_number 5
_symmetry_cell_setting 'monoclinic'
loop_
_space_group_symop_operation_xyz
x,y,z
-x,y,-z
1/2+x,1/2+y,z
1/2-x,1/2+y,-z
loop_
_atom_site_type_symbol
_atom_site_label
_atom_site_fract_x
_atom_site_fract_y
_atom_site_fract_z
Si Si1 0.024575 0.648130 0.108023
Si Si2 0.725771 0.746371 0.485541
Si Si3 0.161660 0.446006 0.348702
Si Si4 0.132747 0.098458 0.269550
Si Si5 0.139309 0.936280 0.566126
O O1 0.958072 0.557367 0.387363
O O2 0.983873 0.838557 0.179195
O O3 0.000000 0.558530 0.000000
O O4 0.164912 0.657349 0.837451
O O5 0.683873 0.897299 0.474075
O O6 0.761211 0.810416 0.575827
O O7 0.628306 0.599022 0.696619
O O8 0.138455 0.291829 0.291385
O O9 0.272311 0.556200 0.061075
O O10 0.000000 0.051365 0.500000
O O11 0.172373 0.992427 0.328507
#
# Coordination Sequence:
#
# PCOD8049973 Si02
#       5
#     4   4   4   4   4
#     4  10  21  39  62  92 128 167 210 264 324 379
#     4  10  21  40  64  93 129 166 214 273 318 378
#     4  11  24  41  65  95 129 171 219 264 322 388
#     4  11  25  44  66  96 134 175 216 268 326 391
#     4  10  21  40  66  94 126 169 215 263 324 382
#
# _framework density 24.471222999999998
#
# number of rings (size 3 to 8) (size 9 to 14) (size 15 to 20)
#    0.000    1.600    0.000    4.800    0.000    4.800 
#    0.000   29.000    0.000    0.000    0.000    0.000 
#    0.000    0.000    0.000    0.000    0.000    0.000 
#
# Total GULP energy -123941.895116 kJ/mol
# GULP energy per Si atom -12394.189512 kJ/mol
# Density = 2.441553 g / cm^3
# Si number density = 24.471223 Si / 1000 Ang^3
#
#
#
# Elastic Constant Matrix: (Units=GPa)
#
#
# Indices 1 2 3 4 5 6 
#
# 1 87.2119 43.4313 16.2338 0.0000 -5.4478 0.0000
# 2 43.4313 142.1584 63.8807 0.0000 8.9371 0.0000
# 3 16.2338 63.8807 110.5630 0.0000 -4.6088 0.0000
# 4 0.0000 0.0000 0.0000 44.6139 0.0000 4.6736
# 5 -5.4478 8.9371 -4.6088 0.0000 20.8721 0.0000
# 6 0.0000 0.0000 0.0000 4.6736 0.0000 34.4352
#
#
#
# Elastic Compliance Matrix: (Units=1/GPa)
#
#
# Indices 1 2 3 4 5 6 
#
# 1 0.014272 -0.005309 0.001233 0.000000 0.006270 0.000000
# 2 -0.005309 0.012102 -0.006547 0.000000 -0.008013 0.000000
# 3 0.001233 -0.006547 0.012895 0.000000 0.005972 0.000000
# 4 0.000000 0.000000 0.000000 0.022738 0.000000 -0.003086
# 5 0.006270 -0.008013 0.005972 0.000000 0.054297 0.000000
# 6 0.000000 0.000000 0.000000 -0.003086 0.000000 0.029459
#
#
# Mechanical properties :
#
#
# Convention : Reuss Voigt Hill
#
# Bulk Modulus (GPa) = 55.48023 65.22501 60.35262
# Shear Modulus (GPa) = 28.89902 34.41007 31.65454
#
# Velocity S-wave (km/s) = 3.44021 3.75393 3.60049
# Velocity P-wave (km/s) = 6.20491 6.74544 6.48081
#
# Compressibility (1/GPa) = 0.01802444
#
# Stress axis : x y z
#
# Youngs Moduli (GPa) = 70.06641 82.63167 77.54886
#
# Poissons Ratio (x) = 0.43866 -0.09562
# Poissons Ratio (y) = 0.37196 0.50769
# Poissons Ratio (z) = -0.08639 0.54097
#
# Static dielectric constant tensor:
#      x y z
#    x 4.266400 0.000000 -0.026900 
#    y 0.000000 4.519920 0.000000 
#    z -0.026900 0.000000 4.216700 
# 
# 
# High freq. dielectric constant tensor:
#      x y z
#    x 1.965790 0.000000 -0.005680 
#    y 0.000000 1.985440 0.000000 
#    z -0.005680 0.000000 1.953730 
# 
# From -- ./inp_files/28834.got.cif
#   From: 2010.03.12/outbox.cif.g09.slc.cpg/sg5_15_cif.got.tgz:28834.got - 2010.03.31 09:47:26.
