data_PCOD8049260
_publ_section_title
;
Structure prediction by ZEFSAII (Michael W. Deem and Ramdas Pophale) SiO2 
 PCOD8049260
Probable space group: C 2
;
_chemical_formula_sum "Si O2"
_cell_formula_units_Z 26
_cell_length_a 16.311661
_cell_length_b 13.279699
_cell_length_c 9.790374
_cell_angle_alpha 90.000000
_cell_angle_beta 142.136528
_cell_angle_gamma 90.000000
_cell_volume 1301.666879
_symmetry_space_group_name_H-M "C 2"
_symmetry_group_IT_number 5
_symmetry_cell_setting 'monoclinic'
loop_
_space_group_symop_operation_xyz
x,y,z
-x,y,-z
1/2+x,1/2+y,z
1/2-x,1/2+y,-z
loop_
_atom_site_type_symbol
_atom_site_label
_atom_site_fract_x
_atom_site_fract_y
_atom_site_fract_z
Si Si1 0.394683 0.566420 0.594894
Si Si2 0.152978 0.373777 0.656178
Si Si3 0.761527 0.656499 0.843224
Si Si4 0.809896 0.413593 0.608921
Si Si5 0.000000 0.568237 0.000000
Si Si6 0.153254 0.202953 0.231141
Si Si7 0.707636 0.572629 0.056852
O O1 0.354111 0.592530 0.386106
O O2 0.338580 0.458542 0.570364
O O3 0.318811 0.650525 0.586914
O O4 0.551864 0.563304 0.818644
O O5 0.221874 0.272797 0.800970
O O6 0.160117 0.375298 0.502624
O O7 0.233151 0.464820 0.828490
O O8 0.000000 0.376730 0.500000
O O9 0.903324 0.641925 0.956367
O O10 0.781304 0.614907 0.021381
O O11 0.813647 0.320653 0.719303
O O12 0.918469 0.497330 0.789977
O O13 0.236559 0.149323 0.219917
O O14 0.000000 0.184656 0.000000
#
# Coordination Sequence:
#
# PCOD8049260 Si02
#       7
#     4   4   4   4   2   4   4
#     4  10  21  40  63  93 126 168 209 259 315 380
#     4  12  25  40  65  92 127 172 220 266 328 376
#     4  11  24  42  67  91 130 168 216 268 322 382
#     4  11  21  39  65  95 125 174 211 263 317 391
#     4  10  24  42  64  96 130 166 218 268 320 382
#     4  10  20  37  64  92 124 167 208 252 317 378
#     4  11  24  42  62  97 131 163 214 270 315 386
#
# _framework density 19.974388000000001
#
# number of rings (size 3 to 8) (size 9 to 14) (size 15 to 20)
#    0.000    1.231    3.846    2.308    2.154    3.692 
#    0.000    0.000    0.000    0.000    0.000    0.000 
#    0.000    0.000    0.000    0.000    0.000    0.000 
#
# Total GULP energy -161233.555391 kJ/mol
# GULP energy per Si atom -12402.581184 kJ/mol
# Density = 1.992893 g / cm^3
# Si number density = 19.974388 Si / 1000 Ang^3
#
#
#
# Elastic Constant Matrix: (Units=GPa)
#
#
# Indices 1 2 3 4 5 6 
#
# 1 116.2711 54.9437 36.7749 0.0000 -2.7934 0.0000
# 2 54.9437 120.1373 32.0480 0.0000 3.2278 0.0000
# 3 36.7749 32.0480 54.6437 0.0000 0.5923 0.0000
# 4 0.0000 0.0000 0.0000 40.4811 0.0000 -2.6242
# 5 -2.7934 3.2278 0.5923 0.0000 36.7399 0.0000
# 6 0.0000 0.0000 0.0000 -2.6242 0.0000 27.8729
#
#
#
# Elastic Compliance Matrix: (Units=1/GPa)
#
#
# Indices 1 2 3 4 5 6 
#
# 1 0.012490 -0.004154 -0.005985 0.000000 0.001411 0.000000
# 2 -0.004154 0.011271 -0.003801 0.000000 -0.001245 0.000000
# 3 -0.005985 -0.003801 0.024563 0.000000 -0.000517 0.000000
# 4 0.000000 0.000000 0.000000 0.024855 0.000000 0.002340
# 5 0.001411 -0.001245 -0.000517 0.000000 0.027443 0.000000
# 6 0.000000 0.000000 0.000000 0.002340 0.000000 0.036097
#
#
# Mechanical properties :
#
#
# Convention : Reuss Voigt Hill
#
# Bulk Modulus (GPa) = 48.91342 59.84282 54.37812
# Shear Modulus (GPa) = 29.16893 32.17114 30.67003
#
# Velocity S-wave (km/s) = 3.82555 4.01761 3.92276
# Velocity P-wave (km/s) = 6.63735 7.17958 6.91378
#
# Compressibility (1/GPa) = 0.02044429
#
# Stress axis : x y z
#
# Youngs Moduli (GPa) = 80.06219 88.72355 40.71092
#
# Poissons Ratio (x) = 0.36853 0.24366
# Poissons Ratio (y) = 0.33255 0.15476
# Poissons Ratio (z) = 0.47918 0.33728
#
# Static dielectric constant tensor:
#      x y z
#    x 3.726580 0.000000 -0.172770 
#    y 0.000000 3.714440 0.000000 
#    z -0.172770 0.000000 3.713540 
# 
# 
# High freq. dielectric constant tensor:
#      x y z
#    x 1.781370 0.000000 -0.010780 
#    y 0.000000 1.786490 0.000000 
#    z -0.010780 0.000000 1.781430 
# 
# From -- ./inp_files/20488.got.cif
#   From: 2010.03.12/outbox.cif.g09.slc.cpg/sg5_11_cif.got.tgz:20488.got - 2010.03.31 09:47:26.
