data_PCOD8049537
_publ_section_title
;
Structure prediction by ZEFSAII (Michael W. Deem and Ramdas Pophale) SiO2 
 PCOD8049537
Probable space group: C 2
;
_chemical_formula_sum "Si O2"
_cell_formula_units_Z 24
_cell_length_a 11.570110
_cell_length_b 8.521538
_cell_length_c 26.551350
_cell_angle_alpha 90.000000
_cell_angle_beta 26.195300
_cell_angle_gamma 90.000000
_cell_volume 1155.596287
_symmetry_space_group_name_H-M "C 2"
_symmetry_group_IT_number 5
_symmetry_cell_setting 'monoclinic'
loop_
_space_group_symop_operation_xyz
x,y,z
-x,y,-z
1/2+x,1/2+y,z
1/2-x,1/2+y,-z
loop_
_atom_site_type_symbol
_atom_site_label
_atom_site_fract_x
_atom_site_fract_y
_atom_site_fract_z
Si Si1 0.332148 0.827320 0.170437
Si Si2 0.716672 0.704885 0.101416
Si Si3 0.500000 0.903258 0.000000
Si Si4 0.000000 0.399056 0.500000
Si Si5 0.520948 0.613627 0.705183
Si Si6 0.383218 0.191949 0.405987
Si Si7 0.803257 0.855049 0.532814
O O1 0.581045 0.797817 0.108824
O O2 0.102604 0.709022 0.277054
O O3 0.407317 0.793603 0.082658
O O4 0.228014 0.007251 0.214372
O O5 0.538160 0.711036 0.221095
O O6 0.000000 0.787243 0.000000
O O7 0.767002 0.518328 0.070222
O O8 0.221719 0.506516 0.387411
O O9 0.119174 0.285624 0.495713
O O10 0.573389 0.738228 0.640530
O O11 0.476021 0.269419 0.422247
O O12 0.329123 0.010679 0.436897
O O13 0.000000 0.901473 0.500000
#
# Coordination Sequence:
#
# PCOD8049537 Si02
#       7
#     4   4   2   2   4   4   4
#     4  10  20  41  67  94 126 172 222 269 322 389
#     4   9  20  41  66  93 126 171 216 269 325 379
#     4   8  20  42  64  90 126 170 210 274 330 364
#     4  10  20  40  66  98 134 172 212 262 324 394
#     4  10  21  39  66  94 134 172 209 269 331 381
#     4  11  24  40  66  98 135 174 218 260 328 392
#     4  12  24  42  63  98 133 175 211 266 323 397
#
# _framework density 20.768498999999998
#
# number of rings (size 3 to 8) (size 9 to 14) (size 15 to 20)
#    0.500    1.333    1.667    3.000    2.333    0.000 
#    3.000    3.333    0.000    0.000    0.000    0.000 
#    0.000    0.000    0.000    0.000    0.000    0.000 
#
# Total GULP energy -148753.939924 kJ/mol
# GULP energy per Si atom -12396.161660 kJ/mol
# Density = 2.072123 g / cm^3
# Si number density = 20.768499 Si / 1000 Ang^3
#
#
#
# Elastic Constant Matrix: (Units=GPa)
#
#
# Indices 1 2 3 4 5 6 
#
# 1 115.7525 47.8825 62.6343 -0.0091 3.3796 0.0004
# 2 47.8825 102.2498 47.8954 -0.0002 8.6855 0.0010
# 3 62.6343 47.8954 136.6848 0.0144 17.8905 -0.0118
# 4 -0.0091 -0.0002 0.0144 20.9642 -0.0062 6.3695
# 5 3.3796 8.6855 17.8905 -0.0062 42.0177 0.0015
# 6 0.0004 0.0010 -0.0118 6.3695 0.0015 33.0611
#
#
#
# Elastic Compliance Matrix: (Units=1/GPa)
#
#
# Indices 1 2 3 4 5 6 
#
# 1 0.012755 -0.003921 -0.004705 0.000010 0.001788 -0.000004
# 2 -0.003921 0.012926 -0.002567 0.000000 -0.001263 -0.000001
# 3 -0.004705 -0.002567 0.010858 -0.000013 -0.003714 0.000007
# 4 0.000010 0.000000 -0.000013 0.050666 0.000012 -0.009761
# 5 0.001788 -0.001263 -0.003714 0.000012 0.025498 -0.000005
# 6 -0.000004 -0.000001 0.000007 -0.009761 -0.000005 0.032128
#
#
# Mechanical properties :
#
#
# Convention : Reuss Voigt Hill
#
# Bulk Modulus (GPa) = 70.65937 74.61240 72.63588
# Shear Modulus (GPa) = 29.08099 32.29361 30.68730
#
# Velocity S-wave (km/s) = 3.74604 3.94754 3.84811
# Velocity P-wave (km/s) = 7.26682 7.53533 7.40229
#
# Compressibility (1/GPa) = 0.01415241
#
# Stress axis : x y z
#
# Youngs Moduli (GPa) = 78.40281 77.36361 92.10052
#
# Poissons Ratio (x) = 0.30334 0.43331
# Poissons Ratio (y) = 0.30741 0.23645
# Poissons Ratio (z) = 0.36887 0.19861
#
# Static dielectric constant tensor:
#      x y z
#    x 3.712070 0.000020 0.088300 
#    y 0.000020 3.590830 0.000030 
#    z 0.088300 0.000030 3.935720 
# 
# 
# High freq. dielectric constant tensor:
#      x y z
#    x 1.802730 0.000000 0.009060 
#    y 0.000000 1.794060 0.000000 
#    z 0.009060 0.000000 1.819970 
# 
# From -- ./inp_files/70308.got.cif
#   From: 2010.03.12/outbox.cif.g09.slc.cpg/sg5_36_cif.got.tgz:70308.got - 2010.03.31 09:47:26.
