data_PCOD8049166
_publ_section_title
;
Structure prediction by ZEFSAII (Michael W. Deem and Ramdas Pophale) SiO2 
 PCOD8049166
Probable space group: C 2
;
_chemical_formula_sum "Si O2"
_cell_formula_units_Z 26
_cell_length_a 15.483058
_cell_length_b 8.613604
_cell_length_c 14.666873
_cell_angle_alpha 90.000000
_cell_angle_beta 141.027767
_cell_angle_gamma 90.000000
_cell_volume 1230.243105
_symmetry_space_group_name_H-M "C 2"
_symmetry_group_IT_number 5
_symmetry_cell_setting 'monoclinic'
loop_
_space_group_symop_operation_xyz
x,y,z
-x,y,-z
1/2+x,1/2+y,z
1/2-x,1/2+y,-z
loop_
_atom_site_type_symbol
_atom_site_label
_atom_site_fract_x
_atom_site_fract_y
_atom_site_fract_z
Si Si1 0.895392 0.907730 0.783159
Si Si2 0.114496 0.514255 0.530012
Si Si3 0.345957 0.143059 0.624811
Si Si4 0.452287 0.666082 0.561807
Si Si5 0.104049 0.480111 0.923005
Si Si6 0.389022 0.626189 0.121725
Si Si7 0.500000 0.149613 0.000000
O O1 0.756311 0.991522 0.702393
O O2 0.871433 0.825497 0.665477
O O3 0.913343 0.763321 0.865247
O O4 0.020258 0.026222 0.875302
O O5 0.151840 0.634008 0.481797
O O6 0.054562 0.352859 0.442088
O O7 0.000000 0.593000 0.500000
O O8 0.197098 0.091963 0.541350
O O9 0.463571 0.031909 0.760238
O O10 0.500000 0.608780 0.500000
O O11 0.556122 0.618050 0.728960
O O12 0.115348 0.296712 0.923796
O O13 0.236554 0.559050 0.986889
O O14 0.100171 0.537484 0.024772
#
# Coordination Sequence:
#
# PCOD8049166 Si02
#       7
#     4   4   4   4   4   4   2
#     4  10  23  41  67  92 137 184 217 281 330 409
#     4  10  20  36  67 100 127 171 224 274 335 401
#     4  10  20  42  64 100 132 169 225 276 340 397
#     4  10  22  39  71  98 129 176 225 273 339 405
#     4  11  25  40  69  96 134 178 226 285 333 407
#     4  12  24  45  65  99 136 182 226 278 347 396
#     4  10  24  44  66  96 134 178 238 268 346 394
#
# _framework density 21.134034
#
# number of rings (size 3 to 8) (size 9 to 14) (size 15 to 20)
#    0.000    1.538    3.077    1.846    8.615    1.846 
#    0.000    2.308    0.000    0.000    0.000    0.000 
#    0.000    0.000    0.000    0.000    0.000    0.000 
#
# Total GULP energy -161144.016637 kJ/mol
# GULP energy per Si atom -12395.693587 kJ/mol
# Density = 2.108593 g / cm^3
# Si number density = 21.134034 Si / 1000 Ang^3
#
#
#
# Elastic Constant Matrix: (Units=GPa)
#
#
# Indices 1 2 3 4 5 6 
#
# 1 176.4115 60.3325 61.7870 0.0000 21.5359 0.0000
# 2 60.3325 101.4772 42.3755 0.0000 8.9410 0.0000
# 3 61.7870 42.3755 94.5594 0.0000 14.5032 0.0000
# 4 0.0000 0.0000 0.0000 26.3569 0.0000 1.5981
# 5 21.5359 8.9410 14.5032 0.0000 38.9411 0.0000
# 6 0.0000 0.0000 0.0000 1.5981 0.0000 31.9692
#
#
#
# Elastic Compliance Matrix: (Units=1/GPa)
#
#
# Indices 1 2 3 4 5 6 
#
# 1 0.008350 -0.003230 -0.003621 0.000000 -0.002528 0.000000
# 2 -0.003230 0.013396 -0.003919 0.000000 0.000170 0.000000
# 3 -0.003621 -0.003919 0.015116 0.000000 -0.002727 0.000000
# 4 0.000000 0.000000 0.000000 0.038056 0.000000 -0.001902
# 5 -0.002528 0.000170 -0.002727 0.000000 0.028054 0.000000
# 6 0.000000 0.000000 0.000000 -0.001902 0.000000 0.031375
#
#
# Mechanical properties :
#
#
# Convention : Reuss Voigt Hill
#
# Bulk Modulus (GPa) = 65.26268 77.93757 71.60013
# Shear Modulus (GPa) = 31.05693 33.31698 32.18696
#
# Velocity S-wave (km/s) = 3.83759 3.97477 3.90679
# Velocity P-wave (km/s) = 7.11221 7.61728 7.36907
#
# Compressibility (1/GPa) = 0.01532269
#
# Stress axis : x y z
#
# Youngs Moduli (GPa) = 119.76223 74.64840 66.15498
#
# Poissons Ratio (x) = 0.24108 0.23955
# Poissons Ratio (y) = 0.38678 0.25927
# Poissons Ratio (z) = 0.43366 0.29255
#
# Static dielectric constant tensor:
#      x y z
#    x 4.144630 0.000000 -0.061230 
#    y 0.000000 3.672090 0.000000 
#    z -0.061230 0.000000 4.236690 
# 
# 
# High freq. dielectric constant tensor:
#      x y z
#    x 1.834630 0.000000 0.012710 
#    y 0.000000 1.812980 0.000000 
#    z 0.012710 0.000000 1.830940 
# 
# From -- ./inp_files/54327.got.cif
#   From: 2010.03.12/outbox.cif.g09.slc.cpg/sg5_28_cif.got.tgz:54327.got - 2010.03.31 09:47:26.
