data_PCOD8049388
_publ_section_title
;
Structure prediction by ZEFSAII (Michael W. Deem and Ramdas Pophale) SiO2 
 PCOD8049388
Probable space group: C 2
;
_chemical_formula_sum "Si O2"
_cell_formula_units_Z 26
_cell_length_a 9.374651
_cell_length_b 19.188900
_cell_length_c 8.595293
_cell_angle_alpha 90.000000
_cell_angle_beta 52.285711
_cell_angle_gamma 90.000000
_cell_volume 1223.154557
_symmetry_space_group_name_H-M "C 2"
_symmetry_group_IT_number 5
_symmetry_cell_setting 'monoclinic'
loop_
_space_group_symop_operation_xyz
x,y,z
-x,y,-z
1/2+x,1/2+y,z
1/2-x,1/2+y,-z
loop_
_atom_site_type_symbol
_atom_site_label
_atom_site_fract_x
_atom_site_fract_y
_atom_site_fract_z
Si Si1 0.424468 0.131570 0.883653
Si Si2 0.701962 0.926352 0.406343
Si Si3 0.192852 0.063303 0.801501
Si Si4 0.500000 0.359250 0.000000
Si Si5 0.822490 0.684740 0.521399
Si Si6 0.355908 0.816310 0.313557
Si Si7 0.254728 0.777862 0.033223
O O1 0.329567 0.066552 0.858370
O O2 0.614305 0.146800 0.675247
O O3 0.278266 0.195198 0.972657
O O4 0.500000 0.108876 0.000000
O O5 0.500000 0.904888 0.500000
O O6 0.723027 0.889083 0.562217
O O7 0.733213 0.009617 0.380400
O O8 0.839349 0.903501 0.180384
O O9 0.189128 0.137482 0.715788
O O10 0.000000 0.042881 0.000000
O O11 0.425294 0.312720 0.910443
O O12 0.718102 0.753151 0.531734
O O13 0.000000 0.705264 0.500000
O O14 0.273895 0.800379 0.199059
O O15 0.572048 0.809086 0.171736
#
# Coordination Sequence:
#
# PCOD8049388 Si02
#       7
#     4   4   4   2   4   4   4
#     4  11  22  39  69 105 135 174 227 292 348 409
#     4  12  25  44  68 100 137 190 230 281 349 419
#     4  11  23  46  71  95 137 188 231 281 352 415
#     4  12  24  42  64 100 142 178 228 286 348 410
#     4  10  20  38  67  99 132 178 224 282 345 407
#     4  11  23  39  68 104 138 181 236 285 343 415
#     4  11  22  41  67 106 138 178 231 296 345 406
#
# _framework density 21.256513000000002
#
# number of rings (size 3 to 8) (size 9 to 14) (size 15 to 20)
#    0.000    0.923    6.154    3.231    0.000    0.000 
#    0.000    5.385    6.769    0.000    0.000    0.000 
#    0.000    0.000    0.000    0.000    0.000    0.000 
#
# Total GULP energy -161068.016228 kJ/mol
# GULP energy per Si atom -12389.847402 kJ/mol
# Density = 2.120813 g / cm^3
# Si number density = 21.256513 Si / 1000 Ang^3
#
#
#
# Elastic Constant Matrix: (Units=GPa)
#
#
# Indices 1 2 3 4 5 6 
#
# 1 93.0273 38.1779 34.9937 0.0000 2.2300 0.0000
# 2 38.1779 102.6236 35.3707 0.0000 1.0628 0.0000
# 3 34.9937 35.3707 122.7402 0.0000 -15.1949 0.0000
# 4 0.0000 0.0000 0.0000 34.7288 0.0000 2.1297
# 5 2.2300 1.0628 -15.1949 0.0000 30.4148 0.0000
# 6 0.0000 0.0000 0.0000 2.1297 0.0000 27.6425
#
#
#
# Elastic Compliance Matrix: (Units=1/GPa)
#
#
# Indices 1 2 3 4 5 6 
#
# 1 0.013576 -0.003987 -0.003014 0.000000 -0.002362 0.000000
# 2 -0.003987 0.012113 -0.002526 0.000000 -0.001393 0.000000
# 3 -0.003014 -0.002526 0.010417 0.000000 0.005514 0.000000
# 4 0.000000 0.000000 0.000000 0.028931 0.000000 -0.002229
# 5 -0.002362 -0.001393 0.005514 0.000000 0.035855 0.000000
# 6 0.000000 0.000000 0.000000 -0.002229 0.000000 0.036348
#
#
# Mechanical properties :
#
#
# Convention : Reuss Voigt Hill
#
# Bulk Modulus (GPa) = 58.64726 59.49729 59.07227
# Shear Modulus (GPa) = 30.86810 32.54714 31.70762
#
# Velocity S-wave (km/s) = 3.81487 3.91725 3.86640
# Velocity P-wave (km/s) = 6.85963 6.96496 6.91250
#
# Compressibility (1/GPa) = 0.01705110
#
# Stress axis : x y z
#
# Youngs Moduli (GPa) = 73.65772 82.55689 95.99542
#
# Poissons Ratio (x) = 0.32918 0.28933
# Poissons Ratio (y) = 0.29370 0.24251
# Poissons Ratio (z) = 0.22200 0.20856
#
# Static dielectric constant tensor:
#      x y z
#    x 3.778080 0.000000 -0.145520 
#    y 0.000000 3.832230 0.000000 
#    z -0.145520 0.000000 4.261020 
# 
# 
# High freq. dielectric constant tensor:
#      x y z
#    x 1.815480 0.000000 -0.012360 
#    y 0.000000 1.820960 0.000000 
#    z -0.012360 0.000000 1.851670 
# 
# From -- ./inp_files/16767.got.cif
#   From: 2010.03.12/outbox.cif.g09.slc.cpg/sg5_9_cif.got.tgz:16767.got - 2010.03.31 09:47:26.
