data_PCOD8049146
_publ_section_title
;
Structure prediction by ZEFSAII (Michael W. Deem and Ramdas Pophale) SiO2 
 PCOD8049146
Probable space group: C 2
;
_chemical_formula_sum "Si O2"
_cell_formula_units_Z 30
_cell_length_a 27.850912
_cell_length_b 8.855234
_cell_length_c 10.214736
_cell_angle_alpha 90.000000
_cell_angle_beta 36.708815
_cell_angle_gamma 90.000000
_cell_volume 1505.861743
_symmetry_space_group_name_H-M "C 2"
_symmetry_group_IT_number 5
_symmetry_cell_setting 'monoclinic'
loop_
_space_group_symop_operation_xyz
x,y,z
-x,y,-z
1/2+x,1/2+y,z
1/2-x,1/2+y,-z
loop_
_atom_site_type_symbol
_atom_site_label
_atom_site_fract_x
_atom_site_fract_y
_atom_site_fract_z
Si Si1 0.419333 0.454290 0.028745
Si Si2 0.530908 0.121882 0.122319
Si Si3 0.199447 0.952504 0.944212
Si Si4 0.852432 0.621644 0.904761
Si Si5 0.500000 0.877574 0.000000
Si Si6 0.415477 0.604822 0.303302
Si Si7 0.143371 0.641322 0.399356
Si Si8 0.305892 0.474949 0.746800
O O1 0.431743 0.274999 0.017748
O O2 0.505410 0.526526 0.811212
O O3 0.362798 0.503695 0.031837
O O4 0.383841 0.517804 0.242534
O O5 0.569525 0.094659 0.178949
O O6 0.434084 0.121363 0.340265
O O7 0.553388 0.983335 0.978517
O O8 0.286915 0.020622 0.717633
O O9 0.199523 0.771118 0.947193
O O10 0.171045 0.007581 0.151251
O O11 0.885760 0.623489 0.685580
O O12 0.789949 0.485696 0.060240
O O13 0.436579 0.776871 0.220085
O O14 0.349630 0.600299 0.561332
O O15 0.174097 0.810833 0.351738
#
# Coordination Sequence:
#
# PCOD8049146 Si02
#       8
#     4   4   4   4   2   4   4   4
#     4   9  19  38  61  83 118 148 201 239 287 351
#     4  11  20  38  60  86 112 158 198 238 293 346
#     4   9  20  37  59  91 118 149 195 245 287 352
#     4   9  21  38  58  88 122 149 188 247 289 351
#     4  10  24  36  58  80 122 152 202 248 280 346
#     4  10  21  39  58  83 119 158 194 243 295 343
#     4  10  20  36  64  87 117 151 198 234 297 348
#     4  10  20  37  60  86 120 157 189 240 296 348
#
# _framework density 19.922148
#
# number of rings (size 3 to 8) (size 9 to 14) (size 15 to 20)
#    0.000    2.400    1.333    1.200    1.867    2.667 
#    2.400    0.000    5.867    0.000    0.000    0.000 
#    0.000    0.000    0.000    0.000    0.000    0.000 
#
# Total GULP energy -185946.380732 kJ/mol
# GULP energy per Si atom -12396.425382 kJ/mol
# Density = 1.987680 g / cm^3
# Si number density = 19.922148 Si / 1000 Ang^3
#
#
#
# Elastic Constant Matrix: (Units=GPa)
#
#
# Indices 1 2 3 4 5 6 
#
# 1 118.6655 39.8882 31.7811 0.0000 -3.0293 0.0000
# 2 39.8882 95.6621 24.1100 0.0000 0.5452 0.0000
# 3 31.7811 24.1100 68.4868 0.0000 2.7278 0.0000
# 4 0.0000 0.0000 0.0000 26.9895 0.0000 0.5586
# 5 -3.0293 0.5452 2.7278 0.0000 21.3764 0.0000
# 6 0.0000 0.0000 0.0000 0.5586 0.0000 28.2893
#
#
#
# Elastic Compliance Matrix: (Units=1/GPa)
#
#
# Indices 1 2 3 4 5 6 
#
# 1 0.010677 -0.003505 -0.003804 0.000000 0.002088 0.000000
# 2 -0.003505 0.012623 -0.002799 0.000000 -0.000462 0.000000
# 3 -0.003804 -0.002799 0.017459 0.000000 -0.002696 0.000000
# 4 0.000000 0.000000 0.000000 0.037067 0.000000 -0.000732
# 5 0.002088 -0.000462 -0.002696 0.000000 0.047432 0.000000
# 6 0.000000 0.000000 0.000000 -0.000732 0.000000 0.035363
#
#
# Mechanical properties :
#
#
# Convention : Reuss Voigt Hill
#
# Bulk Modulus (GPa) = 48.67710 52.70810 50.69260
# Shear Modulus (GPa) = 26.64022 27.80005 27.22014
#
# Velocity S-wave (km/s) = 3.66076 3.73960 3.70039
# Velocity P-wave (km/s) = 6.50807 6.72017 6.61497
#
# Compressibility (1/GPa) = 0.02054354
#
# Stress axis : x y z
#
# Youngs Moduli (GPa) = 93.65565 79.21985 57.27631
#
# Poissons Ratio (x) = 0.27769 0.21788
# Poissons Ratio (y) = 0.32829 0.16030
# Poissons Ratio (z) = 0.35626 0.22172
#
# Static dielectric constant tensor:
#      x y z
#    x 3.689620 0.000000 0.085940 
#    y 0.000000 3.630950 0.000000 
#    z 0.085940 0.000000 3.356100 
# 
# 
# High freq. dielectric constant tensor:
#      x y z
#    x 1.779130 0.000000 0.007990 
#    y 0.000000 1.776650 0.000000 
#    z 0.007990 0.000000 1.762510 
# 
# From -- ./inp_files/48341.got.cif
#   From: 2010.03.12/outbox.cif.g09.slc.cpg/sg5_25_cif.got.tgz:48341.got - 2010.03.31 09:47:26.
