data_PCOD8049505
_publ_section_title
;
Structure prediction by ZEFSAII (Michael W. Deem and Ramdas Pophale) SiO2 
 PCOD8049505
Probable space group: C 2
;
_chemical_formula_sum "Si O2"
_cell_formula_units_Z 22
_cell_length_a 6.246275
_cell_length_b 22.868148
_cell_length_c 7.882246
_cell_angle_alpha 90.000000
_cell_angle_beta 118.365175
_cell_angle_gamma 90.000000
_cell_volume 990.726788
_symmetry_space_group_name_H-M "C 2"
_symmetry_group_IT_number 5
_symmetry_cell_setting 'monoclinic'
loop_
_space_group_symop_operation_xyz
x,y,z
-x,y,-z
1/2+x,1/2+y,z
1/2-x,1/2+y,-z
loop_
_atom_site_type_symbol
_atom_site_label
_atom_site_fract_x
_atom_site_fract_y
_atom_site_fract_z
Si Si1 0.745236 0.648430 0.195099
Si Si2 0.757436 0.931469 0.686004
Si Si3 0.000000 0.861553 0.500000
Si Si4 0.517444 0.549303 0.306228
Si Si5 0.000000 0.587048 0.000000
Si Si6 0.751946 0.779449 0.190952
Si Si7 0.500000 0.348341 0.000000
O O1 0.682138 0.607398 0.333511
O O2 0.816223 0.713859 0.277192
O O3 0.961450 0.625265 0.155570
O O4 0.500000 0.651624 0.000000
O O5 0.500000 0.927107 0.500000
O O6 0.958699 0.903438 0.641533
O O7 0.775198 0.892863 0.866077
O O8 0.835791 0.998763 0.738630
O O9 0.768327 0.819763 0.365895
O O10 0.500000 0.538215 0.500000
O O11 0.244646 0.549593 0.125136
O O12 0.500000 0.783977 0.000000
O O13 0.952083 0.804472 0.136889
#
# Coordination Sequence:
#
# PCOD8049505 Si02
#       7
#     4   4   2   4   2   4   2
#     4   9  21  40  64  93 126 165 208 258 313 371
#     4  11  24  41  61  91 127 160 213 260 303 379
#     4  10  22  40  58  94 118 166 206 250 314 362
#     4  11  25  40  62  94 129 171 207 254 317 366
#     4  10  23  42  62  90 130 161 212 256 312 374
#     4  10  20  40  63  89 123 158 206 257 309 372
#     4  10  23  38  66  92 116 167 206 252 328 350
#
# _framework density 22.205919999999999
#
# number of rings (size 3 to 8) (size 9 to 14) (size 15 to 20)
#    0.000    1.818    0.909    1.636    6.364    1.455 
#    6.545    4.545    0.000    0.000    0.000    0.000 
#    0.000    0.000    0.000    0.000    0.000    0.000 
#
# Total GULP energy -136300.481250 kJ/mol
# GULP energy per Si atom -12390.952841 kJ/mol
# Density = 2.215538 g / cm^3
# Si number density = 22.205920 Si / 1000 Ang^3
#
#
#
# Elastic Constant Matrix: (Units=GPa)
#
#
# Indices 1 2 3 4 5 6 
#
# 1 61.0670 27.6675 8.9707 0.0000 8.4344 0.0000
# 2 27.6675 147.3565 32.0375 0.0000 7.3519 0.0000
# 3 8.9707 32.0375 71.1649 0.0000 14.9290 0.0000
# 4 0.0000 0.0000 0.0000 60.6555 0.0000 17.1296
# 5 8.4344 7.3519 14.9290 0.0000 38.9843 0.0000
# 6 0.0000 0.0000 0.0000 17.1296 0.0000 39.1732
#
#
#
# Elastic Compliance Matrix: (Units=1/GPa)
#
#
# Indices 1 2 3 4 5 6 
#
# 1 0.018322 -0.003241 -0.000160 0.000000 -0.003292 0.000000
# 2 -0.003241 0.008097 -0.003331 0.000000 0.000450 0.000000
# 3 -0.000160 -0.003331 0.016781 0.000000 -0.005763 0.000000
# 4 0.000000 0.000000 0.000000 0.018809 0.000000 -0.008225
# 5 -0.003292 0.000450 -0.005763 0.000000 0.028486 0.000000
# 6 0.000000 0.000000 0.000000 -0.008225 0.000000 0.029124
#
#
# Mechanical properties :
#
#
# Convention : Reuss Voigt Hill
#
# Bulk Modulus (GPa) = 33.62999 46.32665 39.97832
# Shear Modulus (GPa) = 34.96655 41.82345 38.39500
#
# Velocity S-wave (km/s) = 3.97249 4.34457 4.16269
# Velocity P-wave (km/s) = 6.01817 6.78783 6.41455
#
# Compressibility (1/GPa) = 0.02973537
#
# Stress axis : x y z
#
# Youngs Moduli (GPa) = 54.57914 123.50983 59.59289
#
# Poissons Ratio (x) = 0.40031 0.00953
# Poissons Ratio (y) = 0.17690 0.19849
# Poissons Ratio (z) = 0.00873 0.41138
#
# Static dielectric constant tensor:
#      x y z
#    x 3.870010 0.000000 -0.083370 
#    y 0.000000 4.511100 0.000000 
#    z -0.083370 0.000000 4.133090 
# 
# 
# High freq. dielectric constant tensor:
#      x y z
#    x 1.850950 0.000000 0.004350 
#    y 0.000000 1.888350 0.000000 
#    z 0.004350 0.000000 1.878070 
# 
# From -- ./inp_files/12464.got.cif
#   From: 2010.03.12/outbox.cif.g09.slc.cpg/sg5_7_cif.got.tgz:12464.got - 2010.03.31 09:47:26.
