data_PCOD8049500
_publ_section_title
;
Structure prediction by ZEFSAII (Michael W. Deem and Ramdas Pophale) SiO2 
 PCOD8049500
Probable space group: C 2
;
_chemical_formula_sum "Si O2"
_cell_formula_units_Z 22
_cell_length_a 20.751339
_cell_length_b 7.883443
_cell_length_c 9.591323
_cell_angle_alpha 90.000000
_cell_angle_beta 143.928427
_cell_angle_gamma 90.000000
_cell_volume 923.857493
_symmetry_space_group_name_H-M "C 2"
_symmetry_group_IT_number 5
_symmetry_cell_setting 'monoclinic'
loop_
_space_group_symop_operation_xyz
x,y,z
-x,y,-z
1/2+x,1/2+y,z
1/2-x,1/2+y,-z
loop_
_atom_site_type_symbol
_atom_site_label
_atom_site_fract_x
_atom_site_fract_y
_atom_site_fract_z
Si Si1 0.000000 0.661901 0.000000
Si Si2 0.160611 0.093318 0.526079
Si Si3 0.014954 0.836095 0.747993
Si Si4 0.246494 0.284843 0.929594
Si Si5 0.198728 0.442931 0.447437
Si Si6 0.682584 0.110136 0.694359
O O1 0.954528 0.782646 0.041657
O O2 0.094423 0.541644 0.214661
O O3 0.222795 0.130488 0.780052
O O4 0.163470 0.254641 0.429160
O O5 0.039633 0.023946 0.349113
O O6 0.215694 0.938797 0.532051
O O7 0.933374 0.698623 0.535720
O O8 0.127006 0.845144 0.859270
O O9 0.162680 0.438744 0.752379
O O10 0.234443 0.226481 0.069630
O O11 0.244374 0.546398 0.662192
#
# Coordination Sequence:
#
# PCOD8049500 Si02
#       6
#     2   4   4   4   4   4
#     4  10  20  40  62  96 132 170 216 264 338 368
#     4  11  23  41  68  94 137 170 225 268 335 387
#     4  11  23  42  66  93 132 176 214 275 321 396
#     4  11  23  45  66  95 131 179 213 277 328 394
#     4  10  21  41  62 101 132 173 217 278 317 407
#     4  10  23  40  67  92 129 167 225 261 330 383
#
# _framework density 23.813193999999999
#
# number of rings (size 3 to 8) (size 9 to 14) (size 15 to 20)
#    0.000    1.455    1.818    3.818    2.545    0.727 
#    3.273    7.273    0.000    0.000    0.000    0.000 
#    0.000    0.000    0.000    0.000    0.000    0.000 
#
# Total GULP energy -136357.347492 kJ/mol
# GULP energy per Si atom -12396.122499 kJ/mol
# Density = 2.375899 g / cm^3
# Si number density = 23.813194 Si / 1000 Ang^3
#
#
#
# Elastic Constant Matrix: (Units=GPa)
#
#
# Indices 1 2 3 4 5 6 
#
# 1 48.8113 17.8588 21.0760 0.0000 0.7264 0.0000
# 2 17.8588 115.8210 39.6072 0.0000 1.7017 0.0000
# 3 21.0760 39.6072 79.9744 0.0000 -22.9141 0.0000
# 4 0.0000 0.0000 0.0000 31.3580 0.0000 15.8311
# 5 0.7264 1.7017 -22.9141 0.0000 35.4455 0.0000
# 6 0.0000 0.0000 0.0000 15.8311 0.0000 -6.2833
#
#
#
# Elastic Compliance Matrix: (Units=1/GPa)
#
#
# Indices 1 2 3 4 5 6 
#
# 1 0.024119 -0.001166 -0.007247 0.000000 -0.005123 0.000000
# 2 -0.001166 0.011129 -0.006567 0.000000 -0.004756 0.000000
# 3 -0.007247 -0.006567 0.021845 0.000000 0.014586 0.000000
# 4 0.000000 0.000000 0.000000 0.014036 0.000000 0.035364
# 5 -0.005123 -0.004756 0.014586 0.000000 0.037975 0.000000
# 6 0.000000 0.000000 0.000000 0.035364 0.000000 -0.070049
#
#
# Mechanical properties :
#
#
# Convention : Reuss Voigt Hill
#
# Bulk Modulus (GPa) = 36.85364 44.63228 40.74296
# Shear Modulus (GPa) = 64.05396 23.17503 43.61450
#
# Velocity S-wave (km/s) = 5.19200 3.12300 4.28428
# Velocity P-wave (km/s) = 7.17303 5.63804 6.45135
#
# Compressibility (1/GPa) = 0.02713436
#
# Stress axis : x y z
#
# Youngs Moduli (GPa) = 41.46153 89.85185 45.77623
#
# Poissons Ratio (x) = 0.10472 0.33173
# Poissons Ratio (y) = 0.04832 0.30063
# Poissons Ratio (z) = 0.30046 0.59009
#
# Static dielectric constant tensor:
#      x y z
#    x 4.352260 0.000000 -0.061840 
#    y 0.000000 4.468150 0.000000 
#    z -0.061840 0.000000 6.637820 
# 
# 
# High freq. dielectric constant tensor:
#      x y z
#    x 1.922510 0.000000 -0.032480 
#    y 0.000000 1.951980 0.000000 
#    z -0.032480 0.000000 1.953760 
# 
# From -- ./inp_files/22652.got.cif
#   From: 2010.03.12/outbox.cif.g09.slc.cpg/sg5_12_cif.got.tgz:22652.got - 2010.03.31 09:47:26.
