data_PCOD8049575
_publ_section_title
;
Structure prediction by ZEFSAII (Michael W. Deem and Ramdas Pophale) SiO2 
 PCOD8049575
Probable space group: C 2
;
_chemical_formula_sum "Si O2"
_cell_formula_units_Z 18
_cell_length_a 7.520893
_cell_length_b 12.133427
_cell_length_c 11.823341
_cell_angle_alpha 90.000000
_cell_angle_beta 64.295091
_cell_angle_gamma 90.000000
_cell_volume 972.158577
_symmetry_space_group_name_H-M "C 2"
_symmetry_group_IT_number 5
_symmetry_cell_setting 'monoclinic'
loop_
_space_group_symop_operation_xyz
x,y,z
-x,y,-z
1/2+x,1/2+y,z
1/2-x,1/2+y,-z
loop_
_atom_site_type_symbol
_atom_site_label
_atom_site_fract_x
_atom_site_fract_y
_atom_site_fract_z
Si Si1 0.500000 0.844720 0.000000
Si Si2 0.459482 0.002006 0.214970
Si Si3 0.856982 0.722404 0.802732
Si Si4 0.023801 0.922813 0.365099
Si Si5 0.830740 0.556208 0.632576
O O1 0.689795 0.767076 0.932702
O O2 0.457302 0.921401 0.903929
O O3 0.507162 0.130894 0.171124
O O4 0.571811 0.972180 0.301734
O O5 0.226494 0.988621 0.292584
O O6 0.990719 0.821794 0.718552
O O7 0.754415 0.664795 0.721128
O O8 0.000000 0.881014 0.500000
O O9 0.848319 0.005374 0.385897
O O10 0.000000 0.593892 0.500000
#
# Coordination Sequence:
#
# PCOD8049575 Si02
#       5
#     2   4   4   4   4
#     4  10  20  42  62  80 120 162 194 236 288 342
#     4   9  22  41  57  88 120 151 196 244 281 346
#     4   9  22  39  58  87 119 154 194 243 283 345
#     4  11  19  37  63  85 121 156 185 239 300 345
#     4  10  20  41  60  90 121 145 193 248 291 341
#
# _framework density 18.515497
#
# number of rings (size 3 to 8) (size 9 to 14) (size 15 to 20)
#    1.333    0.889    2.222    0.667    0.000    3.556 
#   12.000    1.111    0.000    0.000    0.000    0.000 
#    0.000    0.000    0.000    0.000    0.000    0.000 
#
# Total GULP energy -111521.447502 kJ/mol
# GULP energy per Si atom -12391.271945 kJ/mol
# Density = 1.847336 g / cm^3
# Si number density = 18.515497 Si / 1000 Ang^3
#
#
#
# Elastic Constant Matrix: (Units=GPa)
#
#
# Indices 1 2 3 4 5 6 
#
# 1 81.0004 32.9014 37.4616 0.0000 -11.7593 0.0000
# 2 32.9014 99.2317 44.5072 0.0000 -21.9385 0.0000
# 3 37.4616 44.5072 125.1368 0.0000 -18.5250 0.0000
# 4 0.0000 0.0000 0.0000 29.4051 0.0000 2.9962
# 5 -11.7593 -21.9385 -18.5250 0.0000 29.9578 0.0000
# 6 0.0000 0.0000 0.0000 2.9962 0.0000 21.5546
#
#
#
# Elastic Compliance Matrix: (Units=1/GPa)
#
#
# Indices 1 2 3 4 5 6 
#
# 1 0.015406 -0.003313 -0.003190 0.000000 0.001649 0.000000
# 2 -0.003313 0.014091 -0.002956 0.000000 0.007191 0.000000
# 3 -0.003190 -0.002956 0.010448 0.000000 0.003044 0.000000
# 4 0.000000 0.000000 0.000000 0.034496 0.000000 -0.004795
# 5 0.001649 0.007191 0.003044 0.000000 0.041176 0.000000
# 6 0.000000 0.000000 0.000000 -0.004795 0.000000 0.047060
#
#
# Mechanical properties :
#
#
# Convention : Reuss Voigt Hill
#
# Bulk Modulus (GPa) = 47.55302 59.45661 53.50481
# Shear Modulus (GPa) = 26.51064 28.88341 27.69703
#
# Velocity S-wave (km/s) = 3.78803 3.95392 3.87186
# Velocity P-wave (km/s) = 6.69857 7.28190 6.99632
#
# Compressibility (1/GPa) = 0.02102916
#
# Stress axis : x y z
#
# Youngs Moduli (GPa) = 64.91074 70.96575 95.71244
#
# Poissons Ratio (x) = 0.23510 0.30528
# Poissons Ratio (y) = 0.21504 0.28288
# Poissons Ratio (z) = 0.20704 0.20974
#
# Static dielectric constant tensor:
#      x y z
#    x 3.142750 0.000000 -0.003520 
#    y 0.000000 3.334430 0.000000 
#    z -0.003520 0.000000 3.530360 
# 
# 
# High freq. dielectric constant tensor:
#      x y z
#    x 1.695770 0.000000 -0.005670 
#    y 0.000000 1.712430 0.000000 
#    z -0.005670 0.000000 1.733370 
# 
# From -- ./inp_files/33087.got.cif
#   From: 2010.03.12/outbox.cif.g09.slc.cpg/sg5_17_cif.got.tgz:33087.got - 2010.03.31 09:47:26.
