data_PCOD8049779
_publ_section_title
;
Structure prediction by ZEFSAII (Michael W. Deem and Ramdas Pophale) SiO2 
 PCOD8049779
Probable space group: C 2
;
_chemical_formula_sum "Si O2"
_cell_formula_units_Z 20
_cell_length_a 11.809650
_cell_length_b 8.908186
_cell_length_c 22.179317
_cell_angle_alpha 90.000000
_cell_angle_beta 155.482676
_cell_angle_gamma 90.000000
_cell_volume 968.254348
_symmetry_space_group_name_H-M "C 2"
_symmetry_group_IT_number 5
_symmetry_cell_setting 'monoclinic'
loop_
_space_group_symop_operation_xyz
x,y,z
-x,y,-z
1/2+x,1/2+y,z
1/2-x,1/2+y,-z
loop_
_atom_site_type_symbol
_atom_site_label
_atom_site_fract_x
_atom_site_fract_y
_atom_site_fract_z
Si Si1 0.997073 0.866620 0.571291
Si Si2 0.979968 0.216475 0.164748
Si Si3 0.055021 0.401586 0.734269
Si Si4 0.247344 0.645112 0.339232
Si Si5 0.462499 0.386806 0.120735
O O1 0.192357 0.734894 0.691454
O O2 0.000000 0.867893 0.500000
O O3 0.673316 0.854229 0.428429
O O4 0.136658 0.027661 0.655347
O O5 0.919265 0.272269 0.202847
O O6 0.816923 0.314111 0.037095
O O7 0.892667 0.044163 0.118420
O O8 0.344515 0.417350 0.842893
O O9 0.973074 0.560326 0.724749
O O10 0.500000 0.711286 0.500000
O O11 0.099706 0.782519 0.236625
#
# Coordination Sequence:
#
# PCOD8049779 Si02
#       5
#     4   4   4   4   4
#     4   7  15  35  56  77 111 140 171 228 272 312
#     4  10  21  36  55  85 115 141 185 230 268 328
#     4   9  20  40  60  79 111 148 180 225 279 326
#     4   8  18  37  57  84 114 138 183 235 268 324
#     4  12  22  36  60  81 110 153 182 222 282 322
#
# _framework density 20.655728
#
# number of rings (size 3 to 8) (size 9 to 14) (size 15 to 20)
#    0.000    3.600    0.000    3.000    0.000    5.600 
#    0.000    8.000    0.000    0.000    0.000    0.000 
#    0.000    0.000    0.000    0.000    0.000    0.000 
#
# Total GULP energy -123890.186060 kJ/mol
# GULP energy per Si atom -12389.018606 kJ/mol
# Density = 2.060872 g / cm^3
# Si number density = 20.655728 Si / 1000 Ang^3
#
#
#
# Elastic Constant Matrix: (Units=GPa)
#
#
# Indices 1 2 3 4 5 6 
#
# 1 53.7281 26.0856 18.5881 -0.0001 -0.8671 -0.0024
# 2 26.0856 141.2728 65.3355 0.0020 -16.5798 0.0000
# 3 18.5881 65.3355 116.0697 0.0082 -11.8458 -0.0014
# 4 -0.0001 0.0020 0.0082 44.7445 -0.0002 -10.5332
# 5 -0.8671 -16.5798 -11.8458 -0.0002 17.1190 -0.0029
# 6 -0.0024 0.0000 -0.0014 -10.5332 -0.0029 17.5959
#
#
#
# Elastic Compliance Matrix: (Units=1/GPa)
#
#
# Indices 1 2 3 4 5 6 
#
# 1 0.020836 -0.003447 -0.001753 0.000001 -0.003496 0.000003
# 2 -0.003447 0.010741 -0.004788 0.000001 0.006915 0.000001
# 3 -0.001753 -0.004788 0.011954 -0.000002 0.003545 0.000000
# 4 0.000001 0.000001 -0.000002 0.026015 0.000002 0.015573
# 5 -0.003496 0.006915 0.003545 0.000002 0.067387 0.000012
# 6 0.000003 0.000001 0.000000 0.015573 0.000012 0.066154
#
#
# Mechanical properties :
#
#
# Convention : Reuss Voigt Hill
#
# Bulk Modulus (GPa) = 42.45695 59.00988 50.73342
# Shear Modulus (GPa) = 21.65304 29.29598 25.47451
#
# Velocity S-wave (km/s) = 3.24123 3.77012 3.51563
# Velocity P-wave (km/s) = 5.88274 6.89797 6.41048
#
# Compressibility (1/GPa) = 0.02355327
#
# Stress axis : x y z
#
# Youngs Moduli (GPa) = 47.99421 93.10156 83.65738
#
# Poissons Ratio (x) = 0.32089 0.14669
# Poissons Ratio (y) = 0.16542 0.40059
# Poissons Ratio (z) = 0.08416 0.44581
#
# Static dielectric constant tensor:
#      x y z
#    x 3.280950 0.000000 0.209470 
#    y 0.000000 3.614280 0.000000 
#    z 0.209470 0.000000 4.404470 
# 
# 
# High freq. dielectric constant tensor:
#      x y z
#    x 1.756420 0.000000 0.005280 
#    y 0.000000 1.797140 0.000000 
#    z 0.005280 0.000000 1.834220 
# 
# From -- ./inp_files/41607.got.cif
#   From: 2010.03.12/outbox.cif.g09.slc.cpg/sg5_21_cif.got.tgz:41607.got - 2010.03.31 09:47:26.
