data_PCOD8049312
_publ_section_title
;
Structure prediction by ZEFSAII (Michael W. Deem and Ramdas Pophale) SiO2 
 PCOD8049312
Probable space group: C 2
;
_chemical_formula_sum "Si O2"
_cell_formula_units_Z 32
_cell_length_a 23.292683
_cell_length_b 9.121957
_cell_length_c 22.878748
_cell_angle_alpha 90.000000
_cell_angle_beta 18.635590
_cell_angle_gamma 90.000000
_cell_volume 1553.373347
_symmetry_space_group_name_H-M "C 2"
_symmetry_group_IT_number 5
_symmetry_cell_setting 'monoclinic'
loop_
_space_group_symop_operation_xyz
x,y,z
-x,y,-z
1/2+x,1/2+y,z
1/2-x,1/2+y,-z
loop_
_atom_site_type_symbol
_atom_site_label
_atom_site_fract_x
_atom_site_fract_y
_atom_site_fract_z
Si Si1 0.572122 0.834150 0.369904
Si Si2 0.778466 0.675073 0.892353
Si Si3 0.260070 0.015620 0.626161
Si Si4 0.083410 0.021817 0.978967
Si Si5 0.197292 0.825255 0.584484
Si Si6 0.158044 0.801111 0.494380
Si Si7 0.046990 0.103882 0.606980
Si Si8 0.672930 0.438651 0.084375
O O1 0.500000 0.764254 0.500000
O O2 0.774332 0.895656 0.175883
O O3 0.562207 0.709396 0.330379
O O4 0.440440 0.971063 0.485429
O O5 0.667156 0.646605 0.940242
O O6 0.982059 0.705013 0.678723
O O7 0.702390 0.820747 0.000182
O O8 0.776149 0.527314 0.934487
O O9 0.231542 0.193500 0.654807
O O10 0.275343 0.964838 0.544066
O O11 0.083947 0.945038 0.825999
O O12 0.000000 0.092513 0.000000
O O13 0.262872 0.834027 0.453977
O O14 0.272705 0.679371 0.542436
O O15 0.980417 0.834928 0.796826
O O16 0.109728 0.956953 0.511460
O O17 0.917231 0.056751 0.785067
#
# Coordination Sequence:
#
# PCOD8049312 Si02
#       8
#     4   4   4   4   4   4   4   4
#     4  11  23  42  66  91 115 167 221 267 320 370
#     4  10  22  38  60  95 129 170 205 259 324 369
#     4  11  21  38  64  92 123 163 213 260 311 383
#     4  12  24  41  65  92 125 168 225 270 305 378
#     4   9  18  33  56  89 128 160 199 240 312 378
#     4  10  20  38  60  96 129 162 200 255 327 389
#     4   9  21  37  60  91 129 164 201 266 321 380
#     4  10  21  37  59  96 130 165 207 259 321 393
#
# _framework density 20.600328000000001
#
# number of rings (size 3 to 8) (size 9 to 14) (size 15 to 20)
#    0.000    2.000    3.750    1.500    1.750    0.000 
#    4.500    3.125    2.750    3.000    0.000    0.000 
#    0.000    0.000    0.000    0.000    0.000    0.000 
#
# Total GULP energy -198224.561337 kJ/mol
# GULP energy per Si atom -12389.035084 kJ/mol
# Density = 2.055344 g / cm^3
# Si number density = 20.600328 Si / 1000 Ang^3
#
#
#
# Elastic Constant Matrix: (Units=GPa)
#
#
# Indices 1 2 3 4 5 6 
#
# 1 126.6869 49.4459 27.5118 -0.0033 -9.3458 0.0002
# 2 49.4459 117.0534 35.0216 -0.0108 -2.6593 -0.0192
# 3 27.5118 35.0216 74.9563 -0.0023 -1.3910 -0.0161
# 4 -0.0033 -0.0108 -0.0023 29.9074 0.0038 2.6059
# 5 -9.3458 -2.6593 -1.3910 0.0038 21.0243 0.0038
# 6 0.0002 -0.0192 -0.0161 2.6059 0.0038 17.5343
#
#
#
# Elastic Compliance Matrix: (Units=1/GPa)
#
#
# Indices 1 2 3 4 5 6 
#
# 1 0.009984 -0.003551 -0.001934 0.000000 0.003861 -0.000007
# 2 -0.003551 0.011214 -0.003944 0.000003 -0.000421 0.000008
# 3 -0.001934 -0.003944 0.015888 -0.000001 -0.000307 0.000011
# 4 0.000000 0.000003 -0.000001 0.033875 -0.000005 -0.005034
# 5 0.003861 -0.000421 -0.000307 -0.000005 0.049207 -0.000011
# 6 -0.000007 0.000008 0.000011 -0.005034 -0.000011 0.057779
#
#
# Mechanical properties :
#
#
# Convention : Reuss Voigt Hill
#
# Bulk Modulus (GPa) = 54.85968 60.29502 57.57735
# Shear Modulus (GPa) = 24.64506 27.47435 26.05970
#
# Velocity S-wave (km/s) = 3.46257 3.65593 3.56056
# Velocity P-wave (km/s) = 6.53255 6.86685 6.70178
#
# Compressibility (1/GPa) = 0.01822832
#
# Stress axis : x y z
#
# Youngs Moduli (GPa) = 100.15704 89.17742 62.94173
#
# Poissons Ratio (x) = 0.31670 0.12171
# Poissons Ratio (y) = 0.35569 0.24822
# Poissons Ratio (z) = 0.19367 0.35168
#
# Static dielectric constant tensor:
#      x y z
#    x 3.946630 0.000000 -0.023470 
#    y 0.000000 3.810630 0.000020 
#    z -0.023470 0.000020 3.584130 
# 
# 
# High freq. dielectric constant tensor:
#      x y z
#    x 1.800370 0.000000 -0.007500 
#    y 0.000000 1.795390 0.000000 
#    z -0.007500 0.000000 1.793490 
# 
# From -- ./inp_files/69659.got.cif
#   From: 2010.03.12/outbox.cif.g09.slc.cpg/sg5_35_cif.got.tgz:69659.got - 2010.03.31 09:47:26.
