data_PCOD8049409
_publ_section_title
;
Structure prediction by ZEFSAII (Michael W. Deem and Ramdas Pophale) SiO2 
 PCOD8049409
Probable space group: C 2
;
_chemical_formula_sum "Si O2"
_cell_formula_units_Z 26
_cell_length_a 12.839381
_cell_length_b 8.525662
_cell_length_c 12.019505
_cell_angle_alpha 90.000000
_cell_angle_beta 99.904672
_cell_angle_gamma 90.000000
_cell_volume 1296.095577
_symmetry_space_group_name_H-M "C 2"
_symmetry_group_IT_number 5
_symmetry_cell_setting 'monoclinic'
loop_
_space_group_symop_operation_xyz
x,y,z
-x,y,-z
1/2+x,1/2+y,z
1/2-x,1/2+y,-z
loop_
_atom_site_type_symbol
_atom_site_label
_atom_site_fract_x
_atom_site_fract_y
_atom_site_fract_z
Si Si1 0.651195 0.316340 0.902691
Si Si2 0.046615 0.324889 0.147326
Si Si3 0.364522 0.803249 0.594872
Si Si4 0.145151 0.173620 0.971029
Si Si5 0.500000 0.549454 0.500000
Si Si6 0.000000 0.550003 0.500000
Si Si7 0.000000 0.604061 0.000000
Si Si8 0.635119 0.297269 0.641122
O O1 0.639894 0.498519 0.925483
O O2 0.674432 0.296212 0.775740
O O3 0.737771 0.241644 0.000415
O O4 0.549003 0.216854 0.915861
O O5 0.090129 0.335805 0.276441
O O6 0.920516 0.288612 0.124570
O O7 0.075078 0.486836 0.086331
O O8 0.097581 0.180302 0.087646
O O9 0.413900 0.646699 0.553138
O O10 0.237344 0.790120 0.578272
O O11 0.402394 0.948929 0.528204
O O12 0.566755 0.451223 0.601859
O O13 0.055544 0.652816 0.605892
#
# Coordination Sequence:
#
# PCOD8049409 Si02
#       8
#     4   4   4   4   2   2   2   4
#     4  12  22  38  60  87 122 161 200 243 306 355
#     4  10  20  39  61  86 124 154 196 246 301 355
#     4  11  21  42  66  89 122 162 196 257 306 360
#     4  10  21  36  57  87 119 158 195 243 289 370
#     4  10  24  40  64  92 120 154 210 254 304 358
#     4  10  24  40  64  92 120 154 210 254 304 358
#     4  10  22  36  58  88 124 158 198 246 290 370
#     4  11  23  42  64  89 121 162 202 255 304 362
#
# _framework density 20.060248999999999
#
# number of rings (size 3 to 8) (size 9 to 14) (size 15 to 20)
#    0.000    1.538    1.538    5.538    0.000    0.000 
#    0.000    0.000    3.385    0.000    0.000    0.000 
#    0.000    0.000    0.000    0.000    0.000    0.000 
#
# Total GULP energy -161128.638191 kJ/mol
# GULP energy per Si atom -12394.510630 kJ/mol
# Density = 2.001459 g / cm^3
# Si number density = 20.060249 Si / 1000 Ang^3
#
#
#
# Elastic Constant Matrix: (Units=GPa)
#
#
# Indices 1 2 3 4 5 6 
#
# 1 94.3837 41.1690 11.7454 0.0000 -10.1760 0.0000
# 2 41.1690 113.2328 23.6402 0.0000 -5.6538 0.0000
# 3 11.7454 23.6402 65.1300 0.0000 -1.6865 0.0000
# 4 0.0000 0.0000 0.0000 36.2033 0.0000 -19.0940
# 5 -10.1760 -5.6538 -1.6865 0.0000 35.1063 0.0000
# 6 0.0000 0.0000 0.0000 -19.0940 0.0000 38.7486
#
#
#
# Elastic Compliance Matrix: (Units=1/GPa)
#
#
# Indices 1 2 3 4 5 6 
#
# 1 0.012925 -0.004413 -0.000651 0.000000 0.003004 0.000000
# 2 -0.004413 0.011129 -0.003234 0.000000 0.000358 0.000000
# 3 -0.000651 -0.003234 0.016648 0.000000 0.000090 0.000000
# 4 0.000000 0.000000 0.000000 0.037321 0.000000 0.018391
# 5 0.003004 0.000358 0.000090 0.000000 0.029418 0.000000
# 6 0.000000 0.000000 0.000000 0.018391 0.000000 0.034870
#
#
# Mechanical properties :
#
#
# Convention : Reuss Voigt Hill
#
# Bulk Modulus (GPa) = 41.48681 47.31732 44.40207
# Shear Modulus (GPa) = 29.95041 35.09111 32.52076
#
# Velocity S-wave (km/s) = 3.86816 4.18698 4.03072
# Velocity P-wave (km/s) = 6.37779 6.85662 6.62153
#
# Compressibility (1/GPa) = 0.02410405
#
# Stress axis : x y z
#
# Youngs Moduli (GPa) = 77.36922 89.85487 60.06856
#
# Poissons Ratio (x) = 0.39656 0.03912
# Poissons Ratio (y) = 0.34145 0.19428
# Poissons Ratio (z) = 0.05038 0.29062
#
# Static dielectric constant tensor:
#      x y z
#    x 3.809550 0.000000 -0.005680 
#    y 0.000000 3.730330 0.000000 
#    z -0.005680 0.000000 3.499170 
# 
# 
# High freq. dielectric constant tensor:
#      x y z
#    x 1.788430 0.000000 0.002880 
#    y 0.000000 1.791110 0.000000 
#    z 0.002880 0.000000 1.774660 
# 
# From -- ./inp_files/38401.got.cif
#   From: 2010.03.12/outbox.cif.g09.slc.cpg/sg5_20_cif.got.tgz:38401.got - 2010.03.31 09:47:26.
