data_PCOD8049479
_publ_section_title
;
Structure prediction by ZEFSAII (Michael W. Deem and Ramdas Pophale) SiO2 
 PCOD8049479
Probable space group: C 2
;
_chemical_formula_sum "Si O2"
_cell_formula_units_Z 26
_cell_length_a 20.427892
_cell_length_b 13.266618
_cell_length_c 14.903719
_cell_angle_alpha 90.000000
_cell_angle_beta 17.278756
_cell_angle_gamma 90.000000
_cell_volume 1199.679857
_symmetry_space_group_name_H-M "C 2"
_symmetry_group_IT_number 5
_symmetry_cell_setting 'monoclinic'
loop_
_space_group_symop_operation_xyz
x,y,z
-x,y,-z
1/2+x,1/2+y,z
1/2-x,1/2+y,-z
loop_
_atom_site_type_symbol
_atom_site_label
_atom_site_fract_x
_atom_site_fract_y
_atom_site_fract_z
Si Si1 0.720991 0.982520 0.101595
Si Si2 0.534611 0.051533 0.167616
Si Si3 0.787566 0.939298 0.535641
Si Si4 0.000000 0.650540 0.500000
Si Si5 0.922268 0.732571 0.416553
Si Si6 0.420415 0.770794 0.701114
Si Si7 0.276815 0.124582 0.255650
O O1 0.542377 0.891799 0.345928
O O2 0.708923 0.008161 0.011432
O O3 0.675231 0.079466 0.221716
O O4 0.958699 0.947841 0.825337
O O5 0.363790 0.129126 0.440405
O O6 0.382386 0.965318 0.321862
O O7 0.693456 0.109974 0.890250
O O8 0.756637 0.822448 0.605202
O O9 0.748938 0.013017 0.669663
O O10 0.893527 0.720439 0.561842
O O11 0.175904 0.752140 0.056851
O O12 0.500000 0.732911 0.500000
O O13 0.587353 0.700572 0.540308
O O14 0.500000 0.175164 0.000000
#
# Coordination Sequence:
#
# PCOD8049479 Si02
#       7
#     4   4   4   2   4   4   4
#     4  10  22  39  62  85 124 160 202 253 304 370
#     4  10  21  40  61  88 122 161 205 254 306 361
#     4  10  23  39  59  92 123 162 206 253 306 369
#     4  10  20  40  60  90 120 166 208 246 308 366
#     4  10  22  39  65  89 128 163 207 257 304 377
#     4  11  20  38  62  92 116 158 202 251 307 360
#     4  10  21  37  60  91 124 156 205 256 302 364
#
# _framework density 21.672447999999999
#
# number of rings (size 3 to 8) (size 9 to 14) (size 15 to 20)
#    0.000    1.846    2.308    1.846    0.000    4.923 
#    0.000    7.692    0.000    0.000    0.000    0.000 
#    0.000    0.000    0.000    0.000    0.000    0.000 
#
# Total GULP energy -161045.451330 kJ/mol
# GULP energy per Si atom -12388.111641 kJ/mol
# Density = 2.162312 g / cm^3
# Si number density = 21.672448 Si / 1000 Ang^3
#
#
#
# Elastic Constant Matrix: (Units=GPa)
#
#
# Indices 1 2 3 4 5 6 
#
# 1 91.6591 32.8024 34.0937 0.0033 16.0275 0.0004
# 2 32.8024 109.4712 20.7435 -0.0096 -7.0937 0.0001
# 3 34.0937 20.7435 65.9193 -0.0102 -4.3547 0.0103
# 4 0.0033 -0.0096 -0.0102 30.3175 0.0017 -7.6411
# 5 16.0275 -7.0937 -4.3547 0.0017 32.2551 -0.0077
# 6 0.0004 0.0001 0.0103 -7.6411 -0.0077 34.0000
#
#
#
# Elastic Compliance Matrix: (Units=1/GPa)
#
#
# Indices 1 2 3 4 5 6 
#
# 1 0.017461 -0.004343 -0.008376 -0.000006 -0.010762 -0.000001
# 2 -0.004343 0.010892 -0.000889 0.000004 0.004433 0.000002
# 3 -0.008376 -0.000889 0.020224 0.000006 0.006697 -0.000003
# 4 -0.000006 0.000004 0.000006 0.034965 0.000005 0.007858
# 5 -0.010762 0.004433 0.006697 0.000005 0.038230 0.000008
# 6 -0.000001 0.000002 -0.000003 0.007858 0.000008 0.031178
#
#
# Mechanical properties :
#
#
# Convention : Reuss Voigt Hill
#
# Bulk Modulus (GPa) = 46.80837 49.14766 47.97801
# Shear Modulus (GPa) = 26.69748 31.27519 28.98633
#
# Velocity S-wave (km/s) = 3.51360 3.80292 3.66112
# Velocity P-wave (km/s) = 6.17296 6.48148 6.32910
#
# Compressibility (1/GPa) = 0.02136370
#
# Stress axis : x y z
#
# Youngs Moduli (GPa) = 57.26938 91.81328 49.44638
#
# Poissons Ratio (x) = 0.39870 0.41414
# Poissons Ratio (y) = 0.24869 0.04394
# Poissons Ratio (z) = 0.47966 0.08158
#
# Static dielectric constant tensor:
#      x y z
#    x 3.881050 -0.000020 0.059610 
#    y -0.000020 4.420450 0.000000 
#    z 0.059610 0.000000 3.852310 
# 
# 
# High freq. dielectric constant tensor:
#      x y z
#    x 1.839720 0.000000 0.011750 
#    y 0.000000 1.865220 0.000000 
#    z 0.011750 0.000000 1.834780 
# 
# From -- ./inp_files/57091.got.cif
#   From: 2010.03.12/outbox.cif.g09.slc.cpg/sg5_29_cif.got.tgz:57091.got - 2010.03.31 09:47:26.
