data_PCOD8049055
_publ_section_title
;
Structure prediction by ZEFSAII (Michael W. Deem and Ramdas Pophale) SiO2 
 PCOD8049055
Probable space group: C 2
;
_chemical_formula_sum "Si O2"
_cell_formula_units_Z 28
_cell_length_a 30.812052
_cell_length_b 8.302876
_cell_length_c 9.531305
_cell_angle_alpha 90.000000
_cell_angle_beta 147.409762
_cell_angle_gamma 90.000000
_cell_volume 1313.378357
_symmetry_space_group_name_H-M "C 2"
_symmetry_group_IT_number 5
_symmetry_cell_setting 'monoclinic'
loop_
_space_group_symop_operation_xyz
x,y,z
-x,y,-z
1/2+x,1/2+y,z
1/2-x,1/2+y,-z
loop_
_atom_site_type_symbol
_atom_site_label
_atom_site_fract_x
_atom_site_fract_y
_atom_site_fract_z
Si Si1 0.269376 0.523480 0.929417
Si Si2 0.342912 0.993415 0.764773
Si Si3 0.816123 0.139162 0.760660
Si Si4 0.493007 0.114226 0.817295
Si Si5 0.152552 0.817039 0.636172
Si Si6 0.377878 0.851221 0.558981
Si Si7 0.408444 0.515227 0.760195
O O1 0.315351 0.550316 0.907683
O O2 0.223405 0.687250 0.844982
O O3 0.205117 0.376970 0.750999
O O4 0.334317 0.466655 0.221720
O O5 0.329056 0.831040 0.818294
O O6 0.364223 0.941428 0.667177
O O7 0.265101 0.109081 0.552034
O O8 0.419788 0.101578 0.023165
O O9 0.886940 0.056776 0.861991
O O10 0.435788 0.239322 0.577199
O O11 0.453740 0.936849 0.692780
O O12 0.500000 0.165312 0.000000
O O13 0.150774 0.880874 0.469399
O O14 0.399317 0.667106 0.633122
O O15 0.500000 0.454024 0.000000
#
# Coordination Sequence:
#
# PCOD8049055 Si02
#       7
#     4   4   4   4   4   4   4
#     4  10  21  38  58  86 121 159 200 236 287 351
#     4   9  17  31  54  87 117 146 188 240 295 342
#     4  10  20  35  59  89 121 153 192 247 294 344
#     4   9  17  33  56  86 117 147 189 244 297 345
#     4  11  22  36  59  86 118 161 199 238 288 352
#     4   8  16  32  55  82 115 148 185 237 290 343
#     4  11  21  35  59  90 116 150 198 246 297 349
#
# _framework density 21.319065999999999
#
# number of rings (size 3 to 8) (size 9 to 14) (size 15 to 20)
#    0.000    2.286    0.000    5.143    0.000    1.143 
#    0.000    0.714    0.000    3.429    0.000   15.000 
#    0.000    0.000    0.000    0.000    0.000    0.000 
#
# Total GULP energy -173493.035081 kJ/mol
# GULP energy per Si atom -12392.359649 kJ/mol
# Density = 2.127054 g / cm^3
# Si number density = 21.319066 Si / 1000 Ang^3
#
#
#
# Elastic Constant Matrix: (Units=GPa)
#
#
# Indices 1 2 3 4 5 6 
#
# 1 79.4532 23.5644 49.7889 0.0000 10.6471 0.0000
# 2 23.5644 101.2039 54.6103 0.0000 -0.0330 0.0000
# 3 49.7889 54.6103 108.4892 0.0000 8.1676 0.0000
# 4 0.0000 0.0000 0.0000 44.0521 0.0000 -2.7939
# 5 10.6471 -0.0330 8.1676 0.0000 29.2956 0.0000
# 6 0.0000 0.0000 0.0000 -2.7939 0.0000 18.5298
#
#
#
# Elastic Compliance Matrix: (Units=1/GPa)
#
#
# Indices 1 2 3 4 5 6 
#
# 1 0.018201 0.000125 -0.008088 0.000000 -0.004360 0.000000
# 2 0.000125 0.013678 -0.007089 0.000000 0.001946 0.000000
# 3 -0.008088 -0.007089 0.016626 0.000000 -0.001704 0.000000
# 4 0.000000 0.000000 0.000000 0.022920 0.000000 0.003456
# 5 -0.004360 0.001946 -0.001704 0.000000 0.036197 0.000000
# 6 0.000000 0.000000 0.000000 0.003456 0.000000 0.054488
#
#
# Mechanical properties :
#
#
# Convention : Reuss Voigt Hill
#
# Bulk Modulus (GPa) = 54.34355 60.56371 57.45363
# Shear Modulus (GPa) = 25.20840 29.12102 27.16471
#
# Velocity S-wave (km/s) = 3.44239 3.69990 3.57346
# Velocity P-wave (km/s) = 6.43008 6.83537 6.63582
#
# Compressibility (1/GPa) = 0.01840145
#
# Stress axis : x y z
#
# Youngs Moduli (GPa) = 54.94077 73.11126 60.14773
#
# Poissons Ratio (x) = -0.00912 0.48646
# Poissons Ratio (y) = -0.00685 0.42637
# Poissons Ratio (z) = 0.44434 0.51827
#
# Static dielectric constant tensor:
#      x y z
#    x 3.509860 0.000000 0.326050 
#    y 0.000000 3.987510 0.000000 
#    z 0.326050 0.000000 4.035240 
# 
# 
# High freq. dielectric constant tensor:
#      x y z
#    x 1.792040 0.000000 0.024550 
#    y 0.000000 1.850730 0.000000 
#    z 0.024550 0.000000 1.827420 
# 
# From -- ./inp_files/31784.got.cif
#   From: 2010.03.12/outbox.cif.g09.slc.cpg/sg5_16_cif.got.tgz:31784.got - 2010.03.31 09:47:26.
