data_PCOD8049370
_publ_section_title
;
Structure prediction by ZEFSAII (Michael W. Deem and Ramdas Pophale) SiO2 
 PCOD8049370
Probable space group: C 2
;
_chemical_formula_sum "Si O2"
_cell_formula_units_Z 24
_cell_length_a 11.596237
_cell_length_b 13.874632
_cell_length_c 14.227631
_cell_angle_alpha 90.000000
_cell_angle_beta 32.159446
_cell_angle_gamma 90.000000
_cell_volume 1218.453662
_symmetry_space_group_name_H-M "C 2"
_symmetry_group_IT_number 5
_symmetry_cell_setting 'monoclinic'
loop_
_space_group_symop_operation_xyz
x,y,z
-x,y,-z
1/2+x,1/2+y,z
1/2-x,1/2+y,-z
loop_
_atom_site_type_symbol
_atom_site_label
_atom_site_fract_x
_atom_site_fract_y
_atom_site_fract_z
Si Si1 0.586763 0.242530 0.660381
Si Si2 0.589396 0.641892 0.682841
Si Si3 0.919631 0.631716 0.955289
Si Si4 0.410290 0.447997 0.408225
Si Si5 0.314895 0.724501 0.191730
Si Si6 0.670874 0.940062 0.763389
O O1 0.825040 0.209895 0.460905
O O2 0.539049 0.194671 0.793509
O O3 0.575658 0.358096 0.672674
O O4 0.413378 0.212055 0.701409
O O5 0.663175 0.534663 0.606521
O O6 0.712200 0.667946 0.693218
O O7 0.334291 0.651021 0.875739
O O8 0.975603 0.517376 0.905913
O O9 0.000000 0.670655 0.000000
O O10 0.236422 0.428547 0.609638
O O11 0.635588 0.477157 0.303279
O O12 0.395106 0.834110 0.156492
O O13 0.500000 0.676094 0.000000
#
# Coordination Sequence:
#
# PCOD8049370 Si02
#       6
#     4   4   4   4   4   4
#     4  11  24  43  64  93 133 166 216 260 313 380
#     4  12  23  39  66  94 131 165 207 263 324 371
#     4  12  24  39  66  98 128 165 212 265 318 376
#     4  10  21  39  66  93 124 170 210 267 312 366
#     4  11  22  40  67  98 123 165 214 267 315 369
#     4  10  20  38  65  98 123 156 222 271 303 362
#
# _framework density 19.697095999999998
#
# number of rings (size 3 to 8) (size 9 to 14) (size 15 to 20)
#    0.000    1.000    6.667    1.000    2.333    0.667 
#    0.000    0.833   11.000    0.000    0.000    0.000 
#    0.000    0.000    0.000    0.000    0.000    0.000 
#
# Total GULP energy -148797.177920 kJ/mol
# GULP energy per Si atom -12399.764827 kJ/mol
# Density = 1.965226 g / cm^3
# Si number density = 19.697096 Si / 1000 Ang^3
#
#
#
# Elastic Constant Matrix: (Units=GPa)
#
#
# Indices 1 2 3 4 5 6 
#
# 1 96.2569 50.8485 28.3215 -0.0079 24.0060 -0.0009
# 2 50.8485 92.1435 18.9575 -0.0248 13.1766 0.0031
# 3 28.3215 18.9575 107.9951 -0.0261 14.4331 0.0029
# 4 -0.0079 -0.0248 -0.0261 30.9815 0.0120 3.1687
# 5 24.0060 13.1766 14.4331 0.0120 37.3253 -0.0015
# 6 -0.0009 0.0031 0.0029 3.1687 -0.0015 31.5630
#
#
#
# Elastic Compliance Matrix: (Units=1/GPa)
#
#
# Indices 1 2 3 4 5 6 
#
# 1 0.017013 -0.007908 -0.002092 -0.000001 -0.007341 0.000001
# 2 -0.007908 0.015356 -0.000608 0.000010 -0.000100 -0.000003
# 3 -0.002092 -0.000608 0.010236 0.000009 -0.002398 -0.000002
# 4 -0.000001 0.000010 0.000009 0.032612 -0.000017 -0.003274
# 5 -0.007341 -0.000100 -0.002398 -0.000017 0.032475 0.000003
# 6 0.000001 -0.000003 -0.000002 -0.003274 0.000003 0.032011
#
#
# Mechanical properties :
#
#
# Convention : Reuss Voigt Hill
#
# Bulk Modulus (GPa) = 46.75759 54.73894 50.74827
# Shear Modulus (GPa) = 29.75309 33.19184 31.47247
#
# Velocity S-wave (km/s) = 3.89077 4.10947 4.00161
# Velocity P-wave (km/s) = 6.63129 7.09702 6.86810
#
# Compressibility (1/GPa) = 0.02138690
#
# Stress axis : x y z
#
# Youngs Moduli (GPa) = 58.77916 65.12085 97.69828
#
# Poissons Ratio (x) = 0.51498 0.20441
# Poissons Ratio (y) = 0.46483 0.05944
# Poissons Ratio (z) = 0.12298 0.03962
#
# Static dielectric constant tensor:
#      x y z
#    x 3.473890 -0.000010 0.165830 
#    y -0.000010 3.522610 0.000020 
#    z 0.165830 0.000020 3.748130 
# 
# 
# High freq. dielectric constant tensor:
#      x y z
#    x 1.749790 0.000000 0.018010 
#    y 0.000000 1.757860 0.000000 
#    z 0.018010 0.000000 1.789070 
# 
# From -- ./inp_files/53006.got.cif
#   From: 2010.03.12/outbox.cif.g09.slc.cpg/sg5_27_cif.got.tgz:53006.got - 2010.03.31 09:47:26.
