data_PCOD8049457
_publ_section_title
;
Structure prediction by ZEFSAII (Michael W. Deem and Ramdas Pophale) SiO2 
 PCOD8049457
Probable space group: C 2
;
_chemical_formula_sum "Si O2"
_cell_formula_units_Z 18
_cell_length_a 7.448535
_cell_length_b 16.949244
_cell_length_c 8.988495
_cell_angle_alpha 90.000000
_cell_angle_beta 130.904828
_cell_angle_gamma 90.000000
_cell_volume 857.657883
_symmetry_space_group_name_H-M "C 2"
_symmetry_group_IT_number 5
_symmetry_cell_setting 'monoclinic'
loop_
_space_group_symop_operation_xyz
x,y,z
-x,y,-z
1/2+x,1/2+y,z
1/2-x,1/2+y,-z
loop_
_atom_site_type_symbol
_atom_site_label
_atom_site_fract_x
_atom_site_fract_y
_atom_site_fract_z
Si Si1 0.881739 0.224540 0.585215
Si Si2 0.752859 0.124493 0.057938
Si Si3 0.549733 0.078720 0.359607
Si Si4 0.235318 0.473214 0.209827
Si Si5 0.000000 0.843377 0.500000
O O1 0.730397 0.150596 0.450671
O O2 0.719742 0.291319 0.567847
O O3 0.000000 0.259496 0.500000
O O4 0.073751 0.197790 0.814950
O O5 0.863099 0.043823 0.187435
O O6 0.500000 0.138803 0.000000
O O7 0.697057 0.110324 0.852126
O O8 0.500000 0.051761 0.500000
O O9 0.662200 0.004700 0.334222
O O10 0.412276 0.399467 0.318120
O O11 0.000000 0.443151 0.000000
#
# Coordination Sequence:
#
# PCOD8049457 Si02
#       5
#     4   4   4   4   2
#     4  12  22  40  63  97 134 169 209 270 317 384
#     4   9  19  39  71  91 122 169 220 266 315 368
#     4  10  20  39  68 101 117 163 224 267 319 367
#     4   9  20  42  65  90 130 170 210 266 316 380
#     4  12  26  38  62 100 136 174 202 254 344 382
#
# _framework density 20.987390000000001
#
# number of rings (size 3 to 8) (size 9 to 14) (size 15 to 20)
#    0.000    2.222    5.556    1.333    0.000    3.556 
#    0.000    0.000    0.000    2.667    0.000    0.000 
#    0.000    0.000    0.000    0.000    0.000    0.000 
#
# Total GULP energy -111565.655969 kJ/mol
# GULP energy per Si atom -12396.183997 kJ/mol
# Density = 2.093962 g / cm^3
# Si number density = 20.987390 Si / 1000 Ang^3
#
#
#
# Elastic Constant Matrix: (Units=GPa)
#
#
# Indices 1 2 3 4 5 6 
#
# 1 67.6939 50.0012 37.0664 0.0000 -12.3000 0.0000
# 2 50.0012 106.7302 59.1002 0.0000 22.1383 0.0000
# 3 37.0664 59.1002 142.5314 0.0000 -8.9021 0.0000
# 4 0.0000 0.0000 0.0000 36.4977 0.0000 21.6830
# 5 -12.3000 22.1383 -8.9021 0.0000 36.1864 0.0000
# 6 0.0000 0.0000 0.0000 21.6830 0.0000 6.7543
#
#
#
# Elastic Compliance Matrix: (Units=1/GPa)
#
#
# Indices 1 2 3 4 5 6 
#
# 1 0.036169 -0.023849 0.002196 0.000000 0.027424 0.000000
# 2 -0.023849 0.031473 -0.008691 0.000000 -0.029499 0.000000
# 3 0.002196 -0.008691 0.010590 0.000000 0.008668 0.000000
# 4 0.000000 0.000000 0.000000 -0.030202 0.000000 0.096956
# 5 0.027424 -0.029499 0.008668 0.000000 0.057136 0.000000
# 6 0.000000 0.000000 0.000000 0.096956 0.000000 -0.163200
#
#
# Mechanical properties :
#
#
# Convention : Reuss Voigt Hill
#
# Bulk Modulus (GPa) = 56.99781 67.69902 62.34842
# Shear Modulus (GPa) = 588.13384 27.27352 307.70368
#
# Velocity S-wave (km/s) = 16.75829 3.60880 12.12155
# Velocity P-wave (km/s) = 20.04173 7.04922 15.02269
#
# Compressibility (1/GPa) = 0.01754453
#
# Stress axis : x y z
#
# Youngs Moduli (GPa) = 27.64823 31.77301 94.42901
#
# Poissons Ratio (x) = 0.75774 -0.20734
# Poissons Ratio (y) = 0.65937 0.82065
# Poissons Ratio (z) = -0.06071 0.27613
#
# Static dielectric constant tensor:
#      x y z
#    x 3.766690 0.000000 -0.103790 
#    y 0.000000 3.587800 0.000000 
#    z -0.103790 0.000000 4.442720 
# 
# 
# High freq. dielectric constant tensor:
#      x y z
#    x 1.803540 0.000000 0.010060 
#    y 0.000000 1.795840 0.000000 
#    z 0.010060 0.000000 1.847210 
# 
# From -- ./inp_files/15910.got.cif
#   From: 2010.03.12/outbox.cif.g09.slc.cpg/sg5_8_cif.got.tgz:15910.got - 2010.03.31 09:47:26.
