data_PCOD8049699
_publ_section_title
;
Structure prediction by ZEFSAII (Michael W. Deem and Ramdas Pophale) SiO2 
 PCOD8049699
Probable space group: C 2
;
_chemical_formula_sum "Si O2"
_cell_formula_units_Z 26
_cell_length_a 16.557813
_cell_length_b 15.253628
_cell_length_c 8.675599
_cell_angle_alpha 90.000000
_cell_angle_beta 146.031845
_cell_angle_gamma 90.000000
_cell_volume 1224.275529
_symmetry_space_group_name_H-M "C 2"
_symmetry_group_IT_number 5
_symmetry_cell_setting 'monoclinic'
loop_
_space_group_symop_operation_xyz
x,y,z
-x,y,-z
1/2+x,1/2+y,z
1/2-x,1/2+y,-z
loop_
_atom_site_type_symbol
_atom_site_label
_atom_site_fract_x
_atom_site_fract_y
_atom_site_fract_z
Si Si1 0.201322 0.932740 0.023549
Si Si2 0.995096 0.208176 0.250810
Si Si3 0.337342 0.974345 0.568999
Si Si4 0.000000 0.333993 0.000000
Si Si5 0.948728 0.018421 0.757609
Si Si6 0.265134 0.732754 0.141370
Si Si7 0.914356 0.564672 0.206548
O O1 0.270445 0.952255 0.298351
O O2 0.207550 0.828736 0.000930
O O3 0.290323 0.989949 0.037448
O O4 0.030929 0.961300 0.754857
O O5 0.997567 0.116471 0.169812
O O6 0.154216 0.236381 0.565220
O O7 0.882621 0.199682 0.208277
O O8 0.930673 0.275480 0.024978
O O9 0.373854 0.887739 0.720504
O O10 0.225683 0.019363 0.513256
O O11 0.480320 0.032135 0.764170
O O12 0.000000 0.977126 0.000000
O O13 0.142566 0.658204 0.945088
O O14 0.000000 0.581369 0.500000
#
# Coordination Sequence:
#
# PCOD8049699 Si02
#       7
#     4   4   4   2   4   4   4
#     4  10  20  43  66  89 127 170 214 263 315 381
#     4  11  23  40  66  93 129 171 215 263 314 393
#     4  10  23  39  62  94 130 165 208 261 327 377
#     4  12  22  40  64  96 126 174 210 260 322 390
#     4  10  21  42  62  89 129 168 207 263 322 375
#     4  11  23  42  65  98 125 168 223 265 316 377
#     4  10  22  42  67  92 129 170 213 267 320 381
#
# _framework density 21.237051000000001
#
# number of rings (size 3 to 8) (size 9 to 14) (size 15 to 20)
#    0.000    1.538    3.846    0.923    6.462    0.000 
#    5.538    0.000    0.000    0.000    0.000    0.000 
#    0.000    0.000    0.000    0.000    0.000    0.000 
#
# Total GULP energy -161090.438400 kJ/mol
# GULP energy per Si atom -12391.572185 kJ/mol
# Density = 2.118871 g / cm^3
# Si number density = 21.237051 Si / 1000 Ang^3
#
#
#
# Elastic Constant Matrix: (Units=GPa)
#
#
# Indices 1 2 3 4 5 6 
#
# 1 108.8368 52.5985 48.1955 0.0000 38.8369 0.0000
# 2 52.5985 149.1120 31.6482 0.0000 28.8393 0.0000
# 3 48.1955 31.6482 44.8945 0.0000 22.7811 0.0000
# 4 0.0000 0.0000 0.0000 37.8697 0.0000 -0.3255
# 5 38.8369 28.8393 22.7811 0.0000 37.7074 0.0000
# 6 0.0000 0.0000 0.0000 -0.3255 0.0000 29.5838
#
#
#
# Elastic Compliance Matrix: (Units=1/GPa)
#
#
# Indices 1 2 3 4 5 6 
#
# 1 0.020802 -0.002001 -0.015612 0.000000 -0.010463 0.000000
# 2 -0.002001 0.008487 -0.002289 0.000000 -0.003048 0.000000
# 3 -0.015612 -0.002289 0.045571 0.000000 -0.009702 0.000000
# 4 0.000000 0.000000 0.000000 0.026409 0.000000 0.000291
# 5 -0.010463 -0.003048 -0.009702 0.000000 0.045489 0.000000
# 6 0.000000 0.000000 0.000000 0.000291 0.000000 0.033805
#
#
# Mechanical properties :
#
#
# Convention : Reuss Voigt Hill
#
# Bulk Modulus (GPa) = 28.52450 63.08085 45.80268
# Shear Modulus (GPa) = 21.54703 32.39224 26.96964
#
# Velocity S-wave (km/s) = 3.18873 3.90971 3.56748
# Velocity P-wave (km/s) = 5.19788 7.08158 6.21155
#
# Compressibility (1/GPa) = 0.03505758
#
# Stress axis : x y z
#
# Youngs Moduli (GPa) = 48.07320 117.82238 21.94399
#
# Poissons Ratio (x) = 0.23572 0.34258
# Poissons Ratio (y) = 0.09618 0.05022
# Poissons Ratio (z) = 0.75050 0.26967
#
# Static dielectric constant tensor:
#      x y z
#    x 4.197880 0.000000 0.265960 
#    y 0.000000 3.774070 0.000000 
#    z 0.265960 0.000000 4.071700 
# 
# 
# High freq. dielectric constant tensor:
#      x y z
#    x 1.837290 0.000000 0.002060 
#    y 0.000000 1.833890 0.000000 
#    z 0.002060 0.000000 1.816400 
# 
# From -- ./inp_files/24827.got.cif
#   From: 2010.03.12/outbox.cif.g09.slc.cpg/sg5_13_cif.got.tgz:24827.got - 2010.03.31 09:47:26.
