data_PCOD8049067
_publ_section_title
;
Structure prediction by ZEFSAII (Michael W. Deem and Ramdas Pophale) SiO2 
 PCOD8049067
Probable space group: C 2
;
_chemical_formula_sum "Si O2"
_cell_formula_units_Z 30
_cell_length_a 23.344593
_cell_length_b 12.904885
_cell_length_c 6.326463
_cell_angle_alpha 90.000000
_cell_angle_beta 130.700927
_cell_angle_gamma 90.000000
_cell_volume 1444.912474
_symmetry_space_group_name_H-M "C 2"
_symmetry_group_IT_number 5
_symmetry_cell_setting 'monoclinic'
loop_
_space_group_symop_operation_xyz
x,y,z
-x,y,-z
1/2+x,1/2+y,z
1/2-x,1/2+y,-z
loop_
_atom_site_type_symbol
_atom_site_label
_atom_site_fract_x
_atom_site_fract_y
_atom_site_fract_z
Si Si1 0.134031 0.921390 0.615004
Si Si2 0.500000 0.392015 0.000000
Si Si3 0.261489 0.564327 0.939607
Si Si4 0.068801 0.766861 0.796462
Si Si5 0.859022 0.558528 0.009064
Si Si6 0.725026 0.789368 0.210678
Si Si7 0.669507 0.909416 0.443129
Si Si8 0.418462 0.877211 0.377028
O O1 0.111175 0.842599 0.741310
O O2 0.205287 0.866348 0.671612
O O3 0.155049 0.029662 0.782274
O O4 0.064564 0.952941 0.289927
O O5 0.547353 0.323208 0.956941
O O6 0.218998 0.577710 0.058211
O O7 0.257351 0.668227 0.788048
O O8 0.229989 0.464657 0.739173
O O9 0.000000 0.718744 0.500000
O O10 0.116561 0.672098 0.997564
O O11 0.854804 0.493006 0.786832
O O12 0.916317 0.497996 0.302872
O O13 0.705994 0.809195 0.413190
O O14 0.650651 0.816149 0.897291
O O15 0.596535 0.872148 0.405599
O O16 0.500000 0.830646 0.500000
#
# Coordination Sequence:
#
# PCOD8049067 Si02
#       8
#     4   2   4   4   4   4   4   4
#     4  11  22  43  63  94 135 167 218 265 332 385
#     4  10  26  38  64  94 130 178 210 274 316 388
#     4  11  23  40  65  98 131 170 215 271 330 386
#     4  10  22  38  60  92 132 171 209 270 330 385
#     4  10  20  35  62  97 126 171 213 269 334 385
#     4  11  23  41  69  94 128 176 217 275 324 388
#     4  10  22  38  62 101 124 175 218 266 327 386
#     4  10  22  41  60  90 137 173 213 272 324 383
#
# _framework density 20.762502999999999
#
# number of rings (size 3 to 8) (size 9 to 14) (size 15 to 20)
#    0.000    1.600    5.333    0.400    3.733    5.333 
#    0.000    2.000    0.000    0.000    0.000    0.000 
#    0.000    0.000    0.000    0.000    0.000    0.000 
#
# Total GULP energy -185829.403553 kJ/mol
# GULP energy per Si atom -12388.626904 kJ/mol
# Density = 2.071525 g / cm^3
# Si number density = 20.762503 Si / 1000 Ang^3
#
#
#
# Elastic Constant Matrix: (Units=GPa)
#
#
# Indices 1 2 3 4 5 6 
#
# 1 145.3481 25.0104 51.6981 0.0000 -13.8278 0.0000
# 2 25.0104 68.1230 24.6204 0.0000 4.7299 0.0000
# 3 51.6981 24.6204 78.0389 0.0000 -1.7515 0.0000
# 4 0.0000 0.0000 0.0000 21.7359 0.0000 7.4775
# 5 -13.8278 4.7299 -1.7515 0.0000 39.9396 0.0000
# 6 0.0000 0.0000 0.0000 7.4775 0.0000 12.0110
#
#
#
# Elastic Compliance Matrix: (Units=1/GPa)
#
#
# Indices 1 2 3 4 5 6 
#
# 1 0.009499 -0.001652 -0.005699 0.000000 0.003235 0.000000
# 2 -0.001652 0.017050 -0.004347 0.000000 -0.002782 0.000000
# 3 -0.005699 -0.004347 0.017946 0.000000 -0.000671 0.000000
# 4 0.000000 0.000000 0.000000 0.058546 0.000000 -0.036448
# 5 0.003235 -0.002782 -0.000671 0.000000 0.026458 0.000000
# 6 0.000000 0.000000 0.000000 -0.036448 0.000000 0.105948
#
#
# Mechanical properties :
#
#
# Convention : Reuss Voigt Hill
#
# Bulk Modulus (GPa) = 47.39650 54.90753 51.15201
# Shear Modulus (GPa) = 18.80576 27.41604 23.11090
#
# Velocity S-wave (km/s) = 3.01284 3.63775 3.33995
# Velocity P-wave (km/s) = 5.91443 6.64434 6.28998
#
# Compressibility (1/GPa) = 0.02109860
#
# Stress axis : x y z
#
# Youngs Moduli (GPa) = 105.27316 58.65053 55.72339
#
# Poissons Ratio (x) = 0.09691 0.31756
# Poissons Ratio (y) = 0.17395 0.24222
# Poissons Ratio (z) = 0.59994 0.25495
#
# Static dielectric constant tensor:
#      x y z
#    x 4.072230 0.000000 -0.077870 
#    y 0.000000 3.621920 0.000000 
#    z -0.077870 0.000000 3.921040 
# 
# 
# High freq. dielectric constant tensor:
#      x y z
#    x 1.823810 0.000000 -0.009980 
#    y 0.000000 1.787820 0.000000 
#    z -0.009980 0.000000 1.814920 
# 
# From -- ./inp_files/10456.got.cif
#   From: 2010.03.12/outbox.cif.g09.slc.cpg/sg5_6_cif.got.tgz:10456.got - 2010.03.31 09:47:26.
