data_PCOD8049745
_publ_section_title
;
Structure prediction by ZEFSAII (Michael W. Deem and Ramdas Pophale) SiO2 
 PCOD8049745
Probable space group: C 2
;
_chemical_formula_sum "Si O2"
_cell_formula_units_Z 26
_cell_length_a 24.812246
_cell_length_b 6.068850
_cell_length_c 21.256164
_cell_angle_alpha 90.000000
_cell_angle_beta 23.249234
_cell_angle_gamma 90.000000
_cell_volume 1263.453431
_symmetry_space_group_name_H-M "C 2"
_symmetry_group_IT_number 5
_symmetry_cell_setting 'monoclinic'
loop_
_space_group_symop_operation_xyz
x,y,z
-x,y,-z
1/2+x,1/2+y,z
1/2-x,1/2+y,-z
loop_
_atom_site_type_symbol
_atom_site_label
_atom_site_fract_x
_atom_site_fract_y
_atom_site_fract_z
Si Si1 0.341798 0.002960 0.762474
Si Si2 0.500000 0.298614 0.500000
Si Si3 0.703051 0.239053 0.635483
Si Si4 0.906358 0.383402 0.321018
Si Si5 0.057761 0.988331 0.111416
Si Si6 0.947359 0.110350 0.445927
Si Si7 0.039713 0.749085 0.253411
O O1 0.389151 0.140682 0.651216
O O2 0.350764 0.154069 0.815226
O O3 0.426585 0.775957 0.677278
O O4 0.179250 0.965917 0.929994
O O5 0.425137 0.453706 0.529701
O O6 0.777405 0.253496 0.487431
O O7 0.585174 0.422853 0.769197
O O8 0.806939 0.245730 0.583492
O O9 0.629051 0.002707 0.707084
O O10 0.035192 0.229180 0.165675
O O11 0.939747 0.548288 0.343421
O O12 0.104131 0.825316 0.118233
O O13 0.965937 0.959805 0.364084
#
# Coordination Sequence:
#
# PCOD8049745 Si02
#       7
#     4   2   4   4   4   4   4
#     4  11  24  42  65  93 131 167 222 276 321 383
#     4  10  26  44  70  88 114 180 232 280 320 362
#     4  11  20  34  63  92 131 176 205 257 319 396
#     4  11  19  36  55  98 139 167 206 242 319 408
#     4  11  24  34  61  98 142 166 205 264 330 395
#     4  11  22  43  67  90 123 170 232 267 319 383
#     4  10  21  32  60  95 131 174 199 255 323 389
#
# _framework density 20.578517000000002
#
# number of rings (size 3 to 8) (size 9 to 14) (size 15 to 20)
#    0.000    1.231    4.615    1.385    4.308    3.692 
#    0.000    0.000    0.000   13.846    0.000    0.000 
#    0.000    0.000    0.000    0.000    0.000    0.000 
#
# Total GULP energy -161118.375893 kJ/mol
# GULP energy per Si atom -12393.721223 kJ/mol
# Density = 2.053168 g / cm^3
# Si number density = 20.578517 Si / 1000 Ang^3
#
#
#
# Elastic Constant Matrix: (Units=GPa)
#
#
# Indices 1 2 3 4 5 6 
#
# 1 74.8153 34.6573 56.4456 -0.1053 1.0364 0.0364
# 2 34.6573 110.5499 55.5309 -0.2377 -1.1250 0.0740
# 3 56.4456 55.5309 143.6826 -0.3458 -2.8718 0.0399
# 4 -0.1053 -0.2377 -0.3458 25.1054 0.1894 -1.8887
# 5 1.0364 -1.1250 -2.8718 0.1894 23.7807 0.0132
# 6 0.0364 0.0740 0.0399 -1.8887 0.0132 38.3587
#
#
#
# Elastic Compliance Matrix: (Units=1/GPa)
#
#
# Indices 1 2 3 4 5 6 
#
# 1 0.019766 -0.002850 -0.006700 -0.000023 -0.001805 -0.000007
# 2 -0.002850 0.011636 -0.003372 0.000049 0.000267 -0.000014
# 3 -0.006700 -0.003372 0.010924 0.000080 0.001451 0.000005
# 4 -0.000023 0.000049 0.000080 0.039984 -0.000307 0.001969
# 5 -0.001805 0.000267 0.001451 -0.000307 0.042320 -0.000030
# 6 -0.000007 -0.000014 0.000005 0.001969 -0.000030 0.026167
#
#
# Mechanical properties :
#
#
# Convention : Reuss Voigt Hill
#
# Bulk Modulus (GPa) = 60.66888 69.14618 64.90753
# Shear Modulus (GPa) = 27.45226 29.60988 28.53107
#
# Velocity S-wave (km/s) = 3.65639 3.79736 3.72755
# Velocity P-wave (km/s) = 6.88268 7.27329 7.08068
#
# Compressibility (1/GPa) = 0.01648292
#
# Stress axis : x y z
#
# Youngs Moduli (GPa) = 50.59152 85.94224 91.53907
#
# Poissons Ratio (x) = 0.24490 0.61331
# Poissons Ratio (y) = 0.14417 0.30868
# Poissons Ratio (z) = 0.33896 0.28980
#
# Static dielectric constant tensor:
#      x y z
#    x 3.511820 -0.000340 -0.117550 
#    y -0.000340 4.030850 0.000530 
#    z -0.117550 0.000530 3.448730 
# 
# 
# High freq. dielectric constant tensor:
#      x y z
#    x 1.777460 -0.000020 -0.017880 
#    y -0.000020 1.827200 0.000040 
#    z -0.017880 0.000040 1.778030 
# 
# From -- ./inp_files/31427.got.cif
#   From: 2010.03.12/outbox.cif.g09.slc.cpg/sg5_16_cif.got.tgz:31427.got - 2010.03.31 09:47:26.
