data_PCOD8049447
_publ_section_title
;
Structure prediction by ZEFSAII (Michael W. Deem and Ramdas Pophale) SiO2 
 PCOD8049447
Probable space group: C 2
;
_chemical_formula_sum "Si O2"
_cell_formula_units_Z 28
_cell_length_a 8.838244
_cell_length_b 12.591240
_cell_length_c 13.210692
_cell_angle_alpha 90.000000
_cell_angle_beta 117.694354
_cell_angle_gamma 90.000000
_cell_volume 1301.724003
_symmetry_space_group_name_H-M "C 2"
_symmetry_group_IT_number 5
_symmetry_cell_setting 'monoclinic'
loop_
_space_group_symop_operation_xyz
x,y,z
-x,y,-z
1/2+x,1/2+y,z
1/2-x,1/2+y,-z
loop_
_atom_site_type_symbol
_atom_site_label
_atom_site_fract_x
_atom_site_fract_y
_atom_site_fract_z
Si Si1 0.951771 0.428990 0.091031
Si Si2 0.397021 0.510402 0.061057
Si Si3 0.003066 0.113938 0.613292
Si Si4 0.638399 0.391330 0.458186
Si Si5 0.032071 0.336293 0.320619
Si Si6 0.650504 0.345007 0.241497
Si Si7 0.310092 0.119097 0.832814
O O1 0.049588 0.365408 0.208401
O O2 0.019782 0.550243 0.110127
O O3 0.746530 0.434496 0.036205
O O4 0.000000 0.372646 0.000000
O O5 0.522690 0.436921 0.166304
O O6 0.307647 0.599876 0.103144
O O7 0.500000 0.564416 0.000000
O O8 0.948531 0.208531 0.671204
O O9 0.000000 0.162091 0.500000
O O10 0.197060 0.080994 0.701660
O O11 0.880539 0.013192 0.583406
O O12 0.500000 0.358159 0.500000
O O13 0.825013 0.386730 0.564388
O O14 0.614205 0.319537 0.349740
O O15 0.848740 0.381027 0.300231
O O16 0.631834 0.241241 0.163938
#
# Coordination Sequence:
#
# PCOD8049447 Si02
#       7
#     4   4   4   4   4   4   4
#     4  10  22  40  67 100 137 182 232 292 344 408
#     4  11  22  42  68  99 139 180 236 282 346 409
#     4  10  20  39  66  96 127 179 226 278 350 419
#     4  11  23  41  70 100 138 176 232 297 351 420
#     4  11  22  40  67  99 135 184 232 284 358 416
#     4  11  23  44  70 100 133 188 228 294 352 418
#     4  10  22  43  70  97 136 180 235 285 353 412
#
# _framework density 21.509937000000001
#
# number of rings (size 3 to 8) (size 9 to 14) (size 15 to 20)
#    0.000    1.429    2.857    3.857    2.000    1.714 
#    0.000    8.571    0.000    0.857    0.000    0.000 
#    0.000    0.000    0.000    0.000    0.000    0.000 
#
# Total GULP energy -173512.462001 kJ/mol
# GULP energy per Si atom -12393.747286 kJ/mol
# Density = 2.146098 g / cm^3
# Si number density = 21.509937 Si / 1000 Ang^3
#
#
#
# Elastic Constant Matrix: (Units=GPa)
#
#
# Indices 1 2 3 4 5 6 
#
# 1 112.4037 36.6180 48.1780 0.0000 -5.7502 0.0000
# 2 36.6180 86.1512 38.7778 0.0000 -8.5041 0.0000
# 3 48.1780 38.7778 142.9034 0.0000 -8.2588 0.0000
# 4 0.0000 0.0000 0.0000 30.9355 0.0000 -1.8698
# 5 -5.7502 -8.5041 -8.2588 0.0000 55.2175 0.0000
# 6 0.0000 0.0000 0.0000 -1.8698 0.0000 27.0146
#
#
#
# Elastic Compliance Matrix: (Units=1/GPa)
#
#
# Indices 1 2 3 4 5 6 
#
# 1 0.011260 -0.003488 -0.002837 0.000000 0.000211 0.000000
# 2 -0.003488 0.014429 -0.002655 0.000000 0.001462 0.000000
# 3 -0.002837 -0.002655 0.008709 0.000000 0.000598 0.000000
# 4 0.000000 0.000000 0.000000 0.032461 0.000000 0.002247
# 5 0.000211 0.001462 0.000598 0.000000 0.018447 0.000000
# 6 0.000000 0.000000 0.000000 0.002247 0.000000 0.037173
#
#
# Mechanical properties :
#
#
# Convention : Reuss Voigt Hill
#
# Bulk Modulus (GPa) = 60.83587 65.40066 63.11827
# Shear Modulus (GPa) = 34.26558 37.15916 35.71237
#
# Velocity S-wave (km/s) = 3.99558 4.16087 4.07907
# Velocity P-wave (km/s) = 7.04488 7.31810 7.18279
#
# Compressibility (1/GPa) = 0.01643767
#
# Stress axis : x y z
#
# Youngs Moduli (GPa) = 88.81228 69.30285 114.81856
#
# Poissons Ratio (x) = 0.24172 0.32579
# Poissons Ratio (y) = 0.30977 0.30486
# Poissons Ratio (z) = 0.25200 0.18401
#
# Static dielectric constant tensor:
#      x y z
#    x 3.899920 0.000000 0.007310 
#    y 0.000000 3.533980 0.000000 
#    z 0.007310 0.000000 4.397960 
# 
# 
# High freq. dielectric constant tensor:
#      x y z
#    x 1.835550 0.000000 0.005560 
#    y 0.000000 1.813160 0.000000 
#    z 0.005560 0.000000 1.880890 
# 
# From -- ./inp_files/36490.got.cif
#   From: 2010.03.12/outbox.cif.g09.slc.cpg/sg5_19_cif.got.tgz:36490.got - 2010.03.31 09:47:26.
