data_PCOD8049655
_publ_section_title
;
Structure prediction by ZEFSAII (Michael W. Deem and Ramdas Pophale) SiO2 
 PCOD8049655
Probable space group: C 2
;
_chemical_formula_sum "Si O2"
_cell_formula_units_Z 26
_cell_length_a 13.289436
_cell_length_b 8.200572
_cell_length_c 20.048031
_cell_angle_alpha 90.000000
_cell_angle_beta 148.772066
_cell_angle_gamma 90.000000
_cell_volume 1132.724387
_symmetry_space_group_name_H-M "C 2"
_symmetry_group_IT_number 5
_symmetry_cell_setting 'monoclinic'
loop_
_space_group_symop_operation_xyz
x,y,z
-x,y,-z
1/2+x,1/2+y,z
1/2-x,1/2+y,-z
loop_
_atom_site_type_symbol
_atom_site_label
_atom_site_fract_x
_atom_site_fract_y
_atom_site_fract_z
Si Si1 0.500000 0.781821 0.000000
Si Si2 0.727584 0.857320 0.315482
Si Si3 0.364299 0.986901 0.040250
Si Si4 0.914163 0.987205 0.545566
Si Si5 0.281634 0.080236 0.250810
Si Si6 0.113523 0.736287 0.362164
Si Si7 0.019716 0.824681 0.157918
O O1 0.629544 0.896649 0.026992
O O2 0.366195 0.667610 0.881470
O O3 0.504586 0.900861 0.174220
O O4 0.777470 0.870692 0.421665
O O5 0.786498 0.677190 0.323888
O O6 0.863103 0.989495 0.353017
O O7 0.424967 0.174395 0.064169
O O8 0.139599 0.971028 0.935085
O O9 0.909299 0.912568 0.616988
O O10 0.833503 0.171174 0.496090
O O11 0.485467 0.095061 0.327139
O O12 0.211440 0.895984 0.228961
O O13 0.065319 0.756983 0.257366
#
# Coordination Sequence:
#
# PCOD8049655 Si02
#       7
#     2   4   4   4   4   4   4
#     4  10  20  42  66  94 142 176 228 290 344 420
#     4   9  20  42  66  89 134 182 223 288 353 402
#     4  11  22  42  66 101 138 182 229 291 353 422
#     4  10  22  41  67  93 136 180 230 288 346 412
#     4  10  23  41  66  95 136 182 230 288 350 415
#     4  11  24  45  66 103 137 180 240 287 346 430
#     4  12  25  43  70 103 141 187 231 291 362 421
#
# _framework density 22.953510999999999
#
# number of rings (size 3 to 8) (size 9 to 14) (size 15 to 20)
#    0.000    1.538    3.077    1.846    2.154    1.846 
#    0.000    0.000    0.000    0.000    0.000    0.000 
#    0.000    0.000    0.000    0.000    0.000    0.000 
#
# Total GULP energy -161150.228954 kJ/mol
# GULP energy per Si atom -12396.171458 kJ/mol
# Density = 2.290127 g / cm^3
# Si number density = 22.953511 Si / 1000 Ang^3
#
#
#
# Elastic Constant Matrix: (Units=GPa)
#
#
# Indices 1 2 3 4 5 6 
#
# 1 58.3399 18.1466 28.7966 0.0001 -9.0651 0.0000
# 2 18.1466 79.1524 2.8044 -0.0004 2.2347 -0.0001
# 3 28.7966 2.8044 55.0200 -0.0002 5.2711 -0.0001
# 4 0.0001 -0.0004 -0.0002 37.7959 0.0001 10.5479
# 5 -9.0651 2.2347 5.2711 0.0001 37.7874 0.0000
# 6 0.0000 -0.0001 -0.0001 10.5479 0.0000 25.8747
#
#
#
# Elastic Compliance Matrix: (Units=1/GPa)
#
#
# Indices 1 2 3 4 5 6 
#
# 1 0.027992 -0.006138 -0.015219 0.000000 0.009201 0.000000
# 2 -0.006138 0.014019 0.002755 0.000000 -0.002686 0.000000
# 3 -0.015219 0.002755 0.026723 0.000000 -0.007542 0.000000
# 4 0.000000 0.000000 0.000000 0.029854 0.000000 -0.012170
# 5 0.009201 -0.002686 -0.007542 0.000000 0.029882 0.000000
# 6 0.000000 0.000000 0.000000 -0.012170 0.000000 0.043609
#
#
# Mechanical properties :
#
#
# Convention : Reuss Voigt Hill
#
# Bulk Modulus (GPa) = 31.71566 32.44528 32.08047
# Shear Modulus (GPa) = 22.74858 29.80925 26.27891
#
# Velocity S-wave (km/s) = 3.15154 3.60763 3.38727
# Velocity P-wave (km/s) = 5.20484 5.61420 5.41339
#
# Compressibility (1/GPa) = 0.03153017
#
# Stress axis : x y z
#
# Youngs Moduli (GPa) = 35.72423 71.33026 37.42116
#
# Poissons Ratio (x) = 0.43783 0.56952
# Poissons Ratio (y) = 0.21928 -0.10311
# Poissons Ratio (z) = 0.54370 -0.19654
#
# Static dielectric constant tensor:
#      x y z
#    x 4.230840 0.000000 0.088400 
#    y 0.000000 3.903900 0.000000 
#    z 0.088400 0.000000 4.276270 
# 
# 
# High freq. dielectric constant tensor:
#      x y z
#    x 1.900570 0.000000 0.002940 
#    y 0.000000 1.884300 0.000000 
#    z 0.002940 0.000000 1.913880 
# 
# From -- ./inp_files/65917.got.cif
#   From: 2010.03.12/outbox.cif.g09.slc.cpg/sg5_33_cif.got.tgz:65917.got - 2010.03.31 09:47:26.
