data_PCOD8049615
_publ_section_title
;
Structure prediction by ZEFSAII (Michael W. Deem and Ramdas Pophale) SiO2 
 PCOD8049615
Probable space group: C 2
;
_chemical_formula_sum "Si O2"
_cell_formula_units_Z 20
_cell_length_a 17.751231
_cell_length_b 7.741765
_cell_length_c 8.202634
_cell_angle_alpha 90.000000
_cell_angle_beta 137.070243
_cell_angle_gamma 90.000000
_cell_volume 767.774100
_symmetry_space_group_name_H-M "C 2"
_symmetry_group_IT_number 5
_symmetry_cell_setting 'monoclinic'
loop_
_space_group_symop_operation_xyz
x,y,z
-x,y,-z
1/2+x,1/2+y,z
1/2-x,1/2+y,-z
loop_
_atom_site_type_symbol
_atom_site_label
_atom_site_fract_x
_atom_site_fract_y
_atom_site_fract_z
Si Si1 0.979939 0.925390 0.295890
Si Si2 0.621746 0.272088 0.273482
Si Si3 0.877287 0.411585 0.853968
Si Si4 0.390760 0.065760 0.231053
Si Si5 0.798724 0.060089 0.808500
O O1 0.895953 0.766064 0.190333
O O2 0.000000 0.020040 0.500000
O O3 0.096858 0.846034 0.415672
O O4 0.921771 0.062665 0.084355
O O5 0.709337 0.395447 0.323161
O O6 0.661049 0.070493 0.326604
O O7 0.500000 0.274465 0.000000
O O8 0.793061 0.244952 0.699639
O O9 0.872876 0.460202 0.036996
O O10 0.000000 0.351999 0.000000
O O11 0.500000 0.003921 0.500000
O O12 0.289508 0.036083 0.191018
#
# Coordination Sequence:
#
# PCOD8049615 Si02
#       5
#     4   4   4   4   4
#     4  10  20  41  70  92 131 170 204 269 332 373
#     4   9  18  39  65  92 128 168 200 265 328 372
#     4  11  20  38  68  90 123 171 212 258 324 380
#     4  11  23  41  61  91 132 170 213 265 318 370
#     4  11  22  39  67  95 122 171 217 257 317 389
#
# _framework density 26.049326000000001
#
# number of rings (size 3 to 8) (size 9 to 14) (size 15 to 20)
#    0.000    1.600    6.000    3.000    0.000    0.800 
#    0.000    6.000    0.000    0.000    0.000    0.000 
#    0.000    0.000    0.000    0.000    0.000    0.000 
#
# Total GULP energy -123983.451646 kJ/mol
# GULP energy per Si atom -12398.345165 kJ/mol
# Density = 2.599004 g / cm^3
# Si number density = 26.049326 Si / 1000 Ang^3
#
#
#
# Elastic Constant Matrix: (Units=GPa)
#
#
# Indices 1 2 3 4 5 6 
#
# 1 214.4321 66.9685 10.2578 0.0000 -6.0616 0.0000
# 2 66.9685 115.1023 22.5976 0.0000 5.9447 0.0000
# 3 10.2578 22.5976 35.2375 0.0000 -0.6686 0.0000
# 4 0.0000 0.0000 0.0000 52.4518 0.0000 -0.8426
# 5 -6.0616 5.9447 -0.6686 0.0000 34.3063 0.0000
# 6 0.0000 0.0000 0.0000 -0.8426 0.0000 42.3495
#
#
#
# Elastic Compliance Matrix: (Units=1/GPa)
#
#
# Indices 1 2 3 4 5 6 
#
# 1 0.005800 -0.003586 0.000643 0.000000 0.001659 0.000000
# 2 -0.003586 0.012275 -0.006883 0.000000 -0.002895 0.000000
# 3 0.000643 -0.006883 0.032643 0.000000 0.001943 0.000000
# 4 0.000000 0.000000 0.000000 0.019071 0.000000 0.000379
# 5 0.001659 -0.002895 0.001943 0.000000 0.029982 0.000000
# 6 0.000000 0.000000 0.000000 0.000379 0.000000 0.023621
#
#
# Mechanical properties :
#
#
# Convention : Reuss Voigt Hill
#
# Bulk Modulus (GPa) = 32.19061 62.71330 47.45195
# Shear Modulus (GPa) = 32.59487 43.48473 38.03980
#
# Velocity S-wave (km/s) = 3.54117 4.09017 3.82553
# Velocity P-wave (km/s) = 5.39484 6.81418 6.14562
#
# Compressibility (1/GPa) = 0.03106496
#
# Stress axis : x y z
#
# Youngs Moduli (GPa) = 172.42543 81.46460 30.63487
#
# Poissons Ratio (x) = 0.29215 -0.01970
# Poissons Ratio (y) = 0.61835 0.21086
# Poissons Ratio (z) = -0.11087 0.56072
#
# Static dielectric constant tensor:
#      x y z
#    x 5.065570 0.000000 -0.283160 
#    y 0.000000 4.766240 0.000000 
#    z -0.283160 0.000000 5.377980 
# 
# 
# High freq. dielectric constant tensor:
#      x y z
#    x 2.058770 0.000000 -0.007940 
#    y 0.000000 2.033830 0.000000 
#    z -0.007940 0.000000 2.065290 
# 
# From -- ./inp_files/26825.got.cif
#   From: 2010.03.12/outbox.cif.g09.slc.cpg/sg5_14_cif.got.tgz:26825.got - 2010.03.31 09:47:26.
