data_PCOD8049743
_publ_section_title
;
Structure prediction by ZEFSAII (Michael W. Deem and Ramdas Pophale) SiO2 
 PCOD8049743
Probable space group: C 2
;
_chemical_formula_sum "Si O2"
_cell_formula_units_Z 22
_cell_length_a 14.593922
_cell_length_b 14.173571
_cell_length_c 12.350583
_cell_angle_alpha 90.000000
_cell_angle_beta 30.482147
_cell_angle_gamma 90.000000
_cell_volume 1295.918895
_symmetry_space_group_name_H-M "C 2"
_symmetry_group_IT_number 5
_symmetry_cell_setting 'monoclinic'
loop_
_space_group_symop_operation_xyz
x,y,z
-x,y,-z
1/2+x,1/2+y,z
1/2-x,1/2+y,-z
loop_
_atom_site_type_symbol
_atom_site_label
_atom_site_fract_x
_atom_site_fract_y
_atom_site_fract_z
Si Si1 0.347739 0.939510 0.745090
Si Si2 0.657564 0.114022 0.098634
Si Si3 0.434271 0.752455 0.756347
Si Si4 0.333324 0.202998 0.322912
Si Si5 0.000000 0.854731 0.000000
Si Si6 0.816437 0.105241 0.719509
O O1 0.500000 0.935290 0.500000
O O2 0.391431 0.863535 0.795124
O O3 0.344287 0.042229 0.801410
O O4 0.156160 0.922280 0.884526
O O5 0.459742 0.160522 0.287973
O O6 0.806293 0.196435 0.972766
O O7 0.710785 0.060610 0.929975
O O8 0.644573 0.733833 0.569498
O O9 0.383881 0.710196 0.689104
O O10 0.432826 0.291797 0.168420
O O11 0.308425 0.120652 0.257921
O O12 0.000000 0.047286 0.500000
#
# Coordination Sequence:
#
# PCOD8049743 Si02
#       6
#     4   4   4   4   2   4
#     4  12  22  35  54  89 114 145 193 237 266 338
#     4  10  21  30  53  88 112 141 184 236 280 322
#     4   9  18  33  52  80 112 139 179 230 275 326
#     4  11  15  31  59  80 104 146 179 225 284 321
#     4  12  18  32  62  80 108 150 184 234 284 314
#     4   8  14  29  52  76 104 133 173 224 267 315
#
# _framework density 16.976371
#
# number of rings (size 3 to 8) (size 9 to 14) (size 15 to 20)
#    1.091    0.727    7.273    0.545    0.000    1.455 
#    0.000    0.000    0.000    1.091    9.455    0.000 
#    0.000    0.000    0.000    0.000    0.000    0.000 
#
# Total GULP energy -136269.875980 kJ/mol
# GULP energy per Si atom -12388.170544 kJ/mol
# Density = 1.693773 g / cm^3
# Si number density = 16.976371 Si / 1000 Ang^3
#
#
#
# Elastic Constant Matrix: (Units=GPa)
#
#
# Indices 1 2 3 4 5 6 
#
# 1 69.6169 43.3683 42.0774 -0.0055 -27.0112 0.0042
# 2 43.3683 83.8555 39.8901 -0.0053 -9.1348 0.0042
# 3 42.0774 39.8901 78.5293 -0.0028 -36.2755 0.0008
# 4 -0.0055 -0.0053 -0.0028 21.7826 0.0049 4.1070
# 5 -27.0112 -9.1348 -36.2755 0.0049 26.9798 -0.0043
# 6 0.0042 0.0042 0.0008 4.1070 -0.0043 30.3676
#
#
#
# Elastic Compliance Matrix: (Units=1/GPa)
#
#
# Indices 1 2 3 4 5 6 
#
# 1 0.037971 -0.019884 0.011099 -0.000005 0.046206 0.000004
# 2 -0.019884 0.028546 -0.022637 0.000010 -0.040679 -0.000008
# 3 0.011099 -0.022637 0.052463 -0.000015 0.073986 0.000013
# 4 -0.000005 0.000010 -0.000015 0.047109 -0.000032 -0.006371
# 5 0.046206 -0.040679 0.073986 -0.000032 0.169030 0.000025
# 6 0.000004 -0.000008 0.000013 -0.006371 0.000025 0.033792
#
#
# Mechanical properties :
#
#
# Convention : Reuss Voigt Hill
#
# Bulk Modulus (GPa) = 17.81406 53.63039 35.72222
# Shear Modulus (GPa) = 11.09962 22.93705 17.01834
#
# Velocity S-wave (km/s) = 2.55978 3.67974 3.16962
# Velocity P-wave (km/s) = 4.38781 7.05080 5.87225
#
# Compressibility (1/GPa) = 0.05613543
#
# Stress axis : x y z
#
# Youngs Moduli (GPa) = 26.33623 35.03100 19.06114
#
# Poissons Ratio (x) = 0.69656 -0.21157
# Poissons Ratio (y) = 0.52367 0.43149
# Poissons Ratio (z) = -0.29232 0.79301
#
# Static dielectric constant tensor:
#      x y z
#    x 2.841330 0.000000 -0.376970 
#    y 0.000000 2.768880 0.000000 
#    z -0.376970 0.000000 3.398020 
# 
# 
# High freq. dielectric constant tensor:
#      x y z
#    x 1.622450 0.000000 -0.036360 
#    y 0.000000 1.608170 0.000000 
#    z -0.036360 0.000000 1.665440 
# 
# From -- ./inp_files/42872.got.cif
#   From: 2010.03.12/outbox.cif.g09.slc.cpg/sg5_22_cif.got.tgz:42872.got - 2010.03.31 09:47:26.
