data_PCOD8049282
_publ_section_title
;
Structure prediction by ZEFSAII (Michael W. Deem and Ramdas Pophale) SiO2 
 PCOD8049282
Probable space group: C 2
;
_chemical_formula_sum "Si O2"
_cell_formula_units_Z 30
_cell_length_a 16.916951
_cell_length_b 5.896709
_cell_length_c 14.259837
_cell_angle_alpha 90.000000
_cell_angle_beta 97.681430
_cell_angle_gamma 90.000000
_cell_volume 1409.716064
_symmetry_space_group_name_H-M "C 2"
_symmetry_group_IT_number 5
_symmetry_cell_setting 'monoclinic'
loop_
_space_group_symop_operation_xyz
x,y,z
-x,y,-z
1/2+x,1/2+y,z
1/2-x,1/2+y,-z
loop_
_atom_site_type_symbol
_atom_site_label
_atom_site_fract_x
_atom_site_fract_y
_atom_site_fract_z
Si Si1 0.001373 0.482670 0.297291
Si Si2 0.000000 0.526265 0.000000
Si Si3 0.414587 0.714386 0.847101
Si Si4 0.854435 0.663051 0.593736
Si Si5 0.640684 0.657949 0.744884
Si Si6 0.219690 0.965032 0.265421
Si Si7 0.209616 0.841753 0.600824
Si Si8 0.957278 0.849538 0.151027
O O1 0.930131 0.311926 0.309368
O O2 0.964922 0.709285 0.247433
O O3 0.063731 0.362499 0.238614
O O4 0.056169 0.556713 0.393968
O O5 0.067855 0.369330 0.059209
O O6 0.945780 0.675306 0.062764
O O7 0.323020 0.632651 0.816898
O O8 0.463772 0.484164 0.863649
O O9 0.844242 0.814877 0.686629
O O10 0.845734 0.810670 0.498829
O O11 0.790197 0.462944 0.581453
O O12 0.718684 0.806582 0.782546
O O13 0.659352 0.486769 0.665336
O O14 0.614019 0.529137 0.837340
O O15 0.270706 0.101520 0.349705
#
# Coordination Sequence:
#
# PCOD8049282 Si02
#       8
#     4   2   4   4   4   4   4   4
#     4  10  20  39  64  93 124 171 213 267 312 383
#     4  10  22  36  70 110 120 154 216 280 312 390
#     4  10  20  37  68 103 119 159 222 264 321 377
#     4  11  21  37  67  90 131 172 229 262 307 370
#     4  10  24  39  63  95 133 174 209 260 334 374
#     4  11  21  39  64  98 125 177 215 268 315 379
#     4  11  22  39  62  97 130 174 218 272 308 372
#     4  10  20  41  63 101 126 161 211 267 320 388
#
# _framework density 21.280881999999998
#
# number of rings (size 3 to 8) (size 9 to 14) (size 15 to 20)
#    0.000    1.600    4.000    1.200    0.000    0.000 
#    0.000    4.000    2.933    0.000  156.000    0.000 
#    0.000    0.000    0.000    0.000    0.000    0.000 
#
# Total GULP energy -185941.681023 kJ/mol
# GULP energy per Si atom -12396.112068 kJ/mol
# Density = 2.123245 g / cm^3
# Si number density = 21.280882 Si / 1000 Ang^3
#
#
#
# Elastic Constant Matrix: (Units=GPa)
#
#
# Indices 1 2 3 4 5 6 
#
# 1 99.3807 40.0989 40.5791 0.0000 3.3112 0.0000
# 2 40.0989 103.1109 34.5114 0.0000 3.3230 0.0000
# 3 40.5791 34.5114 94.1810 0.0000 13.0530 0.0000
# 4 0.0000 0.0000 0.0000 35.8526 0.0000 1.0298
# 5 3.3112 3.3230 13.0530 0.0000 21.6894 0.0000
# 6 0.0000 0.0000 0.0000 1.0298 0.0000 34.4387
#
#
#
# Elastic Compliance Matrix: (Units=1/GPa)
#
#
# Indices 1 2 3 4 5 6 
#
# 1 0.013391 -0.003714 -0.004587 0.000000 0.001285 0.000000
# 2 -0.003714 0.012097 -0.002896 0.000000 0.000456 0.000000
# 3 -0.004587 -0.002896 0.014725 0.000000 -0.007718 0.000000
# 4 0.000000 0.000000 0.000000 0.027916 0.000000 -0.000835
# 5 0.001285 0.000456 -0.007718 0.000000 0.050484 0.000000
# 6 0.000000 0.000000 0.000000 -0.000835 0.000000 0.029062
#
#
# Mechanical properties :
#
#
# Convention : Reuss Voigt Hill
#
# Bulk Modulus (GPa) = 56.11743 58.56124 57.33934
# Shear Modulus (GPa) = 28.40779 30.49503 29.45141
#
# Velocity S-wave (km/s) = 3.65759 3.78958 3.72417
# Velocity P-wave (km/s) = 6.65315 6.83563 6.74501
#
# Compressibility (1/GPa) = 0.01781978
#
# Stress axis : x y z
#
# Youngs Moduli (GPa) = 74.67776 82.66429 67.91174
#
# Poissons Ratio (x) = 0.30700 0.31150
# Poissons Ratio (y) = 0.27734 0.19667
# Poissons Ratio (z) = 0.34254 0.23939
#
# Static dielectric constant tensor:
#      x y z
#    x 3.676300 0.000000 0.038500 
#    y 0.000000 4.244240 0.000000 
#    z 0.038500 0.000000 3.644330 
# 
# 
# High freq. dielectric constant tensor:
#      x y z
#    x 1.815430 0.000000 0.005830 
#    y 0.000000 1.863040 0.000000 
#    z 0.005830 0.000000 1.807110 
# 
# From -- ./inp_files/55489.got.cif
#   From: 2010.03.12/outbox.cif.g09.slc.cpg/sg5_28_cif.got.tgz:55489.got - 2010.03.31 09:47:26.
