data_PCOD8049722
_publ_section_title
;
Structure prediction by ZEFSAII (Michael W. Deem and Ramdas Pophale) SiO2 
 PCOD8049722
Probable space group: C 2
;
_chemical_formula_sum "Si O2"
_cell_formula_units_Z 20
_cell_length_a 14.380574
_cell_length_b 5.072063
_cell_length_c 17.415493
_cell_angle_alpha 90.000000
_cell_angle_beta 137.852047
_cell_angle_gamma 90.000000
_cell_volume 852.412507
_symmetry_space_group_name_H-M "C 2"
_symmetry_group_IT_number 5
_symmetry_cell_setting 'monoclinic'
loop_
_space_group_symop_operation_xyz
x,y,z
-x,y,-z
1/2+x,1/2+y,z
1/2-x,1/2+y,-z
loop_
_atom_site_type_symbol
_atom_site_label
_atom_site_fract_x
_atom_site_fract_y
_atom_site_fract_z
Si Si1 0.302992 0.516680 0.627553
Si Si2 0.275768 0.034976 0.141606
Si Si3 0.928015 0.903953 0.857290
Si Si4 0.574642 0.022193 0.373274
Si Si5 0.620423 0.901219 0.957327
O O1 0.307427 0.430014 0.719038
O O2 0.397779 0.315487 0.638767
O O3 0.144587 0.488835 0.499995
O O4 0.364091 0.809137 0.649554
O O5 0.408631 0.009114 0.277830
O O6 0.145880 0.896148 0.104812
O O7 0.300254 0.884278 0.075818
O O8 0.235033 0.341471 0.095033
O O9 0.025621 0.653535 0.907965
O O10 0.020682 0.154952 0.901650
#
# Coordination Sequence:
#
# PCOD8049722 Si02
#       5
#     4   4   4   4   4
#     4  10  20  44  70 104 140 176 229 297 351 405
#     4  12  27  46  74 101 140 195 234 282 356 421
#     4  12  26  47  72 102 143 184 235 294 345 418
#     4  10  22  41  74 101 139 183 226 291 355 414
#     4  12  28  46  66 104 145 184 235 293 340 416
#
# _framework density 23.462817999999999
#
# number of rings (size 3 to 8) (size 9 to 14) (size 15 to 20)
#    0.000    0.800    4.000    1.800    0.000   12.000 
#    0.000    0.000    0.000    9.600    0.000    0.000 
#    0.000    0.000    0.000    0.000    0.000    0.000 
#
# Total GULP energy -123941.090668 kJ/mol
# GULP energy per Si atom -12394.109067 kJ/mol
# Density = 2.340942 g / cm^3
# Si number density = 23.462818 Si / 1000 Ang^3
#
#
#
# Elastic Constant Matrix: (Units=GPa)
#
#
# Indices 1 2 3 4 5 6 
#
# 1 166.0364 50.2140 62.7776 0.0001 4.7683 0.0004
# 2 50.2140 139.4998 55.4154 0.0005 5.6515 0.0025
# 3 62.7776 55.4154 169.2924 0.0000 8.0243 -0.0002
# 4 0.0001 0.0005 0.0000 37.9065 -0.0001 7.0270
# 5 4.7683 5.6515 8.0243 -0.0001 41.6022 0.0000
# 6 0.0004 0.0025 -0.0002 7.0270 0.0000 16.6192
#
#
#
# Elastic Compliance Matrix: (Units=1/GPa)
#
#
# Indices 1 2 3 4 5 6 
#
# 1 0.007381 -0.001800 -0.002139 0.000000 -0.000189 0.000000
# 2 -0.001800 0.008694 -0.002152 0.000000 -0.000560 -0.000001
# 3 -0.002139 -0.002152 0.007447 0.000000 -0.000899 0.000000
# 4 0.000000 0.000000 0.000000 0.028624 0.000000 -0.012103
# 5 -0.000189 -0.000560 -0.000899 0.000000 0.024308 0.000000
# 6 0.000000 -0.000001 0.000000 -0.012103 0.000000 0.065289
#
#
# Mechanical properties :
#
#
# Convention : Reuss Voigt Hill
#
# Bulk Modulus (GPa) = 88.17576 90.18252 89.17914
# Shear Modulus (GPa) = 31.70478 39.65369 35.67924
#
# Velocity S-wave (km/s) = 3.67996 4.11550 3.90381
# Velocity P-wave (km/s) = 7.46450 7.81684 7.64270
#
# Compressibility (1/GPa) = 0.01134099
#
# Stress axis : x y z
#
# Youngs Moduli (GPa) = 135.47890 115.02533 134.27871
#
# Poissons Ratio (x) = 0.20699 0.28724
# Poissons Ratio (y) = 0.24380 0.28896
# Poissons Ratio (z) = 0.28981 0.24753
#
# Static dielectric constant tensor:
#      x y z
#    x 4.066070 0.000000 -0.142520 
#    y 0.000000 4.148250 -0.000010 
#    z -0.142520 -0.000010 5.195810 
# 
# 
# High freq. dielectric constant tensor:
#      x y z
#    x 1.900310 0.000000 0.004160 
#    y 0.000000 1.941200 0.000000 
#    z 0.004160 0.000000 1.958040 
# 
# From -- ./inp_files/60096.got.cif
#   From: 2010.03.12/outbox.cif.g09.slc.cpg/sg5_31_cif.got.tgz:60096.got - 2010.03.31 09:47:26.
