data_PCOD8049756
_publ_section_title
;
Structure prediction by ZEFSAII (Michael W. Deem and Ramdas Pophale) SiO2 
 PCOD8049756
Probable space group: C 2
;
_chemical_formula_sum "Si O2"
_cell_formula_units_Z 32
_cell_length_a 22.338610
_cell_length_b 9.140007
_cell_length_c 27.900155
_cell_angle_alpha 90.000000
_cell_angle_beta 18.179347
_cell_angle_gamma 90.000000
_cell_volume 1777.269962
_symmetry_space_group_name_H-M "C 2"
_symmetry_group_IT_number 5
_symmetry_cell_setting 'monoclinic'
loop_
_space_group_symop_operation_xyz
x,y,z
-x,y,-z
1/2+x,1/2+y,z
1/2-x,1/2+y,-z
loop_
_atom_site_type_symbol
_atom_site_label
_atom_site_fract_x
_atom_site_fract_y
_atom_site_fract_z
Si Si1 0.991964 0.526630 0.583875
Si Si2 0.688966 0.526645 0.735293
Si Si3 0.780719 0.532881 0.029483
Si Si4 0.459750 0.533151 0.350467
Si Si5 0.688783 0.751334 0.235424
Si Si6 0.508109 0.251283 0.916068
Si Si7 0.459574 0.744605 0.850578
Si Si8 0.280457 0.244920 0.529668
O O1 0.806942 0.570078 0.693098
O O2 0.947876 0.389075 0.651151
O O3 0.170481 0.481370 0.414790
O O4 0.044504 0.665508 0.576289
O O5 0.552180 0.388955 0.848852
O O6 0.561382 0.665407 0.817937
O O7 0.614016 0.488289 0.193106
O O8 0.700183 0.638533 0.049792
O O9 0.955852 0.612380 0.923395
O O10 0.857551 0.388411 0.946569
O O11 0.561137 0.612517 0.318180
O O12 0.357884 0.389168 0.446259
O O13 0.299972 0.639148 0.450076
O O14 0.806875 0.707975 0.193132
O O15 0.829342 0.796330 0.085298
O O16 0.613616 0.789670 0.693340
#
# Coordination Sequence:
#
# PCOD8049756 Si02
#       8
#     4   4   4   4   4   4   4   4
#     4   9  18  33  52  74 100 129 162 200 241 287
#     4   9  18  33  52  74 100 129 162 200 241 287
#     4  10  21  35  51  73 100 129 163 203 244 288
#     4  10  21  35  51  73 100 129 163 203 244 288
#     4   9  18  33  52  74 100 129 162 200 241 287
#     4   9  18  33  52  74 100 129 162 200 241 287
#     4  10  21  35  51  73 100 129 163 203 244 288
#     4  10  21  35  51  73 100 129 163 203 244 288
#
# _framework density 18.005144000000001
#
# number of rings (size 3 to 8) (size 9 to 14) (size 15 to 20)
#    0.000    2.500    0.000    1.500    0.000    4.000 
#    0.000    0.000    0.000    0.000    0.000    0.000 
#    0.000    0.000    0.000    0.000    0.000    0.000 
#
# Total GULP energy -198455.225769 kJ/mol
# GULP energy per Si atom -12403.451611 kJ/mol
# Density = 1.796416 g / cm^3
# Si number density = 18.005144 Si / 1000 Ang^3
#
#
#
# Elastic Constant Matrix: (Units=GPa)
#
#
# Indices 1 2 3 4 5 6 
#
# 1 100.5627 84.1056 58.4740 -0.0108 -7.0186 0.0003
# 2 84.1056 165.2650 90.4289 0.0798 4.6666 -0.0263
# 3 58.4740 90.4289 84.4007 0.2659 -3.5847 0.1058
# 4 -0.0108 0.0798 0.2659 38.7680 0.0354 7.6612
# 5 -7.0186 4.6666 -3.5847 0.0354 18.5346 0.0851
# 6 0.0003 -0.0263 0.1058 7.6612 0.0851 27.6468
#
#
#
# Elastic Compliance Matrix: (Units=1/GPa)
#
#
# Indices 1 2 3 4 5 6 
#
# 1 0.019872 -0.007263 -0.005634 0.000057 0.008264 -0.000027
# 2 -0.007263 0.018174 -0.014873 0.000054 -0.010203 0.000091
# 3 -0.005634 -0.014873 0.032020 -0.000176 0.007805 -0.000112
# 4 0.000057 0.000054 -0.000176 0.027290 -0.000043 -0.007561
# 5 0.008264 -0.010203 0.007805 -0.000043 0.061162 -0.000216
# 6 -0.000027 0.000091 -0.000112 -0.007561 -0.000216 0.038267
#
#
# Mechanical properties :
#
#
# Convention : Reuss Voigt Hill
#
# Bulk Modulus (GPa) = 68.85635 90.69390 79.77513
# Shear Modulus (GPa) = 19.44261 24.80454 22.12358
#
# Velocity S-wave (km/s) = 3.28965 3.71568 3.50914
# Velocity P-wave (km/s) = 7.26324 8.29993 7.79883
#
# Compressibility (1/GPa) = 0.01452299
#
# Stress axis : x y z
#
# Youngs Moduli (GPa) = 50.32252 55.02479 31.23095
#
# Poissons Ratio (x) = 0.39967 0.17597
# Poissons Ratio (y) = 0.36551 0.46450
# Poissons Ratio (z) = 0.28354 0.81839
#
# Static dielectric constant tensor:
#      x y z
#    x 3.549100 0.000000 -0.117900 
#    y 0.000000 3.121950 0.000230 
#    z -0.117900 0.000230 3.379030 
# 
# 
# High freq. dielectric constant tensor:
#      x y z
#    x 1.711740 0.000000 -0.008140 
#    y 0.000000 1.686340 0.000020 
#    z -0.008140 0.000020 1.699980 
# 
# From -- ./inp_files/21977.got.cif
#   From: 2010.03.12/outbox.cif.g09.slc.cpg/sg5_11_cif.got.tgz:21977.got - 2010.03.31 09:47:26.
