data_PCOD8049442
_publ_section_title
;
Structure prediction by ZEFSAII (Michael W. Deem and Ramdas Pophale) SiO2 
 PCOD8049442
Probable space group: C 2
;
_chemical_formula_sum "Si O2"
_cell_formula_units_Z 24
_cell_length_a 11.185563
_cell_length_b 14.252486
_cell_length_c 12.813899
_cell_angle_alpha 90.000000
_cell_angle_beta 145.949117
_cell_angle_gamma 90.000000
_cell_volume 1143.833141
_symmetry_space_group_name_H-M "C 2"
_symmetry_group_IT_number 5
_symmetry_cell_setting 'monoclinic'
loop_
_space_group_symop_operation_xyz
x,y,z
-x,y,-z
1/2+x,1/2+y,z
1/2-x,1/2+y,-z
loop_
_atom_site_type_symbol
_atom_site_label
_atom_site_fract_x
_atom_site_fract_y
_atom_site_fract_z
Si Si1 0.986328 0.380330 0.609470
Si Si2 0.187318 0.882545 0.988453
Si Si3 0.448272 0.087990 0.287256
Si Si4 0.537076 0.007544 0.145245
Si Si5 0.936834 0.790679 0.634567
Si Si6 0.000000 0.926496 0.500000
Si Si7 0.000000 0.023225 0.000000
O O1 0.807838 0.317427 0.533056
O O2 0.000000 0.352766 0.500000
O O3 0.938726 0.492220 0.589792
O O4 0.206313 0.349126 0.825249
O O5 0.062444 0.802094 0.835574
O O6 0.382828 0.919030 0.057398
O O7 0.019011 0.962359 0.905710
O O8 0.555588 0.184193 0.403168
O O9 0.207279 0.089013 0.157269
O O10 0.460974 0.088934 0.169906
O O11 0.786303 0.988816 0.352017
O O12 0.500000 0.041303 0.000000
O O13 0.044268 0.861520 0.631656
#
# Coordination Sequence:
#
# PCOD8049442 Si02
#       7
#     4   4   4   4   4   2   2
#     4  10  22  45  63  88 130 169 214 255 311 377
#     4  10  20  39  66  88 119 169 207 254 320 365
#     4  10  23  40  64  99 124 165 215 259 317 369
#     4  10  20  42  63  86 124 170 205 254 321 373
#     4  12  23  40  64  96 127 164 214 261 313 374
#     4  12  22  38  66  88 124 170 210 260 314 366
#     4   8  18  42  64  90 118 166 212 254 314 364
#
# _framework density 20.982081000000001
#
# number of rings (size 3 to 8) (size 9 to 14) (size 15 to 20)
#    0.000    2.000    5.000    2.000    1.167    1.333 
#    6.000    3.333    0.000    0.000    0.000    0.000 
#    0.000    0.000    0.000    0.000    0.000    0.000 
#
# Total GULP energy -148686.286151 kJ/mol
# GULP energy per Si atom -12390.523846 kJ/mol
# Density = 2.093433 g / cm^3
# Si number density = 20.982081 Si / 1000 Ang^3
#
#
#
# Elastic Constant Matrix: (Units=GPa)
#
#
# Indices 1 2 3 4 5 6 
#
# 1 114.0567 11.6177 39.8369 0.0105 8.0799 0.0012
# 2 11.6177 79.6257 41.5560 0.0258 25.0696 0.0109
# 3 39.8369 41.5560 105.3660 0.0510 3.6986 0.0335
# 4 0.0105 0.0258 0.0510 27.3512 0.0212 4.7421
# 5 8.0799 25.0696 3.6986 0.0212 45.6258 0.0115
# 6 0.0012 0.0109 0.0335 4.7421 0.0115 5.6637
#
#
#
# Elastic Compliance Matrix: (Units=1/GPa)
#
#
# Indices 1 2 3 4 5 6 
#
# 1 0.010321 0.001531 -0.004425 0.000000 -0.002310 0.000026
# 2 0.001531 0.019841 -0.008035 -0.000002 -0.010522 0.000032
# 3 -0.004425 -0.008035 0.014190 -0.000008 0.004048 -0.000069
# 4 0.000000 -0.000002 -0.000008 0.042770 -0.000009 -0.035811
# 5 -0.002310 -0.010522 0.004048 -0.000009 0.027780 -0.000052
# 6 0.000026 0.000032 -0.000069 -0.035811 -0.000052 0.206545
#
#
# Mechanical properties :
#
#
# Convention : Reuss Voigt Hill
#
# Bulk Modulus (GPa) = 44.45429 53.89664 49.17546
# Shear Modulus (GPa) = 14.25297 29.46399 21.85848
#
# Velocity S-wave (km/s) = 2.60915 3.75139 3.23115
# Velocity P-wave (km/s) = 5.50542 6.67133 6.11622
#
# Compressibility (1/GPa) = 0.02249502
#
# Stress axis : x y z
#
# Youngs Moduli (GPa) = 96.89237 50.39955 70.46997
#
# Poissons Ratio (x) = -0.07715 0.31181
# Poissons Ratio (y) = -0.14831 0.56621
# Poissons Ratio (z) = 0.42872 0.40495
#
# Static dielectric constant tensor:
#      x y z
#    x 4.255430 -0.000040 0.009470 
#    y -0.000040 3.323980 -0.000010 
#    z 0.009470 -0.000010 3.737150 
# 
# 
# High freq. dielectric constant tensor:
#      x y z
#    x 1.845400 0.000000 0.006350 
#    y 0.000000 1.773810 0.000000 
#    z 0.006350 0.000000 1.818190 
# 
# From -- ./inp_files/53113.got.cif
#   From: 2010.03.12/outbox.cif.g09.slc.cpg/sg5_27_cif.got.tgz:53113.got - 2010.03.31 09:47:26.
