data_PCOD8049646
_publ_section_title
;
Structure prediction by ZEFSAII (Michael W. Deem and Ramdas Pophale) SiO2 
 PCOD8049646
Probable space group: C 2
;
_chemical_formula_sum "Si O2"
_cell_formula_units_Z 24
_cell_length_a 27.502364
_cell_length_b 9.446778
_cell_length_c 8.207674
_cell_angle_alpha 90.000000
_cell_angle_beta 30.846999
_cell_angle_gamma 90.000000
_cell_volume 1093.395304
_symmetry_space_group_name_H-M "C 2"
_symmetry_group_IT_number 5
_symmetry_cell_setting 'monoclinic'
loop_
_space_group_symop_operation_xyz
x,y,z
-x,y,-z
1/2+x,1/2+y,z
1/2-x,1/2+y,-z
loop_
_atom_site_type_symbol
_atom_site_label
_atom_site_fract_x
_atom_site_fract_y
_atom_site_fract_z
Si Si1 0.028653 0.775820 0.729550
Si Si2 0.839494 0.650361 0.262307
Si Si3 0.869746 0.026748 0.640968
Si Si4 0.333250 0.042624 0.623313
Si Si5 0.911618 0.328587 0.635823
Si Si6 0.760453 0.923163 0.658718
O O1 0.131655 0.698845 0.424930
O O2 0.045802 0.914054 0.566854
O O3 0.000000 0.806525 0.000000
O O4 0.945438 0.680542 0.889995
O O5 0.843562 0.538369 0.399372
O O6 0.796038 0.805900 0.427609
O O7 0.781019 0.568184 0.295049
O O8 0.918612 0.176321 0.530543
O O9 0.844933 0.987948 0.524694
O O10 0.775436 0.011461 0.020211
O O11 0.406464 0.935446 0.498509
O O12 0.000000 0.358006 0.500000
O O13 0.816780 0.340325 0.013450
#
# Coordination Sequence:
#
# PCOD8049646 Si02
#       6
#     4   4   4   4   4   4
#     4  10  20  42  65  97 130 178 223 281 337 407
#     4  11  23  43  70 101 142 176 238 287 350 417
#     4  11  21  43  68  92 138 177 227 279 339 412
#     4  10  20  42  70  92 136 183 223 278 344 407
#     4  11  24  42  62 100 134 178 232 283 338 406
#     4  11  24  43  67 101 135 183 231 284 350 412
#
# _framework density 21.949974999999998
#
# number of rings (size 3 to 8) (size 9 to 14) (size 15 to 20)
#    0.000    1.333    5.000    2.000    2.333    1.333 
#    0.000    3.333    0.000    0.000    0.000    0.000 
#    0.000    0.000    0.000    0.000    0.000    0.000 
#
# Total GULP energy -148694.447625 kJ/mol
# GULP energy per Si atom -12391.203969 kJ/mol
# Density = 2.190002 g / cm^3
# Si number density = 21.949975 Si / 1000 Ang^3
#
#
#
# Elastic Constant Matrix: (Units=GPa)
#
#
# Indices 1 2 3 4 5 6 
#
# 1 68.4812 36.4933 12.3513 0.0000 -8.3413 0.0000
# 2 36.4933 110.5307 38.9835 0.0000 10.0516 0.0000
# 3 12.3513 38.9835 92.8740 0.0000 -9.8394 0.0000
# 4 0.0000 0.0000 0.0000 49.1626 0.0000 0.2380
# 5 -8.3413 10.0516 -9.8394 0.0000 20.4817 0.0000
# 6 0.0000 0.0000 0.0000 0.2380 0.0000 44.5285
#
#
#
# Elastic Compliance Matrix: (Units=1/GPa)
#
#
# Indices 1 2 3 4 5 6 
#
# 1 0.020639 -0.008972 0.002506 0.000000 0.014012 0.000000
# 2 -0.008972 0.015831 -0.007019 0.000000 -0.014795 0.000000
# 3 0.002506 -0.007019 0.014596 0.000000 0.011477 0.000000
# 4 0.000000 0.000000 0.000000 0.020341 0.000000 -0.000109
# 5 0.014012 -0.014795 0.011477 0.000000 0.067305 0.000000
# 6 0.000000 0.000000 0.000000 -0.000109 0.000000 0.022458
#
#
# Mechanical properties :
#
#
# Convention : Reuss Voigt Hill
#
# Bulk Modulus (GPa) = 41.50321 49.72689 45.61505
# Shear Modulus (GPa) = 25.48790 35.10507 30.29649
#
# Velocity S-wave (km/s) = 3.41131 4.00349 3.71920
# Velocity P-wave (km/s) = 5.87070 6.63886 6.26656
#
# Compressibility (1/GPa) = 0.02409452
#
# Stress axis : x y z
#
# Youngs Moduli (GPa) = 48.45303 63.16907 68.51114
#
# Poissons Ratio (x) = 0.56676 -0.17167
# Poissons Ratio (y) = 0.43473 0.48088
# Poissons Ratio (z) = -0.12141 0.44338
#
# Static dielectric constant tensor:
#      x y z
#    x 3.978950 0.000000 -0.167490 
#    y 0.000000 4.071010 0.000000 
#    z -0.167490 0.000000 3.912200 
# 
# 
# High freq. dielectric constant tensor:
#      x y z
#    x 1.850840 0.000000 -0.016780 
#    y 0.000000 1.871710 0.000000 
#    z -0.016780 0.000000 1.858850 
# 
# From -- ./inp_files/32453.got.cif
#   From: 2010.03.12/outbox.cif.g09.slc.cpg/sg5_17_cif.got.tgz:32453.got - 2010.03.31 09:47:26.
