data_PCOD8049594
_publ_section_title
;
Structure prediction by ZEFSAII (Michael W. Deem and Ramdas Pophale) SiO2 
 PCOD8049594
Probable space group: C 2
;
_chemical_formula_sum "Si O2"
_cell_formula_units_Z 22
_cell_length_a 20.741210
_cell_length_b 7.736549
_cell_length_c 9.821424
_cell_angle_alpha 90.000000
_cell_angle_beta 143.273923
_cell_angle_gamma 90.000000
_cell_volume 942.431402
_symmetry_space_group_name_H-M "C 2"
_symmetry_group_IT_number 5
_symmetry_cell_setting 'monoclinic'
loop_
_space_group_symop_operation_xyz
x,y,z
-x,y,-z
1/2+x,1/2+y,z
1/2-x,1/2+y,-z
loop_
_atom_site_type_symbol
_atom_site_label
_atom_site_fract_x
_atom_site_fract_y
_atom_site_fract_z
Si Si1 0.500000 0.092450 0.000000
Si Si2 0.280479 0.261992 0.979801
Si Si3 0.199894 0.360899 0.330371
Si Si4 0.773916 0.508598 0.342301
Si Si5 0.661734 0.459698 0.670126
Si Si6 0.485875 0.206822 0.687473
O O1 0.527231 0.220607 0.170761
O O2 0.592391 0.961946 0.109634
O O3 0.286513 0.426210 0.888995
O O4 0.174991 0.147499 0.762427
O O5 0.272457 0.324317 0.121769
O O6 0.392926 0.154316 0.150595
O O7 0.218167 0.366207 0.524063
O O8 0.201623 0.163859 0.280878
O O9 0.290567 0.463967 0.400412
O O10 0.893109 0.567434 0.491178
O O11 0.540000 0.388379 0.436832
#
# Coordination Sequence:
#
# PCOD8049594 Si02
#       6
#     2   4   4   4   4   4
#     4  10  20  42  70 100 136 178 218 274 342 382
#     4  12  24  46  67  94 137 180 218 281 332 397
#     4  10  20  41  64  98 132 171 220 275 325 396
#     4  10  23  42  68  97 134 173 224 274 336 390
#     4  11  23  40  69  95 132 176 225 268 334 392
#     4  10  23  43  67  97 133 175 216 275 330 398
#
# _framework density 23.343872999999999
#
# number of rings (size 3 to 8) (size 9 to 14) (size 15 to 20)
#    0.000    1.455    1.818    3.818    5.091    0.000 
#   13.091    1.818    0.000    0.000    0.000    0.000 
#    0.000    0.000    0.000    0.000    0.000    0.000 
#
# Total GULP energy -136271.124130 kJ/mol
# GULP energy per Si atom -12388.284012 kJ/mol
# Density = 2.329074 g / cm^3
# Si number density = 23.343873 Si / 1000 Ang^3
#
#
#
# Elastic Constant Matrix: (Units=GPa)
#
#
# Indices 1 2 3 4 5 6 
#
# 1 60.4983 5.3904 18.9487 0.0000 -4.5078 0.0000
# 2 5.3904 89.4681 31.0644 0.0000 -2.9141 0.0000
# 3 18.9487 31.0644 101.9801 0.0000 -8.8094 0.0000
# 4 0.0000 0.0000 0.0000 40.6349 0.0000 -13.6113
# 5 -4.5078 -2.9141 -8.8094 0.0000 25.8401 0.0000
# 6 0.0000 0.0000 0.0000 -13.6113 0.0000 30.4399
#
#
#
# Elastic Compliance Matrix: (Units=1/GPa)
#
#
# Indices 1 2 3 4 5 6 
#
# 1 0.017653 0.000090 -0.003133 0.000000 0.002022 0.000000
# 2 0.000090 0.012500 -0.003814 0.000000 0.000125 0.000000
# 3 -0.003133 -0.003814 0.011813 0.000000 0.003051 0.000000
# 4 0.000000 0.000000 0.000000 0.028945 0.000000 0.012943
# 5 0.002022 0.000125 0.003051 0.000000 0.040106 0.000000
# 6 0.000000 0.000000 0.000000 0.012943 0.000000 0.038639
#
#
# Mechanical properties :
#
#
# Convention : Reuss Voigt Hill
#
# Bulk Modulus (GPa) = 35.39381 40.30594 37.84987
# Shear Modulus (GPa) = 28.93734 32.48585 30.71160
#
# Velocity S-wave (km/s) = 3.52463 3.73449 3.63108
# Velocity P-wave (km/s) = 5.63550 5.99157 5.81626
#
# Compressibility (1/GPa) = 0.02825353
#
# Stress axis : x y z
#
# Youngs Moduli (GPa) = 56.64675 80.00047 84.65151
#
# Poissons Ratio (x) = -0.00720 0.26520
# Poissons Ratio (y) = -0.00510 0.32282
# Poissons Ratio (z) = 0.17747 0.30509
#
# Static dielectric constant tensor:
#      x y z
#    x 4.242590 0.000000 -0.149730 
#    y 0.000000 4.037650 0.000000 
#    z -0.149730 0.000000 4.465960 
# 
# 
# High freq. dielectric constant tensor:
#      x y z
#    x 1.922110 0.000000 -0.025220 
#    y 0.000000 1.898570 0.000000 
#    z -0.025220 0.000000 1.930710 
# 
# From -- ./inp_files/22796.got.cif
#   From: 2010.03.12/outbox.cif.g09.slc.cpg/sg5_12_cif.got.tgz:22796.got - 2010.03.31 09:47:26.
