data_PCOD8049871
_publ_section_title
;
Structure prediction by ZEFSAII (Michael W. Deem and Ramdas Pophale) SiO2 
 PCOD8049871
Probable space group: C 2
;
_chemical_formula_sum "Si O2"
_cell_formula_units_Z 28
_cell_length_a 14.913725
_cell_length_b 8.457453
_cell_length_c 22.040924
_cell_angle_alpha 90.000000
_cell_angle_beta 29.708841
_cell_angle_gamma 90.000000
_cell_volume 1377.781720
_symmetry_space_group_name_H-M "C 2"
_symmetry_group_IT_number 5
_symmetry_cell_setting 'monoclinic'
loop_
_space_group_symop_operation_xyz
x,y,z
-x,y,-z
1/2+x,1/2+y,z
1/2-x,1/2+y,-z
loop_
_atom_site_type_symbol
_atom_site_label
_atom_site_fract_x
_atom_site_fract_y
_atom_site_fract_z
Si Si1 0.587025 0.543950 0.809433
Si Si2 0.306977 0.047016 0.908029
Si Si3 0.619688 0.539049 0.281778
Si Si4 0.852157 0.396083 0.245337
Si Si5 0.695888 0.353392 0.860578
Si Si6 0.471391 0.330394 0.264656
Si Si7 0.849414 0.103529 0.543061
O O1 0.684978 0.712579 0.746069
O O2 0.685947 0.435322 0.800842
O O3 0.606496 0.465559 0.732692
O O4 0.377996 0.567211 0.947852
O O5 0.396449 0.219251 0.851907
O O6 0.435272 0.928902 0.870419
O O7 0.279403 0.981888 0.856617
O O8 0.790680 0.492673 0.222316
O O9 0.668922 0.704995 0.221271
O O10 0.584101 0.405191 0.253063
O O11 0.438666 0.548739 0.428082
O O12 0.741311 0.452835 0.369900
O O13 0.500000 0.297313 0.000000
O O14 0.299356 0.231517 0.388836
O O15 0.000000 0.178156 0.500000
#
# Coordination Sequence:
#
# PCOD8049871 Si02
#       7
#     4   4   4   4   4   4   4
#     4  11  21  37  59  87 118 154 190 233 285 338
#     4  10  21  38  58  86 120 151 190 237 281 336
#     4  11  23  40  60  85 116 152 190 236 287 338
#     4  10  21  38  60  84 116 153 192 236 282 335
#     4  10  22  38  60  87 117 151 191 234 284 340
#     4  11  23  37  60  88 114 152 192 232 287 341
#     4   9  21  42  59  79 114 151 193 242 282 332
#
# _framework density 20.322521999999999
#
# number of rings (size 3 to 8) (size 9 to 14) (size 15 to 20)
#    0.000    1.714    0.000    5.143    0.000    8.000 
#    0.000    7.857    0.000    0.000    0.000    0.000 
#    0.000    0.000    0.000    0.000    0.000    0.000 
#
# Total GULP energy -173665.520662 kJ/mol
# GULP energy per Si atom -12404.680047 kJ/mol
# Density = 2.027627 g / cm^3
# Si number density = 20.322522 Si / 1000 Ang^3
#
#
#
# Elastic Constant Matrix: (Units=GPa)
#
#
# Indices 1 2 3 4 5 6 
#
# 1 82.2198 15.6928 20.1896 0.0006 -0.9892 -0.0001
# 2 15.6928 102.2328 32.1443 0.0007 2.0064 0.0000
# 3 20.1896 32.1443 65.7502 0.0010 -1.9657 -0.0002
# 4 0.0006 0.0007 0.0010 17.4957 -0.0001 -1.3165
# 5 -0.9892 2.0064 -1.9657 -0.0001 32.0471 0.0002
# 6 -0.0001 0.0000 -0.0002 -1.3165 0.0002 40.1049
#
#
#
# Elastic Compliance Matrix: (Units=1/GPa)
#
#
# Indices 1 2 3 4 5 6 
#
# 1 0.013224 -0.000898 -0.003614 0.000000 0.000243 0.000000
# 2 -0.000898 0.011656 -0.005455 0.000000 -0.001092 0.000000
# 3 -0.003614 -0.005455 0.019028 -0.000001 0.001397 0.000000
# 4 0.000000 0.000000 -0.000001 0.057298 0.000000 0.001881
# 5 0.000243 -0.001092 0.001397 0.000000 0.031366 0.000000
# 6 0.000000 0.000000 0.000000 0.001881 0.000000 0.024996
#
#
# Mechanical properties :
#
#
# Convention : Reuss Voigt Hill
#
# Bulk Modulus (GPa) = 41.71470 42.91736 42.31603
# Shear Modulus (GPa) = 26.95483 30.07462 28.51472
#
# Velocity S-wave (km/s) = 3.64586 3.85108 3.74987
# Velocity P-wave (km/s) = 6.18821 6.39831 6.29414
#
# Compressibility (1/GPa) = 0.02397236
#
# Stress axis : x y z
#
# Youngs Moduli (GPa) = 75.61765 85.79124 52.55488
#
# Poissons Ratio (x) = 0.07707 0.18995
# Poissons Ratio (y) = 0.06793 0.28671
# Poissons Ratio (z) = 0.27331 0.46802
#
# Static dielectric constant tensor:
#      x y z
#    x 3.736790 0.000000 -0.085220 
#    y 0.000000 3.638630 0.000000 
#    z -0.085220 0.000000 3.621380 
# 
# 
# High freq. dielectric constant tensor:
#      x y z
#    x 1.803090 0.000000 -0.002660 
#    y 0.000000 1.795600 0.000000 
#    z -0.002660 0.000000 1.788770 
# 
# From -- ./inp_files/41680.got.cif
#   From: 2010.03.12/outbox.cif.g09.slc.cpg/sg5_21_cif.got.tgz:41680.got - 2010.03.31 09:47:26.
