data_PCOD8049849
_publ_section_title
;
Structure prediction by ZEFSAII (Michael W. Deem and Ramdas Pophale) SiO2 
 PCOD8049849
Probable space group: C 2
;
_chemical_formula_sum "Si O2"
_cell_formula_units_Z 30
_cell_length_a 22.434453
_cell_length_b 5.312237
_cell_length_c 26.285059
_cell_angle_alpha 90.000000
_cell_angle_beta 152.076155
_cell_angle_gamma 90.000000
_cell_volume 1466.978643
_symmetry_space_group_name_H-M "C 2"
_symmetry_group_IT_number 5
_symmetry_cell_setting 'monoclinic'
loop_
_space_group_symop_operation_xyz
x,y,z
-x,y,-z
1/2+x,1/2+y,z
1/2-x,1/2+y,-z
loop_
_atom_site_type_symbol
_atom_site_label
_atom_site_fract_x
_atom_site_fract_y
_atom_site_fract_z
Si Si1 0.171686 0.361910 0.083619
Si Si2 0.884546 0.438896 0.845762
Si Si3 0.672904 0.811869 0.694629
Si Si4 0.216607 0.941004 0.409659
Si Si5 0.317578 0.873525 0.184114
Si Si6 0.000000 0.974732 0.500000
Si Si7 0.594154 0.939085 0.358018
Si Si8 0.222350 0.664742 0.647587
O O1 0.166320 0.308545 0.140397
O O2 0.263653 0.591219 0.136073
O O3 0.217739 0.096524 0.094222
O O4 0.036090 0.450093 0.959945
O O5 0.819859 0.715166 0.799105
O O6 0.847346 0.301338 0.764812
O O7 0.639339 0.900506 0.725443
O O8 0.571362 0.609903 0.599786
O O9 0.653341 0.046255 0.644041
O O10 0.345167 0.939298 0.539881
O O11 0.134773 0.690101 0.357999
O O12 0.138854 0.193698 0.361854
O O13 0.248103 0.958800 0.373462
O O14 0.442135 0.922560 0.244358
O O15 0.107683 0.846695 0.544939
#
# Coordination Sequence:
#
# PCOD8049849 Si02
#       8
#     4   4   4   4   4   2   4   4
#     4  10  21  37  61  92 123 161 193 258 297 375
#     4   9  21  36  57  90 128 154 205 232 320 367
#     4  10  22  36  56  95 123 164 189 253 309 382
#     4  10  24  40  63  84 122 161 207 243 295 359
#     4  11  22  38  64  87 124 153 208 252 306 349
#     4  10  24  34  54  96 134 156 196 236 324 374
#     4  10  23  42  59  89 115 165 207 249 290 357
#     4  11  22  38  60  90 123 165 195 250 305 372
#
# _framework density 20.450196999999999
#
# number of rings (size 3 to 8) (size 9 to 14) (size 15 to 20)
#    0.000    1.867    1.333    1.200    9.333    3.200 
#    0.000    0.000    0.000    3.200    0.000    0.000 
#    0.000    0.000    0.000    0.000    0.000    0.000 
#
# Total GULP energy -185867.923957 kJ/mol
# GULP energy per Si atom -12391.194930 kJ/mol
# Density = 2.040365 g / cm^3
# Si number density = 20.450197 Si / 1000 Ang^3
#
#
#
# Elastic Constant Matrix: (Units=GPa)
#
#
# Indices 1 2 3 4 5 6 
#
# 1 44.2664 13.5980 24.5660 -0.0288 9.6763 0.0157
# 2 13.5980 103.1034 18.8256 -0.0904 12.4508 0.1015
# 3 24.5660 18.8256 96.6652 -0.0265 19.7886 0.0043
# 4 -0.0288 -0.0904 -0.0265 20.8134 0.0199 -11.3763
# 5 9.6763 12.4508 19.7886 0.0199 30.3066 0.0173
# 6 0.0157 0.1015 0.0043 -11.3763 0.0173 29.8814
#
#
#
# Elastic Compliance Matrix: (Units=1/GPa)
#
#
# Indices 1 2 3 4 5 6 
#
# 1 0.027285 -0.002059 -0.005682 0.000029 -0.004155 0.000007
# 2 -0.002059 0.010505 -0.000893 0.000034 -0.003075 -0.000020
# 3 -0.005682 -0.000893 0.013293 0.000020 -0.006499 0.000015
# 4 0.000029 0.000034 0.000020 0.060671 -0.000089 0.023098
# 5 -0.004155 -0.003075 -0.006499 -0.000089 0.039830 -0.000044
# 6 0.000007 -0.000020 0.000015 0.023098 -0.000044 0.042260
#
#
# Mechanical properties :
#
#
# Convention : Reuss Voigt Hill
#
# Bulk Modulus (GPa) = 29.57335 39.77933 34.67634
# Shear Modulus (GPa) = 22.48360 28.66999 25.57680
#
# Velocity S-wave (km/s) = 3.31937 3.74831 3.54034
# Velocity P-wave (km/s) = 5.40217 6.18281 5.80563
#
# Compressibility (1/GPa) = 0.03381423
#
# Stress axis : x y z
#
# Youngs Moduli (GPa) = 36.65036 95.19229 75.22556
#
# Poissons Ratio (x) = 0.19602 0.42746
# Poissons Ratio (y) = 0.07547 0.06718
# Poissons Ratio (z) = 0.20826 0.08501
#
# Static dielectric constant tensor:
#      x y z
#    x 3.194940 -0.000010 0.264090 
#    y -0.000010 3.860640 -0.000030 
#    z 0.264090 -0.000030 3.490840 
# 
# 
# High freq. dielectric constant tensor:
#      x y z
#    x 1.769390 0.000000 0.010660 
#    y 0.000000 1.812060 0.000000 
#    z 0.010660 0.000000 1.797500 
# 
# From -- ./inp_files/48229.got.cif
#   From: 2010.03.12/outbox.cif.g09.slc.cpg/sg5_25_cif.got.tgz:48229.got - 2010.03.31 09:47:26.
