data_PCOD8049886
_publ_section_title
;
Structure prediction by ZEFSAII (Michael W. Deem and Ramdas Pophale) SiO2 
 PCOD8049886
Probable space group: C 2
;
_chemical_formula_sum "Si O2"
_cell_formula_units_Z 24
_cell_length_a 8.428206
_cell_length_b 15.420446
_cell_length_c 14.944649
_cell_angle_alpha 90.000000
_cell_angle_beta 142.574678
_cell_angle_gamma 90.000000
_cell_volume 1180.391946
_symmetry_space_group_name_H-M "C 2"
_symmetry_group_IT_number 5
_symmetry_cell_setting 'monoclinic'
loop_
_space_group_symop_operation_xyz
x,y,z
-x,y,-z
1/2+x,1/2+y,z
1/2-x,1/2+y,-z
loop_
_atom_site_type_symbol
_atom_site_label
_atom_site_fract_x
_atom_site_fract_y
_atom_site_fract_z
Si Si1 0.642495 0.119370 0.155384
Si Si2 0.273670 0.094789 0.157736
Si Si3 0.776561 0.786354 0.166711
Si Si4 0.587673 0.948711 0.371383
Si Si5 0.379787 0.451455 0.315799
Si Si6 0.833201 0.279799 0.333577
O O1 0.437827 0.107537 0.142167
O O2 0.851295 0.192734 0.280794
O O3 0.783896 0.026344 0.204766
O O4 0.500000 0.147455 0.000000
O O5 0.257488 0.188935 0.198208
O O6 0.380601 0.027267 0.279020
O O7 0.000000 0.058924 0.000000
O O8 0.811561 0.853803 0.260948
O O9 0.025869 0.797259 0.212844
O O10 0.500000 0.810588 0.000000
O O11 0.741910 0.959486 0.348621
O O12 0.442846 0.857980 0.322521
O O13 0.806078 0.961591 0.544962
O O14 0.000000 0.267441 0.500000
#
# Coordination Sequence:
#
# PCOD8049886 Si02
#       6
#     4   4   4   4   4   4
#     4  10  23  39  62  89 119 159 201 245 301 360
#     4   9  21  39  61  84 121 158 199 246 304 352
#     4  10  21  39  63  86 120 160 198 248 303 355
#     4  10  22  37  60  89 118 162 199 249 299 360
#     4  10  21  38  61  87 125 156 203 243 306 354
#     4  11  23  40  63  92 121 159 205 248 300 357
#
# _framework density 20.332229000000002
#
# number of rings (size 3 to 8) (size 9 to 14) (size 15 to 20)
#    0.000    2.000    1.667    0.500    7.000    8.667 
#    0.000    0.000    3.667    0.000    0.000    0.000 
#    0.000    0.000    0.000    0.000    0.000    0.000 
#
# Total GULP energy -148700.194863 kJ/mol
# GULP energy per Si atom -12391.682905 kJ/mol
# Density = 2.028595 g / cm^3
# Si number density = 20.332229 Si / 1000 Ang^3
#
#
#
# Elastic Constant Matrix: (Units=GPa)
#
#
# Indices 1 2 3 4 5 6 
#
# 1 25.5451 22.0090 26.9910 0.0002 15.4107 0.0004
# 2 22.0090 155.4748 86.4033 0.0000 1.5611 0.0003
# 3 26.9910 86.4033 153.9636 -0.0010 15.7352 -0.0002
# 4 0.0002 0.0000 -0.0010 42.8600 -0.0003 4.6320
# 5 15.4107 1.5611 15.7352 -0.0003 33.7918 0.0002
# 6 0.0004 0.0003 -0.0002 4.6320 0.0002 16.3975
#
#
#
# Elastic Compliance Matrix: (Units=1/GPa)
#
#
# Indices 1 2 3 4 5 6 
#
# 1 0.066922 -0.006175 -0.005435 -0.000001 -0.027703 -0.000001
# 2 -0.006175 0.010062 -0.005045 0.000000 0.004700 0.000000
# 3 -0.005435 -0.005045 0.010502 0.000000 -0.002178 0.000000
# 4 -0.000001 0.000000 0.000000 0.024066 0.000000 -0.006798
# 5 -0.027703 0.004700 -0.002178 0.000000 0.043024 0.000000
# 6 -0.000001 0.000000 0.000000 -0.006798 0.000000 0.062905
#
#
# Mechanical properties :
#
#
# Convention : Reuss Voigt Hill
#
# Bulk Modulus (GPa) = 18.45828 67.31001 42.88414
# Shear Modulus (GPa) = 18.59768 31.91523 25.25645
#
# Velocity S-wave (km/s) = 3.02766 3.96623 3.52829
# Velocity P-wave (km/s) = 4.61740 7.35877 6.14296
#
# Compressibility (1/GPa) = 0.05417624
#
# Stress axis : x y z
#
# Youngs Moduli (GPa) = 14.94275 99.37958 95.22287
#
# Poissons Ratio (x) = 0.61363 0.51758
# Poissons Ratio (y) = 0.09227 0.48039
# Poissons Ratio (z) = 0.08122 0.50136
#
# Static dielectric constant tensor:
#      x y z
#    x 3.519870 0.000000 0.279930 
#    y 0.000000 4.175170 0.000000 
#    z 0.279930 0.000000 3.983590 
# 
# 
# High freq. dielectric constant tensor:
#      x y z
#    x 1.771470 0.000000 0.022860 
#    y 0.000000 1.811380 0.000000 
#    z 0.022860 0.000000 1.798850 
# 
# From -- ./inp_files/50828.got.cif
#   From: 2010.03.12/outbox.cif.g09.slc.cpg/sg5_26_cif.got.tgz:50828.got - 2010.03.31 09:47:26.
