data_PCOD8049918
_publ_section_title
;
Structure prediction by ZEFSAII (Michael W. Deem and Ramdas Pophale) SiO2 
 PCOD8049918
Probable space group: C 2
;
_chemical_formula_sum "Si O2"
_cell_formula_units_Z 20
_cell_length_a 25.101359
_cell_length_b 4.803160
_cell_length_c 15.807846
_cell_angle_alpha 90.000000
_cell_angle_beta 153.829267
_cell_angle_gamma 90.000000
_cell_volume 840.586326
_symmetry_space_group_name_H-M "C 2"
_symmetry_group_IT_number 5
_symmetry_cell_setting 'monoclinic'
loop_
_space_group_symop_operation_xyz
x,y,z
-x,y,-z
1/2+x,1/2+y,z
1/2-x,1/2+y,-z
loop_
_atom_site_type_symbol
_atom_site_label
_atom_site_fract_x
_atom_site_fract_y
_atom_site_fract_z
Si Si1 0.665355 0.094240 0.376803
Si Si2 0.308356 0.672200 0.042175
Si Si3 0.436878 0.660979 0.651110
Si Si4 0.684717 0.969179 0.226649
Si Si5 0.370304 0.464406 0.959495
O O1 0.709950 0.408061 0.458256
O O2 0.606108 0.056300 0.198572
O O3 0.594133 0.966642 0.354726
O O4 0.453672 0.707436 0.259596
O O5 0.256239 0.467793 0.039229
O O6 0.280359 0.556027 0.907459
O O7 0.327457 0.520137 0.445209
O O8 0.490422 0.477332 0.807593
O O9 0.645283 0.145756 0.088717
O O10 0.657509 0.650453 0.163263
#
# Coordination Sequence:
#
# PCOD8049918 Si02
#       5
#     4   4   4   4   4
#     4  10  21  38  64  95 129 172 210 248 316 386
#     4  10  22  43  66  89 127 165 212 269 316 368
#     4   9  24  42  66  89 135 168 205 261 325 355
#     4  11  21  42  63  96 127 164 210 261 303 391
#     4  10  24  39  67  92 129 159 221 252 316 378
#
# _framework density 23.792918
#
# number of rings (size 3 to 8) (size 9 to 14) (size 15 to 20)
#    1.200    0.800    0.000    3.600    0.000   10.400 
#    0.000   12.000    0.000    0.000    0.000    0.000 
#    0.000    0.000    0.000    0.000    0.000    0.000 
#
# Total GULP energy -123934.923600 kJ/mol
# GULP energy per Si atom -12393.492360 kJ/mol
# Density = 2.373876 g / cm^3
# Si number density = 23.792918 Si / 1000 Ang^3
#
#
#
# Elastic Constant Matrix: (Units=GPa)
#
#
# Indices 1 2 3 4 5 6 
#
# 1 46.7925 -0.2871 10.6150 -0.0003 5.7751 -0.0001
# 2 -0.2871 54.5816 23.8550 0.0000 -2.1453 0.0000
# 3 10.6150 23.8550 97.0164 -0.0003 2.8632 -0.0001
# 4 -0.0003 0.0000 -0.0003 34.1147 -0.0001 -15.2413
# 5 5.7751 -2.1453 2.8632 -0.0001 38.5657 0.0000
# 6 -0.0001 0.0000 -0.0001 -15.2413 0.0000 46.5795
#
#
#
# Elastic Compliance Matrix: (Units=1/GPa)
#
#
# Indices 1 2 3 4 5 6 
#
# 1 0.022358 0.001149 -0.002638 0.000000 -0.003088 0.000000
# 2 0.001149 0.020675 -0.005250 0.000000 0.001368 0.000000
# 3 -0.002638 -0.005250 0.011910 0.000000 -0.000781 0.000000
# 4 0.000000 0.000000 0.000000 0.034332 0.000000 0.011234
# 5 -0.003088 0.001368 -0.000781 0.000000 0.026526 0.000000
# 6 0.000000 0.000000 0.000000 0.011234 0.000000 0.025145
#
#
# Mechanical properties :
#
#
# Convention : Reuss Voigt Hill
#
# Bulk Modulus (GPa) = 24.11614 29.63959 26.87787
# Shear Modulus (GPa) = 29.71862 34.79913 32.25888
#
# Velocity S-wave (km/s) = 3.53803 3.82852 3.68614
# Velocity P-wave (km/s) = 5.18151 5.65931 5.42567
#
# Compressibility (1/GPa) = 0.04146600
#
# Stress axis : x y z
#
# Youngs Moduli (GPa) = 44.72771 48.36646 83.96261
#
# Poissons Ratio (x) = -0.05557 0.22146
# Poissons Ratio (y) = -0.05139 0.44080
# Poissons Ratio (z) = 0.11797 0.25392
#
# Static dielectric constant tensor:
#      x y z
#    x 4.188010 0.000000 0.050640 
#    y 0.000000 4.159860 0.000000 
#    z 0.050640 0.000000 4.127310 
# 
# 
# High freq. dielectric constant tensor:
#      x y z
#    x 1.935660 0.000000 0.006490 
#    y 0.000000 1.954010 0.000000 
#    z 0.006490 0.000000 1.936610 
# 
# From -- ./inp_files/57415.got.cif
#   From: 2010.03.12/outbox.cif.g09.slc.cpg/sg5_29_cif.got.tgz:57415.got - 2010.03.31 09:47:26.
