data_PCOD8049754
_publ_section_title
;
Structure prediction by ZEFSAII (Michael W. Deem and Ramdas Pophale) SiO2 
 PCOD8049754
Probable space group: C 2
;
_chemical_formula_sum "Si O2"
_cell_formula_units_Z 28
_cell_length_a 9.994206
_cell_length_b 9.964061
_cell_length_c 17.238982
_cell_angle_alpha 90.000000
_cell_angle_beta 126.025176
_cell_angle_gamma 90.000000
_cell_volume 1388.401981
_symmetry_space_group_name_H-M "C 2"
_symmetry_group_IT_number 5
_symmetry_cell_setting 'monoclinic'
loop_
_space_group_symop_operation_xyz
x,y,z
-x,y,-z
1/2+x,1/2+y,z
1/2-x,1/2+y,-z
loop_
_atom_site_type_symbol
_atom_site_label
_atom_site_fract_x
_atom_site_fract_y
_atom_site_fract_z
Si Si1 0.034751 0.666720 0.600335
Si Si2 0.213902 0.258166 0.198966
Si Si3 0.375373 0.475284 0.887704
Si Si4 0.001619 0.368841 0.610807
Si Si5 0.081314 0.274336 0.800140
Si Si6 0.275586 0.319013 0.598276
Si Si7 0.547081 0.464169 0.785079
O O1 0.086942 0.512908 0.627078
O O2 0.875211 0.690227 0.601264
O O3 0.000000 0.709230 0.500000
O O4 0.187970 0.751539 0.685773
O O5 0.292356 0.370022 0.170242
O O6 0.026375 0.297313 0.158500
O O7 0.222410 0.115021 0.157977
O O8 0.251964 0.354134 0.867194
O O9 0.474854 0.433956 0.845034
O O10 0.500000 0.496401 0.000000
O O11 0.823803 0.376953 0.509411
O O12 0.979446 0.329781 0.691897
O O13 0.139950 0.272606 0.616631
O O14 0.110429 0.116020 0.797712
O O15 0.405391 0.430488 0.673429
#
# Coordination Sequence:
#
# PCOD8049754 Si02
#       7
#     4   4   4   4   4   4   4
#     4  11  20  36  60  86 125 167 202 242 300 358
#     4  10  23  42  65  94 126 161 204 255 304 368
#     4  11  24  44  67  91 120 159 204 258 322 373
#     4  11  20  35  59  87 123 161 208 245 293 356
#     4  11  22  40  66  92 122 167 201 253 310 367
#     4  10  21  34  57  87 120 164 200 247 291 352
#     4  10  23  42  62  92 130 159 206 258 300 367
#
# _framework density 20.167069000000001
#
# number of rings (size 3 to 8) (size 9 to 14) (size 15 to 20)
#    0.000    1.429    4.286    1.714    2.000    4.571 
#    0.000    0.714    0.000    0.000    0.000    0.000 
#    0.000    0.000    0.000    0.000    0.000    0.000 
#
# Total GULP energy -173561.204599 kJ/mol
# GULP energy per Si atom -12397.228900 kJ/mol
# Density = 2.012117 g / cm^3
# Si number density = 20.167069 Si / 1000 Ang^3
#
#
#
# Elastic Constant Matrix: (Units=GPa)
#
#
# Indices 1 2 3 4 5 6 
#
# 1 104.2074 57.4387 34.7656 0.0000 5.1780 0.0000
# 2 57.4387 90.8110 34.9680 0.0000 9.5957 0.0000
# 3 34.7656 34.9680 97.5462 0.0000 6.6445 0.0000
# 4 0.0000 0.0000 0.0000 16.0191 0.0000 3.2561
# 5 5.1780 9.5957 6.6445 0.0000 13.6961 0.0000
# 6 0.0000 0.0000 0.0000 3.2561 0.0000 36.5987
#
#
#
# Elastic Compliance Matrix: (Units=1/GPa)
#
#
# Indices 1 2 3 4 5 6 
#
# 1 0.015190 -0.008877 -0.002342 0.000000 0.001612 0.000000
# 2 -0.008877 0.018638 -0.002954 0.000000 -0.008269 0.000000
# 3 -0.002342 -0.002954 0.012352 0.000000 -0.003037 0.000000
# 4 0.000000 0.000000 0.000000 0.063575 0.000000 -0.005656
# 5 0.001612 -0.008269 -0.003037 0.000000 0.079671 0.000000
# 6 0.000000 0.000000 0.000000 -0.005656 0.000000 0.027827
#
#
# Mechanical properties :
#
#
# Convention : Reuss Voigt Hill
#
# Bulk Modulus (GPa) = 56.06967 60.76770 58.41868
# Shear Modulus (GPa) = 19.87738 24.28892 22.08315
#
# Velocity S-wave (km/s) = 3.14289 3.47419 3.31268
# Velocity P-wave (km/s) = 6.40572 6.80374 6.60773
#
# Compressibility (1/GPa) = 0.01783495
#
# Stress axis : x y z
#
# Youngs Moduli (GPa) = 65.83270 53.65472 80.95839
#
# Poissons Ratio (x) = 0.47627 0.18957
# Poissons Ratio (y) = 0.58437 0.23918
# Poissons Ratio (z) = 0.15415 0.15851
#
# Static dielectric constant tensor:
#      x y z
#    x 3.791130 0.000000 -0.034810 
#    y 0.000000 3.528690 0.000000 
#    z -0.034810 0.000000 3.596360 
# 
# 
# High freq. dielectric constant tensor:
#      x y z
#    x 1.794520 0.000000 0.000270 
#    y 0.000000 1.771780 0.000000 
#    z 0.000270 0.000000 1.780040 
# 
# From -- ./inp_files/50564.got.cif
#   From: 2010.03.12/outbox.cif.g09.slc.cpg/sg5_26_cif.got.tgz:50564.got - 2010.03.31 09:47:26.
