data_PCOD8049352
_publ_section_title
;
Structure prediction by ZEFSAII (Michael W. Deem and Ramdas Pophale) SiO2 
 PCOD8049352
Probable space group: C 2
;
_chemical_formula_sum "Si O2"
_cell_formula_units_Z 24
_cell_length_a 18.554195
_cell_length_b 7.770844
_cell_length_c 11.616622
_cell_angle_alpha 90.000000
_cell_angle_beta 135.829091
_cell_angle_gamma 90.000000
_cell_volume 1167.075463
_symmetry_space_group_name_H-M "C 2"
_symmetry_group_IT_number 5
_symmetry_cell_setting 'monoclinic'
loop_
_space_group_symop_operation_xyz
x,y,z
-x,y,-z
1/2+x,1/2+y,z
1/2-x,1/2+y,-z
loop_
_atom_site_type_symbol
_atom_site_label
_atom_site_fract_x
_atom_site_fract_y
_atom_site_fract_z
Si Si1 0.147516 0.294210 0.845835
Si Si2 0.330976 0.924783 0.378476
Si Si3 0.956166 0.097809 0.575013
Si Si4 0.359254 0.121634 0.038446
Si Si5 0.387153 0.302067 0.842347
Si Si6 0.927544 0.732300 0.634850
O O1 0.133483 0.411645 0.714193
O O2 0.142661 0.417210 0.950143
O O3 0.055262 0.159301 0.761379
O O4 0.254101 0.195097 0.968566
O O5 0.369746 0.747494 0.481766
O O6 0.206135 0.938726 0.247923
O O7 0.378899 0.092474 0.493130
O O8 0.000000 0.057459 0.500000
O O9 0.904667 0.925245 0.565191
O O10 0.449772 0.206278 0.217841
O O11 0.370672 0.150168 0.915633
O O12 0.380426 0.215933 0.708899
O O13 0.500000 0.388565 0.000000
#
# Coordination Sequence:
#
# PCOD8049352 Si02
#       6
#     4   4   4   4   4   4
#     4  10  20  39  61  94 129 158 207 259 309 368
#     4  10  22  40  62  93 125 157 208 268 302 364
#     4  10  22  36  61  97 124 151 208 260 307 368
#     4  10  20  38  64  86 129 167 199 253 312 362
#     4   9  22  42  62  87 126 167 205 255 306 372
#     4  11  22  38  67  87 124 170 205 250 318 366
#
# _framework density 20.564222000000001
#
# number of rings (size 3 to 8) (size 9 to 14) (size 15 to 20)
#    0.000    2.000    1.667    1.000    4.667    0.000 
#    0.000    0.000   11.000    0.000    0.000    0.000 
#    0.000    0.000    0.000    0.000    0.000    0.000 
#
# Total GULP energy -148765.663254 kJ/mol
# GULP energy per Si atom -12397.138605 kJ/mol
# Density = 2.051742 g / cm^3
# Si number density = 20.564222 Si / 1000 Ang^3
#
#
#
# Elastic Constant Matrix: (Units=GPa)
#
#
# Indices 1 2 3 4 5 6 
#
# 1 67.1693 41.6919 37.2643 0.0000 13.6875 0.0000
# 2 41.6919 146.2297 59.1534 0.0000 -3.1142 0.0000
# 3 37.2643 59.1534 99.4352 0.0000 13.6425 0.0000
# 4 0.0000 0.0000 0.0000 3.5861 0.0000 -14.7534
# 5 13.6875 -3.1142 13.6425 0.0000 30.3572 0.0000
# 6 0.0000 0.0000 0.0000 -14.7534 0.0000 13.3967
#
#
#
# Elastic Compliance Matrix: (Units=1/GPa)
#
#
# Indices 1 2 3 4 5 6 
#
# 1 0.021881 -0.004701 -0.004246 0.000000 -0.008440 0.000000
# 2 -0.004701 0.010390 -0.005175 0.000000 0.005511 0.000000
# 3 -0.004246 -0.005175 0.015492 0.000000 -0.005579 0.000000
# 4 0.000000 0.000000 0.000000 -0.078980 0.000000 -0.086978
# 5 -0.008440 0.005511 -0.005579 0.000000 0.039819 0.000000
# 6 0.000000 0.000000 0.000000 -0.086978 0.000000 -0.021142
#
#
# Mechanical properties :
#
#
# Convention : Reuss Voigt Hill
#
# Bulk Modulus (GPa) = 51.23155 65.45039 58.34097
# Shear Modulus (GPa) = 225.12800 21.11629 123.12215
#
# Velocity S-wave (km/s) = 10.47441 3.20792 7.74610
# Velocity P-wave (km/s) = 13.08630 6.75407 10.41318
#
# Compressibility (1/GPa) = 0.01951922
#
# Stress axis : x y z
#
# Youngs Moduli (GPa) = 45.70224 96.24959 64.54951
#
# Poissons Ratio (x) = 0.45245 0.27405
# Poissons Ratio (y) = 0.21483 0.33406
# Poissons Ratio (z) = 0.19404 0.49811
#
# Static dielectric constant tensor:
#      x y z
#    x 3.794480 0.000000 0.178430 
#    y 0.000000 3.460380 0.000000 
#    z 0.178430 0.000000 3.981170 
# 
# 
# High freq. dielectric constant tensor:
#      x y z
#    x 1.802990 0.000000 0.012250 
#    y 0.000000 1.781720 0.000000 
#    z 0.012250 0.000000 1.815240 
# 
# From -- ./inp_files/44205.got.cif
#   From: 2010.03.12/outbox.cif.g09.slc.cpg/sg5_23_cif.got.tgz:44205.got - 2010.03.31 09:47:26.
