data_PCOD8049152
_publ_section_title
;
Structure prediction by ZEFSAII (Michael W. Deem and Ramdas Pophale) SiO2 
 PCOD8049152
Probable space group: C 2
;
_chemical_formula_sum "Si O2"
_cell_formula_units_Z 32
_cell_length_a 9.271606
_cell_length_b 22.757492
_cell_length_c 14.629900
_cell_angle_alpha 90.000000
_cell_angle_beta 152.306856
_cell_angle_gamma 90.000000
_cell_volume 1434.587789
_symmetry_space_group_name_H-M "C 2"
_symmetry_group_IT_number 5
_symmetry_cell_setting 'monoclinic'
loop_
_space_group_symop_operation_xyz
x,y,z
-x,y,-z
1/2+x,1/2+y,z
1/2-x,1/2+y,-z
loop_
_atom_site_type_symbol
_atom_site_label
_atom_site_fract_x
_atom_site_fract_y
_atom_site_fract_z
Si Si1 0.287632 0.145480 0.963877
Si Si2 0.348418 0.139599 0.194930
Si Si3 0.749359 0.461454 0.930846
Si Si4 0.337296 0.892483 0.154912
Si Si5 0.213748 0.061723 0.282168
Si Si6 0.248146 0.379582 0.561987
Si Si7 0.055806 0.756518 0.387646
Si Si8 0.990665 0.265885 0.192880
O O1 0.939797 0.119225 0.756278
O O2 0.268754 0.215696 0.964328
O O3 0.500000 0.125432 0.000000
O O4 0.434430 0.119120 0.140179
O O5 0.351906 0.081522 0.261158
O O6 0.572805 0.193284 0.347741
O O7 0.000000 0.165648 0.000000
O O8 0.545558 0.511566 0.865558
O O9 0.547124 0.417748 0.754701
O O10 0.924763 0.429406 0.113504
O O11 0.000000 0.488298 0.000000
O O12 0.604198 0.898749 0.382424
O O13 0.304500 0.825419 0.104496
O O14 0.000000 0.913439 0.000000
O O15 0.500000 0.037132 0.500000
O O16 0.340803 0.310843 0.617798
O O17 0.000000 0.392178 0.500000
O O18 0.297293 0.748933 0.603654
O O19 0.708934 0.771287 0.226849
#
# Coordination Sequence:
#
# PCOD8049152 Si02
#       8
#     4   4   4   4   4   4   4   4
#     4  11  23  40  67  99 140 172 240 289 357 424
#     4  10  21  38  65 100 130 187 233 282 359 421
#     4  12  27  47  76 103 140 191 243 304 365 422
#     4  11  24  42  69 101 147 185 238 292 363 430
#     4  11  24  47  71  95 135 185 243 294 353 430
#     4  11  24  44  67 110 145 191 239 292 365 439
#     4  10  20  36  64  94 141 180 231 283 353 435
#     4  10  20  37  62  99 140 187 220 292 358 419
#
# _framework density 22.306059000000001
#
# number of rings (size 3 to 8) (size 9 to 14) (size 15 to 20)
#    0.000    1.250    3.750    2.625    1.750    5.500 
#    0.000    1.875    2.750    0.000    0.000    0.000 
#    0.000    0.000    0.000    0.000    0.000    0.000 
#
# Total GULP energy -198349.074025 kJ/mol
# GULP energy per Si atom -12396.817127 kJ/mol
# Density = 2.225529 g / cm^3
# Si number density = 22.306059 Si / 1000 Ang^3
#
#
#
# Elastic Constant Matrix: (Units=GPa)
#
#
# Indices 1 2 3 4 5 6 
#
# 1 147.9156 36.4608 39.9264 -0.0425 -15.0991 -0.0162
# 2 36.4608 101.8322 34.1467 -0.0132 -19.3453 -0.0048
# 3 39.9264 34.1467 72.5415 -0.0556 -17.6423 -0.0255
# 4 -0.0425 -0.0132 -0.0556 35.1359 -0.0469 3.9705
# 5 -15.0991 -19.3453 -17.6423 -0.0469 28.0775 -0.0199
# 6 -0.0162 -0.0048 -0.0255 3.9705 -0.0199 30.9211
#
#
#
# Elastic Compliance Matrix: (Units=1/GPa)
#
#
# Indices 1 2 3 4 5 6 
#
# 1 0.008206 -0.001543 -0.003512 0.000005 0.001143 0.000001
# 2 -0.001543 0.012692 -0.003777 0.000004 0.005541 0.000001
# 3 -0.003512 -0.003777 0.019363 0.000034 0.007676 0.000014
# 4 0.000005 0.000004 0.000034 0.028880 0.000072 -0.003708
# 5 0.001143 0.005541 0.007676 0.000072 0.044871 0.000027
# 6 0.000001 0.000001 0.000014 -0.003708 0.000027 0.032817
#
#
# Mechanical properties :
#
#
# Convention : Reuss Voigt Hill
#
# Bulk Modulus (GPa) = 44.25655 60.37302 52.31479
# Shear Modulus (GPa) = 29.06547 32.94392 31.00470
#
# Velocity S-wave (km/s) = 3.61367 3.84722 3.73227
# Velocity P-wave (km/s) = 6.10697 6.84539 6.48670
#
# Compressibility (1/GPa) = 0.02259553
#
# Stress axis : x y z
#
# Youngs Moduli (GPa) = 121.86724 78.79001 51.64501
#
# Poissons Ratio (x) = 0.12160 0.18138
# Poissons Ratio (y) = 0.18808 0.19508
# Poissons Ratio (z) = 0.42799 0.29761
#
# Static dielectric constant tensor:
#      x y z
#    x 4.169020 0.000000 -0.187010 
#    y 0.000000 3.972990 0.000000 
#    z -0.187010 0.000000 3.967680 
# 
# 
# High freq. dielectric constant tensor:
#      x y z
#    x 1.877980 0.000000 -0.012540 
#    y 0.000000 1.877250 0.000000 
#    z -0.012540 0.000000 1.865060 
# 
# From -- ./inp_files/51708.got.cif
#   From: 2010.03.12/outbox.cif.g09.slc.cpg/sg5_26_cif.got.tgz:51708.got - 2010.03.31 09:47:26.
