data_PCOD8049638
_publ_section_title
;
Structure prediction by ZEFSAII (Michael W. Deem and Ramdas Pophale) SiO2 
 PCOD8049638
Probable space group: C 2
;
_chemical_formula_sum "Si O2"
_cell_formula_units_Z 24
_cell_length_a 17.071568
_cell_length_b 15.007423
_cell_length_c 9.792913
_cell_angle_alpha 90.000000
_cell_angle_beta 28.996360
_cell_angle_gamma 90.000000
_cell_volume 1216.222078
_symmetry_space_group_name_H-M "C 2"
_symmetry_group_IT_number 5
_symmetry_cell_setting 'monoclinic'
loop_
_space_group_symop_operation_xyz
x,y,z
-x,y,-z
1/2+x,1/2+y,z
1/2-x,1/2+y,-z
loop_
_atom_site_type_symbol
_atom_site_label
_atom_site_fract_x
_atom_site_fract_y
_atom_site_fract_z
Si Si1 0.668665 0.656840 0.528785
Si Si2 0.155857 0.524784 0.541519
Si Si3 0.350324 0.124608 0.975998
Si Si4 0.590047 0.268562 0.493527
Si Si5 0.828675 0.343929 0.333457
Si Si6 0.804098 0.111709 0.069542
O O1 0.778057 0.604750 0.467684
O O2 0.666495 0.759322 0.575485
O O3 0.494093 0.612559 0.801512
O O4 0.737031 0.650511 0.273174
O O5 0.205458 0.429152 0.521248
O O6 0.226660 0.533695 0.280458
O O7 0.962160 0.538793 0.838187
O O8 0.460138 0.210024 0.773702
O O9 0.237323 0.093659 0.024235
O O10 0.500000 0.314250 0.500000
O O11 0.678118 0.340452 0.456256
O O12 0.733423 0.206576 0.220681
O O13 0.000000 0.355253 0.000000
#
# Coordination Sequence:
#
# PCOD8049638 Si02
#       6
#     4   4   4   4   4   4
#     4  12  21  40  64  96 125 163 214 268 312 374
#     4  11  23  40  64  91 124 174 213 257 317 377
#     4  10  21  39  65  91 126 163 211 258 320 376
#     4   9  19  38  64  88 122 167 204 255 320 376
#     4  12  22  39  66  96 130 168 215 268 316 377
#     4  10  20  42  64  89 124 168 206 259 318 375
#
# _framework density 19.733239000000001
#
# number of rings (size 3 to 8) (size 9 to 14) (size 15 to 20)
#    0.000    1.333    5.000    4.000    0.000    0.000 
#    6.000    6.667    0.000    0.000    0.000    0.000 
#    0.000    0.000    0.000    0.000    0.000    0.000 
#
# Total GULP energy -148813.776740 kJ/mol
# GULP energy per Si atom -12401.148062 kJ/mol
# Density = 1.968832 g / cm^3
# Si number density = 19.733239 Si / 1000 Ang^3
#
#
#
# Elastic Constant Matrix: (Units=GPa)
#
#
# Indices 1 2 3 4 5 6 
#
# 1 124.4186 49.6781 30.8676 0.0007 24.9059 -0.0008
# 2 49.6781 32.2126 23.9851 -0.0016 -50.9780 0.0015
# 3 30.8676 23.9851 99.8832 0.0007 24.7096 -0.0007
# 4 0.0007 -0.0016 0.0007 18.5670 -0.0017 2.7802
# 5 24.9059 -50.9780 24.7096 -0.0017 -25.7037 0.0017
# 6 -0.0008 0.0015 -0.0007 2.7802 0.0017 31.7087
#
#
#
# Elastic Compliance Matrix: (Units=1/GPa)
#
#
# Indices 1 2 3 4 5 6 
#
# 1 0.008114 -0.000720 -0.003743 0.000000 0.005691 0.000000
# 2 -0.000720 0.007861 0.001910 -0.000001 -0.014452 0.000001
# 3 -0.003743 0.001910 0.010134 0.000000 0.002328 0.000000
# 4 0.000000 -0.000001 0.000000 0.054576 -0.000002 -0.004785
# 5 0.005691 -0.014452 0.002328 -0.000002 -0.002491 0.000001
# 6 0.000000 0.000001 0.000000 -0.004785 0.000001 0.031957
#
#
# Mechanical properties :
#
#
# Convention : Reuss Voigt Hill
#
# Bulk Modulus (GPa) = 47.61019 51.73067 49.67043
# Shear Modulus (GPa) = 40.89761 15.04663 27.97212
#
# Velocity S-wave (km/s) = 4.55744 2.76434 3.76907
# Velocity P-wave (km/s) = 7.20229 6.03827 6.64581
#
# Compressibility (1/GPa) = 0.02100391
#
# Stress axis : x y z
#
# Youngs Moduli (GPa) = 123.24444 127.21208 98.67877
#
# Poissons Ratio (x) = 0.09154 0.36932
# Poissons Ratio (y) = 0.08869 -0.18847
# Poissons Ratio (z) = 0.46126 -0.24296
#
# Static dielectric constant tensor:
#      x y z
#    x 3.987240 0.000000 0.018690 
#    y 0.000000 3.472420 0.000000 
#    z 0.018690 0.000000 3.649750 
# 
# 
# High freq. dielectric constant tensor:
#      x y z
#    x 1.792820 0.000000 -0.001050 
#    y 0.000000 1.736250 0.000000 
#    z -0.001050 0.000000 1.775690 
# 
# From -- ./inp_files/27662.got.cif
#   From: 2010.03.12/outbox.cif.g09.slc.cpg/sg5_14_cif.got.tgz:27662.got - 2010.03.31 09:47:26.
