data_PCOD8049417
_publ_section_title
;
Structure prediction by ZEFSAII (Michael W. Deem and Ramdas Pophale) SiO2 
 PCOD8049417
Probable space group: C 2
;
_chemical_formula_sum "Si O2"
_cell_formula_units_Z 30
_cell_length_a 7.522852
_cell_length_b 12.213995
_cell_length_c 14.378282
_cell_angle_alpha 90.000000
_cell_angle_beta 85.348089
_cell_angle_gamma 90.000000
_cell_volume 1316.783093
_symmetry_space_group_name_H-M "C 2"
_symmetry_group_IT_number 5
_symmetry_cell_setting 'monoclinic'
loop_
_space_group_symop_operation_xyz
x,y,z
-x,y,-z
1/2+x,1/2+y,z
1/2-x,1/2+y,-z
loop_
_atom_site_type_symbol
_atom_site_label
_atom_site_fract_x
_atom_site_fract_y
_atom_site_fract_z
Si Si1 0.791732 0.314980 0.520456
Si Si2 0.744192 0.209133 0.092360
Si Si3 0.000000 0.985979 0.500000
Si Si4 0.946039 0.929802 0.894742
Si Si5 0.874396 0.292867 0.720192
Si Si6 0.204809 0.514667 0.215694
Si Si7 0.341897 0.644886 0.374191
Si Si8 0.160250 0.163889 0.109032
O O1 0.677336 0.413659 0.483852
O O2 0.752656 0.299587 0.632160
O O3 0.740990 0.205055 0.464479
O O4 0.000000 0.343491 0.500000
O O5 0.656989 0.320641 0.134199
O O6 0.951885 0.197825 0.109482
O O7 0.643603 0.101757 0.139525
O O8 0.723921 0.210036 0.981478
O O9 0.990202 0.062373 0.409311
O O10 0.111226 0.953642 0.819828
O O11 0.813900 0.033403 0.888973
O O12 0.000000 0.922562 0.000000
O O13 0.926232 0.412317 0.760824
O O14 0.765233 0.220819 0.800817
O O15 0.062796 0.236191 0.692225
O O16 0.210640 0.578473 0.313611
#
# Coordination Sequence:
#
# PCOD8049417 Si02
#       8
#     4   4   2   4   4   4   4   4
#     4  10  24  44  68 101 135 178 223 281 340 407
#     4  10  21  38  63  90 123 170 214 261 329 394
#     4  12  22  46  72  96 136 184 222 280 348 400
#     4  11  20  39  64  89 126 170 215 269 325 391
#     4  11  20  41  67  91 130 172 214 270 333 387
#     4  11  22  40  64  92 128 168 214 272 322 397
#     4  11  22  42  66  95 135 171 217 277 337 394
#     4  10  20  39  63  89 123 173 208 269 333 381
#
# _framework density 22.782796000000001
#
# number of rings (size 3 to 8) (size 9 to 14) (size 15 to 20)
#    0.000    1.333    8.667    0.800    0.000    1.067 
#    1.200    5.333    0.000    0.000    0.000    0.000 
#    0.000    0.000    0.000    0.000    0.000    0.000 
#
# Total GULP energy -185920.295158 kJ/mol
# GULP energy per Si atom -12394.686344 kJ/mol
# Density = 2.273094 g / cm^3
# Si number density = 22.782796 Si / 1000 Ang^3
#
#
#
# Elastic Constant Matrix: (Units=GPa)
#
#
# Indices 1 2 3 4 5 6 
#
# 1 33.2751 39.4172 11.5473 0.0000 -4.7594 0.0000
# 2 39.4172 204.0472 66.5410 0.0000 -5.2742 0.0000
# 3 11.5473 66.5410 150.4657 0.0000 -0.6199 0.0000
# 4 0.0000 0.0000 0.0000 47.0118 0.0000 2.7169
# 5 -4.7594 -5.2742 -0.6199 0.0000 12.2364 0.0000
# 6 0.0000 0.0000 0.0000 2.7169 0.0000 36.6442
#
#
#
# Elastic Compliance Matrix: (Units=1/GPa)
#
#
# Indices 1 2 3 4 5 6 
#
# 1 0.040821 -0.007660 0.000307 0.000000 0.012592 0.000000
# 2 -0.007660 0.007232 -0.002610 0.000000 0.000005 0.000000
# 3 0.000307 -0.002610 0.007774 0.000000 -0.000612 0.000000
# 4 0.000000 0.000000 0.000000 0.021363 0.000000 -0.001584
# 5 0.012592 0.000005 -0.000612 0.000000 0.086593 0.000000
# 6 0.000000 0.000000 0.000000 -0.001584 0.000000 0.027407
#
#
# Mechanical properties :
#
#
# Convention : Reuss Voigt Hill
#
# Bulk Modulus (GPa) = 27.85525 69.19991 48.52758
# Shear Modulus (GPa) = 22.41304 37.19730 29.80517
#
# Velocity S-wave (km/s) = 3.13991 4.04504 3.62087
# Velocity P-wave (km/s) = 5.03968 7.22884 6.23116
#
# Compressibility (1/GPa) = 0.03589988
#
# Stress axis : x y z
#
# Youngs Moduli (GPa) = 24.49699 138.27425 128.62816
#
# Poissons Ratio (x) = 1.05922 -0.03945
# Poissons Ratio (y) = 0.18765 0.33576
# Poissons Ratio (z) = -0.00751 0.36094
#
# Static dielectric constant tensor:
#      x y z
#    x 3.399980 0.000000 -0.070340 
#    y 0.000000 4.523240 0.000000 
#    z -0.070340 0.000000 4.584980 
# 
# 
# High freq. dielectric constant tensor:
#      x y z
#    x 1.837090 0.000000 -0.003750 
#    y 0.000000 1.921680 0.000000 
#    z -0.003750 0.000000 1.915710 
# 
# From -- ./inp_files/50304.got.cif
#   From: 2010.03.12/outbox.cif.g09.slc.cpg/sg5_26_cif.got.tgz:50304.got - 2010.03.31 09:47:26.
