data_PCOD8049981
_publ_section_title
;
Structure prediction by ZEFSAII (Michael W. Deem and Ramdas Pophale) SiO2 
 PCOD8049981
Probable space group: C 2
;
_chemical_formula_sum "Si O2"
_cell_formula_units_Z 30
_cell_length_a 21.382358
_cell_length_b 9.086656
_cell_length_c 15.753711
_cell_angle_alpha 90.000000
_cell_angle_beta 30.780178
_cell_angle_gamma 90.000000
_cell_volume 1566.378573
_symmetry_space_group_name_H-M "C 2"
_symmetry_group_IT_number 5
_symmetry_cell_setting 'monoclinic'
loop_
_space_group_symop_operation_xyz
x,y,z
-x,y,-z
1/2+x,1/2+y,z
1/2-x,1/2+y,-z
loop_
_atom_site_type_symbol
_atom_site_label
_atom_site_fract_x
_atom_site_fract_y
_atom_site_fract_z
Si Si1 0.843197 0.737510 0.265998
Si Si2 0.723315 0.446655 0.359486
Si Si3 0.449087 0.613874 0.885187
Si Si4 0.845550 0.332792 0.380562
Si Si5 0.500000 0.464977 0.000000
Si Si6 0.981041 0.592014 0.816684
Si Si7 0.541262 0.374605 0.264948
Si Si8 0.272873 0.879524 0.110623
O O1 0.756025 0.620338 0.321198
O O2 0.776135 0.814195 0.423320
O O3 0.881181 0.864741 0.156998
O O4 0.967522 0.665976 0.157398
O O5 0.809344 0.362547 0.325689
O O6 0.582491 0.427924 0.547050
O O7 0.752086 0.377429 0.235263
O O8 0.576491 0.684051 0.705791
O O9 0.421293 0.474572 0.858770
O O10 0.461971 0.566938 0.966950
O O11 0.340017 0.730403 0.004313
O O12 0.923067 0.469003 0.327228
O O13 0.966843 0.706696 0.756762
O O14 0.851499 0.520890 0.991152
O O15 0.643110 0.388755 0.217483
#
# Coordination Sequence:
#
# PCOD8049981 Si02
#       8
#     4   4   4   4   2   4   4   4
#     4  11  21  38  62  95 122 150 192 259 307 356
#     4  11  22  38  65  90 121 157 201 247 305 351
#     4  11  23  40  61  93 117 160 198 252 300 352
#     4  10  21  39  63  90 123 150 196 253 310 357
#     4  12  22  34  64  92 126 142 202 258 306 340
#     4  10  22  39  63  89 119 161 197 241 304 353
#     4  12  22  42  63  85 124 167 202 236 294 366
#     4  11  25  41  60  89 125 161 205 243 285 359
#
# _framework density 19.152459
#
# number of rings (size 3 to 8) (size 9 to 14) (size 15 to 20)
#    0.000    1.067    4.000    2.800    1.867    4.800 
#    0.000    0.000    0.000    0.000    0.000    0.000 
#    0.000    0.000    0.000    0.000    0.000    0.000 
#
# Total GULP energy -186083.911315 kJ/mol
# GULP energy per Si atom -12405.594088 kJ/mol
# Density = 1.910887 g / cm^3
# Si number density = 19.152459 Si / 1000 Ang^3
#
#
#
# Elastic Constant Matrix: (Units=GPa)
#
#
# Indices 1 2 3 4 5 6 
#
# 1 93.5987 39.6451 42.4587 0.0000 -6.6622 0.0000
# 2 39.6451 97.4616 37.2355 0.0000 -3.1177 0.0000
# 3 42.4587 37.2355 92.4503 0.0000 -4.4754 0.0000
# 4 0.0000 0.0000 0.0000 21.2400 0.0000 1.3072
# 5 -6.6622 -3.1177 -4.4754 0.0000 33.0363 0.0000
# 6 0.0000 0.0000 0.0000 1.3072 0.0000 26.4819
#
#
#
# Elastic Compliance Matrix: (Units=1/GPa)
#
#
# Indices 1 2 3 4 5 6 
#
# 1 0.014840 -0.004026 -0.005101 0.000000 0.001922 0.000000
# 2 -0.004026 0.013227 -0.003480 0.000000 -0.000035 0.000000
# 3 -0.005101 -0.003480 0.014591 0.000000 0.000620 0.000000
# 4 0.000000 0.000000 0.000000 0.047224 0.000000 -0.002331
# 5 0.001922 -0.000035 0.000620 0.000000 0.030738 0.000000
# 6 0.000000 0.000000 0.000000 -0.002331 0.000000 0.037877
#
#
# Mechanical properties :
#
#
# Convention : Reuss Voigt Hill
#
# Bulk Modulus (GPa) = 57.32746 58.02101 57.67423
# Shear Modulus (GPa) = 26.38186 27.09640 26.73913
#
# Velocity S-wave (km/s) = 3.71545 3.76543 3.74052
# Velocity P-wave (km/s) = 6.95724 7.01888 6.98813
#
# Compressibility (1/GPa) = 0.01744365
#
# Stress axis : x y z
#
# Youngs Moduli (GPa) = 67.38599 75.60533 68.53699
#
# Poissons Ratio (x) = 0.30441 0.34959
# Poissons Ratio (y) = 0.27132 0.23849
# Poissons Ratio (z) = 0.34371 0.26309
#
# Static dielectric constant tensor:
#      x y z
#    x 3.343870 0.000000 -0.067330 
#    y 0.000000 3.690840 0.000000 
#    z -0.067330 0.000000 3.510740 
# 
# 
# High freq. dielectric constant tensor:
#      x y z
#    x 1.731740 0.000000 -0.001290 
#    y 0.000000 1.758280 0.000000 
#    z -0.001290 0.000000 1.753420 
# 
# From -- ./inp_files/41931.got.cif
#   From: 2010.03.12/outbox.cif.g09.slc.cpg/sg5_21_cif.got.tgz:41931.got - 2010.03.31 09:47:26.
