data_PCOD8049618
_publ_section_title
;
Structure prediction by ZEFSAII (Michael W. Deem and Ramdas Pophale) SiO2 
 PCOD8049618
Probable space group: C 2
;
_chemical_formula_sum "Si O2"
_cell_formula_units_Z 22
_cell_length_a 15.182774
_cell_length_b 9.099237
_cell_length_c 24.820580
_cell_angle_alpha 90.000000
_cell_angle_beta 161.395100
_cell_angle_gamma 90.000000
_cell_volume 1093.990775
_symmetry_space_group_name_H-M "C 2"
_symmetry_group_IT_number 5
_symmetry_cell_setting 'monoclinic'
loop_
_space_group_symop_operation_xyz
x,y,z
-x,y,-z
1/2+x,1/2+y,z
1/2-x,1/2+y,-z
loop_
_atom_site_type_symbol
_atom_site_label
_atom_site_fract_x
_atom_site_fract_y
_atom_site_fract_z
Si Si1 0.813650 0.739110 0.675891
Si Si2 0.444811 0.191006 0.870550
Si Si3 0.740144 0.472348 0.884496
Si Si4 0.500000 0.405876 0.000000
Si Si5 0.082535 0.508383 0.350041
Si Si6 0.594639 0.680672 0.383574
O O1 0.500000 0.800763 0.500000
O O2 0.977568 0.730284 0.827220
O O3 0.793327 0.584985 0.631587
O O4 0.011660 0.847078 0.757536
O O5 0.115015 0.180146 0.687278
O O6 0.553005 0.308995 0.977092
O O7 0.619503 0.039908 0.980206
O O8 0.571745 0.605990 0.760760
O O9 0.000000 0.415455 0.000000
O O10 0.754691 0.513050 0.155849
O O11 0.144223 0.593303 0.441870
O O12 0.191792 0.340989 0.419344
#
# Coordination Sequence:
#
# PCOD8049618 Si02
#       6
#     4   4   4   2   4   4
#     4  12  26  40  63  98 138 170 218 277 329 373
#     4  10  20  43  64  89 131 175 208 276 325 380
#     4  10  22  43  68  94 124 178 223 260 327 392
#     4  10  22  42  68  92 130 174 220 262 334 390
#     4  11  22  41  66  97 127 171 220 266 323 389
#     4  10  20  41  71  87 130 175 221 259 327 396
#
# _framework density 20.109857999999999
#
# number of rings (size 3 to 8) (size 9 to 14) (size 15 to 20)
#    0.000    1.455    6.364    1.091    6.364    0.000 
#    0.000    0.909    0.000    0.000    0.000    0.000 
#    0.000    0.000    0.000    0.000    0.000    0.000 
#
# Total GULP energy -136283.136550 kJ/mol
# GULP energy per Si atom -12389.376050 kJ/mol
# Density = 2.006409 g / cm^3
# Si number density = 20.109858 Si / 1000 Ang^3
#
#
#
# Elastic Constant Matrix: (Units=GPa)
#
#
# Indices 1 2 3 4 5 6 
#
# 1 86.3416 50.9117 41.6771 0.0211 -12.1943 -0.0146
# 2 50.9117 113.3217 53.4189 0.0654 6.5829 -0.0054
# 3 41.6771 53.4189 137.6728 0.3381 2.5053 -0.0643
# 4 0.0211 0.0654 0.3381 40.7460 -0.0274 0.1978
# 5 -12.1943 6.5829 2.5053 -0.0274 31.2410 -0.0224
# 6 -0.0146 -0.0054 -0.0643 0.1978 -0.0224 17.7498
#
#
#
# Elastic Compliance Matrix: (Units=1/GPa)
#
#
# Indices 1 2 3 4 5 6 
#
# 1 0.018747 -0.007588 -0.002897 0.000033 0.009149 0.000014
# 2 -0.007588 0.013990 -0.003028 0.000003 -0.005667 -0.000020
# 3 -0.002897 -0.003028 0.009338 -0.000072 -0.001242 0.000030
# 4 0.000033 0.000003 -0.000072 0.024544 0.000039 -0.000274
# 5 0.009149 -0.005667 -0.001242 0.000039 0.036874 0.000047
# 6 0.000014 -0.000020 0.000030 -0.000274 0.000047 0.056342
#
#
# Mechanical properties :
#
#
# Convention : Reuss Voigt Hill
#
# Bulk Modulus (GPa) = 66.45296 69.92794 68.19045
# Shear Modulus (GPa) = 26.05807 30.70258 28.38032
#
# Velocity S-wave (km/s) = 3.60361 3.91159 3.76076
# Velocity P-wave (km/s) = 7.10150 7.43298 7.26913
#
# Compressibility (1/GPa) = 0.01504824
#
# Stress axis : x y z
#
# Youngs Moduli (GPa) = 53.34208 71.47905 107.08358
#
# Poissons Ratio (x) = 0.54238 0.31027
# Poissons Ratio (y) = 0.40476 0.32427
# Poissons Ratio (z) = 0.15456 0.21645
#
# Static dielectric constant tensor:
#      x y z
#    x 3.432550 -0.000020 -0.068030 
#    y -0.000020 3.562520 -0.000070 
#    z -0.068030 -0.000070 3.894540 
# 
# 
# High freq. dielectric constant tensor:
#      x y z
#    x 1.759330 0.000000 -0.020810 
#    y 0.000000 1.773720 -0.000010 
#    z -0.020810 -0.000010 1.809610 
# 
# From -- ./inp_files/41407.got.cif
#   From: 2010.03.12/outbox.cif.g09.slc.cpg/sg5_21_cif.got.tgz:41407.got - 2010.03.31 09:47:26.
