data_PCOD8049884
_publ_section_title
;
Structure prediction by ZEFSAII (Michael W. Deem and Ramdas Pophale) SiO2 
 PCOD8049884
Probable space group: C 2
;
_chemical_formula_sum "Si O2"
_cell_formula_units_Z 28
_cell_length_a 31.132419
_cell_length_b 5.249037
_cell_length_c 9.989087
_cell_angle_alpha 90.000000
_cell_angle_beta 128.247041
_cell_angle_gamma 90.000000
_cell_volume 1281.979079
_symmetry_space_group_name_H-M "C 2"
_symmetry_group_IT_number 5
_symmetry_cell_setting 'monoclinic'
loop_
_space_group_symop_operation_xyz
x,y,z
-x,y,-z
1/2+x,1/2+y,z
1/2-x,1/2+y,-z
loop_
_atom_site_type_symbol
_atom_site_label
_atom_site_fract_x
_atom_site_fract_y
_atom_site_fract_z
Si Si1 0.053145 0.703150 0.847865
Si Si2 0.305272 0.820300 0.266475
Si Si3 0.698079 0.549440 0.000161
Si Si4 0.116776 0.685464 0.720042
Si Si5 0.115066 0.217368 0.043087
Si Si6 0.073439 0.793562 0.362466
Si Si7 0.124890 0.273964 0.358340
O O1 0.063449 0.648493 0.709710
O O2 0.073944 0.454411 0.965305
O O3 0.989220 0.720472 0.747613
O O4 0.082069 0.955694 0.960235
O O5 0.283536 0.619340 0.115703
O O6 0.323079 0.711216 0.444912
O O7 0.359630 0.928719 0.298748
O O8 0.254037 0.009219 0.191566
O O9 0.661961 0.298392 0.908144
O O10 0.661319 0.747400 0.016114
O O11 0.099261 0.856083 0.558784
O O12 0.144752 0.234166 0.244515
O O13 0.104004 0.560337 0.346833
O O14 0.078612 0.058218 0.292481
#
# Coordination Sequence:
#
# PCOD8049884 Si02
#       7
#     4   4   4   4   4   4   4
#     4  11  23  40  66  94 129 173 216 263 321 382
#     4  11  21  40  67  94 125 167 217 265 326 384
#     4  11  21  40  67  94 125 167 217 265 326 384
#     4  10  21  38  60  96 130 158 211 278 316 372
#     4  11  25  43  63  95 135 168 212 269 319 383
#     4  11  23  40  66  94 129 173 216 263 321 382
#     4  11  25  43  63  95 135 168 212 269 319 383
#
# _framework density 21.841227
#
# number of rings (size 3 to 8) (size 9 to 14) (size 15 to 20)
#    0.000    1.143    4.286    2.143    0.000    3.429 
#    0.000   10.000    0.000    0.000    0.000    0.000 
#    0.000    0.000    0.000    0.000    0.000    0.000 
#
# Total GULP energy -173500.865279 kJ/mol
# GULP energy per Si atom -12392.918948 kJ/mol
# Density = 2.179152 g / cm^3
# Si number density = 21.841227 Si / 1000 Ang^3
#
#
#
# Elastic Constant Matrix: (Units=GPa)
#
#
# Indices 1 2 3 4 5 6 
#
# 1 70.6596 10.3715 47.4056 0.0000 4.8334 0.0000
# 2 10.3715 99.8884 22.2589 0.0000 1.5338 0.0000
# 3 47.4056 22.2589 123.6146 0.0000 -16.7102 0.0000
# 4 0.0000 0.0000 0.0000 23.6128 0.0000 5.9787
# 5 4.8334 1.5338 -16.7102 0.0000 33.8883 0.0000
# 6 0.0000 0.0000 0.0000 5.9787 0.0000 19.2551
#
#
#
# Elastic Compliance Matrix: (Units=1/GPa)
#
#
# Indices 1 2 3 4 5 6 
#
# 1 0.020625 -0.000048 -0.008891 0.000000 -0.007324 0.000000
# 2 -0.000048 0.010501 -0.002074 0.000000 -0.001491 0.000000
# 3 -0.008891 -0.002074 0.012918 0.000000 0.007732 0.000000
# 4 0.000000 0.000000 0.000000 0.045963 0.000000 -0.014272
# 5 -0.007324 -0.001491 0.007732 0.000000 0.034433 0.000000
# 6 0.000000 0.000000 0.000000 -0.014272 0.000000 0.056366
#
#
# Mechanical properties :
#
#
# Convention : Reuss Voigt Hill
#
# Bulk Modulus (GPa) = 45.41650 50.47050 47.94350
# Shear Modulus (GPa) = 23.78994 29.62635 26.70815
#
# Velocity S-wave (km/s) = 3.30392 3.68699 3.50070
# Velocity P-wave (km/s) = 5.94925 6.42520 6.19180
#
# Compressibility (1/GPa) = 0.02201843
#
# Stress axis : x y z
#
# Youngs Moduli (GPa) = 48.48380 95.22690 77.41106
#
# Poissons Ratio (x) = 0.00455 0.68827
# Poissons Ratio (y) = 0.00232 0.16056
# Poissons Ratio (z) = 0.43108 0.19752
#
# Static dielectric constant tensor:
#      x y z
#    x 4.039260 0.000000 -0.199410 
#    y 0.000000 3.804480 0.000000 
#    z -0.199410 0.000000 4.251000 
# 
# 
# High freq. dielectric constant tensor:
#      x y z
#    x 1.848750 0.000000 -0.005680 
#    y 0.000000 1.855020 0.000000 
#    z -0.005680 0.000000 1.862390 
# 
# From -- ./inp_files/32321.got.cif
#   From: 2010.03.12/outbox.cif.g09.slc.cpg/sg5_17_cif.got.tgz:32321.got - 2010.03.31 09:47:26.
