data_PCOD8049477
_publ_section_title
;
Structure prediction by ZEFSAII (Michael W. Deem and Ramdas Pophale) SiO2 
 PCOD8049477
Probable space group: C 2
;
_chemical_formula_sum "Si O2"
_cell_formula_units_Z 30
_cell_length_a 27.874059
_cell_length_b 9.100163
_cell_length_c 5.940544
_cell_angle_alpha 90.000000
_cell_angle_beta 74.418184
_cell_angle_gamma 90.000000
_cell_volume 1451.488698
_symmetry_space_group_name_H-M "C 2"
_symmetry_group_IT_number 5
_symmetry_cell_setting 'monoclinic'
loop_
_space_group_symop_operation_xyz
x,y,z
-x,y,-z
1/2+x,1/2+y,z
1/2-x,1/2+y,-z
loop_
_atom_site_type_symbol
_atom_site_label
_atom_site_fract_x
_atom_site_fract_y
_atom_site_fract_z
Si Si1 0.579866 0.847920 0.724210
Si Si2 0.000000 0.416300 0.500000
Si Si3 0.856377 0.833341 0.878880
Si Si4 0.340772 0.837758 0.765766
Si Si5 0.800096 0.976007 0.548722
Si Si6 0.588059 0.049569 0.112423
Si Si7 0.739913 0.252851 0.740119
Si Si8 0.634578 0.614775 0.901834
O O1 0.528511 0.819566 0.652493
O O2 0.627197 0.843575 0.502350
O O3 0.586945 0.712121 0.887272
O O4 0.576195 0.003865 0.866945
O O5 0.958183 0.513425 0.670525
O O6 0.842863 0.911621 0.660047
O O7 0.900806 0.716018 0.832687
O O8 0.806111 0.759321 0.032833
O O9 0.881438 0.951354 0.013600
O O10 0.283240 0.860207 0.778419
O O11 0.360729 0.964012 0.902166
O O12 0.342740 0.684185 0.898681
O O13 0.776106 0.828774 0.474422
O O14 0.757224 0.081714 0.707781
O O15 0.824502 0.093668 0.345476
#
# Coordination Sequence:
#
# PCOD8049477 Si02
#       8
#     4   2   4   4   4   4   4   4
#     4  10  20  40  68  93 119 156 210 269 332 386
#     4  10  22  42  68  98 118 156 210 280 334 390
#     4  11  25  38  59  91 130 176 214 265 317 382
#     4  10  21  37  63  88 125 169 212 265 310 387
#     4  11  25  39  57  88 132 176 218 263 314 373
#     4  10  24  39  67  93 125 164 218 268 330 388
#     4  11  25  35  60  88 132 172 225 259 317 376
#     4  10  20  40  60  89 124 170 207 262 319 386
#
# _framework density 20.668433
#
# number of rings (size 3 to 8) (size 9 to 14) (size 15 to 20)
#    0.000    1.600    2.667    0.400    7.467    3.200 
#    0.000    0.000    0.000   32.800    0.000    0.000 
#    0.000    0.000    0.000    0.000    0.000    0.000 
#
# Total GULP energy -185821.971351 kJ/mol
# GULP energy per Si atom -12388.131423 kJ/mol
# Density = 2.062139 g / cm^3
# Si number density = 20.668433 Si / 1000 Ang^3
#
#
#
# Elastic Constant Matrix: (Units=GPa)
#
#
# Indices 1 2 3 4 5 6 
#
# 1 117.7467 38.5812 31.7435 0.0000 14.7452 0.0000
# 2 38.5812 95.1459 29.2392 0.0000 5.1518 0.0000
# 3 31.7435 29.2392 94.9758 0.0000 5.1977 0.0000
# 4 0.0000 0.0000 0.0000 22.6318 0.0000 0.5255
# 5 14.7452 5.1518 5.1977 0.0000 33.1427 0.0000
# 6 0.0000 0.0000 0.0000 0.5255 0.0000 28.8651
#
#
#
# Elastic Compliance Matrix: (Units=1/GPa)
#
#
# Indices 1 2 3 4 5 6 
#
# 1 0.010726 -0.003427 -0.002318 0.000000 -0.003876 0.000000
# 2 -0.003427 0.012755 -0.002780 0.000000 -0.000022 0.000000
# 3 -0.002318 -0.002780 0.012184 0.000000 -0.000447 0.000000
# 4 0.000000 0.000000 0.000000 0.044204 0.000000 -0.000805
# 5 -0.003876 -0.000022 -0.000447 0.000000 0.031970 0.000000
# 6 0.000000 0.000000 0.000000 -0.000805 0.000000 0.034659
#
#
# Mechanical properties :
#
#
# Convention : Reuss Voigt Hill
#
# Bulk Modulus (GPa) = 53.71954 56.33291 55.02623
# Shear Modulus (GPa) = 29.45436 30.81489 30.13462
#
# Velocity S-wave (km/s) = 3.77913 3.86543 3.82252
# Velocity P-wave (km/s) = 6.71491 6.87290 6.79436
#
# Compressibility (1/GPa) = 0.01861520
#
# Stress axis : x y z
#
# Youngs Moduli (GPa) = 93.23173 78.39770 82.07460
#
# Poissons Ratio (x) = 0.26869 0.19022
# Poissons Ratio (y) = 0.31953 0.22819
# Poissons Ratio (z) = 0.21608 0.21796
#
# Static dielectric constant tensor:
#      x y z
#    x 3.743330 0.000000 0.288460 
#    y 0.000000 3.732070 0.000000 
#    z 0.288460 0.000000 3.902250 
# 
# 
# High freq. dielectric constant tensor:
#      x y z
#    x 1.796150 0.000000 0.017750 
#    y 0.000000 1.799510 0.000000 
#    z 0.017750 0.000000 1.816860 
# 
# From -- ./inp_files/11220.got.cif
#   From: 2010.03.12/outbox.cif.g09.slc.cpg/sg5_6_cif.got.tgz:11220.got - 2010.03.31 09:47:26.
