data_PCOD8049688
_publ_section_title
;
Structure prediction by ZEFSAII (Michael W. Deem and Ramdas Pophale) SiO2 
 PCOD8049688
Probable space group: C 2
;
_chemical_formula_sum "Si O2"
_cell_formula_units_Z 26
_cell_length_a 14.444141
_cell_length_b 13.124738
_cell_length_c 9.245085
_cell_angle_alpha 90.000000
_cell_angle_beta 40.182494
_cell_angle_gamma 90.000000
_cell_volume 1130.847334
_symmetry_space_group_name_H-M "C 2"
_symmetry_group_IT_number 5
_symmetry_cell_setting 'monoclinic'
loop_
_space_group_symop_operation_xyz
x,y,z
-x,y,-z
1/2+x,1/2+y,z
1/2-x,1/2+y,-z
loop_
_atom_site_type_symbol
_atom_site_label
_atom_site_fract_x
_atom_site_fract_y
_atom_site_fract_z
Si Si1 0.625664 0.244340 0.747873
Si Si2 0.434378 0.263542 0.720552
Si Si3 0.000000 0.110770 0.500000
Si Si4 0.188894 0.050004 0.525563
Si Si5 0.614195 0.755663 0.122525
Si Si6 0.500000 0.064441 0.500000
Si Si7 0.144963 0.402454 0.511067
Si Si8 0.500000 0.628488 0.000000
O O1 0.542072 0.299214 0.717085
O O2 0.720189 0.152806 0.577396
O O3 0.736176 0.323185 0.691600
O O4 0.500000 0.202681 0.000000
O O5 0.500000 0.316535 0.500000
O O6 0.431795 0.138725 0.704727
O O7 0.273514 0.302093 0.941803
O O8 0.101958 0.040936 0.478874
O O9 0.095407 0.179705 0.279869
O O10 0.292683 0.952693 0.416016
O O11 0.091169 0.055042 0.786599
O O12 0.503159 0.848114 0.272150
O O13 0.595783 0.700556 0.989709
O O14 0.622484 0.991455 0.420279
#
# Coordination Sequence:
#
# PCOD8049688 Si02
#       8
#     4   4   2   4   4   2   4   2
#     4  12  25  45  70 103 147 183 229 301 354 409
#     4  10  23  46  72  96 140 186 230 283 358 411
#     4  10  21  42  71 100 148 180 223 292 369 402
#     4  11  23  47  69 107 140 191 235 293 353 421
#     4  11  22  41  74 103 137 186 234 290 351 420
#     4  10  23  46  75 102 132 190 243 284 331 448
#     4  12  25  43  73 109 138 183 248 282 350 426
#     4  10  20  42  74  96 142 184 230 294 354 410
#
# _framework density 22.991610999999999
#
# number of rings (size 3 to 8) (size 9 to 14) (size 15 to 20)
#    0.462    0.615    4.615    3.231    3.231    0.000 
#    2.769    0.000    0.000    1.846    0.000    0.000 
#    0.000    0.000    0.000    0.000    0.000    0.000 
#
# Total GULP energy -161149.739895 kJ/mol
# GULP energy per Si atom -12396.133838 kJ/mol
# Density = 2.293928 g / cm^3
# Si number density = 22.991611 Si / 1000 Ang^3
#
#
#
# Elastic Constant Matrix: (Units=GPa)
#
#
# Indices 1 2 3 4 5 6 
#
# 1 135.5316 15.1843 51.1409 0.0000 -9.4147 0.0000
# 2 15.1843 66.3598 17.0835 0.0000 -15.5737 0.0000
# 3 51.1409 17.0835 110.4549 0.0000 -8.2447 0.0000
# 4 0.0000 0.0000 0.0000 12.1883 0.0000 -7.9551
# 5 -9.4147 -15.5737 -8.2447 0.0000 49.4071 0.0000
# 6 0.0000 0.0000 0.0000 -7.9551 0.0000 49.0280
#
#
#
# Elastic Compliance Matrix: (Units=1/GPa)
#
#
# Indices 1 2 3 4 5 6 
#
# 1 0.009035 -0.000855 -0.003992 0.000000 0.000786 0.000000
# 2 -0.000855 0.016880 -0.001853 0.000000 0.004849 0.000000
# 3 -0.003992 -0.001853 0.011228 0.000000 0.000529 0.000000
# 4 0.000000 0.000000 0.000000 0.091764 0.000000 0.014889
# 5 0.000786 0.004849 0.000529 0.000000 0.022006 0.000000
# 6 0.000000 0.000000 0.000000 0.014889 0.000000 0.022812
#
#
# Mechanical properties :
#
#
# Convention : Reuss Voigt Hill
#
# Bulk Modulus (GPa) = 42.11897 53.24041 47.67969
# Shear Modulus (GPa) = 25.63565 37.38719 31.51142
#
# Velocity S-wave (km/s) = 3.34278 4.03690 3.70613
# Velocity P-wave (km/s) = 5.76697 6.70339 6.25274
#
# Compressibility (1/GPa) = 0.02374227
#
# Stress axis : x y z
#
# Youngs Moduli (GPa) = 110.67780 59.24191 89.06298
#
# Poissons Ratio (x) = 0.05066 0.35558
# Poissons Ratio (y) = 0.09465 0.16502
# Poissons Ratio (z) = 0.44187 0.10977
#
# Static dielectric constant tensor:
#      x y z
#    x 4.537270 0.000000 -0.039550 
#    y 0.000000 3.902600 0.000000 
#    z -0.039550 0.000000 3.939820 
# 
# 
# High freq. dielectric constant tensor:
#      x y z
#    x 1.934270 0.000000 -0.007410 
#    y 0.000000 1.886170 0.000000 
#    z -0.007410 0.000000 1.893960 
# 
# From -- ./inp_files/24550.got.cif
#   From: 2010.03.12/outbox.cif.g09.slc.cpg/sg5_13_cif.got.tgz:24550.got - 2010.03.31 09:47:26.
