data_PCOD8049857
_publ_section_title
;
Structure prediction by ZEFSAII (Michael W. Deem and Ramdas Pophale) SiO2 
 PCOD8049857
Probable space group: C 2
;
_chemical_formula_sum "Si O2"
_cell_formula_units_Z 24
_cell_length_a 21.228562
_cell_length_b 8.134817
_cell_length_c 11.526189
_cell_angle_alpha 90.000000
_cell_angle_beta 33.084891
_cell_angle_gamma 90.000000
_cell_volume 1086.555980
_symmetry_space_group_name_H-M "C 2"
_symmetry_group_IT_number 5
_symmetry_cell_setting 'monoclinic'
loop_
_space_group_symop_operation_xyz
x,y,z
-x,y,-z
1/2+x,1/2+y,z
1/2-x,1/2+y,-z
loop_
_atom_site_type_symbol
_atom_site_label
_atom_site_fract_x
_atom_site_fract_y
_atom_site_fract_z
Si Si1 0.100917 0.372700 0.434225
Si Si2 0.401326 0.376728 0.241008
Si Si3 0.303898 0.320620 0.751137
Si Si4 0.252145 0.518970 0.029277
Si Si5 0.021609 0.030201 0.644281
Si Si6 0.209543 0.611548 0.433962
O O1 0.108268 0.510537 0.524221
O O2 0.000000 0.416209 0.500000
O O3 0.088866 0.197466 0.512764
O O4 0.218199 0.376981 0.175269
O O5 0.457473 0.484506 0.255408
O O6 0.307986 0.488354 0.320921
O O7 0.342618 0.208961 0.376555
O O8 0.500000 0.322445 0.000000
O O9 0.226884 0.460317 0.935465
O O10 0.427218 0.389967 0.519108
O O11 0.238050 0.243788 0.740757
O O12 0.322313 0.180069 0.821773
O O13 0.387897 0.555923 0.826338
#
# Coordination Sequence:
#
# PCOD8049857 Si02
#       6
#     4   4   4   4   4   4
#     4  11  23  42  65  94 132 165 204 261 319 379
#     4  11  23  44  68  89 124 169 215 264 315 369
#     4  10  21  37  62  93 127 164 204 250 308 374
#     4  11  22  39  62  93 131 169 204 248 316 380
#     4  11  23  41  66  94 128 167 208 261 315 372
#     4  10  24  43  64  95 126 164 217 266 310 372
#
# _framework density 22.088137
#
# number of rings (size 3 to 8) (size 9 to 14) (size 15 to 20)
#    0.000    1.333    0.000    6.500    0.000    8.000 
#    0.000   21.667    0.000    0.000    0.000    0.000 
#    0.000    0.000    0.000    0.000    0.000    0.000 
#
# Total GULP energy -148723.478096 kJ/mol
# GULP energy per Si atom -12393.623175 kJ/mol
# Density = 2.203786 g / cm^3
# Si number density = 22.088137 Si / 1000 Ang^3
#
#
#
# Elastic Constant Matrix: (Units=GPa)
#
#
# Indices 1 2 3 4 5 6 
#
# 1 98.5282 48.5788 38.0549 0.0000 15.7232 0.0000
# 2 48.5788 106.6471 71.6566 0.0001 11.6946 -0.0001
# 3 38.0549 71.6566 143.5758 0.0000 28.4875 0.0000
# 4 0.0000 0.0001 0.0000 45.5994 0.0000 13.7059
# 5 15.7232 11.6946 28.4875 0.0000 31.9340 0.0000
# 6 0.0000 -0.0001 0.0000 13.7059 0.0000 44.0825
#
#
#
# Elastic Compliance Matrix: (Units=1/GPa)
#
#
# Indices 1 2 3 4 5 6 
#
# 1 0.013728 -0.005902 0.000266 0.000000 -0.004836 0.000000
# 2 -0.005902 0.016693 -0.007449 0.000000 0.003438 0.000000
# 3 0.000266 -0.007449 0.012268 0.000000 -0.008348 0.000000
# 4 0.000000 0.000000 0.000000 0.024191 0.000000 -0.007521
# 5 -0.004836 0.003438 -0.008348 0.000000 0.039883 0.000000
# 6 0.000000 0.000000 0.000000 -0.007521 0.000000 0.025023
#
#
# Mechanical properties :
#
#
# Convention : Reuss Voigt Hill
#
# Bulk Modulus (GPa) = 60.53200 73.92573 67.22887
# Shear Modulus (GPa) = 30.58793 37.02056 33.80425
#
# Velocity S-wave (km/s) = 3.72534 4.09839 3.91631
# Velocity P-wave (km/s) = 6.78001 7.47910 7.13812
#
# Compressibility (1/GPa) = 0.01652019
#
# Stress axis : x y z
#
# Youngs Moduli (GPa) = 72.84329 59.90430 81.51027
#
# Poissons Ratio (x) = 0.35356 -0.02172
# Poissons Ratio (y) = 0.42992 0.60718
# Poissons Ratio (z) = -0.01941 0.44624
#
# Static dielectric constant tensor:
#      x y z
#    x 3.977780 0.000000 0.397110 
#    y 0.000000 4.241130 0.000000 
#    z 0.397110 0.000000 4.238770 
# 
# 
# High freq. dielectric constant tensor:
#      x y z
#    x 1.850180 0.000000 0.028070 
#    y 0.000000 1.881500 0.000000 
#    z 0.028070 0.000000 1.877320 
# 
# From -- ./inp_files/47235.got.cif
#   From: 2010.03.12/outbox.cif.g09.slc.cpg/sg5_24_cif.got.tgz:47235.got - 2010.03.31 09:47:26.
