data_PCOD8049577
_publ_section_title
;
Structure prediction by ZEFSAII (Michael W. Deem and Ramdas Pophale) SiO2 
 PCOD8049577
Probable space group: C 2
;
_chemical_formula_sum "Si O2"
_cell_formula_units_Z 24
_cell_length_a 12.461646
_cell_length_b 8.649441
_cell_length_c 12.309947
_cell_angle_alpha 90.000000
_cell_angle_beta 74.264034
_cell_angle_gamma 90.000000
_cell_volume 1277.115455
_symmetry_space_group_name_H-M "C 2"
_symmetry_group_IT_number 5
_symmetry_cell_setting 'monoclinic'
loop_
_space_group_symop_operation_xyz
x,y,z
-x,y,-z
1/2+x,1/2+y,z
1/2-x,1/2+y,-z
loop_
_atom_site_type_symbol
_atom_site_label
_atom_site_fract_x
_atom_site_fract_y
_atom_site_fract_z
Si Si1 0.000000 0.280520 0.000000
Si Si2 0.768384 0.369578 0.108533
Si Si3 0.625669 0.716950 0.553671
Si Si4 0.831652 0.714704 0.657229
Si Si5 0.175592 0.202640 0.108040
Si Si6 0.000000 0.938504 0.500000
Si Si7 0.599185 0.867513 0.338751
O O1 0.056442 0.176575 0.079450
O O2 0.903235 0.385617 0.081497
O O3 0.720928 0.258590 0.213591
O O4 0.718420 0.538267 0.134693
O O5 0.740267 0.288879 0.999574
O O6 0.736801 0.713178 0.592350
O O7 0.577734 0.543598 0.555901
O O8 0.654717 0.781825 0.426289
O O9 0.532069 0.826656 0.634008
O O10 0.926242 0.836098 0.600286
O O11 0.890079 0.550034 0.651504
O O12 0.164427 0.312695 0.214568
#
# Coordination Sequence:
#
# PCOD8049577 Si02
#       7
#     2   4   4   4   4   2   4
#     4   8  22  38  62  80 118 152 192 244 292 344
#     4  10  21  38  65  84 119 155 196 244 296 344
#     4  10  22  40  60  86 123 161 192 246 289 347
#     4  12  22  38  63  90 119 161 191 245 295 352
#     4  10  20  41  61  85 117 155 195 244 294 346
#     4  10  22  38  60  90 120 154 206 234 288 352
#     4  10  21  38  62  87 122 155 199 241 293 348
#
# _framework density 18.792349000000002
#
# number of rings (size 3 to 8) (size 9 to 14) (size 15 to 20)
#    1.000    1.000    0.000    6.000    0.000    0.000 
#    0.000    5.833    0.000    0.000    0.000    0.000 
#    0.000    0.000    0.000    0.000    0.000    0.000 
#
# Total GULP energy -148746.128906 kJ/mol
# GULP energy per Si atom -12395.510742 kJ/mol
# Density = 1.874958 g / cm^3
# Si number density = 18.792349 Si / 1000 Ang^3
#
#
#
# Elastic Constant Matrix: (Units=GPa)
#
#
# Indices 1 2 3 4 5 6 
#
# 1 74.8078 55.0940 36.9888 0.0000 -7.9010 0.0000
# 2 55.0940 138.0267 44.3488 0.0000 -7.2243 0.0000
# 3 36.9888 44.3488 130.1281 0.0000 -12.3159 0.0000
# 4 0.0000 0.0000 0.0000 29.8802 0.0000 -3.8232
# 5 -7.9010 -7.2243 -12.3159 0.0000 10.0028 0.0000
# 6 0.0000 0.0000 0.0000 -3.8232 0.0000 22.9835
#
#
#
# Elastic Compliance Matrix: (Units=1/GPa)
#
#
# Indices 1 2 3 4 5 6 
#
# 1 0.020694 -0.006958 -0.002761 0.000000 0.007921 0.000000
# 2 -0.006958 0.010545 -0.001602 0.000000 0.000147 0.000000
# 3 -0.002761 -0.001602 0.009847 0.000000 0.008786 0.000000
# 4 0.000000 0.000000 0.000000 0.034195 0.000000 0.005688
# 5 0.007921 0.000147 0.008786 0.000000 0.117152 0.000000
# 6 0.000000 0.000000 0.000000 0.005688 0.000000 0.044456
#
#
# Mechanical properties :
#
#
# Convention : Reuss Voigt Hill
#
# Bulk Modulus (GPa) = 54.22088 68.42510 61.32299
# Shear Modulus (GPa) = 18.81968 26.34205 22.58086
#
# Velocity S-wave (km/s) = 3.16801 3.74805 3.47017
# Velocity P-wave (km/s) = 6.50361 7.43106 6.98275
#
# Compressibility (1/GPa) = 0.01844308
#
# Stress axis : x y z
#
# Youngs Moduli (GPa) = 48.32302 94.83291 101.55255
#
# Poissons Ratio (x) = 0.65988 0.28040
# Poissons Ratio (y) = 0.33625 0.16268
# Poissons Ratio (z) = 0.13343 0.15192
#
# Static dielectric constant tensor:
#      x y z
#    x 3.317310 0.000000 -0.090400 
#    y 0.000000 3.399740 0.000000 
#    z -0.090400 0.000000 3.566610 
# 
# 
# High freq. dielectric constant tensor:
#      x y z
#    x 1.716090 0.000000 -0.007160 
#    y 0.000000 1.728110 0.000000 
#    z -0.007160 0.000000 1.744070 
# 
# From -- ./inp_files/41313.got.cif
#   From: 2010.03.12/outbox.cif.g09.slc.cpg/sg5_21_cif.got.tgz:41313.got - 2010.03.31 09:47:26.
