data_PCOD8049757
_publ_section_title
;
Structure prediction by ZEFSAII (Michael W. Deem and Ramdas Pophale) SiO2 
 PCOD8049757
Probable space group: C 2
;
_chemical_formula_sum "Si O2"
_cell_formula_units_Z 28
_cell_length_a 13.098803
_cell_length_b 7.891513
_cell_length_c 17.988596
_cell_angle_alpha 90.000000
_cell_angle_beta 135.354252
_cell_angle_gamma 90.000000
_cell_volume 1306.689203
_symmetry_space_group_name_H-M "C 2"
_symmetry_group_IT_number 5
_symmetry_cell_setting 'monoclinic'
loop_
_space_group_symop_operation_xyz
x,y,z
-x,y,-z
1/2+x,1/2+y,z
1/2-x,1/2+y,-z
loop_
_atom_site_type_symbol
_atom_site_label
_atom_site_fract_x
_atom_site_fract_y
_atom_site_fract_z
Si Si1 0.881521 0.002030 0.376585
Si Si2 0.538728 0.621331 0.794951
Si Si3 0.804895 0.311296 0.250267
Si Si4 0.894042 0.803973 0.243774
Si Si5 0.067989 0.530830 0.397903
Si Si6 0.257269 0.759760 0.590090
Si Si7 0.400754 0.614132 0.877212
O O1 0.781602 0.159052 0.297237
O O2 0.000000 0.057189 0.500000
O O3 0.956036 0.925239 0.341889
O O4 0.781442 0.848986 0.352850
O O5 0.652653 0.747123 0.811724
O O6 0.596760 0.425947 0.823762
O O7 0.389060 0.632135 0.671230
O O8 0.504685 0.673298 0.862547
O O9 0.661730 0.426228 0.172124
O O10 0.934606 0.417145 0.356369
O O11 0.728599 0.746255 0.173094
O O12 0.003150 0.643402 0.295291
O O13 0.119680 0.655046 0.489806
O O14 0.201741 0.413529 0.443804
O O15 0.500000 0.603072 0.000000
#
# Coordination Sequence:
#
# PCOD8049757 Si02
#       7
#     4   4   4   4   4   4   4
#     4  11  21  37  58  90 128 168 209 253 302 375
#     4  10  22  41  64  90 129 164 202 269 316 372
#     4   9  24  42  59  91 132 164 218 263 307 380
#     4  10  21  42  60  90 127 160 210 263 313 374
#     4  10  21  35  54  89 126 168 207 252 302 380
#     4  11  21  34  59  89 130 171 212 242 311 383
#     4  11  24  44  68  92 120 165 220 268 332 376
#
# _framework density 21.4282
#
# number of rings (size 3 to 8) (size 9 to 14) (size 15 to 20)
#    0.000    1.714    2.857    0.857    6.000    2.286 
#    0.000    2.857    0.000    0.000    0.000    0.000 
#    0.000    0.000    0.000    0.000    0.000    0.000 
#
# Total GULP energy -173475.834695 kJ/mol
# GULP energy per Si atom -12391.131050 kJ/mol
# Density = 2.137943 g / cm^3
# Si number density = 21.428200 Si / 1000 Ang^3
#
#
#
# Elastic Constant Matrix: (Units=GPa)
#
#
# Indices 1 2 3 4 5 6 
#
# 1 80.1735 32.3505 28.6785 0.0000 -8.0439 0.0000
# 2 32.3505 110.3919 32.8775 0.0000 -1.0857 0.0000
# 3 28.6785 32.8775 89.3984 0.0000 -6.5699 0.0000
# 4 0.0000 0.0000 0.0000 22.0815 0.0000 -0.2175
# 5 -8.0439 -1.0857 -6.5699 0.0000 15.8105 0.0000
# 6 0.0000 0.0000 0.0000 -0.2175 0.0000 34.6800
#
#
#
# Elastic Compliance Matrix: (Units=1/GPa)
#
#
# Indices 1 2 3 4 5 6 
#
# 1 0.015723 -0.003574 -0.003259 0.000000 0.006400 0.000000
# 2 -0.003574 0.010997 -0.003070 0.000000 -0.002339 0.000000
# 3 -0.003259 -0.003070 0.013640 0.000000 0.003799 0.000000
# 4 0.000000 0.000000 0.000000 0.045290 0.000000 0.000284
# 5 0.006400 -0.002339 0.003799 0.000000 0.067923 0.000000
# 6 0.000000 0.000000 0.000000 0.000284 0.000000 0.028837
#
#
# Mechanical properties :
#
#
# Convention : Reuss Voigt Hill
#
# Bulk Modulus (GPa) = 48.65253 51.97520 50.31387
# Shear Modulus (GPa) = 23.91586 26.91822 25.41704
#
# Velocity S-wave (km/s) = 3.34442 3.54814 3.44779
# Velocity P-wave (km/s) = 6.13741 6.41046 6.27542
#
# Compressibility (1/GPa) = 0.02055392
#
# Stress axis : x y z
#
# Youngs Moduli (GPa) = 63.60119 90.93177 73.31644
#
# Poissons Ratio (x) = 0.32499 0.23895
# Poissons Ratio (y) = 0.22731 0.22506
# Poissons Ratio (z) = 0.20728 0.27914
#
# Static dielectric constant tensor:
#      x y z
#    x 3.920720 0.000000 -0.040880 
#    y 0.000000 4.177010 0.000000 
#    z -0.040880 0.000000 3.433120 
# 
# 
# High freq. dielectric constant tensor:
#      x y z
#    x 1.833110 0.000000 0.001120 
#    y 0.000000 1.856950 0.000000 
#    z 0.001120 0.000000 1.801080 
# 
# From -- ./inp_files/48306.got.cif
#   From: 2010.03.12/outbox.cif.g09.slc.cpg/sg5_25_cif.got.tgz:48306.got - 2010.03.31 09:47:26.
