data_PCOD8049355
_publ_section_title
;
Structure prediction by ZEFSAII (Michael W. Deem and Ramdas Pophale) SiO2 
 PCOD8049355
Probable space group: C 2
;
_chemical_formula_sum "Si O2"
_cell_formula_units_Z 24
_cell_length_a 13.791232
_cell_length_b 8.224217
_cell_length_c 9.845796
_cell_angle_alpha 90.000000
_cell_angle_beta 90.367106
_cell_angle_gamma 90.000000
_cell_volume 1116.707785
_symmetry_space_group_name_H-M "C 2"
_symmetry_group_IT_number 5
_symmetry_cell_setting 'monoclinic'
loop_
_space_group_symop_operation_xyz
x,y,z
-x,y,-z
1/2+x,1/2+y,z
1/2-x,1/2+y,-z
loop_
_atom_site_type_symbol
_atom_site_label
_atom_site_fract_x
_atom_site_fract_y
_atom_site_fract_z
Si Si1 0.000000 0.373040 0.500000
Si Si2 0.190164 0.795269 0.658326
Si Si3 0.001102 0.618663 0.263414
Si Si4 0.000000 0.417624 0.000000
Si Si5 0.804266 0.732078 0.827450
Si Si6 0.206975 0.369147 0.073499
Si Si7 0.814134 0.168764 0.422973
O O1 0.035254 0.484396 0.374363
O O2 0.914647 0.253721 0.456401
O O3 0.084208 0.724772 0.677549
O O4 0.253240 0.773935 0.795539
O O5 0.240870 0.684011 0.547049
O O6 0.176153 0.979030 0.609033
O O7 0.968596 0.529745 0.125885
O O8 0.087934 0.746257 0.233612
O O9 0.096066 0.310087 0.037406
O O10 0.795477 0.556802 0.893644
O O11 0.727069 0.762513 0.708228
O O12 0.780969 0.856784 0.947835
#
# Coordination Sequence:
#
# PCOD8049355 Si02
#       7
#     2   4   4   2   4   4   4
#     4  12  24  42  64  90 122 164 212 258 308 368
#     4  11  23  41  63  92 127 164 207 255 307 367
#     4  11  22  41  65  89 122 165 207 254 309 367
#     4  10  20  38  64  90 120 164 204 250 308 362
#     4  10  22  40  62  89 121 159 203 254 309 363
#     4  10  21  39  62  90 121 157 205 250 305 370
#     4  11  24  40  62  93 126 162 206 256 310 367
#
# _framework density 21.491744000000001
#
# number of rings (size 3 to 8) (size 9 to 14) (size 15 to 20)
#    0.000    1.333    0.000    8.000    0.000    3.333 
#    0.000    6.667    0.000    1.000    0.000    0.000 
#    0.000    0.000    0.000    0.000    0.000    0.000 
#
# Total GULP energy -148812.579830 kJ/mol
# GULP energy per Si atom -12401.048319 kJ/mol
# Density = 2.144283 g / cm^3
# Si number density = 21.491744 Si / 1000 Ang^3
#
#
#
# Elastic Constant Matrix: (Units=GPa)
#
#
# Indices 1 2 3 4 5 6 
#
# 1 176.5815 49.8489 73.2561 0.0000 -3.1644 0.0000
# 2 49.8489 32.0844 36.3072 0.0000 1.3414 0.0000
# 3 73.2561 36.3072 154.2399 0.0000 -1.6124 0.0000
# 4 0.0000 0.0000 0.0000 35.2355 0.0000 -7.0354
# 5 -3.1644 1.3414 -1.6124 0.0000 47.0770 0.0000
# 6 0.0000 0.0000 0.0000 -7.0354 0.0000 28.3659
#
#
#
# Elastic Compliance Matrix: (Units=1/GPa)
#
#
# Indices 1 2 3 4 5 6 
#
# 1 0.010402 -0.014486 -0.001519 0.000000 0.001060 0.000000
# 2 -0.014486 0.062773 -0.007928 0.000000 -0.003034 0.000000
# 3 -0.001519 -0.007928 0.009076 0.000000 0.000435 0.000000
# 4 0.000000 0.000000 0.000000 0.029859 0.000000 0.007406
# 5 0.001060 -0.003034 0.000435 0.000000 0.021414 0.000000
# 6 0.000000 0.000000 0.000000 0.007406 0.000000 0.037090
#
#
# Mechanical properties :
#
#
# Convention : Reuss Voigt Hill
#
# Bulk Modulus (GPa) = 29.08355 75.74779 52.41567
# Shear Modulus (GPa) = 21.74458 35.70192 28.72325
#
# Velocity S-wave (km/s) = 3.18428 4.08019 3.65975
# Velocity P-wave (km/s) = 5.20397 7.58412 6.50385
#
# Compressibility (1/GPa) = 0.03438370
#
# Stress axis : x y z
#
# Youngs Moduli (GPa) = 96.13675 15.93044 110.18413
#
# Poissons Ratio (x) = 0.23077 0.16740
# Poissons Ratio (y) = 1.39266 0.87353
# Poissons Ratio (z) = 0.14606 0.12629
#
# Static dielectric constant tensor:
#      x y z
#    x 4.327480 0.000000 0.010580 
#    y 0.000000 3.598580 0.000000 
#    z 0.010580 0.000000 4.415150 
# 
# 
# High freq. dielectric constant tensor:
#      x y z
#    x 1.857130 0.000000 0.003080 
#    y 0.000000 1.816130 0.000000 
#    z 0.003080 0.000000 1.873420 
# 
# From -- ./inp_files/22828.got.cif
#   From: 2010.03.12/outbox.cif.g09.slc.cpg/sg5_12_cif.got.tgz:22828.got - 2010.03.31 09:47:26.
