data_PCOD8049163
_publ_section_title
;
Structure prediction by ZEFSAII (Michael W. Deem and Ramdas Pophale) SiO2 
 PCOD8049163
Probable space group: C 2
;
_chemical_formula_sum "Si O2"
_cell_formula_units_Z 32
_cell_length_a 23.365443
_cell_length_b 7.305190
_cell_length_c 11.719549
_cell_angle_alpha 90.000000
_cell_angle_beta 47.915145
_cell_angle_gamma 90.000000
_cell_volume 1484.601513
_symmetry_space_group_name_H-M "C 2"
_symmetry_group_IT_number 5
_symmetry_cell_setting 'monoclinic'
loop_
_space_group_symop_operation_xyz
x,y,z
-x,y,-z
1/2+x,1/2+y,z
1/2-x,1/2+y,-z
loop_
_atom_site_type_symbol
_atom_site_label
_atom_site_fract_x
_atom_site_fract_y
_atom_site_fract_z
Si Si1 0.909707 0.917430 0.145601
Si Si2 0.204160 0.487555 0.904218
Si Si3 0.338721 0.960864 0.799314
Si Si4 0.174546 0.905262 0.972886
Si Si5 0.628712 0.351404 0.273810
Si Si6 0.575696 0.685758 0.455579
Si Si7 0.647947 0.703554 0.595870
Si Si8 0.181866 0.557597 0.686846
O O1 0.868841 0.970862 0.081742
O O2 0.874979 0.731623 0.246539
O O3 0.892701 0.083594 0.253066
O O4 0.000000 0.890993 0.000000
O O5 0.210120 0.704039 0.913772
O O6 0.285378 0.388682 0.798044
O O7 0.168418 0.455897 0.826228
O O8 0.150347 0.411825 0.080143
O O9 0.390529 0.135117 0.691341
O O10 0.250055 0.028292 0.897179
O O11 0.354131 0.784214 0.702383
O O12 0.117056 0.915841 0.157845
O O13 0.573311 0.468922 0.429403
O O14 0.500000 0.777223 0.500000
O O15 0.585871 0.712930 0.576370
O O16 0.729071 0.619094 0.446193
O O17 0.660798 0.912358 0.617676
#
# Coordination Sequence:
#
# PCOD8049163 Si02
#       8
#     4   4   4   4   4   4   4   4
#     4  11  26  45  66 100 141 177 226 290 343 411
#     4   9  18  38  64  99 122 153 217 282 321 379
#     4  10  21  38  67  97 120 169 223 273 325 393
#     4   9  19  38  65  95 128 159 217 280 326 386
#     4  10  20  36  66  93 119 163 215 265 332 376
#     4  12  27  44  59  91 144 172 215 273 330 414
#     4  12  26  44  71 105 131 189 234 273 356 409
#     4  11  23  45  73  97 137 177 232 291 333 418
#
# _framework density 21.554607000000001
#
# number of rings (size 3 to 8) (size 9 to 14) (size 15 to 20)
#    0.000    1.500    3.750    0.750    5.250    2.000 
#    6.750    0.000    0.000    0.000    0.000    0.000 
#    0.000    0.000    0.000    0.000    0.000    0.000 
#
# Total GULP energy -198307.006408 kJ/mol
# GULP energy per Si atom -12394.187900 kJ/mol
# Density = 2.150555 g / cm^3
# Si number density = 21.554607 Si / 1000 Ang^3
#
#
#
# Elastic Constant Matrix: (Units=GPa)
#
#
# Indices 1 2 3 4 5 6 
#
# 1 115.2947 24.9643 39.0926 0.0000 17.8504 0.0000
# 2 24.9643 62.8837 18.8670 0.0000 7.6683 0.0001
# 3 39.0926 18.8670 58.7214 0.0000 10.1718 0.0000
# 4 0.0000 0.0000 0.0000 32.7700 0.0000 8.2150
# 5 17.8504 7.6683 10.1718 0.0000 38.9310 0.0000
# 6 0.0000 0.0001 0.0000 8.2150 0.0000 22.8648
#
#
#
# Elastic Compliance Matrix: (Units=1/GPa)
#
#
# Indices 1 2 3 4 5 6 
#
# 1 0.011936 -0.002352 -0.006622 0.000000 -0.003279 0.000000
# 2 -0.002352 0.018225 -0.004038 0.000000 -0.001457 0.000000
# 3 -0.006622 -0.004038 0.023118 0.000000 -0.002208 0.000000
# 4 0.000000 0.000000 0.000000 0.033536 0.000000 -0.012049
# 5 -0.003279 -0.001457 -0.002208 0.000000 0.028054 0.000000
# 6 0.000000 0.000000 0.000000 -0.012049 0.000000 0.048064
#
#
# Mechanical properties :
#
#
# Convention : Reuss Voigt Hill
#
# Bulk Modulus (GPa) = 36.69001 44.74974 40.71987
# Shear Modulus (GPa) = 25.24716 29.17824 27.21270
#
# Velocity S-wave (km/s) = 3.42616 3.68324 3.55702
# Velocity P-wave (km/s) = 5.71929 6.23655 5.98351
#
# Compressibility (1/GPa) = 0.02725538
#
# Stress axis : x y z
#
# Youngs Moduli (GPa) = 83.78194 54.86964 43.25603
#
# Poissons Ratio (x) = 0.12903 0.28646
# Poissons Ratio (y) = 0.19702 0.17466
# Poissons Ratio (z) = 0.55484 0.22155
#
# Static dielectric constant tensor:
#      x y z
#    x 3.875270 0.000000 0.310540 
#    y 0.000000 3.849720 0.000000 
#    z 0.310540 0.000000 3.965160 
# 
# 
# High freq. dielectric constant tensor:
#      x y z
#    x 1.831320 0.000000 0.020160 
#    y 0.000000 1.849990 0.000000 
#    z 0.020160 0.000000 1.839950 
# 
# From -- ./inp_files/47181.got.cif
#   From: 2010.03.12/outbox.cif.g09.slc.cpg/sg5_24_cif.got.tgz:47181.got - 2010.03.31 09:47:26.
