data_PCOD8049070
_publ_section_title
;
Structure prediction by ZEFSAII (Michael W. Deem and Ramdas Pophale) SiO2 
 PCOD8049070
Probable space group: C 2
;
_chemical_formula_sum "Si O2"
_cell_formula_units_Z 22
_cell_length_a 11.676901
_cell_length_b 13.023032
_cell_length_c 8.645757
_cell_angle_alpha 90.000000
_cell_angle_beta 112.481834
_cell_angle_gamma 90.000000
_cell_volume 1214.828821
_symmetry_space_group_name_H-M "C 2"
_symmetry_group_IT_number 5
_symmetry_cell_setting 'monoclinic'
loop_
_space_group_symop_operation_xyz
x,y,z
-x,y,-z
1/2+x,1/2+y,z
1/2-x,1/2+y,-z
loop_
_atom_site_type_symbol
_atom_site_label
_atom_site_fract_x
_atom_site_fract_y
_atom_site_fract_z
Si Si1 0.500000 0.875000 0.000000
Si Si2 0.885172 0.914549 0.545838
Si Si3 0.010338 0.543459 0.749596
Si Si4 0.745271 0.787564 0.241004
Si Si5 0.974866 0.770184 0.157388
Si Si6 0.706564 0.067101 0.598246
O O1 0.387285 0.799067 0.906501
O O2 0.518143 0.945196 0.860913
O O3 0.773826 0.878180 0.377261
O O4 0.000000 0.955346 0.500000
O O5 0.927472 0.817470 0.670791
O O6 0.832871 0.003893 0.630294
O O7 0.880584 0.556814 0.595283
O O8 0.019805 0.647572 0.851456
O O9 0.128347 0.524189 0.701074
O O10 0.838696 0.798242 0.145932
O O11 0.754607 0.682759 0.342402
O O12 0.000000 0.816355 0.000000
#
# Coordination Sequence:
#
# PCOD8049070 Si02
#       6
#     2   4   4   4   4   4
#     4  12  22  38  56  94 118 150 186 258 288 326
#     4  10  20  38  60  81 114 157 197 234 286 350
#     4  10  20  35  64  81 112 149 203 232 280 343
#     4  10  22  38  58  82 124 148 189 245 296 334
#     4  10  20  37  59  86 109 155 197 238 279 353
#     4  10  20  40  57  84 112 159 192 237 285 350
#
# _framework density 18.109545000000001
#
# number of rings (size 3 to 8) (size 9 to 14) (size 15 to 20)
#    0.000    1.818    4.545    0.000    2.545    0.000 
#    1.636    5.455    0.000    0.000    0.000    0.000 
#    0.000    0.000    0.000    0.000    0.000    0.000 
#
# Total GULP energy -136349.316165 kJ/mol
# GULP energy per Si atom -12395.392379 kJ/mol
# Density = 1.806833 g / cm^3
# Si number density = 18.109545 Si / 1000 Ang^3
#
#
#
# Elastic Constant Matrix: (Units=GPa)
#
#
# Indices 1 2 3 4 5 6 
#
# 1 113.0067 53.3687 62.2464 0.0000 6.8718 0.0000
# 2 53.3687 72.7595 38.9432 0.0000 1.1627 0.0000
# 3 62.2464 38.9432 97.6654 0.0000 -2.8993 0.0000
# 4 0.0000 0.0000 0.0000 28.9185 0.0000 0.1128
# 5 6.8718 1.1627 -2.8993 0.0000 29.2793 0.0000
# 6 0.0000 0.0000 0.0000 0.1128 0.0000 27.8046
#
#
#
# Elastic Compliance Matrix: (Units=1/GPa)
#
#
# Indices 1 2 3 4 5 6 
#
# 1 0.017505 -0.008547 -0.007883 0.000000 -0.004550 0.000000
# 2 -0.008547 0.021703 -0.003182 0.000000 0.000829 0.000000
# 3 -0.007883 -0.003182 0.016640 0.000000 0.003624 0.000000
# 4 0.000000 0.000000 0.000000 0.034581 0.000000 -0.000140
# 5 -0.004550 0.000829 0.003624 0.000000 0.035548 0.000000
# 6 0.000000 0.000000 0.000000 -0.000140 0.000000 0.035966
#
#
# Mechanical properties :
#
#
# Convention : Reuss Voigt Hill
#
# Bulk Modulus (GPa) = 60.15908 65.83868 62.99888
# Shear Modulus (GPa) = 24.18886 25.79203 24.99045
#
# Velocity S-wave (km/s) = 3.65868 3.77798 3.71881
# Velocity P-wave (km/s) = 7.15120 7.44752 7.30086
#
# Compressibility (1/GPa) = 0.01662260
#
# Stress axis : x y z
#
# Youngs Moduli (GPa) = 57.12799 46.07642 60.09753
#
# Poissons Ratio (x) = 0.39383 0.47376
# Poissons Ratio (y) = 0.48830 0.19121
# Poissons Ratio (z) = 0.45035 0.14660
#
# Static dielectric constant tensor:
#      x y z
#    x 3.321530 0.000000 -0.063200 
#    y 0.000000 3.193050 0.000000 
#    z -0.063200 0.000000 3.320980 
# 
# 
# High freq. dielectric constant tensor:
#      x y z
#    x 1.701780 0.000000 -0.006710 
#    y 0.000000 1.690880 0.000000 
#    z -0.006710 0.000000 1.705530 
# 
# From -- ./inp_files/14913.got.cif
#   From: 2010.03.12/outbox.cif.g09.slc.cpg/sg5_8_cif.got.tgz:14913.got - 2010.03.31 09:47:26.
