data_PCOD8049168
_publ_section_title
;
Structure prediction by ZEFSAII (Michael W. Deem and Ramdas Pophale) SiO2 
 PCOD8049168
Probable space group: C 2
;
_chemical_formula_sum "Si O2"
_cell_formula_units_Z 30
_cell_length_a 13.174284
_cell_length_b 13.444022
_cell_length_c 19.144051
_cell_angle_alpha 90.000000
_cell_angle_beta 25.024845
_cell_angle_gamma 90.000000
_cell_volume 1434.306501
_symmetry_space_group_name_H-M "C 2"
_symmetry_group_IT_number 5
_symmetry_cell_setting 'monoclinic'
loop_
_space_group_symop_operation_xyz
x,y,z
-x,y,-z
1/2+x,1/2+y,z
1/2-x,1/2+y,-z
loop_
_atom_site_type_symbol
_atom_site_label
_atom_site_fract_x
_atom_site_fract_y
_atom_site_fract_z
Si Si1 0.365403 0.028610 0.513421
Si Si2 0.332818 0.522676 0.846735
Si Si3 0.095243 0.493966 0.794482
Si Si4 0.986828 0.417595 0.718291
Si Si5 0.780119 0.342043 0.175042
Si Si6 0.673414 0.667283 0.269219
Si Si7 0.500000 0.319359 0.000000
Si Si8 0.710148 0.236341 0.504644
O O1 0.500000 0.003941 0.500000
O O2 0.361119 0.145818 0.501093
O O3 0.478802 0.969577 0.377928
O O4 0.101378 0.989488 0.695837
O O5 0.220579 0.445357 0.864303
O O6 0.321030 0.627862 0.814322
O O7 0.172167 0.525911 0.015839
O O8 0.081706 0.491750 0.719144
O O9 0.173123 0.383177 0.774817
O O10 0.277106 0.582388 0.704127
O O11 0.707866 0.388735 0.903790
O O12 0.153015 0.320935 0.623875
O O13 0.542147 0.278502 0.310493
O O14 0.000000 0.281545 0.000000
O O15 0.395707 0.705167 0.452062
O O16 0.872367 0.755337 0.142380
#
# Coordination Sequence:
#
# PCOD8049168 Si02
#       8
#     4   4   4   4   4   4   2   4
#     4  11  25  43  64  86 131 183 211 267 344 396
#     4   9  17  38  64  92 123 169 216 254 317 401
#     4  10  20  36  69 100 123 170 217 278 315 384
#     4  11  25  42  65  98 134 164 230 276 322 388
#     4   9  18  37  65  94 129 165 212 265 326 385
#     4   9  17  38  68  93 130 171 217 256 332 393
#     4  10  20  40  64  98 134 172 210 278 326 392
#     4  10  22  42  64  98 125 171 222 272 320 402
#
# _framework density 20.916032000000001
#
# number of rings (size 3 to 8) (size 9 to 14) (size 15 to 20)
#    0.000    2.133    2.667    0.800    3.733    0.000 
#    1.200    5.333    0.000    0.000    0.000    0.000 
#    0.000    0.000    0.000    0.000    0.000    0.000 
#
# Total GULP energy -185839.307844 kJ/mol
# GULP energy per Si atom -12389.287190 kJ/mol
# Density = 2.086843 g / cm^3
# Si number density = 20.916032 Si / 1000 Ang^3
#
#
#
# Elastic Constant Matrix: (Units=GPa)
#
#
# Indices 1 2 3 4 5 6 
#
# 1 131.4519 46.3580 57.9346 -0.0259 -5.7935 -0.0038
# 2 46.3580 80.2541 43.0404 -0.0454 -3.5200 0.0323
# 3 57.9346 43.0404 147.3019 -0.0695 -36.2137 0.2571
# 4 -0.0259 -0.0454 -0.0695 33.4876 -0.0318 -15.2895
# 5 -5.7935 -3.5200 -36.2137 -0.0318 32.6330 -0.0834
# 6 -0.0038 0.0323 0.2571 -15.2895 -0.0834 23.8197
#
#
#
# Elastic Compliance Matrix: (Units=1/GPa)
#
#
# Indices 1 2 3 4 5 6 
#
# 1 0.010570 -0.004338 -0.003497 0.000013 -0.002473 0.000045
# 2 -0.004338 0.017030 -0.004136 0.000017 -0.003523 0.000019
# 3 -0.003497 -0.004136 0.012529 -0.000013 0.012836 -0.000093
# 4 0.000013 0.000017 -0.000013 0.042242 0.000100 0.027115
# 5 -0.002473 -0.003523 0.012836 0.000100 0.044070 0.000084
# 6 0.000045 0.000019 -0.000093 0.027115 0.000084 0.059388
#
#
# Mechanical properties :
#
#
# Convention : Reuss Voigt Hill
#
# Bulk Modulus (GPa) = 61.78484 72.63043 67.20763
# Shear Modulus (GPa) = 23.23787 32.09972 27.66880
#
# Velocity S-wave (km/s) = 3.33679 3.92177 3.64105
# Velocity P-wave (km/s) = 6.66702 7.43688 7.06245
#
# Compressibility (1/GPa) = 0.01618520
#
# Stress axis : x y z
#
# Youngs Moduli (GPa) = 94.60947 58.72012 79.81672
#
# Poissons Ratio (x) = 0.25474 0.27916
# Poissons Ratio (y) = 0.41044 0.33011
# Poissons Ratio (z) = 0.33090 0.24286
#
# Static dielectric constant tensor:
#      x y z
#    x 3.548040 0.000230 -0.537440 
#    y 0.000230 3.796450 -0.000630 
#    z -0.537440 -0.000630 4.923820 
# 
# 
# High freq. dielectric constant tensor:
#      x y z
#    x 1.790470 -0.000010 -0.027420 
#    y -0.000010 1.808940 0.000020 
#    z -0.027420 0.000020 1.830090 
# 
# From -- ./inp_files/60625.got.cif
#   From: 2010.03.12/outbox.cif.g09.slc.cpg/sg5_31_cif.got.tgz:60625.got - 2010.03.31 09:47:26.
