data_PCOD8049988
_publ_section_title
;
Structure prediction by ZEFSAII (Michael W. Deem and Ramdas Pophale) SiO2 
 PCOD8049988
Probable space group: C 2
;
_chemical_formula_sum "Si O2"
_cell_formula_units_Z 32
_cell_length_a 11.328424
_cell_length_b 14.407826
_cell_length_c 13.086494
_cell_angle_alpha 90.000000
_cell_angle_beta 45.360266
_cell_angle_gamma 90.000000
_cell_volume 1519.812222
_symmetry_space_group_name_H-M "C 2"
_symmetry_group_IT_number 5
_symmetry_cell_setting 'monoclinic'
loop_
_space_group_symop_operation_xyz
x,y,z
-x,y,-z
1/2+x,1/2+y,z
1/2-x,1/2+y,-z
loop_
_atom_site_type_symbol
_atom_site_label
_atom_site_fract_x
_atom_site_fract_y
_atom_site_fract_z
Si Si1 0.119740 0.861670 0.020369
Si Si2 0.314798 0.386158 0.656404
Si Si3 0.726885 0.020769 0.194425
Si Si4 0.091942 0.233714 0.201010
Si Si5 0.560067 0.561656 0.349073
Si Si6 0.644091 0.716133 0.839532
Si Si7 0.128125 0.946707 0.693626
Si Si8 0.578408 0.901799 0.611129
O O1 0.209748 0.960665 0.940867
O O2 0.252197 0.777913 0.955325
O O3 0.000000 0.832412 0.000000
O O4 0.020473 0.874206 0.188413
O O5 0.500000 0.376507 0.500000
O O6 0.303813 0.479641 0.730398
O O7 0.280464 0.296256 0.745392
O O8 0.177238 0.400843 0.655708
O O9 0.843367 0.999880 0.219220
O O10 0.533725 0.995300 0.331240
O O11 0.759100 0.130773 0.164197
O O12 0.144916 0.146973 0.238921
O O13 0.943853 0.198426 0.217010
O O14 0.036665 0.311151 0.317218
O O15 0.500000 0.589321 0.500000
O O16 0.407316 0.518860 0.376443
O O17 0.500000 0.753000 0.000000
O O18 0.296640 0.893013 0.560359
#
# Coordination Sequence:
#
# PCOD8049988 Si02
#       8
#     4   4   4   4   4   4   4   4
#     4   9  21  39  65  93 127 163 213 264 318 381
#     4  10  22  42  61  88 132 167 209 261 321 387
#     4  10  21  39  63  95 126 158 211 268 318 375
#     4  10  23  41  64  92 128 169 213 259 326 382
#     4  11  22  40  64  89 133 171 210 256 330 378
#     4  11  23  40  63  95 127 166 215 268 321 384
#     4  11  19  37  67  92 122 168 204 267 323 368
#     4  10  21  40  65  94 123 164 214 264 318 383
#
# _framework density 21.055230999999999
#
# number of rings (size 3 to 8) (size 9 to 14) (size 15 to 20)
#    0.000    1.750    3.750    1.500    1.750    4.000 
#    0.000    1.875    2.750    0.000    0.000    0.000 
#    0.000    0.000    0.000    0.000    0.000    0.000 
#
# Total GULP energy -198286.476657 kJ/mol
# GULP energy per Si atom -12392.904791 kJ/mol
# Density = 2.100731 g / cm^3
# Si number density = 21.055231 Si / 1000 Ang^3
#
#
#
# Elastic Constant Matrix: (Units=GPa)
#
#
# Indices 1 2 3 4 5 6 
#
# 1 50.6670 29.0923 15.3278 -0.0001 -8.7194 0.0001
# 2 29.0923 138.1616 59.4907 -0.0001 -17.5995 0.0000
# 3 15.3278 59.4907 138.2573 -0.0002 -11.9859 0.0001
# 4 -0.0001 -0.0001 -0.0002 21.7000 0.0001 -1.0428
# 5 -8.7194 -17.5995 -11.9859 0.0001 26.9289 -0.0001
# 6 0.0001 0.0000 0.0001 -1.0428 -0.0001 30.1457
#
#
#
# Elastic Compliance Matrix: (Units=1/GPa)
#
#
# Indices 1 2 3 4 5 6 
#
# 1 0.022994 -0.004087 -0.000392 0.000000 0.004600 0.000000
# 2 -0.004087 0.010109 -0.003577 0.000000 0.003691 0.000000
# 3 -0.000392 -0.003577 0.008947 0.000000 0.001518 0.000000
# 4 0.000000 0.000000 0.000000 0.046160 0.000000 0.001597
# 5 0.004600 0.003691 0.001518 0.000000 0.041712 0.000000
# 6 0.000000 0.000000 0.000000 0.001597 0.000000 0.033227
#
#
# Mechanical properties :
#
#
# Convention : Reuss Voigt Hill
#
# Bulk Modulus (GPa) = 38.55300 59.43418 48.99359
# Shear Modulus (GPa) = 26.60910 30.63324 28.62117
#
# Velocity S-wave (km/s) = 3.55882 3.81845 3.69092
# Velocity P-wave (km/s) = 5.93608 6.90868 6.44076
#
# Compressibility (1/GPa) = 0.02593832
#
# Stress axis : x y z
#
# Youngs Moduli (GPa) = 43.49045 98.92426 111.77084
#
# Poissons Ratio (x) = 0.40431 0.04379
# Poissons Ratio (y) = 0.17775 0.39976
# Poissons Ratio (z) = 0.01704 0.35381
#
# Static dielectric constant tensor:
#      x y z
#    x 3.834390 0.000000 -0.070200 
#    y 0.000000 3.821430 0.000000 
#    z -0.070200 0.000000 3.937090 
# 
# 
# High freq. dielectric constant tensor:
#      x y z
#    x 1.824310 0.000000 0.003120 
#    y 0.000000 1.812190 0.000000 
#    z 0.003120 0.000000 1.819100 
# 
# From -- ./inp_files/53193.got.cif
#   From: 2010.03.12/outbox.cif.g09.slc.cpg/sg5_27_cif.got.tgz:53193.got - 2010.03.31 09:47:26.
