data_PCOD8049306
_publ_section_title
;
Structure prediction by ZEFSAII (Michael W. Deem and Ramdas Pophale) SiO2 
 PCOD8049306
Probable space group: C 2
;
_chemical_formula_sum "Si O2"
_cell_formula_units_Z 28
_cell_length_a 12.888882
_cell_length_b 8.807472
_cell_length_c 12.506321
_cell_angle_alpha 90.000000
_cell_angle_beta 64.262140
_cell_angle_gamma 90.000000
_cell_volume 1278.850499
_symmetry_space_group_name_H-M "C 2"
_symmetry_group_IT_number 5
_symmetry_cell_setting 'monoclinic'
loop_
_space_group_symop_operation_xyz
x,y,z
-x,y,-z
1/2+x,1/2+y,z
1/2-x,1/2+y,-z
loop_
_atom_site_type_symbol
_atom_site_label
_atom_site_fract_x
_atom_site_fract_y
_atom_site_fract_z
Si Si1 0.756512 0.248110 0.422754
Si Si2 0.445909 0.257445 0.331539
Si Si3 0.692620 0.107705 0.245591
Si Si4 0.631885 0.791161 0.954488
Si Si5 0.593965 0.820975 0.208689
Si Si6 0.471826 0.583793 0.390813
Si Si7 0.864034 0.487444 0.246631
O O1 0.635881 0.217702 0.533003
O O2 0.760527 0.129635 0.324347
O O3 0.865168 0.201693 0.447330
O O4 0.762120 0.420776 0.369807
O O5 0.575040 0.203947 0.294726
O O6 0.444832 0.439909 0.325716
O O7 0.390873 0.167251 0.252683
O O8 0.779316 0.159357 0.114309
O O9 0.669528 0.929771 0.248918
O O10 0.654723 0.943670 0.870523
O O11 0.500000 0.735904 0.000000
O O12 0.659917 0.813907 0.066315
O O13 0.579790 0.665039 0.282066
O O14 0.469943 0.889929 0.242034
O O15 0.500000 0.534759 0.500000
#
# Coordination Sequence:
#
# PCOD8049306 Si02
#       7
#     4   4   4   4   4   4   4
#     4  10  20  38  60  85 123 165 206 254 308 366
#     4  11  21  36  59  90 123 158 206 256 306 366
#     4  10  21  37  60  88 117 164 210 249 309 374
#     4   9  18  39  64  83 115 161 212 265 311 359
#     4   9  20  37  59  87 121 157 199 252 309 367
#     4  11  24  39  58  91 129 166 205 254 308 370
#     4   8  18  36  61  84 111 161 211 250 301 358
#
# _framework density 21.894663000000001
#
# number of rings (size 3 to 8) (size 9 to 14) (size 15 to 20)
#    0.000    2.286    0.000    3.000    0.000    6.857 
#    0.000    2.143    0.000   24.857    0.000    0.000 
#    0.000    0.000    0.000    0.000    0.000    0.000 
#
# Total GULP energy -173442.424049 kJ/mol
# GULP energy per Si atom -12388.744575 kJ/mol
# Density = 2.184483 g / cm^3
# Si number density = 21.894663 Si / 1000 Ang^3
#
#
#
# Elastic Constant Matrix: (Units=GPa)
#
#
# Indices 1 2 3 4 5 6 
#
# 1 52.5060 22.4219 25.9077 0.0000 -10.4528 0.0000
# 2 22.4219 139.7453 48.2792 0.0000 7.1616 0.0000
# 3 25.9077 48.2792 112.7672 0.0000 -9.4423 0.0000
# 4 0.0000 0.0000 0.0000 19.3972 0.0000 -1.6869
# 5 -10.4528 7.1616 -9.4423 0.0000 38.5782 0.0000
# 6 0.0000 0.0000 0.0000 -1.6869 0.0000 35.5691
#
#
#
# Elastic Compliance Matrix: (Units=1/GPa)
#
#
# Indices 1 2 3 4 5 6 
#
# 1 0.023204 -0.002764 -0.003653 0.000000 0.005906 0.000000
# 2 -0.002764 0.008968 -0.003478 0.000000 -0.003265 0.000000
# 3 -0.003653 -0.003478 0.011401 0.000000 0.002446 0.000000
# 4 0.000000 0.000000 0.000000 0.051767 0.000000 0.002455
# 5 0.005906 -0.003265 0.002446 0.000000 0.028726 0.000000
# 6 0.000000 0.000000 0.000000 0.002455 0.000000 0.028231
#
#
# Mechanical properties :
#
#
# Convention : Reuss Voigt Hill
#
# Bulk Modulus (GPa) = 42.04615 55.35958 48.70286
# Shear Modulus (GPa) = 27.77540 32.60287 30.18913
#
# Velocity S-wave (km/s) = 3.56559 3.86304 3.71730
# Velocity P-wave (km/s) = 6.01638 6.72584 6.38098
#
# Compressibility (1/GPa) = 0.02378339
#
# Stress axis : x y z
#
# Youngs Moduli (GPa) = 43.09611 111.50517 87.71132
#
# Poissons Ratio (x) = 0.30815 0.32044
# Poissons Ratio (y) = 0.11910 0.30506
# Poissons Ratio (z) = 0.15744 0.38782
#
# Static dielectric constant tensor:
#      x y z
#    x 3.846070 0.000000 -0.127120 
#    y 0.000000 3.963180 0.000000 
#    z -0.127120 0.000000 4.079270 
# 
# 
# High freq. dielectric constant tensor:
#      x y z
#    x 1.853990 0.000000 -0.013650 
#    y 0.000000 1.844070 0.000000 
#    z -0.013650 0.000000 1.860970 
# 
# From -- ./inp_files/41871.got.cif
#   From: 2010.03.12/outbox.cif.g09.slc.cpg/sg5_21_cif.got.tgz:41871.got - 2010.03.31 09:47:26.
