data_PCOD8049126
_publ_section_title
;
Structure prediction by ZEFSAII (Michael W. Deem and Ramdas Pophale) SiO2 
 PCOD8049126
Probable space group: C 2
;
_chemical_formula_sum "Si O2"
_cell_formula_units_Z 26
_cell_length_a 7.352512
_cell_length_b 12.379873
_cell_length_c 13.245995
_cell_angle_alpha 90.000000
_cell_angle_beta 96.859833
_cell_angle_gamma 90.000000
_cell_volume 1197.061219
_symmetry_space_group_name_H-M "C 2"
_symmetry_group_IT_number 5
_symmetry_cell_setting 'monoclinic'
loop_
_space_group_symop_operation_xyz
x,y,z
-x,y,-z
1/2+x,1/2+y,z
1/2-x,1/2+y,-z
loop_
_atom_site_type_symbol
_atom_site_label
_atom_site_fract_x
_atom_site_fract_y
_atom_site_fract_z
Si Si1 0.080261 0.466280 0.160042
Si Si2 0.747765 0.408663 0.400997
Si Si3 0.656509 0.729586 0.084072
Si Si4 0.164285 0.395595 0.374522
Si Si5 0.273599 0.068143 0.244044
Si Si6 0.500000 0.138266 0.000000
Si Si7 0.038977 0.724395 0.612819
O O1 0.118727 0.353469 0.108047
O O2 0.193429 0.466683 0.274135
O O3 0.862482 0.482253 0.170998
O O4 0.122556 0.563923 0.084834
O O5 0.744280 0.447535 0.518222
O O6 0.668012 0.506201 0.327075
O O7 0.619619 0.307576 0.370135
O O8 0.949823 0.375020 0.378326
O O9 0.639589 0.652768 0.181195
O O10 0.859431 0.715648 0.050342
O O11 0.500000 0.687218 0.000000
O O12 0.261475 0.280174 0.367919
O O13 0.452034 0.127734 0.306189
O O14 0.000000 0.673992 0.500000
#
# Coordination Sequence:
#
# PCOD8049126 Si02
#       7
#     4   4   4   4   4   2   4
#     4  10  20  41  63  89 129 154 207 270 295 369
#     4   9  20  37  61  92 131 166 205 250 306 370
#     4  11  23  46  66  91 127 162 210 269 310 368
#     4   9  18  37  62  87 131 166 199 259 301 361
#     4  10  22  40  66  95 124 167 211 246 320 376
#     4  10  24  44  64  94 118 164 218 250 328 376
#     4  10  20  36  61  90 125 168 208 247 301 369
#
# _framework density 21.719857000000001
#
# number of rings (size 3 to 8) (size 9 to 14) (size 15 to 20)
#    0.000    2.154    2.308    0.000    4.308    1.231 
#   12.462    3.077   10.154    0.000    0.000    0.000 
#    0.000    0.000    0.000    0.000    0.000    0.000 
#
# Total GULP energy -161057.751546 kJ/mol
# GULP energy per Si atom -12389.057811 kJ/mol
# Density = 2.167042 g / cm^3
# Si number density = 21.719857 Si / 1000 Ang^3
#
#
#
# Elastic Constant Matrix: (Units=GPa)
#
#
# Indices 1 2 3 4 5 6 
#
# 1 64.9358 40.4957 37.9947 0.0000 7.1443 0.0000
# 2 40.4957 107.9062 53.8566 0.0000 -3.6129 0.0000
# 3 37.9947 53.8566 130.9410 0.0000 -1.8555 0.0000
# 4 0.0000 0.0000 0.0000 29.4581 0.0000 -8.2619
# 5 7.1443 -3.6129 -1.8555 0.0000 24.0094 0.0000
# 6 0.0000 0.0000 0.0000 -8.2619 0.0000 27.4517
#
#
#
# Elastic Compliance Matrix: (Units=1/GPa)
#
#
# Indices 1 2 3 4 5 6 
#
# 1 0.022900 -0.006912 -0.003917 0.000000 -0.008157 0.000000
# 2 -0.006912 0.013794 -0.003613 0.000000 0.003853 0.000000
# 3 -0.003917 -0.003613 0.010280 0.000000 0.001416 0.000000
# 4 0.000000 0.000000 0.000000 0.037076 0.000000 0.011158
# 5 -0.008157 0.003853 0.001416 0.000000 0.044767 0.000000
# 6 0.000000 0.000000 0.000000 0.011158 0.000000 0.039786
#
#
# Mechanical properties :
#
#
# Convention : Reuss Voigt Hill
#
# Bulk Modulus (GPa) = 55.28420 63.16410 59.22415
# Shear Modulus (GPa) = 24.56802 27.61292 26.09047
#
# Velocity S-wave (km/s) = 3.36688 3.56943 3.46963
# Velocity P-wave (km/s) = 6.37362 6.79207 6.58617
#
# Compressibility (1/GPa) = 0.01808835
#
# Stress axis : x y z
#
# Youngs Moduli (GPa) = 43.66833 72.49741 97.27691
#
# Poissons Ratio (x) = 0.50109 0.38108
# Poissons Ratio (y) = 0.30183 0.35148
# Poissons Ratio (z) = 0.17107 0.26194
#
# Static dielectric constant tensor:
#      x y z
#    x 3.610070 0.000000 -0.010400 
#    y 0.000000 3.790650 0.000000 
#    z -0.010400 0.000000 4.548770 
# 
# 
# High freq. dielectric constant tensor:
#      x y z
#    x 1.819220 0.000000 -0.000950 
#    y 0.000000 1.839400 0.000000 
#    z -0.000950 0.000000 1.881850 
# 
# From -- ./inp_files/50148.got.cif
#   From: 2010.03.12/outbox.cif.g09.slc.cpg/sg5_26_cif.got.tgz:50148.got - 2010.03.31 09:47:26.
