data_PCOD8049719
_publ_section_title
;
Structure prediction by ZEFSAII (Michael W. Deem and Ramdas Pophale) SiO2 
 PCOD8049719
Probable space group: C 2
;
_chemical_formula_sum "Si O2"
_cell_formula_units_Z 30
_cell_length_a 19.217025
_cell_length_b 6.305696
_cell_length_c 20.548579
_cell_angle_alpha 90.000000
_cell_angle_beta 33.364151
_cell_angle_gamma 90.000000
_cell_volume 1369.401268
_symmetry_space_group_name_H-M "C 2"
_symmetry_group_IT_number 5
_symmetry_cell_setting 'monoclinic'
loop_
_space_group_symop_operation_xyz
x,y,z
-x,y,-z
1/2+x,1/2+y,z
1/2-x,1/2+y,-z
loop_
_atom_site_type_symbol
_atom_site_label
_atom_site_fract_x
_atom_site_fract_y
_atom_site_fract_z
Si Si1 0.168883 0.815600 0.946631
Si Si2 0.500000 0.618996 0.000000
Si Si3 0.276630 0.926255 0.187575
Si Si4 0.491171 0.282917 0.810829
Si Si5 0.237133 0.540630 0.658996
Si Si6 0.852408 0.149852 0.347549
Si Si7 0.097811 0.610943 0.256486
Si Si8 0.875262 0.351358 0.462150
O O1 0.056166 0.970540 0.012267
O O2 0.172053 0.605488 0.900755
O O3 0.302235 0.931804 0.840904
O O4 0.135443 0.754178 0.047170
O O5 0.610549 0.763752 0.883382
O O6 0.159651 0.805654 0.246309
O O7 0.227391 0.029902 0.292753
O O8 0.601858 0.149803 0.757786
O O9 0.532130 0.530545 0.778507
O O10 0.468391 0.199709 0.756195
O O11 0.224645 0.306098 0.639295
O O12 0.350992 0.671662 0.535661
O O13 0.913876 0.256902 0.362320
O O14 0.754120 0.974955 0.449169
O O15 0.993082 0.506069 0.386804
#
# Coordination Sequence:
#
# PCOD8049719 Si02
#       8
#     4   2   4   4   4   4   4   4
#     4  11  25  43  69  96 138 176 222 272 336 407
#     4  10  20  44  68  96 136 170 222 274 324 410
#     4  11  25  44  67 100 139 182 218 280 342 408
#     4  11  24  40  70 103 128 177 228 281 330 401
#     4  11  23  42  74  97 128 180 229 272 343 397
#     4  11  21  40  73 100 128 168 234 282 328 393
#     4  11  27  42  64 100 146 171 226 282 337 395
#     4  11  22  42  67 102 131 170 227 287 328 401
#
# _framework density 21.907385999999999
#
# number of rings (size 3 to 8) (size 9 to 14) (size 15 to 20)
#    0.000    1.067    2.667    3.600    3.733    4.267 
#    0.000    4.000    0.000    0.000    0.000    0.000 
#    0.000    0.000    0.000    0.000    0.000    0.000 
#
# Total GULP energy -186055.656346 kJ/mol
# GULP energy per Si atom -12403.710423 kJ/mol
# Density = 2.185752 g / cm^3
# Si number density = 21.907386 Si / 1000 Ang^3
#
#
#
# Elastic Constant Matrix: (Units=GPa)
#
#
# Indices 1 2 3 4 5 6 
#
# 1 90.0315 50.9868 57.1009 -0.0142 19.4539 0.0147
# 2 50.9868 129.9366 51.3827 0.0236 7.3162 -0.0228
# 3 57.1009 51.3827 111.2264 0.0069 12.0444 -0.0118
# 4 -0.0142 0.0236 0.0069 35.7870 0.0096 3.0752
# 5 19.4539 7.3162 12.0444 0.0096 30.7931 -0.0070
# 6 0.0147 -0.0228 -0.0118 3.0752 -0.0070 25.9523
#
#
#
# Elastic Compliance Matrix: (Units=1/GPa)
#
#
# Indices 1 2 3 4 5 6 
#
# 1 0.020244 -0.004545 -0.007336 0.000017 -0.008840 -0.000023
# 2 -0.004545 0.010446 -0.002647 -0.000010 0.001425 0.000012
# 3 -0.007336 -0.002647 0.014002 -0.000005 -0.000214 0.000009
# 4 0.000017 -0.000010 -0.000005 0.028231 -0.000016 -0.003345
# 5 -0.008840 0.001425 -0.000214 -0.000016 0.037805 0.000018
# 6 -0.000023 0.000012 0.000009 -0.003345 0.000018 0.038929
#
#
# Mechanical properties :
#
#
# Convention : Reuss Voigt Hill
#
# Bulk Modulus (GPa) = 63.94922 72.23725 68.09324
# Shear Modulus (GPa) = 27.18518 29.95476 28.56997
#
# Velocity S-wave (km/s) = 3.52648 3.70176 3.61518
# Velocity P-wave (km/s) = 6.77019 7.16354 6.96964
#
# Compressibility (1/GPa) = 0.01563741
#
# Stress axis : x y z
#
# Youngs Moduli (GPa) = 49.39735 95.73149 71.41584
#
# Poissons Ratio (x) = 0.43510 0.52390
# Poissons Ratio (y) = 0.22451 0.18901
# Poissons Ratio (z) = 0.36237 0.25336
#
# Static dielectric constant tensor:
#      x y z
#    x 3.702530 0.000010 0.030970 
#    y 0.000010 4.262770 0.000040 
#    z 0.030970 0.000040 3.912290 
# 
# 
# High freq. dielectric constant tensor:
#      x y z
#    x 1.847640 0.000000 0.002480 
#    y 0.000000 1.879710 0.000000 
#    z 0.002480 0.000000 1.862850 
# 
# From -- ./inp_files/69370.got.cif
#   From: 2010.03.12/outbox.cif.g09.slc.cpg/sg5_35_cif.got.tgz:69370.got - 2010.03.31 09:47:26.
