data_PCOD8049624
_publ_section_title
;
Structure prediction by ZEFSAII (Michael W. Deem and Ramdas Pophale) SiO2 
 PCOD8049624
Probable space group: C 2
;
_chemical_formula_sum "Si O2"
_cell_formula_units_Z 30
_cell_length_a 14.491597
_cell_length_b 5.075747
_cell_length_c 21.521208
_cell_angle_alpha 90.000000
_cell_angle_beta 121.393048
_cell_angle_gamma 90.000000
_cell_volume 1351.277026
_symmetry_space_group_name_H-M "C 2"
_symmetry_group_IT_number 5
_symmetry_cell_setting 'monoclinic'
loop_
_space_group_symop_operation_xyz
x,y,z
-x,y,-z
1/2+x,1/2+y,z
1/2-x,1/2+y,-z
loop_
_atom_site_type_symbol
_atom_site_label
_atom_site_fract_x
_atom_site_fract_y
_atom_site_fract_z
Si Si1 0.500000 0.601080 0.000000
Si Si2 0.820609 0.016139 0.030267
Si Si3 0.811807 0.691510 0.449412
Si Si4 0.824681 0.193480 0.163192
Si Si5 0.088715 0.272914 0.681564
Si Si6 0.615458 0.690145 0.471615
Si Si7 0.690015 0.694253 0.146749
Si Si8 0.782163 0.767693 0.302832
O O1 0.417295 0.440545 0.016056
O O2 0.574928 0.767981 0.074276
O O3 0.869762 0.156806 0.109202
O O4 0.742048 0.245230 0.974156
O O5 0.728149 0.686191 0.475809
O O6 0.885876 0.430391 0.479662
O O7 0.747334 0.718881 0.361803
O O8 0.894628 0.933194 0.488726
O O9 0.919676 0.258632 0.245744
O O10 0.730317 0.414095 0.133279
O O11 0.777236 0.912262 0.163378
O O12 0.116947 0.572915 0.674493
O O13 0.976291 0.197316 0.612169
O O14 0.182295 0.071584 0.692273
O O15 0.684626 0.688906 0.220860
#
# Coordination Sequence:
#
# PCOD8049624 Si02
#       8
#     2   4   4   4   4   4   4   4
#     4  12  24  40  70  94 120 172 210 252 320 390
#     4  12  24  41  64  93 126 162 206 263 307 372
#     4  10  21  36  55  77 120 145 192 245 290 336
#     4  10  20  42  57  84 126 157 188 262 302 355
#     4  10  21  35  60  82 114 153 194 232 303 347
#     4  10  21  36  54  83 108 158 190 236 292 357
#     4  10  22  38  61  87 119 155 205 242 314 366
#     4  10  21  37  56  85 115 151 187 255 283 346
#
# _framework density 22.201221
#
# number of rings (size 3 to 8) (size 9 to 14) (size 15 to 20)
#    0.000    1.600    2.667    1.600    0.000    6.400 
#    0.000    0.000    0.000   12.800    0.000    0.000 
#    0.000    0.000    0.000    0.000    0.000    0.000 
#
# Total GULP energy -185851.777348 kJ/mol
# GULP energy per Si atom -12390.118490 kJ/mol
# Density = 2.215069 g / cm^3
# Si number density = 22.201221 Si / 1000 Ang^3
#
#
#
# Elastic Constant Matrix: (Units=GPa)
#
#
# Indices 1 2 3 4 5 6 
#
# 1 53.5957 8.9487 24.0676 0.0000 -9.9390 0.0000
# 2 8.9487 103.7132 28.5340 0.0000 -6.5871 -0.0001
# 3 24.0676 28.5340 171.7298 -0.0001 2.8682 0.0001
# 4 0.0000 0.0000 -0.0001 32.3326 0.0000 -2.7348
# 5 -9.9390 -6.5871 2.8682 0.0000 38.5245 0.0000
# 6 0.0000 -0.0001 0.0001 -2.7348 0.0000 4.9880
#
#
#
# Elastic Compliance Matrix: (Units=1/GPa)
#
#
# Indices 1 2 3 4 5 6 
#
# 1 0.021120 -0.000660 -0.002943 0.000000 0.005555 0.000000
# 2 -0.000660 0.010259 -0.001641 0.000000 0.001706 0.000000
# 3 -0.002943 -0.001641 0.006534 0.000000 -0.001526 0.000000
# 4 0.000000 0.000000 0.000000 0.032433 0.000000 0.017782
# 5 0.005555 0.001706 -0.001526 0.000000 0.027796 0.000000
# 6 0.000000 0.000000 0.000000 0.017782 0.000000 0.210231
#
#
# Mechanical properties :
#
#
# Convention : Reuss Voigt Hill
#
# Bulk Modulus (GPa) = 36.46236 50.23768 43.35002
# Shear Modulus (GPa) = 15.24385 33.00157 24.12271
#
# Velocity S-wave (km/s) = 2.62319 3.85967 3.29986
# Velocity P-wave (km/s) = 5.06301 6.52228 5.83842
#
# Compressibility (1/GPa) = 0.02742554
#
# Stress axis : x y z
#
# Youngs Moduli (GPa) = 47.34815 97.47905 153.05377
#
# Poissons Ratio (x) = 0.06431 0.45045
# Poissons Ratio (y) = 0.03124 0.25109
# Poissons Ratio (z) = 0.13935 0.15992
#
# Static dielectric constant tensor:
#      x y z
#    x 3.435000 0.000000 -0.270660 
#    y 0.000000 4.240700 0.000000 
#    z -0.270660 0.000000 4.619500 
# 
# 
# High freq. dielectric constant tensor:
#      x y z
#    x 1.820880 0.000000 -0.020690 
#    y 0.000000 1.880540 0.000000 
#    z -0.020690 0.000000 1.905850 
# 
# From -- ./inp_files/65702.got.cif
#   From: 2010.03.12/outbox.cif.g09.slc.cpg/sg5_33_cif.got.tgz:65702.got - 2010.03.31 09:47:26.
