data_PCOD8049511
_publ_section_title
;
Structure prediction by ZEFSAII (Michael W. Deem and Ramdas Pophale) SiO2 
 PCOD8049511
Probable space group: C 2
;
_chemical_formula_sum "Si O2"
_cell_formula_units_Z 30
_cell_length_a 14.689799
_cell_length_b 13.061788
_cell_length_c 14.960672
_cell_angle_alpha 90.000000
_cell_angle_beta 29.827173
_cell_angle_gamma 90.000000
_cell_volume 1427.784498
_symmetry_space_group_name_H-M "C 2"
_symmetry_group_IT_number 5
_symmetry_cell_setting 'monoclinic'
loop_
_space_group_symop_operation_xyz
x,y,z
-x,y,-z
1/2+x,1/2+y,z
1/2-x,1/2+y,-z
loop_
_atom_site_type_symbol
_atom_site_label
_atom_site_fract_x
_atom_site_fract_y
_atom_site_fract_z
Si Si1 0.043896 0.055950 0.676011
Si Si2 0.500000 0.009033 0.500000
Si Si3 0.757399 0.870271 0.545679
Si Si4 0.106340 0.651936 0.555574
Si Si5 0.425416 0.014851 0.154409
Si Si6 0.651359 0.666706 0.305223
Si Si7 0.393359 0.867513 0.745928
Si Si8 0.200310 0.553619 0.069593
O O1 0.943993 0.075333 0.667701
O O2 0.233050 0.118802 0.514098
O O3 0.910065 0.088152 0.872717
O O4 0.094901 0.936149 0.635582
O O5 0.389053 0.936659 0.660849
O O6 0.632797 0.084867 0.443196
O O7 0.866341 0.771179 0.488217
O O8 0.689964 0.933658 0.689802
O O9 0.594379 0.843496 0.615650
O O10 0.907088 0.626799 0.768860
O O11 0.316675 0.118122 0.219924
O O12 0.597999 0.057333 0.061989
O O13 0.500000 0.961083 0.000000
O O14 0.500000 0.715923 0.500000
O O15 0.708244 0.760315 0.189804
O O16 0.287157 0.935196 0.909459
#
# Coordination Sequence:
#
# PCOD8049511 Si02
#       8
#     4   2   4   4   4   4   4   4
#     4  12  22  40  67  94 132 173 211 267 330 391
#     4  10  20  40  64  86 126 162 212 270 314 372
#     4  11  23  42  67  91 132 178 213 261 338 387
#     4  11  23  44  65  92 130 173 217 265 327 390
#     4  11  22  41  61  97 140 163 215 283 319 383
#     4  12  21  35  68  97 121 170 220 265 327 377
#     4  10  21  40  65  94 125 171 215 270 322 388
#     4  10  23  43  63  96 135 168 213 271 328 387
#
# _framework density 21.011574
#
# number of rings (size 3 to 8) (size 9 to 14) (size 15 to 20)
#    0.000    1.067    8.667    0.000    0.000    2.133 
#    0.000    4.000    0.000    0.000    0.000    0.000 
#    0.000    0.000    0.000    0.000    0.000    0.000 
#
# Total GULP energy -185904.415796 kJ/mol
# GULP energy per Si atom -12393.627720 kJ/mol
# Density = 2.096375 g / cm^3
# Si number density = 21.011574 Si / 1000 Ang^3
#
#
#
# Elastic Constant Matrix: (Units=GPa)
#
#
# Indices 1 2 3 4 5 6 
#
# 1 79.2435 32.8470 17.8735 0.0023 15.7395 -0.0012
# 2 32.8470 130.2556 30.3985 -0.0016 -1.9902 0.0017
# 3 17.8735 30.3985 102.9378 -0.0048 2.2416 0.0039
# 4 0.0023 -0.0016 -0.0048 14.4002 0.0020 0.9421
# 5 15.7395 -1.9902 2.2416 0.0020 19.3820 -0.0011
# 6 -0.0012 0.0017 0.0039 0.9421 -0.0011 42.9065
#
#
#
# Elastic Compliance Matrix: (Units=1/GPa)
#
#
# Indices 1 2 3 4 5 6 
#
# 1 0.017646 -0.004331 -0.001467 -0.000002 -0.014605 0.000000
# 2 -0.004331 0.009333 -0.002107 0.000000 0.004719 0.000000
# 3 -0.001467 -0.002107 0.010597 0.000004 -0.000251 -0.000001
# 4 -0.000002 0.000000 0.000004 0.069543 -0.000006 -0.001527
# 5 -0.014605 0.004719 -0.000251 -0.000006 0.063968 0.000001
# 6 0.000000 0.000000 -0.000001 -0.001527 0.000001 0.023340
#
#
# Mechanical properties :
#
#
# Convention : Reuss Voigt Hill
#
# Bulk Modulus (GPa) = 45.94127 52.74167 49.34147
# Shear Modulus (GPa) = 22.98928 30.75893 26.87411
#
# Velocity S-wave (km/s) = 3.31134 3.83025 3.58021
# Velocity P-wave (km/s) = 6.04419 6.68706 6.37374
#
# Compressibility (1/GPa) = 0.02176692
#
# Stress axis : x y z
#
# Youngs Moduli (GPa) = 56.66945 107.14538 94.36639
#
# Poissons Ratio (x) = 0.46401 0.13844
# Poissons Ratio (y) = 0.24542 0.19883
# Poissons Ratio (z) = 0.08314 0.22575
#
# Static dielectric constant tensor:
#      x y z
#    x 3.859340 -0.000010 0.140090 
#    y -0.000010 3.776840 0.000010 
#    z 0.140090 0.000010 3.784320 
# 
# 
# High freq. dielectric constant tensor:
#      x y z
#    x 1.823500 0.000000 0.011610 
#    y 0.000000 1.818110 0.000000 
#    z 0.011610 0.000000 1.808740 
# 
# From -- ./inp_files/54773.got.cif
#   From: 2010.03.12/outbox.cif.g09.slc.cpg/sg5_28_cif.got.tgz:54773.got - 2010.03.31 09:47:26.
