data_PCOD8049361
_publ_section_title
;
Structure prediction by ZEFSAII (Michael W. Deem and Ramdas Pophale) SiO2 
 PCOD8049361
Probable space group: C 2
;
_chemical_formula_sum "Si O2"
_cell_formula_units_Z 26
_cell_length_a 9.065269
_cell_length_b 14.982366
_cell_length_c 9.419356
_cell_angle_alpha 90.000000
_cell_angle_beta 114.974408
_cell_angle_gamma 90.000000
_cell_volume 1159.707388
_symmetry_space_group_name_H-M "C 2"
_symmetry_group_IT_number 5
_symmetry_cell_setting 'monoclinic'
loop_
_space_group_symop_operation_xyz
x,y,z
-x,y,-z
1/2+x,1/2+y,z
1/2-x,1/2+y,-z
loop_
_atom_site_type_symbol
_atom_site_label
_atom_site_fract_x
_atom_site_fract_y
_atom_site_fract_z
Si Si1 0.896679 0.112690 0.598895
Si Si2 0.277476 0.753817 0.989762
Si Si3 0.500000 0.357112 0.000000
Si Si4 0.616308 0.487071 0.831273
Si Si5 0.178204 0.479383 0.359154
Si Si6 0.120224 0.288045 0.264684
Si Si7 0.605138 0.074584 0.909257
O O1 0.810139 0.204965 0.614244
O O2 0.000000 0.134024 0.500000
O O3 0.762949 0.033448 0.521771
O O4 0.014645 0.078737 0.773180
O O5 0.283386 0.809620 0.843735
O O6 0.215521 0.657753 0.907912
O O7 0.157542 0.795235 0.057115
O O8 0.444787 0.753553 0.142459
O O9 0.504244 0.414688 0.147438
O O10 0.683031 0.465685 0.702694
O O11 0.770585 0.495524 0.999475
O O12 0.120167 0.376994 0.364153
O O13 0.019116 0.537905 0.258152
O O14 0.500000 0.105951 0.000000
#
# Coordination Sequence:
#
# PCOD8049361 Si02
#       7
#     4   4   2   4   4   4   4
#     4  10  23  44  65  92 134 185 218 269 334 406
#     4  11  23  39  68 104 132 169 224 289 327 391
#     4  12  22  36  66 108 128 164 224 282 328 388
#     4  10  21  39  64  95 131 169 221 269 331 393
#     4  10  22  43  65  93 136 179 217 272 336 394
#     4  11  23  45  67  98 137 177 226 275 343 394
#     4  10  20  38  64  95 134 169 219 281 327 383
#
# _framework density 22.419450000000001
#
# number of rings (size 3 to 8) (size 9 to 14) (size 15 to 20)
#    0.000    1.538    3.846    0.923    6.462    0.000 
#    5.538    0.769    0.000    0.000    0.000    0.000 
#    0.000    0.000    0.000    0.000    0.000    0.000 
#
# Total GULP energy -161058.512871 kJ/mol
# GULP energy per Si atom -12389.116375 kJ/mol
# Density = 2.236842 g / cm^3
# Si number density = 22.419450 Si / 1000 Ang^3
#
#
#
# Elastic Constant Matrix: (Units=GPa)
#
#
# Indices 1 2 3 4 5 6 
#
# 1 85.8379 30.0501 27.4724 0.0000 5.9350 0.0000
# 2 30.0501 144.3579 39.1095 0.0000 9.0652 0.0000
# 3 27.4724 39.1095 75.6998 0.0000 12.8424 0.0000
# 4 0.0000 0.0000 0.0000 17.8250 0.0000 -9.1268
# 5 5.9350 9.0652 12.8424 0.0000 20.0032 0.0000
# 6 0.0000 0.0000 0.0000 -9.1268 0.0000 35.3240
#
#
#
# Elastic Compliance Matrix: (Units=1/GPa)
#
#
# Indices 1 2 3 4 5 6 
#
# 1 0.013552 -0.001716 -0.003907 0.000000 -0.000735 0.000000
# 2 -0.001716 0.008294 -0.003491 0.000000 -0.001008 0.000000
# 3 -0.003907 -0.003491 0.017918 0.000000 -0.008762 0.000000
# 4 0.000000 0.000000 0.000000 0.064654 0.000000 0.016705
# 5 -0.000735 -0.001008 -0.008762 0.000000 0.056292 0.000000
# 6 0.000000 0.000000 0.000000 0.016705 0.000000 0.032625
#
#
# Mechanical properties :
#
#
# Convention : Reuss Voigt Hill
#
# Bulk Modulus (GPa) = 46.43519 55.46217 50.94868
# Shear Modulus (GPa) = 22.85797 28.58135 25.71966
#
# Velocity S-wave (km/s) = 3.19652 3.57437 3.39071
# Velocity P-wave (km/s) = 5.86350 6.46738 6.17283
#
# Compressibility (1/GPa) = 0.02153539
#
# Stress axis : x y z
#
# Youngs Moduli (GPa) = 73.79029 120.57520 55.81007
#
# Poissons Ratio (x) = 0.20696 0.21803
# Poissons Ratio (y) = 0.12666 0.19482
# Poissons Ratio (z) = 0.28828 0.42091
#
# Static dielectric constant tensor:
#      x y z
#    x 4.132210 0.000000 0.092120 
#    y 0.000000 4.098820 0.000000 
#    z 0.092120 0.000000 3.733520 
# 
# 
# High freq. dielectric constant tensor:
#      x y z
#    x 1.877300 0.000000 0.009560 
#    y 0.000000 1.898220 0.000000 
#    z 0.009560 0.000000 1.850110 
# 
# From -- ./inp_files/36271.got.cif
#   From: 2010.03.12/outbox.cif.g09.slc.cpg/sg5_19_cif.got.tgz:36271.got - 2010.03.31 09:47:26.
