data_PCOD8049329
_publ_section_title
;
Structure prediction by ZEFSAII (Michael W. Deem and Ramdas Pophale) SiO2 
 PCOD8049329
Probable space group: C 2
;
_chemical_formula_sum "Si O2"
_cell_formula_units_Z 32
_cell_length_a 15.349118
_cell_length_b 23.360051
_cell_length_c 9.039093
_cell_angle_alpha 90.000000
_cell_angle_beta 150.976224
_cell_angle_gamma 90.000000
_cell_volume 1572.455123
_symmetry_space_group_name_H-M "C 2"
_symmetry_group_IT_number 5
_symmetry_cell_setting 'monoclinic'
loop_
_space_group_symop_operation_xyz
x,y,z
-x,y,-z
1/2+x,1/2+y,z
1/2-x,1/2+y,-z
loop_
_atom_site_type_symbol
_atom_site_label
_atom_site_fract_x
_atom_site_fract_y
_atom_site_fract_z
Si Si1 0.314487 0.158160 0.810076
Si Si2 0.303301 0.478958 0.175952
Si Si3 0.313142 0.287207 0.805552
Si Si4 0.326880 0.579717 0.644615
Si Si5 0.043520 0.583539 0.732165
Si Si6 0.810736 0.373264 0.141215
Si Si7 0.813197 0.470970 0.684508
Si Si8 0.544231 0.856213 0.225999
O O1 0.251454 0.222654 0.750168
O O2 0.175503 0.123455 0.498274
O O3 0.500000 0.159245 0.000000
O O4 0.334042 0.129743 0.000608
O O5 0.500000 0.506200 0.500000
O O6 0.247995 0.447065 0.246822
O O7 0.155680 0.524873 0.905292
O O8 0.308852 0.430884 0.054268
O O9 0.304802 0.325689 0.942657
O O10 0.177585 0.310147 0.485577
O O11 0.500000 0.290501 0.000000
O O12 0.337105 0.514369 0.599759
O O13 0.148963 0.580373 0.477490
O O14 0.500000 0.594027 0.000000
O O15 0.000000 0.602058 0.500000
O O16 0.000000 0.387940 0.500000
O O17 0.863446 0.353494 0.055018
O O18 0.859007 0.419027 0.640349
O O19 0.000000 0.505520 0.000000
O O20 0.500000 0.833083 0.000000
#
# Coordination Sequence:
#
# PCOD8049329 Si02
#       8
#     4   4   4   4   4   4   4   4
#     4   9  20  45  65  86 126 165 213 261 319 372
#     4  12  24  37  62  95 135 165 207 260 324 386
#     4  10  23  40  64  90 122 168 212 266 311 374
#     4  11  22  39  68  95 123 166 215 256 319 389
#     4  11  23  41  64  93 127 166 203 269 323 374
#     4  10  21  40  59  89 127 166 210 256 319 378
#     4  11  19  40  63  90 130 172 201 260 322 379
#     4  10  20  38  62  87 122 168 205 254 321 376
#
# _framework density 20.350341
#
# number of rings (size 3 to 8) (size 9 to 14) (size 15 to 20)
#    0.000    1.500    5.000    0.750    3.500    2.000 
#    0.000   10.000    0.000    0.000    0.000    0.000 
#    0.000    0.000    0.000    0.000    0.000    0.000 
#
# Total GULP energy -198241.527451 kJ/mol
# GULP energy per Si atom -12390.095466 kJ/mol
# Density = 2.030402 g / cm^3
# Si number density = 20.350341 Si / 1000 Ang^3
#
#
#
# Elastic Constant Matrix: (Units=GPa)
#
#
# Indices 1 2 3 4 5 6 
#
# 1 113.9257 57.1210 40.9774 0.0000 -23.5771 0.0000
# 2 57.1210 155.5548 60.6548 0.0000 -19.3573 0.0000
# 3 40.9774 60.6548 121.4980 0.0000 -16.5386 0.0000
# 4 0.0000 0.0000 0.0000 49.3848 0.0000 -13.1305
# 5 -23.5771 -19.3573 -16.5386 0.0000 37.9986 0.0000
# 6 0.0000 0.0000 0.0000 -13.1305 0.0000 33.5978
#
#
#
# Elastic Compliance Matrix: (Units=1/GPa)
#
#
# Indices 1 2 3 4 5 6 
#
# 1 0.012031 -0.003069 -0.001831 0.000000 0.005105 0.000000
# 2 -0.003069 0.008991 -0.003284 0.000000 0.001247 0.000000
# 3 -0.001831 -0.003284 0.010741 0.000000 0.001866 0.000000
# 4 0.000000 0.000000 0.000000 0.022597 0.000000 0.008831
# 5 0.005105 0.001247 0.001866 0.000000 0.030932 0.000000
# 6 0.000000 0.000000 0.000000 0.008831 0.000000 0.033215
#
#
# Mechanical properties :
#
#
# Convention : Reuss Voigt Hill
#
# Bulk Modulus (GPa) = 64.94820 78.72052 71.83436
# Shear Modulus (GPa) = 35.71236 39.67793 37.69515
#
# Velocity S-wave (km/s) = 4.19367 4.42038 4.30852
# Velocity P-wave (km/s) = 7.44537 8.05106 7.75413
#
# Compressibility (1/GPa) = 0.01539688
#
# Stress axis : x y z
#
# Youngs Moduli (GPa) = 83.11627 111.22088 93.09694
#
# Poissons Ratio (x) = 0.34132 0.17045
# Poissons Ratio (y) = 0.25507 0.30572
# Poissons Ratio (z) = 0.15217 0.36523
#
# Static dielectric constant tensor:
#      x y z
#    x 3.927510 0.000000 -0.199410 
#    y 0.000000 3.692660 0.000000 
#    z -0.199410 0.000000 3.479130 
# 
# 
# High freq. dielectric constant tensor:
#      x y z
#    x 1.801710 0.000000 -0.009610 
#    y 0.000000 1.779470 0.000000 
#    z -0.009610 0.000000 1.789550 
# 
# From -- ./inp_files/25639.got.cif
#   From: 2010.03.12/outbox.cif.g09.slc.cpg/sg5_13_cif.got.tgz:25639.got - 2010.03.31 09:47:26.
