data_PCOD8049708
_publ_section_title
;
Structure prediction by ZEFSAII (Michael W. Deem and Ramdas Pophale) SiO2 
 PCOD8049708
Probable space group: C 2
;
_chemical_formula_sum "Si O2"
_cell_formula_units_Z 24
_cell_length_a 11.526890
_cell_length_b 15.547151
_cell_length_c 10.692737
_cell_angle_alpha 90.000000
_cell_angle_beta 145.245381
_cell_angle_gamma 90.000000
_cell_volume 1092.382424
_symmetry_space_group_name_H-M "C 2"
_symmetry_group_IT_number 5
_symmetry_cell_setting 'monoclinic'
loop_
_space_group_symop_operation_xyz
x,y,z
-x,y,-z
1/2+x,1/2+y,z
1/2-x,1/2+y,-z
loop_
_atom_site_type_symbol
_atom_site_label
_atom_site_fract_x
_atom_site_fract_y
_atom_site_fract_z
Si Si1 0.619689 0.638080 0.888920
Si Si2 0.459374 0.267986 0.217603
Si Si3 0.699692 0.001822 0.109170
Si Si4 0.601479 0.763335 0.466780
Si Si5 0.500000 0.518169 0.000000
Si Si6 0.500000 0.372542 0.500000
Si Si7 0.318748 0.905871 0.158519
O O1 0.658217 0.582808 0.796938
O O2 0.468659 0.714651 0.720277
O O3 0.494176 0.579653 0.874530
O O4 0.830202 0.680268 0.129590
O O5 0.657583 0.251370 0.308949
O O6 0.540869 0.311401 0.417718
O O7 0.327851 0.330228 0.016130
O O8 0.807609 0.932272 0.294985
O O9 0.500000 0.036228 0.000000
O O10 0.629645 0.965099 0.913247
O O11 0.500000 0.721895 0.500000
O O12 0.527733 0.863467 0.393672
O O13 0.296591 0.459378 0.833531
#
# Coordination Sequence:
#
# PCOD8049708 Si02
#       7
#     4   4   4   4   2   2   4
#     4  10  25  38  62  92 130 166 200 268 328 366
#     4  10  22  40  61  94 124 164 210 262 317 382
#     4  10  21  38  62  88 123 163 205 261 312 375
#     4  11  23  38  63  91 124 167 209 258 312 394
#     4  10  20  44  64  88 130 168 212 262 326 388
#     4  10  22  38  66  90 122 164 222 252 304 394
#     4   9  20  41  62  89 118 166 211 259 314 373
#
# _framework density 21.970327000000001
#
# number of rings (size 3 to 8) (size 9 to 14) (size 15 to 20)
#    0.000    2.000    0.000    2.000    5.833    1.333 
#    3.000   10.000    0.000    0.000    0.000    0.000 
#    0.000    0.000    0.000    0.000    0.000    0.000 
#
# Total GULP energy -148735.938214 kJ/mol
# GULP energy per Si atom -12394.661518 kJ/mol
# Density = 2.192032 g / cm^3
# Si number density = 21.970327 Si / 1000 Ang^3
#
#
#
# Elastic Constant Matrix: (Units=GPa)
#
#
# Indices 1 2 3 4 5 6 
#
# 1 118.2524 34.6376 22.6380 0.0000 14.5874 0.0000
# 2 34.6376 96.2535 15.7031 0.0000 1.1088 0.0000
# 3 22.6380 15.7031 50.4356 0.0000 5.4179 0.0000
# 4 0.0000 0.0000 0.0000 18.1259 0.0000 -3.7112
# 5 14.5874 1.1088 5.4179 0.0000 31.1648 0.0000
# 6 0.0000 0.0000 0.0000 -3.7112 0.0000 35.1508
#
#
#
# Elastic Compliance Matrix: (Units=1/GPa)
#
#
# Indices 1 2 3 4 5 6 
#
# 1 0.010550 -0.003213 -0.003278 0.000000 -0.004254 0.000000
# 2 -0.003213 0.011925 -0.002432 0.000000 0.001502 0.000000
# 3 -0.003278 -0.002432 0.022298 0.000000 -0.002256 0.000000
# 4 0.000000 0.000000 0.000000 0.056389 0.000000 0.005953
# 5 -0.004254 0.001502 -0.002256 0.000000 0.034417 0.000000
# 6 0.000000 0.000000 0.000000 0.005953 0.000000 0.029077
#
#
# Mechanical properties :
#
#
# Convention : Reuss Voigt Hill
#
# Bulk Modulus (GPa) = 37.13735 45.65541 41.39638
# Shear Modulus (GPa) = 26.11271 29.68582 27.89927
#
# Velocity S-wave (km/s) = 3.45127 3.67982 3.56738
# Velocity P-wave (km/s) = 5.72903 6.23542 5.98758
#
# Compressibility (1/GPa) = 0.02692707
#
# Stress axis : x y z
#
# Youngs Moduli (GPa) = 94.78849 83.85874 44.84670
#
# Poissons Ratio (x) = 0.26941 0.14701
# Poissons Ratio (y) = 0.30452 0.10907
# Poissons Ratio (z) = 0.31072 0.20396
#
# Static dielectric constant tensor:
#      x y z
#    x 3.977620 0.000000 -0.042220 
#    y 0.000000 4.168780 0.000000 
#    z -0.042220 0.000000 3.783610 
# 
# 
# High freq. dielectric constant tensor:
#      x y z
#    x 1.869930 0.000000 0.000690 
#    y 0.000000 1.870300 0.000000 
#    z 0.000690 0.000000 1.844100 
# 
# From -- ./inp_files/40510.got.cif
#   From: 2010.03.12/outbox.cif.g09.slc.cpg/sg5_21_cif.got.tgz:40510.got - 2010.03.31 09:47:26.
