data_PCOD8049941
_publ_section_title
;
Structure prediction by ZEFSAII (Michael W. Deem and Ramdas Pophale) SiO2 
 PCOD8049941
Probable space group: C 2
;
_chemical_formula_sum "Si O2"
_cell_formula_units_Z 28
_cell_length_a 4.959854
_cell_length_b 23.656893
_cell_length_c 12.643904
_cell_angle_alpha 90.000000
_cell_angle_beta 77.873325
_cell_angle_gamma 90.000000
_cell_volume 1450.464085
_symmetry_space_group_name_H-M "C 2"
_symmetry_group_IT_number 5
_symmetry_cell_setting 'monoclinic'
loop_
_space_group_symop_operation_xyz
x,y,z
-x,y,-z
1/2+x,1/2+y,z
1/2-x,1/2+y,-z
loop_
_atom_site_type_symbol
_atom_site_label
_atom_site_fract_x
_atom_site_fract_y
_atom_site_fract_z
Si Si1 0.956596 0.084670 0.386516
Si Si2 0.467109 0.103231 0.751096
Si Si3 0.779307 0.695524 0.926333
Si Si4 0.483560 0.426506 0.197855
Si Si5 0.194452 0.957672 0.569690
Si Si6 0.469419 0.990999 0.878628
Si Si7 0.719286 0.321617 0.072072
O O1 0.676088 0.104420 0.352537
O O2 0.000000 0.111462 0.500000
O O3 0.206015 0.104295 0.291392
O O4 0.948204 0.017462 0.396401
O O5 0.375915 0.158640 0.820306
O O6 0.381370 0.047614 0.824099
O O7 0.726707 0.759024 0.884929
O O8 0.500000 0.670857 0.000000
O O9 0.000000 0.693773 0.000000
O O10 0.306527 0.423425 0.320513
O O11 0.277715 0.445973 0.120624
O O12 0.601590 0.363961 0.169230
O O13 0.740094 0.468936 0.189636
O O14 0.500000 0.964596 0.500000
O O15 0.000000 0.925893 0.500000
O O16 0.500000 0.003562 0.000000
O O17 0.500000 0.313946 0.000000
O O18 0.000000 0.347528 0.000000
#
# Coordination Sequence:
#
# PCOD8049941 Si02
#       7
#     4   4   4   4   4   4   4
#     4  11  22  37  58  82 115 149 194 232 277 342
#     4  12  21  38  57  85 116 150 186 232 287 336
#     4  10  22  39  60  84 114 154 195 228 271 339
#     4  12  22  37  56  84 115 151 187 234 284 334
#     4  11  21  36  56  80 111 148 189 230 275 336
#     4  12  23  34  52  85 121 149 177 227 292 347
#     4  10  21  39  59  82 112 153 196 229 269 336
#
# _framework density 19.304167
#
# number of rings (size 3 to 8) (size 9 to 14) (size 15 to 20)
#    0.000    0.857    2.857    6.857    0.000    1.143 
#    0.000    0.000    0.000    2.571    0.000    0.000 
#    0.000    0.000    0.000    0.000    0.000    0.000 
#
# Total GULP energy -173624.517192 kJ/mol
# GULP energy per Si atom -12401.751228 kJ/mol
# Density = 1.926023 g / cm^3
# Si number density = 19.304167 Si / 1000 Ang^3
#
#
#
# Elastic Constant Matrix: (Units=GPa)
#
#
# Indices 1 2 3 4 5 6 
#
# 1 114.7702 20.5679 33.1951 0.0000 -4.6364 0.0000
# 2 20.5679 78.9164 49.9844 0.0000 -7.5351 0.0000
# 3 33.1951 49.9844 114.2888 0.0000 -3.3397 0.0000
# 4 0.0000 0.0000 0.0000 21.6507 0.0000 -4.8600
# 5 -4.6364 -7.5351 -3.3397 0.0000 46.0177 0.0000
# 6 0.0000 0.0000 0.0000 -4.8600 0.0000 19.9759
#
#
#
# Elastic Compliance Matrix: (Units=1/GPa)
#
#
# Indices 1 2 3 4 5 6 
#
# 1 0.009589 -0.000949 -0.002352 0.000000 0.000640 0.000000
# 2 -0.000949 0.017871 -0.007474 0.000000 0.002288 0.000000
# 3 -0.002352 -0.007474 0.012686 0.000000 -0.000540 0.000000
# 4 0.000000 0.000000 0.000000 0.048856 0.000000 0.011886
# 5 0.000640 0.002288 -0.000540 0.000000 0.022131 0.000000
# 6 0.000000 0.000000 0.000000 0.011886 0.000000 0.052952
#
#
# Mechanical properties :
#
#
# Convention : Reuss Voigt Hill
#
# Bulk Modulus (GPa) = 53.76863 57.27447 55.52155
# Shear Modulus (GPa) = 26.06460 31.14408 28.60434
#
# Velocity S-wave (km/s) = 3.67850 4.02099 3.85355
# Velocity P-wave (km/s) = 6.77906 7.16182 6.97307
#
# Compressibility (1/GPa) = 0.01859820
#
# Stress axis : x y z
#
# Youngs Moduli (GPa) = 104.28546 55.95662 78.82992
#
# Poissons Ratio (x) = 0.05308 0.18537
# Poissons Ratio (y) = 0.09893 0.58914
# Poissons Ratio (z) = 0.24523 0.41819
#
# Static dielectric constant tensor:
#      x y z
#    x 3.731560 0.000000 0.092000 
#    y 0.000000 3.443780 0.000000 
#    z 0.092000 0.000000 3.637190 
# 
# 
# High freq. dielectric constant tensor:
#      x y z
#    x 1.777250 0.000000 -0.001400 
#    y 0.000000 1.716510 0.000000 
#    z -0.001400 0.000000 1.748840 
# 
# From -- ./inp_files/33914.got.cif
#   From: 2010.03.12/outbox.cif.g09.slc.cpg/sg5_17_cif.got.tgz:33914.got - 2010.03.31 09:47:26.
