data_PCOD8049534
_publ_section_title
;
Structure prediction by ZEFSAII (Michael W. Deem and Ramdas Pophale) SiO2 
 PCOD8049534
Probable space group: C 2
;
_chemical_formula_sum "Si O2"
_cell_formula_units_Z 22
_cell_length_a 11.009044
_cell_length_b 13.733845
_cell_length_c 10.425989
_cell_angle_alpha 90.000000
_cell_angle_beta 42.990115
_cell_angle_gamma 90.000000
_cell_volume 1074.884941
_symmetry_space_group_name_H-M "C 2"
_symmetry_group_IT_number 5
_symmetry_cell_setting 'monoclinic'
loop_
_space_group_symop_operation_xyz
x,y,z
-x,y,-z
1/2+x,1/2+y,z
1/2-x,1/2+y,-z
loop_
_atom_site_type_symbol
_atom_site_label
_atom_site_fract_x
_atom_site_fract_y
_atom_site_fract_z
Si Si1 0.800645 0.315470 0.679563
Si Si2 0.819267 0.983425 0.064328
Si Si3 0.000000 0.000167 0.500000
Si Si4 0.544549 0.147699 0.313742
Si Si5 0.346808 0.116940 0.209198
Si Si6 0.510285 0.363516 0.709751
O O1 0.809923 0.407173 0.765838
O O2 0.686009 0.225343 0.823192
O O3 0.698153 0.345765 0.631355
O O4 0.000000 0.279412 0.500000
O O5 0.717317 0.086343 0.134606
O O6 0.865971 0.929528 0.896044
O O7 0.000000 0.003662 0.000000
O O8 0.919013 0.929207 0.458039
O O9 0.164027 0.062646 0.322911
O O10 0.500000 0.126180 0.500000
O O11 0.390737 0.117316 0.329043
O O12 0.582687 0.262666 0.265243
O O13 0.500000 0.070628 0.000000
#
# Coordination Sequence:
#
# PCOD8049534 Si02
#       6
#     4   4   2   4   4   4
#     4  10  20  40  66  96 123 173 223 268 327 400
#     4  10  22  39  67  93 129 172 223 268 329 402
#     4  12  24  42  64  96 132 184 214 270 344 398
#     4  11  23  43  66  97 133 172 219 284 333 380
#     4  11  24  43  67  97 137 177 224 273 327 409
#     4  10  23  42  61  92 138 169 214 282 332 394
#
# _framework density 20.467307999999999
#
# number of rings (size 3 to 8) (size 9 to 14) (size 15 to 20)
#    0.000    1.455    1.818    4.364    7.636    0.000 
#    0.000    2.727    0.000    0.000    0.000    0.000 
#    0.000    0.000    0.000    0.000    0.000    0.000 
#
# Total GULP energy -136282.417179 kJ/mol
# GULP energy per Si atom -12389.310653 kJ/mol
# Density = 2.042072 g / cm^3
# Si number density = 20.467308 Si / 1000 Ang^3
#
#
#
# Elastic Constant Matrix: (Units=GPa)
#
#
# Indices 1 2 3 4 5 6 
#
# 1 67.3250 37.8373 42.6535 -0.0005 3.0969 0.0006
# 2 37.8373 104.7575 39.1200 0.0002 -5.3535 -0.0002
# 3 42.6535 39.1200 109.4482 -0.0003 -12.8697 0.0004
# 4 -0.0005 0.0002 -0.0003 15.8729 0.0005 15.4011
# 5 3.0969 -5.3535 -12.8697 0.0005 34.4374 -0.0006
# 6 0.0006 -0.0002 0.0004 15.4011 -0.0006 14.4353
#
#
#
# Elastic Compliance Matrix: (Units=1/GPa)
#
#
# Indices 1 2 3 4 5 6 
#
# 1 0.023263 -0.005838 -0.007669 -0.000055 -0.005866 0.000057
# 2 -0.005838 0.012484 -0.001984 0.000026 0.001724 -0.000028
# 3 -0.007669 -0.001984 0.013471 0.000010 0.005416 -0.000010
# 4 -0.000055 0.000026 0.000010 -1.790541 0.000072 1.910331
# 5 -0.005866 0.001724 0.005416 0.000072 0.031858 -0.000076
# 6 0.000057 -0.000028 -0.000010 1.910331 -0.000076 -1.968860
#
#
# Mechanical properties :
#
#
# Convention : Reuss Voigt Hill
#
# Bulk Modulus (GPa) = 54.83770 57.86137 56.34954
# Shear Modulus (GPa) = -1.37315 23.74379 11.18532
#
# Velocity S-wave (km/s) = -0.81997 3.40970 2.34026
# Velocity P-wave (km/s) = 5.09456 6.62064 5.90709
#
# Compressibility (1/GPa) = 0.01823563
#
# Stress axis : x y z
#
# Youngs Moduli (GPa) = 42.98701 80.10526 74.23169
#
# Poissons Ratio (x) = 0.46768 0.56927
# Poissons Ratio (y) = 0.25097 0.14728
# Poissons Ratio (z) = 0.32966 0.15893
#
# Static dielectric constant tensor:
#      x y z
#    x 3.760040 0.000000 0.287750 
#    y 0.000000 3.883810 0.000000 
#    z 0.287750 0.000000 3.678050 
# 
# 
# High freq. dielectric constant tensor:
#      x y z
#    x 1.798110 0.000000 0.004550 
#    y 0.000000 1.813890 0.000000 
#    z 0.004550 0.000000 1.790050 
# 
# From -- ./inp_files/39049.got.cif
#   From: 2010.03.12/outbox.cif.g09.slc.cpg/sg5_20_cif.got.tgz:39049.got - 2010.03.31 09:47:26.
