data_PCOD8049487
_publ_section_title
;
Structure prediction by ZEFSAII (Michael W. Deem and Ramdas Pophale) SiO2 
 PCOD8049487
Probable space group: C 2
;
_chemical_formula_sum "Si O2"
_cell_formula_units_Z 32
_cell_length_a 10.831590
_cell_length_b 8.723311
_cell_length_c 18.554727
_cell_angle_alpha 90.000000
_cell_angle_beta 54.144831
_cell_angle_gamma 90.000000
_cell_volume 1420.958071
_symmetry_space_group_name_H-M "C 2"
_symmetry_group_IT_number 5
_symmetry_cell_setting 'monoclinic'
loop_
_space_group_symop_operation_xyz
x,y,z
-x,y,-z
1/2+x,1/2+y,z
1/2-x,1/2+y,-z
loop_
_atom_site_type_symbol
_atom_site_label
_atom_site_fract_x
_atom_site_fract_y
_atom_site_fract_z
Si Si1 0.044436 0.397700 0.593967
Si Si2 0.807248 0.636596 0.638457
Si Si3 0.807316 0.225227 0.758633
Si Si4 0.436643 0.421685 0.678707
Si Si5 0.120654 0.074291 0.014376
Si Si6 0.055682 0.945750 0.789723
Si Si7 0.676228 0.250213 0.952188
Si Si8 0.300092 0.607389 0.476184
O O1 0.174456 0.525344 0.570417
O O2 0.111363 0.255901 0.521241
O O3 0.914157 0.486597 0.594893
O O4 0.963627 0.323780 0.692561
O O5 0.878669 0.772807 0.658890
O O6 0.650371 0.593212 0.731364
O O7 0.779859 0.687272 0.566004
O O8 0.659390 0.306173 0.779121
O O9 0.785979 0.190700 0.850772
O O10 0.819829 0.063781 0.712370
O O11 0.457789 0.383241 0.755996
O O12 0.593129 0.468864 0.586417
O O13 0.043448 0.995290 0.109076
O O14 0.254694 0.187320 0.995561
O O15 0.192618 0.934116 0.944673
O O16 0.000000 0.156695 0.000000
O O17 0.500000 0.198116 0.000000
#
# Coordination Sequence:
#
# PCOD8049487 Si02
#       8
#     4   4   4   4   4   4   4   4
#     4  10  21  38  66  89 127 171 209 264 324 388
#     4  10  22  38  61  91 124 165 210 267 321 391
#     4  10  20  41  64  92 130 172 216 276 331 390
#     4  10  21  38  64  90 127 164 217 267 322 397
#     4  11  23  42  68  94 133 178 219 283 339 402
#     4  10  20  40  61  87 125 166 213 267 331 388
#     4  11  23  44  66  95 137 176 226 285 339 402
#     4  10  21  39  60  92 127 165 212 266 320 386
#
# _framework density 22.520016999999999
#
# number of rings (size 3 to 8) (size 9 to 14) (size 15 to 20)
#    0.000    1.750    3.750    1.125    0.000    2.500 
#    2.250    5.000    0.000    0.000    0.000    0.000 
#    0.000    0.000    0.000    0.000    0.000    0.000 
#
# Total GULP energy -198285.762556 kJ/mol
# GULP energy per Si atom -12392.860160 kJ/mol
# Density = 2.246876 g / cm^3
# Si number density = 22.520017 Si / 1000 Ang^3
#
#
#
# Elastic Constant Matrix: (Units=GPa)
#
#
# Indices 1 2 3 4 5 6 
#
# 1 121.2380 45.3336 13.7394 0.0000 11.3021 0.0000
# 2 45.3336 87.4317 21.6420 0.0000 5.2777 0.0000
# 3 13.7394 21.6420 74.9533 0.0000 -9.1077 0.0000
# 4 0.0000 0.0000 0.0000 28.7492 0.0000 4.6852
# 5 11.3021 5.2777 -9.1077 0.0000 25.2762 0.0000
# 6 0.0000 0.0000 0.0000 4.6852 0.0000 39.4242
#
#
#
# Elastic Compliance Matrix: (Units=1/GPa)
#
#
# Indices 1 2 3 4 5 6 
#
# 1 0.010613 -0.005013 -0.000991 0.000000 -0.004056 0.000000
# 2 -0.005013 0.015091 -0.003712 0.000000 -0.002247 0.000000
# 3 -0.000991 -0.003712 0.015418 0.000000 0.006774 0.000000
# 4 0.000000 0.000000 0.000000 0.035471 0.000000 -0.004215
# 5 -0.004056 -0.002247 0.006774 0.000000 0.044286 0.000000
# 6 0.000000 0.000000 0.000000 -0.004215 0.000000 0.025866
#
#
# Mechanical properties :
#
#
# Convention : Reuss Voigt Hill
#
# Bulk Modulus (GPa) = 46.10071 49.45033 47.77552
# Shear Modulus (GPa) = 28.83408 32.21712 30.52560
#
# Velocity S-wave (km/s) = 3.58212 3.78643 3.68569
# Velocity P-wave (km/s) = 6.13385 6.41265 6.27480
#
# Compressibility (1/GPa) = 0.02169164
#
# Stress axis : x y z
#
# Youngs Moduli (GPa) = 94.22387 66.26471 64.85918
#
# Poissons Ratio (x) = 0.33217 0.06427
# Poissons Ratio (y) = 0.47232 0.24073
# Poissons Ratio (z) = 0.09336 0.24594
#
# Static dielectric constant tensor:
#      x y z
#    x 4.154490 0.000000 -0.126320 
#    y 0.000000 4.087400 0.000000 
#    z -0.126320 0.000000 4.144980 
# 
# 
# High freq. dielectric constant tensor:
#      x y z
#    x 1.882170 0.000000 -0.011320 
#    y 0.000000 1.884410 0.000000 
#    z -0.011320 0.000000 1.885010 
# 
# From -- ./inp_files/65128.got.cif
#   From: 2010.03.12/outbox.cif.g09.slc.cpg/sg5_33_cif.got.tgz:65128.got - 2010.03.31 09:47:26.
