data_PCOD8049802
_publ_section_title
;
Structure prediction by ZEFSAII (Michael W. Deem and Ramdas Pophale) SiO2 
 PCOD8049802
Probable space group: C 2
;
_chemical_formula_sum "Si O2"
_cell_formula_units_Z 32
_cell_length_a 11.718849
_cell_length_b 14.455589
_cell_length_c 14.189098
_cell_angle_alpha 90.000000
_cell_angle_beta 43.068838
_cell_angle_gamma 90.000000
_cell_volume 1641.412511
_symmetry_space_group_name_H-M "C 2"
_symmetry_group_IT_number 5
_symmetry_cell_setting 'monoclinic'
loop_
_space_group_symop_operation_xyz
x,y,z
-x,y,-z
1/2+x,1/2+y,z
1/2-x,1/2+y,-z
loop_
_atom_site_type_symbol
_atom_site_label
_atom_site_fract_x
_atom_site_fract_y
_atom_site_fract_z
Si Si1 0.541075 0.149160 0.726926
Si Si2 0.119433 0.518415 0.304419
Si Si3 0.235880 0.473875 0.425614
Si Si4 0.193306 0.213297 0.184041
Si Si5 0.410711 0.605434 0.455737
Si Si6 0.266997 0.397840 0.056946
Si Si7 0.106806 0.541534 0.021539
Si Si8 0.907595 0.820411 0.208544
O O1 0.416303 0.118537 0.718976
O O2 0.734062 0.153338 0.580585
O O3 0.523672 0.075183 0.821356
O O4 0.484205 0.251468 0.790975
O O5 0.203305 0.540091 0.354467
O O6 0.243155 0.454653 0.168431
O O7 0.942112 0.462952 0.414741
O O8 0.377795 0.515115 0.409417
O O9 0.286335 0.375724 0.351505
O O10 0.171310 0.298463 0.123361
O O11 0.309454 0.252848 0.197043
O O12 0.019172 0.180537 0.333577
O O13 0.275649 0.125951 0.081974
O O14 0.500000 0.575462 0.500000
O O15 0.208881 0.455081 0.001038
O O16 0.465613 0.384547 0.925336
O O17 0.000000 0.501813 0.000000
#
# Coordination Sequence:
#
# PCOD8049802 Si02
#       8
#     4   4   4   4   4   4   4   4
#     4  10  21  36  60  83 116 156 197 238 298 342
#     4   9  21  39  56  85 118 157 188 248 294 354
#     4  10  22  37  61  87 118 149 200 243 302 345
#     4  12  22  37  61  89 117 153 206 245 291 351
#     4  11  22  38  61  88 117 157 195 247 297 360
#     4  11  23  35  60  89 119 150 204 243 299 345
#     4  11  20  40  60  84 120 160 191 249 299 353
#     4  12  21  36  60  92 113 152 201 252 279 355
#
# _framework density 19.495403
#
# number of rings (size 3 to 8) (size 9 to 14) (size 15 to 20)
#    0.000    1.250    5.000    1.125    1.750    0.000 
#    0.000    1.250    5.500    0.000    0.000    0.000 
#    0.000    0.000    0.000    0.000    0.000    0.000 
#
# Total GULP energy -198317.952424 kJ/mol
# GULP energy per Si atom -12394.872027 kJ/mol
# Density = 1.945103 g / cm^3
# Si number density = 19.495403 Si / 1000 Ang^3
#
#
#
# Elastic Constant Matrix: (Units=GPa)
#
#
# Indices 1 2 3 4 5 6 
#
# 1 97.5734 53.1117 25.9454 0.0001 14.1598 0.0000
# 2 53.1117 108.7093 40.6726 0.0001 6.1337 0.0000
# 3 25.9454 40.6726 108.6178 0.0007 -4.3142 -0.0004
# 4 0.0001 0.0001 0.0007 36.5358 -0.0003 4.7900
# 5 14.1598 6.1337 -4.3142 -0.0003 27.6428 0.0001
# 6 0.0000 0.0000 -0.0004 4.7900 0.0001 31.4364
#
#
#
# Elastic Compliance Matrix: (Units=1/GPa)
#
#
# Indices 1 2 3 4 5 6 
#
# 1 0.015101 -0.006470 -0.001444 0.000000 -0.006525 0.000000
# 2 -0.006470 0.013725 -0.003606 0.000000 -0.000294 0.000000
# 3 -0.001444 -0.003606 0.011031 0.000000 0.003261 0.000000
# 4 0.000000 0.000000 0.000000 0.027928 0.000000 -0.004256
# 5 -0.006525 -0.000294 0.003261 0.000000 0.040093 0.000000
# 6 0.000000 0.000000 0.000000 -0.004256 0.000000 0.032459
#
#
# Mechanical properties :
#
#
# Convention : Reuss Voigt Hill
#
# Bulk Modulus (GPa) = 59.45553 61.59556 60.52554
# Shear Modulus (GPa) = 29.58892 32.13438 30.86165
#
# Velocity S-wave (km/s) = 3.90004 4.06434 3.98304
# Velocity P-wave (km/s) = 7.13049 7.32725 7.22954
#
# Compressibility (1/GPa) = 0.01681929
#
# Stress axis : x y z
#
# Youngs Moduli (GPa) = 66.22042 72.85786 90.65155
#
# Poissons Ratio (x) = 0.47136 0.13088
# Poissons Ratio (y) = 0.42841 0.32688
# Poissons Ratio (z) = 0.09561 0.26272
#
# Static dielectric constant tensor:
#      x y z
#    x 3.609060 0.000000 0.218390 
#    y 0.000000 3.616710 0.000000 
#    z 0.218390 0.000000 3.826180 
# 
# 
# High freq. dielectric constant tensor:
#      x y z
#    x 1.742950 0.000000 0.011530 
#    y 0.000000 1.744240 0.000000 
#    z 0.011530 0.000000 1.782870 
# 
# From -- ./inp_files/53178.got.cif
#   From: 2010.03.12/outbox.cif.g09.slc.cpg/sg5_27_cif.got.tgz:53178.got - 2010.03.31 09:47:26.
