data_PCOD8049856
_publ_section_title
;
Structure prediction by ZEFSAII (Michael W. Deem and Ramdas Pophale) SiO2 
 PCOD8049856
Probable space group: C 2
;
_chemical_formula_sum "Si O2"
_cell_formula_units_Z 32
_cell_length_a 11.483501
_cell_length_b 16.584484
_cell_length_c 8.009226
_cell_angle_alpha 90.000000
_cell_angle_beta 85.473798
_cell_angle_gamma 90.000000
_cell_volume 1520.583577
_symmetry_space_group_name_H-M "C 2"
_symmetry_group_IT_number 5
_symmetry_cell_setting 'monoclinic'
loop_
_space_group_symop_operation_xyz
x,y,z
-x,y,-z
1/2+x,1/2+y,z
1/2-x,1/2+y,-z
loop_
_atom_site_type_symbol
_atom_site_label
_atom_site_fract_x
_atom_site_fract_y
_atom_site_fract_z
Si Si1 0.363428 0.632550 0.843433
Si Si2 0.685324 0.257002 0.737369
Si Si3 0.895312 0.956030 0.776136
Si Si4 0.250898 0.586333 0.208951
Si Si5 0.224679 0.810334 0.363201
Si Si6 0.044527 0.683924 0.307296
Si Si7 0.424813 0.697185 0.339202
Si Si8 0.142812 0.925128 0.839006
O O1 0.290533 0.696385 0.744837
O O2 0.372449 0.549744 0.734672
O O3 0.492934 0.673183 0.828365
O O4 0.307568 0.619274 0.030432
O O5 0.686019 0.297960 0.556834
O O6 0.567396 0.206964 0.791150
O O7 0.695265 0.335464 0.853840
O O8 0.799255 0.902584 0.689198
O O9 0.029798 0.928501 0.726311
O O10 0.886873 0.952994 0.974349
O O11 0.111525 0.604022 0.233702
O O12 0.317589 0.632688 0.353021
O O13 0.263193 0.490575 0.236904
O O14 0.138057 0.755005 0.264864
O O15 0.361258 0.784834 0.321647
O O16 0.000000 0.670522 0.500000
O O17 0.500000 0.694372 0.500000
#
# Coordination Sequence:
#
# PCOD8049856 Si02
#       8
#     4   4   4   4   4   4   4   4
#     4  11  23  40  64  96 125 162 213 253 316 373
#     4  11  22  38  62  94 122 161 209 258 301 382
#     4  10  21  40  60  92 124 162 204 261 306 369
#     4  10  22  40  64  94 125 164 205 267 314 369
#     4  10  21  39  60  88 127 159 205 256 313 362
#     4   9  20  38  62  90 124 162 206 253 314 374
#     4  11  21  38  62  91 125 161 205 256 313 374
#     4  10  21  37  62  91 124 154 214 255 306 366
#
# _framework density 21.044551999999999
#
# number of rings (size 3 to 8) (size 9 to 14) (size 15 to 20)
#    0.000    1.750    3.750    0.375    3.500    1.500 
#    0.000    1.250    0.000    1.500    0.000    0.000 
#    0.000    0.000    0.000    0.000    0.000    0.000 
#
# Total GULP energy -198245.781384 kJ/mol
# GULP energy per Si atom -12390.361337 kJ/mol
# Density = 2.099665 g / cm^3
# Si number density = 21.044552 Si / 1000 Ang^3
#
#
#
# Elastic Constant Matrix: (Units=GPa)
#
#
# Indices 1 2 3 4 5 6 
#
# 1 117.8089 77.4109 19.2725 0.0000 -11.3042 0.0000
# 2 77.4109 150.5603 22.3801 0.0000 0.7695 0.0000
# 3 19.2725 22.3801 32.3090 0.0000 -2.6847 0.0000
# 4 0.0000 0.0000 0.0000 23.3103 0.0000 -1.0664
# 5 -11.3042 0.7695 -2.6847 0.0000 30.9416 0.0000
# 6 0.0000 0.0000 0.0000 -1.0664 0.0000 39.2140
#
#
#
# Elastic Compliance Matrix: (Units=1/GPa)
#
#
# Indices 1 2 3 4 5 6 
#
# 1 0.013886 -0.006683 -0.003242 0.000000 0.004958 0.000000
# 2 -0.006683 0.010633 -0.003630 0.000000 -0.003021 0.000000
# 3 -0.003242 -0.003630 0.035565 0.000000 0.001992 0.000000
# 4 0.000000 0.000000 0.000000 0.042953 0.000000 0.001168
# 5 0.004958 -0.003021 0.001992 0.000000 0.034378 0.000000
# 6 0.000000 0.000000 0.000000 0.001168 0.000000 0.025533
#
#
# Mechanical properties :
#
#
# Convention : Reuss Voigt Hill
#
# Bulk Modulus (GPa) = 30.32668 59.86723 45.09696
# Shear Modulus (GPa) = 24.86973 30.80081 27.83527
#
# Velocity S-wave (km/s) = 3.44141 3.82985 3.64082
# Velocity P-wave (km/s) = 5.49846 6.93301 6.25698
#
# Compressibility (1/GPa) = 0.03297426
#
# Stress axis : x y z
#
# Youngs Moduli (GPa) = 72.01751 94.04840 28.11765
#
# Poissons Ratio (x) = 0.62850 0.09115
# Poissons Ratio (y) = 0.48127 0.10207
# Poissons Ratio (z) = 0.23346 0.34140
#
# Static dielectric constant tensor:
#      x y z
#    x 4.026660 0.000000 -0.042960 
#    y 0.000000 3.916510 0.000000 
#    z -0.042960 0.000000 3.538630 
# 
# 
# High freq. dielectric constant tensor:
#      x y z
#    x 1.816940 0.000000 -0.004380 
#    y 0.000000 1.816140 0.000000 
#    z -0.004380 0.000000 1.810860 
# 
# From -- ./inp_files/20630.got.cif
#   From: 2010.03.12/outbox.cif.g09.slc.cpg/sg5_11_cif.got.tgz:20630.got - 2010.03.31 09:47:26.
