data_PCOD8049906
_publ_section_title
;
Structure prediction by ZEFSAII (Michael W. Deem and Ramdas Pophale) SiO2 
 PCOD8049906
Probable space group: C 2
;
_chemical_formula_sum "Si O2"
_cell_formula_units_Z 26
_cell_length_a 13.394172
_cell_length_b 10.435846
_cell_length_c 12.879927
_cell_angle_alpha 90.000000
_cell_angle_beta 135.312276
_cell_angle_gamma 90.000000
_cell_volume 1266.082419
_symmetry_space_group_name_H-M "C 2"
_symmetry_group_IT_number 5
_symmetry_cell_setting 'monoclinic'
loop_
_space_group_symop_operation_xyz
x,y,z
-x,y,-z
1/2+x,1/2+y,z
1/2-x,1/2+y,-z
loop_
_atom_site_type_symbol
_atom_site_label
_atom_site_fract_x
_atom_site_fract_y
_atom_site_fract_z
Si Si1 0.335486 0.744040 0.697816
Si Si2 0.783740 0.247624 0.418118
Si Si3 0.074756 0.073542 0.950422
Si Si4 0.647021 0.471289 0.557731
Si Si5 0.500000 0.952121 0.500000
Si Si6 0.487157 0.364241 0.731128
Si Si7 0.848902 0.646254 0.261755
O O1 0.320895 0.723266 0.565366
O O2 0.494567 0.702849 0.850076
O O3 0.286880 0.888607 0.693451
O O4 0.226142 0.655602 0.681102
O O5 0.615640 0.272123 0.277607
O O6 0.866532 0.364235 0.428101
O O7 0.822591 0.117011 0.386798
O O8 0.238682 0.105713 0.091080
O O9 0.077950 0.957945 0.870460
O O10 0.000000 0.024352 0.000000
O O11 0.500000 0.423123 0.500000
O O12 0.621317 0.452326 0.415666
O O13 0.466363 0.036934 0.371647
O O14 0.584975 0.279435 0.728187
#
# Coordination Sequence:
#
# PCOD8049906 Si02
#       7
#     4   4   4   4   2   4   4
#     4  10  21  38  63  91 122 167 208 250 318 373
#     4  11  23  35  64  92 131 160 207 266 310 370
#     4  10  22  43  63  86 129 172 212 262 319 379
#     4  11  20  38  62  96 130 163 208 267 306 371
#     4  12  24  40  62 100 120 166 218 260 322 384
#     4  11  23  41  61  93 124 168 214 259 323 377
#     4  11  24  41  66  89 125 167 213 263 323 382
#
# _framework density 20.535788
#
# number of rings (size 3 to 8) (size 9 to 14) (size 15 to 20)
#    0.000    1.231    3.846    3.692    6.462    1.231 
#    0.000    0.000    0.000    0.000    0.000    0.000 
#    0.000    0.000    0.000    0.000    0.000    0.000 
#
# Total GULP energy -161125.991064 kJ/mol
# GULP energy per Si atom -12394.307005 kJ/mol
# Density = 2.048905 g / cm^3
# Si number density = 20.535788 Si / 1000 Ang^3
#
#
#
# Elastic Constant Matrix: (Units=GPa)
#
#
# Indices 1 2 3 4 5 6 
#
# 1 56.1037 24.6545 20.5285 0.0000 0.8462 0.0000
# 2 24.6545 139.8915 64.8080 0.0000 3.4741 0.0000
# 3 20.5285 64.8080 112.1000 0.0000 10.4695 0.0000
# 4 0.0000 0.0000 0.0000 36.2162 0.0000 -4.1012
# 5 0.8462 3.4741 10.4695 0.0000 27.4413 0.0000
# 6 0.0000 0.0000 0.0000 -4.1012 0.0000 35.1687
#
#
#
# Elastic Compliance Matrix: (Units=1/GPa)
#
#
# Indices 1 2 3 4 5 6 
#
# 1 0.019713 -0.002447 -0.002248 0.000000 0.000559 0.000000
# 2 -0.002447 0.010091 -0.005468 0.000000 0.000884 0.000000
# 3 -0.002248 -0.005468 0.012882 0.000000 -0.004153 0.000000
# 4 0.000000 0.000000 0.000000 0.027981 0.000000 0.003263
# 5 0.000559 0.000884 -0.004153 0.000000 0.037897 0.000000
# 6 0.000000 0.000000 0.000000 0.003263 0.000000 0.028815
#
#
# Mechanical properties :
#
#
# Convention : Reuss Voigt Hill
#
# Bulk Modulus (GPa) = 44.72267 58.67525 51.69896
# Shear Modulus (GPa) = 30.27398 32.97218 31.62308
#
# Velocity S-wave (km/s) = 3.84370 4.01134 3.92841
# Velocity P-wave (km/s) = 6.44391 7.07733 6.76803
#
# Compressibility (1/GPa) = 0.02236003
#
# Stress axis : x y z
#
# Youngs Moduli (GPa) = 50.72684 99.09775 77.63063
#
# Poissons Ratio (x) = 0.24248 0.17449
# Poissons Ratio (y) = 0.12412 0.42452
# Poissons Ratio (z) = 0.11402 0.54191
#
# Static dielectric constant tensor:
#      x y z
#    x 3.630830 0.000000 0.047920 
#    y 0.000000 3.734710 0.000000 
#    z 0.047920 0.000000 3.635330 
# 
# 
# High freq. dielectric constant tensor:
#      x y z
#    x 1.800690 0.000000 0.006750 
#    y 0.000000 1.806680 0.000000 
#    z 0.006750 0.000000 1.781560 
# 
# From -- ./inp_files/46093.got.cif
#   From: 2010.03.12/outbox.cif.g09.slc.cpg/sg5_24_cif.got.tgz:46093.got - 2010.03.31 09:47:26.
