data_PCOD8049283
_publ_section_title
;
Structure prediction by ZEFSAII (Michael W. Deem and Ramdas Pophale) SiO2 
 PCOD8049283
Probable space group: C 2
;
_chemical_formula_sum "Si O2"
_cell_formula_units_Z 24
_cell_length_a 17.644958
_cell_length_b 15.588329
_cell_length_c 9.776775
_cell_angle_alpha 90.000000
_cell_angle_beta 23.934257
_cell_angle_gamma 90.000000
_cell_volume 1090.958246
_symmetry_space_group_name_H-M "C 2"
_symmetry_group_IT_number 5
_symmetry_cell_setting 'monoclinic'
loop_
_space_group_symop_operation_xyz
x,y,z
-x,y,-z
1/2+x,1/2+y,z
1/2-x,1/2+y,-z
loop_
_atom_site_type_symbol
_atom_site_label
_atom_site_fract_x
_atom_site_fract_y
_atom_site_fract_z
Si Si1 0.565717 0.296300 0.744176
Si Si2 0.542785 0.574552 0.075263
Si Si3 0.320712 0.207970 0.711547
Si Si4 0.741060 0.911920 0.219395
Si Si5 0.836914 0.385440 0.948653
Si Si6 0.713437 0.958066 0.684241
O O1 0.638631 0.224164 0.517895
O O2 0.716925 0.374034 0.516786
O O3 0.500000 0.257868 0.000000
O O4 0.384662 0.334707 0.971761
O O5 0.341677 0.542335 0.459471
O O6 0.500000 0.618566 0.000000
O O7 0.648219 0.640842 0.001256
O O8 0.679559 0.492831 0.827681
O O9 0.500000 0.171425 0.500000
O O10 0.255041 0.291957 0.899836
O O11 0.559700 0.876920 0.596106
O O12 0.705845 0.937425 0.119410
O O13 0.756930 0.438632 0.205512
O O14 0.500000 0.979969 0.000000
#
# Coordination Sequence:
#
# PCOD8049283 Si02
#       6
#     4   4   4   4   4   4
#     4  10  20  37  69  96 128 168 221 273 323 386
#     4  11  25  42  64  94 135 175 211 274 334 389
#     4  11  24  44  65  97 139 174 218 266 337 391
#     4  10  20  40  66  98 129 164 228 267 326 385
#     4  10  21  38  68  96 125 176 218 274 319 392
#     4  10  20  39  67  98 129 167 234 268 329 383
#
# _framework density 21.999009000000001
#
# number of rings (size 3 to 8) (size 9 to 14) (size 15 to 20)
#    0.000    1.667    1.667    4.000    2.333    4.000 
#    0.000    9.167    3.667    0.000    0.000    0.000 
#    0.000    0.000    0.000    0.000    0.000    0.000 
#
# Total GULP energy -148745.820740 kJ/mol
# GULP energy per Si atom -12395.485062 kJ/mol
# Density = 2.194894 g / cm^3
# Si number density = 21.999009 Si / 1000 Ang^3
#
#
#
# Elastic Constant Matrix: (Units=GPa)
#
#
# Indices 1 2 3 4 5 6 
#
# 1 94.0554 35.7314 37.3832 0.0061 -8.9472 -0.0005
# 2 35.7314 56.8968 31.2784 0.0052 -9.8029 -0.0044
# 3 37.3832 31.2784 126.7048 0.0058 -19.0573 -0.0062
# 4 0.0061 0.0052 0.0058 29.3060 -0.0053 -8.4539
# 5 -8.9472 -9.8029 -19.0573 -0.0053 46.9689 0.0020
# 6 -0.0005 -0.0044 -0.0062 -8.4539 0.0020 28.1000
#
#
#
# Elastic Compliance Matrix: (Units=1/GPa)
#
#
# Indices 1 2 3 4 5 6 
#
# 1 0.014549 -0.007821 -0.002333 -0.000002 0.000193 -0.000002
# 2 -0.007821 0.024786 -0.003469 -0.000001 0.002276 0.000003
# 3 -0.002333 -0.003469 0.009863 0.000000 0.002834 0.000001
# 4 -0.000002 -0.000001 0.000000 0.037366 0.000003 0.011241
# 5 0.000193 0.002276 0.002834 0.000003 0.022952 0.000000
# 6 -0.000002 0.000003 0.000001 0.011241 0.000000 0.038969
#
#
# Mechanical properties :
#
#
# Convention : Reuss Voigt Hill
#
# Bulk Modulus (GPa) = 45.55242 54.04923 49.80083
# Shear Modulus (GPa) = 27.31518 32.42591 29.87055
#
# Velocity S-wave (km/s) = 3.52754 3.84340 3.68885
# Velocity P-wave (km/s) = 6.11088 6.65717 6.38987
#
# Compressibility (1/GPa) = 0.02195273
#
# Stress axis : x y z
#
# Youngs Moduli (GPa) = 68.73439 40.34459 101.38729
#
# Poissons Ratio (x) = 0.31554 0.23652
# Poissons Ratio (y) = 0.53758 0.35171
# Poissons Ratio (z) = 0.16035 0.13995
#
# Static dielectric constant tensor:
#      x y z
#    x 4.026450 0.000000 -0.015020 
#    y 0.000000 3.491370 0.000000 
#    z -0.015020 0.000000 4.231120 
# 
# 
# High freq. dielectric constant tensor:
#      x y z
#    x 1.879120 0.000000 -0.008450 
#    y 0.000000 1.820900 0.000000 
#    z -0.008450 0.000000 1.879660 
# 
# From -- ./inp_files/46571.got.cif
#   From: 2010.03.12/outbox.cif.g09.slc.cpg/sg5_24_cif.got.tgz:46571.got - 2010.03.31 09:47:26.
