data_PCOD8049173
_publ_section_title
;
Structure prediction by ZEFSAII (Michael W. Deem and Ramdas Pophale) SiO2 
 PCOD8049173
Probable space group: C 2
;
_chemical_formula_sum "Si O2"
_cell_formula_units_Z 30
_cell_length_a 9.194920
_cell_length_b 10.263732
_cell_length_c 15.864854
_cell_angle_alpha 90.000000
_cell_angle_beta 73.968265
_cell_angle_gamma 90.000000
_cell_volume 1439.003756
_symmetry_space_group_name_H-M "C 2"
_symmetry_group_IT_number 5
_symmetry_cell_setting 'monoclinic'
loop_
_space_group_symop_operation_xyz
x,y,z
-x,y,-z
1/2+x,1/2+y,z
1/2-x,1/2+y,-z
loop_
_atom_site_type_symbol
_atom_site_label
_atom_site_fract_x
_atom_site_fract_y
_atom_site_fract_z
Si Si1 0.165745 0.304430 0.577044
Si Si2 0.188015 0.306574 0.377771
Si Si3 0.209754 0.433210 0.965048
Si Si4 0.000000 0.011073 0.000000
Si Si5 0.006221 0.534167 0.875991
Si Si6 0.731051 0.682298 0.864436
Si Si7 0.125908 0.554275 0.676942
Si Si8 0.801369 0.593194 0.671122
O O1 0.215571 0.313215 0.472772
O O2 0.217452 0.438600 0.615063
O O3 0.247903 0.177305 0.600375
O O4 0.986773 0.288269 0.617032
O O5 0.272599 0.182274 0.324280
O O6 0.251646 0.441924 0.328166
O O7 0.386631 0.430029 0.958647
O O8 0.143295 0.559293 0.922156
O O9 0.179971 0.325152 0.898778
O O10 0.105506 0.421077 0.065978
O O11 0.103533 0.090124 0.920857
O O12 0.071767 0.494134 0.774743
O O13 0.896195 0.658009 0.879807
O O14 0.732062 0.661051 0.764629
O O15 0.983172 0.596613 0.643043
#
# Coordination Sequence:
#
# PCOD8049173 Si02
#       8
#     4   4   4   2   4   4   4   4
#     4  10  21  38  59  86 118 156 198 245 298 358
#     4  10  22  38  58  86 120 154 196 247 302 356
#     4  10  20  37  56  80 115 149 191 242 286 343
#     4  10  22  34  54  82 108 146 190 230 286 344
#     4   9  20  37  56  82 114 149 191 238 290 345
#     4  10  21  37  57  83 113 151 193 240 293 342
#     4  10  21  39  61  86 119 159 198 244 300 355
#     4  10  22  39  60  88 121 154 200 249 294 356
#
# _framework density 20.847757000000001
#
# number of rings (size 3 to 8) (size 9 to 14) (size 15 to 20)
#    0.000    2.133    0.000    2.400    0.000    8.000 
#    0.000   10.667    0.000    0.000    0.000    0.000 
#    0.000    0.000    0.000    0.000    0.000    0.000 
#
# Total GULP energy -185857.457843 kJ/mol
# GULP energy per Si atom -12390.497190 kJ/mol
# Density = 2.080031 g / cm^3
# Si number density = 20.847757 Si / 1000 Ang^3
#
#
#
# Elastic Constant Matrix: (Units=GPa)
#
#
# Indices 1 2 3 4 5 6 
#
# 1 94.4674 32.7548 35.2540 0.0000 16.7213 0.0000
# 2 32.7548 101.7563 36.5654 0.0000 6.9897 0.0000
# 3 35.2540 36.5654 103.8969 0.0000 8.4884 0.0000
# 4 0.0000 0.0000 0.0000 37.6875 0.0000 8.9968
# 5 16.7213 6.9897 8.4884 0.0000 28.1052 0.0000
# 6 0.0000 0.0000 0.0000 8.9968 0.0000 34.1701
#
#
#
# Elastic Compliance Matrix: (Units=1/GPa)
#
#
# Indices 1 2 3 4 5 6 
#
# 1 0.013945 -0.002894 -0.003172 0.000000 -0.006618 0.000000
# 2 -0.002894 0.011925 -0.003192 0.000000 -0.000280 0.000000
# 3 -0.003172 -0.003192 0.011899 0.000000 -0.000913 0.000000
# 4 0.000000 0.000000 0.000000 0.028314 0.000000 -0.007455
# 5 -0.006618 -0.000280 -0.000913 0.000000 0.039863 0.000000
# 6 0.000000 0.000000 0.000000 -0.007455 0.000000 0.031228
#
#
# Mechanical properties :
#
#
# Convention : Reuss Voigt Hill
#
# Bulk Modulus (GPa) = 51.94241 56.58544 54.26392
# Shear Modulus (GPa) = 30.84350 33.02899 31.93624
#
# Velocity S-wave (km/s) = 3.85055 3.98464 3.91817
# Velocity P-wave (km/s) = 6.68866 6.95492 6.82309
#
# Compressibility (1/GPa) = 0.01925209
#
# Stress axis : x y z
#
# Youngs Moduli (GPa) = 71.71280 83.85557 84.03823
#
# Poissons Ratio (x) = 0.24268 0.26660
# Poissons Ratio (y) = 0.20754 0.26826
# Poissons Ratio (z) = 0.22750 0.26767
#
# Static dielectric constant tensor:
#      x y z
#    x 3.962980 0.000000 0.056650 
#    y 0.000000 3.638180 0.000000 
#    z 0.056650 0.000000 3.768670 
# 
# 
# High freq. dielectric constant tensor:
#      x y z
#    x 1.816620 0.000000 0.007700 
#    y 0.000000 1.798610 0.000000 
#    z 0.007700 0.000000 1.823940 
# 
# From -- ./inp_files/50483.got.cif
#   From: 2010.03.12/outbox.cif.g09.slc.cpg/sg5_26_cif.got.tgz:50483.got - 2010.03.31 09:47:26.
