data_PCOD8049997
_publ_section_title
;
Structure prediction by ZEFSAII (Michael W. Deem and Ramdas Pophale) SiO2 
 PCOD8049997
Probable space group: C 2
;
_chemical_formula_sum "Si O2"
_cell_formula_units_Z 30
_cell_length_a 14.661447
_cell_length_b 14.000648
_cell_length_c 19.807888
_cell_angle_alpha 90.000000
_cell_angle_beta 20.397997
_cell_angle_gamma 90.000000
_cell_volume 1417.146909
_symmetry_space_group_name_H-M "C 2"
_symmetry_group_IT_number 5
_symmetry_cell_setting 'monoclinic'
loop_
_space_group_symop_operation_xyz
x,y,z
-x,y,-z
1/2+x,1/2+y,z
1/2-x,1/2+y,-z
loop_
_atom_site_type_symbol
_atom_site_label
_atom_site_fract_x
_atom_site_fract_y
_atom_site_fract_z
Si Si1 0.000000 0.084090 0.000000
Si Si2 0.293904 0.515342 0.283272
Si Si3 0.957440 0.704610 0.735037
Si Si4 0.667020 0.686282 0.644929
Si Si5 0.686908 0.402651 0.109007
Si Si6 0.205791 0.382633 0.676632
Si Si7 0.230140 0.087820 0.160448
Si Si8 0.324343 0.585404 0.558953
O O1 0.859887 0.019814 0.156442
O O2 0.820078 0.153804 0.080117
O O3 0.291989 0.623005 0.316248
O O4 0.495845 0.444116 0.182437
O O5 0.000000 0.474235 0.500000
O O6 0.945656 0.818686 0.754369
O O7 0.110170 0.663938 0.564063
O O8 0.109331 0.666807 0.696021
O O9 0.687049 0.799477 0.635825
O O10 0.377950 0.663993 0.817889
O O11 0.777809 0.485978 0.094694
O O12 0.963835 0.359145 0.893409
O O13 0.500000 0.378891 0.500000
O O14 0.157713 0.488051 0.681342
O O15 0.022597 0.069245 0.361660
O O16 0.500000 0.131054 0.000000
O O17 0.500000 0.615401 0.500000
#
# Coordination Sequence:
#
# PCOD8049997 Si02
#       8
#     2   4   4   4   4   4   4   4
#     4  12  24  40  76  98 134 180 232 274 350 404
#     4  11  23  46  68  99 140 180 220 284 343 408
#     4  11  24  40  65 100 130 175 228 277 334 408
#     4  10  22  41  65  95 136 168 220 284 333 391
#     4  11  25  40  64  99 133 172 225 276 335 405
#     4  11  22  37  63  92 123 167 213 276 324 387
#     4  10  21  39  64  90 125 171 213 266 331 399
#     4  10  22  41  64  88 127 172 218 270 334 391
#
# _framework density 21.169295000000002
#
# number of rings (size 3 to 8) (size 9 to 14) (size 15 to 20)
#    0.000    1.333    1.333    4.400    2.800    3.733 
#    2.400    1.333    1.467    0.000    0.000    0.000 
#    0.000    0.000    0.000    0.000    0.000    0.000 
#
# Total GULP energy -185853.295200 kJ/mol
# GULP energy per Si atom -12390.219680 kJ/mol
# Density = 2.112111 g / cm^3
# Si number density = 21.169295 Si / 1000 Ang^3
#
#
#
# Elastic Constant Matrix: (Units=GPa)
#
#
# Indices 1 2 3 4 5 6 
#
# 1 88.8564 18.5175 39.8605 0.1087 -5.3020 -0.0541
# 2 18.5175 70.5869 25.6694 -0.8090 -9.9065 -0.3077
# 3 39.8605 25.6694 113.1286 -2.8950 -15.0618 0.3652
# 4 0.1087 -0.8090 -2.8950 14.2503 1.6821 6.7615
# 5 -5.3020 -9.9065 -15.0618 1.6821 36.9786 -0.2272
# 6 -0.0541 -0.3077 0.3652 6.7615 -0.2272 30.8870
#
#
#
# Elastic Compliance Matrix: (Units=1/GPa)
#
#
# Indices 1 2 3 4 5 6 
#
# 1 0.013643 -0.002030 -0.004423 -0.001232 -0.000331 0.000323
# 2 -0.002030 0.016038 -0.002529 -0.000043 0.002979 0.000217
# 3 -0.004423 -0.002529 0.011462 0.002123 0.003256 -0.000609
# 4 -0.001232 -0.000043 0.002123 0.079223 -0.003034 -0.017393
# 5 -0.000331 0.002979 0.003256 -0.003034 0.029263 0.000870
# 6 0.000323 0.000217 -0.000609 -0.017393 0.000870 0.036200
#
#
# Mechanical properties :
#
#
# Convention : Reuss Voigt Hill
#
# Bulk Modulus (GPa) = 43.14352 48.96297 46.05324
# Shear Modulus (GPa) = 23.63857 28.99149 26.31503
#
# Velocity S-wave (km/s) = 3.34525 3.70470 3.52955
# Velocity P-wave (km/s) = 5.94520 6.44043 6.19776
#
# Compressibility (1/GPa) = 0.02317845
#
# Stress axis : x y z
#
# Youngs Moduli (GPa) = 73.29601 62.35344 87.24689
#
# Poissons Ratio (x) = 0.12656 0.38592
# Poissons Ratio (y) = 0.14877 0.22065
# Poissons Ratio (z) = 0.32421 0.15769
#
# Static dielectric constant tensor:
#      x y z
#    x 3.889680 -0.000800 -0.135740 
#    y -0.000800 3.788350 -0.000540 
#    z -0.135740 -0.000540 4.194940 
# 
# 
# High freq. dielectric constant tensor:
#      x y z
#    x 1.831210 -0.000010 -0.002770 
#    y -0.000010 1.815820 0.000070 
#    z -0.002770 0.000070 1.849740 
# 
# From -- ./inp_files/66179.got.cif
#   From: 2010.03.12/outbox.cif.g09.slc.cpg/sg5_34_cif.got.tgz:66179.got - 2010.03.31 09:47:26.
