data_PCOD8049568
_publ_section_title
;
Structure prediction by ZEFSAII (Michael W. Deem and Ramdas Pophale) SiO2 
 PCOD8049568
Probable space group: C 2
;
_chemical_formula_sum "Si O2"
_cell_formula_units_Z 18
_cell_length_a 17.159711
_cell_length_b 5.106776
_cell_length_c 7.936951
_cell_angle_alpha 90.000000
_cell_angle_beta 62.617485
_cell_angle_gamma 90.000000
_cell_volume 617.592221
_symmetry_space_group_name_H-M "C 2"
_symmetry_group_IT_number 5
_symmetry_cell_setting 'monoclinic'
loop_
_space_group_symop_operation_xyz
x,y,z
-x,y,-z
1/2+x,1/2+y,z
1/2-x,1/2+y,-z
loop_
_atom_site_type_symbol
_atom_site_label
_atom_site_fract_x
_atom_site_fract_y
_atom_site_fract_z
Si Si1 0.871553 0.109720 0.740546
Si Si2 0.565748 0.575381 0.679480
Si Si3 0.212224 0.725694 0.621139
Si Si4 0.660123 0.123731 0.032513
Si Si5 0.500000 0.976323 0.000000
O O1 0.867135 0.154979 0.541635
O O2 0.830972 0.349159 0.883239
O O3 0.971126 0.048303 0.693436
O O4 0.818738 0.853970 0.856536
O O5 0.607238 0.301987 0.708844
O O6 0.567361 0.790560 0.826182
O O7 0.233007 0.487333 0.476782
O O8 0.227397 0.647026 0.804550
O O9 0.559858 0.152162 0.063116
#
# Coordination Sequence:
#
# PCOD8049568 Si02
#       5
#     4   4   4   4   2
#     4  10  23  40  69  98 129 158 206 284 334 367
#     4  10  22  42  66 100 129 164 213 266 330 377
#     4  12  25  42  66  93 131 179 220 255 304 393
#     4  11  22  41  63  96 127 166 215 263 325 375
#     4  10  20  40  72  98 128 164 212 280 322 376
#
# _framework density 29.145444999999999
#
# number of rings (size 3 to 8) (size 9 to 14) (size 15 to 20)
#    0.000    1.333    0.000    6.667    0.000   13.333 
#    0.000    4.444    0.000    2.667    0.000    0.000 
#    0.000    0.000    0.000    0.000    0.000    0.000 
#
# Total GULP energy -111665.740775 kJ/mol
# GULP energy per Si atom -12407.304531 kJ/mol
# Density = 2.907911 g / cm^3
# Si number density = 29.145445 Si / 1000 Ang^3
#
#
#
# Elastic Constant Matrix: (Units=GPa)
#
#
# Indices 1 2 3 4 5 6 
#
# 1 126.2649 44.0909 51.2599 0.0000 11.0590 0.0000
# 2 44.0909 228.1492 100.9724 0.0000 18.7205 0.0000
# 3 51.2599 100.9724 234.1947 0.0000 -0.1284 0.0000
# 4 0.0000 0.0000 0.0000 53.5815 0.0000 -0.2287
# 5 11.0590 18.7205 -0.1284 0.0000 55.5178 0.0000
# 6 0.0000 0.0000 0.0000 -0.2287 0.0000 102.5544
#
#
#
# Elastic Compliance Matrix: (Units=1/GPa)
#
#
# Indices 1 2 3 4 5 6 
#
# 1 0.009012 -0.000922 -0.001576 0.000000 -0.001488 0.000000
# 2 -0.000922 0.005704 -0.002258 0.000000 -0.001745 0.000000
# 3 -0.001576 -0.002258 0.005589 0.000000 0.001088 0.000000
# 4 0.000000 0.000000 0.000000 0.018663 0.000000 0.000042
# 5 -0.001488 -0.001745 0.001088 0.000000 0.018900 0.000000
# 6 0.000000 0.000000 0.000000 0.000042 0.000000 0.009751
#
#
# Mechanical properties :
#
#
# Convention : Reuss Voigt Hill
#
# Bulk Modulus (GPa) = 92.65692 109.02836 100.84264
# Shear Modulus (GPa) = 61.93571 68.48308 65.20940
#
# Velocity S-wave (km/s) = 4.61483 4.85263 4.73523
# Velocity P-wave (km/s) = 7.76246 8.29982 8.03563
#
# Compressibility (1/GPa) = 0.01079250
#
# Stress axis : x y z
#
# Youngs Moduli (GPa) = 110.96465 175.31641 178.91852
#
# Poissons Ratio (x) = 0.16166 0.28193
# Poissons Ratio (y) = 0.10232 0.40407
# Poissons Ratio (z) = 0.17485 0.39593
#
# Static dielectric constant tensor:
#      x y z
#    x 5.936340 0.000000 -0.217540 
#    y 0.000000 5.001810 0.000000 
#    z -0.217540 0.000000 5.917360 
# 
# 
# High freq. dielectric constant tensor:
#      x y z
#    x 2.248730 0.000000 -0.026380 
#    y 0.000000 2.175690 0.000000 
#    z -0.026380 0.000000 2.219950 
# 
# From -- ./inp_files/30227.got.cif
#   From: 2010.03.12/outbox.cif.g09.slc.cpg/sg5_16_cif.got.tgz:30227.got - 2010.03.31 09:47:26.
