data_PCOD8049983
_publ_section_title
;
Structure prediction by ZEFSAII (Michael W. Deem and Ramdas Pophale) SiO2 
 PCOD8049983
Probable space group: C 2
;
_chemical_formula_sum "Si O2"
_cell_formula_units_Z 20
_cell_length_a 9.583046
_cell_length_b 22.029502
_cell_length_c 4.902878
_cell_angle_alpha 90.000000
_cell_angle_beta 61.922345
_cell_angle_gamma 90.000000
_cell_volume 913.231288
_symmetry_space_group_name_H-M "C 2"
_symmetry_group_IT_number 5
_symmetry_cell_setting 'monoclinic'
loop_
_space_group_symop_operation_xyz
x,y,z
-x,y,-z
1/2+x,1/2+y,z
1/2-x,1/2+y,-z
loop_
_atom_site_type_symbol
_atom_site_label
_atom_site_fract_x
_atom_site_fract_y
_atom_site_fract_z
Si Si1 0.181798 0.434290 0.828200
Si Si2 0.326523 0.229365 0.272667
Si Si3 0.683068 0.855437 0.326753
Si Si4 0.178013 0.169932 0.917268
Si Si5 0.895671 0.041473 0.848429
O O1 0.221154 0.412779 0.486703
O O2 0.282479 0.491599 0.824500
O O3 0.220705 0.377051 0.986416
O O4 0.000000 0.454460 0.000000
O O5 0.296320 0.301281 0.318919
O O6 0.303378 0.196780 0.585300
O O7 0.500000 0.215472 0.000000
O O8 0.199341 0.202358 0.184394
O O9 0.500000 0.835104 0.500000
O O10 0.203041 0.097577 0.932572
O O11 0.000000 0.185354 0.000000
O O12 0.000000 0.066623 0.500000
O O13 0.000000 0.013469 0.000000
#
# Coordination Sequence:
#
# PCOD8049983 Si02
#       5
#     4   4   4   4   4
#     4  10  22  40  64  92 124 164 208 253 310 372
#     4  12  25  41  64  98 129 161 210 270 317 359
#     4  10  21  39  63  91 125 169 209 247 309 387
#     4  11  23  43  66  89 126 174 212 250 312 387
#     4  11  23  41  65  94 124 164 213 260 310 371
#
# _framework density 21.900254
#
# number of rings (size 3 to 8) (size 9 to 14) (size 15 to 20)
#    0.000    1.200    0.000    7.200    0.000    4.800 
#    0.000    8.000    0.000    0.000    0.000    0.000 
#    0.000    0.000    0.000    0.000    0.000    0.000 
#
# Total GULP energy -124023.592709 kJ/mol
# GULP energy per Si atom -12402.359271 kJ/mol
# Density = 2.185041 g / cm^3
# Si number density = 21.900254 Si / 1000 Ang^3
#
#
#
# Elastic Constant Matrix: (Units=GPa)
#
#
# Indices 1 2 3 4 5 6 
#
# 1 89.8103 47.6189 17.7193 0.0000 12.6030 0.0000
# 2 47.6189 110.1478 20.4700 0.0000 -9.5961 0.0000
# 3 17.7193 20.4700 81.7133 0.0000 4.0163 0.0000
# 4 0.0000 0.0000 0.0000 19.3905 0.0000 7.2272
# 5 12.6030 -9.5961 4.0163 0.0000 35.9469 0.0000
# 6 0.0000 0.0000 0.0000 7.2272 0.0000 33.7320
#
#
#
# Elastic Compliance Matrix: (Units=1/GPa)
#
#
# Indices 1 2 3 4 5 6 
#
# 1 0.016462 -0.007539 -0.001305 0.000000 -0.007638 0.000000
# 2 -0.007539 0.013269 -0.002004 0.000000 0.006409 0.000000
# 3 -0.001305 -0.002004 0.013099 0.000000 -0.001541 0.000000
# 4 0.000000 0.000000 0.000000 0.056047 0.000000 -0.012008
# 5 -0.007638 0.006409 -0.001541 0.000000 0.032380 0.000000
# 6 0.000000 0.000000 0.000000 -0.012008 0.000000 0.032218
#
#
# Mechanical properties :
#
#
# Convention : Reuss Voigt Hill
#
# Bulk Modulus (GPa) = 47.32350 50.36532 48.84441
# Shear Modulus (GPa) = 26.01228 30.87143 28.44185
#
# Velocity S-wave (km/s) = 3.45013 3.75859 3.60766
# Velocity P-wave (km/s) = 6.12591 6.47175 6.30120
#
# Compressibility (1/GPa) = 0.02113115
#
# Stress axis : x y z
#
# Youngs Moduli (GPa) = 60.74757 75.36359 76.34285
#
# Poissons Ratio (x) = 0.56820 0.09967
# Poissons Ratio (y) = 0.45800 0.15300
# Poissons Ratio (z) = 0.07931 0.15104
#
# Static dielectric constant tensor:
#      x y z
#    x 3.986110 0.000000 0.281480 
#    y 0.000000 3.750500 0.000000 
#    z 0.281480 0.000000 4.124430 
# 
# 
# High freq. dielectric constant tensor:
#      x y z
#    x 1.866870 0.000000 0.021590 
#    y 0.000000 1.857760 0.000000 
#    z 0.021590 0.000000 1.866180 
# 
# From -- ./inp_files/2798.got.cif
#   From: 2010.03.12/outbox.cif.g09.slc.cpg/sg5_2_cif.got.tgz:2798.got - 2010.03.31 09:47:26.
