data_PCOD8049242
_publ_section_title
;
Structure prediction by ZEFSAII (Michael W. Deem and Ramdas Pophale) SiO2 
 PCOD8049242
Probable space group: C 2
;
_chemical_formula_sum "Si O2"
_cell_formula_units_Z 26
_cell_length_a 18.176239
_cell_length_b 8.668706
_cell_length_c 10.454262
_cell_angle_alpha 90.000000
_cell_angle_beta 129.507549
_cell_angle_gamma 90.000000
_cell_volume 1270.897598
_symmetry_space_group_name_H-M "C 2"
_symmetry_group_IT_number 5
_symmetry_cell_setting 'monoclinic'
loop_
_space_group_symop_operation_xyz
x,y,z
-x,y,-z
1/2+x,1/2+y,z
1/2-x,1/2+y,-z
loop_
_atom_site_type_symbol
_atom_site_label
_atom_site_fract_x
_atom_site_fract_y
_atom_site_fract_z
Si Si1 0.338538 0.512040 0.996335
Si Si2 0.861242 0.759618 0.558372
Si Si3 0.652710 0.187537 0.865759
Si Si4 0.006052 0.547366 0.857972
Si Si5 0.802718 0.026356 0.666885
Si Si6 0.516413 0.710230 0.167774
Si Si7 0.000000 0.753578 0.500000
O O1 0.253147 0.627673 0.930497
O O2 0.333397 0.464474 0.841065
O O3 0.334766 0.366828 0.085986
O O4 0.435116 0.601963 0.138222
O O5 0.795735 0.882646 0.561005
O O6 0.794577 0.623228 0.429502
O O7 0.934776 0.682124 0.737198
O O8 0.924132 0.840096 0.512172
O O9 0.615281 0.094175 0.947433
O O10 0.570032 0.154635 0.668329
O O11 0.984040 0.380668 0.769564
O O12 0.000000 0.529641 0.000000
O O13 0.881951 0.135863 0.692059
O O14 0.500000 0.725488 0.000000
#
# Coordination Sequence:
#
# PCOD8049242 Si02
#       7
#     4   4   4   4   4   4   2
#     4  11  22  40  63  94 125 169 213 266 316 389
#     4  11  22  39  65  88 132 170 212 264 326 374
#     4  11  22  39  65  88 132 170 212 264 326 374
#     4  10  20  37  62  93 120 167 216 264 312 390
#     4  11  22  40  63  94 125 169 213 266 316 389
#     4   9  19  35  59  86 122 153 205 259 311 367
#     4  10  22  42  60  90 128 174 200 262 326 376
#
# _framework density 20.457982000000001
#
# number of rings (size 3 to 8) (size 9 to 14) (size 15 to 20)
#    0.000    1.538    1.538    4.615    0.000    1.231 
#    5.538    0.000    0.000    0.000    0.000    0.000 
#    0.000    0.000    0.000    0.000    0.000    0.000 
#
# Total GULP energy -161098.636681 kJ/mol
# GULP energy per Si atom -12392.202822 kJ/mol
# Density = 2.041142 g / cm^3
# Si number density = 20.457982 Si / 1000 Ang^3
#
#
#
# Elastic Constant Matrix: (Units=GPa)
#
#
# Indices 1 2 3 4 5 6 
#
# 1 125.0113 42.6529 27.6237 0.0000 10.1788 0.0000
# 2 42.6529 104.8113 19.2124 0.0000 -6.0544 0.0000
# 3 27.6237 19.2124 56.1835 0.0000 3.5245 0.0000
# 4 0.0000 0.0000 0.0000 21.3444 0.0000 -0.6372
# 5 10.1788 -6.0544 3.5245 0.0000 28.2152 0.0000
# 6 0.0000 0.0000 0.0000 -0.6372 0.0000 26.3948
#
#
#
# Elastic Compliance Matrix: (Units=1/GPa)
#
#
# Indices 1 2 3 4 5 6 
#
# 1 0.010430 -0.003831 -0.003558 0.000000 -0.004140 0.000000
# 2 -0.003831 0.011785 -0.002411 0.000000 0.004212 0.000000
# 3 -0.003558 -0.002411 0.020485 0.000000 -0.001793 0.000000
# 4 0.000000 0.000000 0.000000 0.046885 0.000000 0.001132
# 5 -0.004140 0.004212 -0.001793 0.000000 0.038063 0.000000
# 6 0.000000 0.000000 0.000000 0.001132 0.000000 0.037914
#
#
# Mechanical properties :
#
#
# Convention : Reuss Voigt Hill
#
# Bulk Modulus (GPa) = 43.28996 51.66491 47.47744
# Shear Modulus (GPa) = 25.92530 28.29201 27.10865
#
# Velocity S-wave (km/s) = 3.56370 3.72281 3.64413
# Velocity P-wave (km/s) = 6.17573 6.61726 6.40030
#
# Compressibility (1/GPa) = 0.02310004
#
# Stress axis : x y z
#
# Youngs Moduli (GPa) = 95.87852 84.85137 48.81617
#
# Poissons Ratio (x) = 0.32510 0.17369
# Poissons Ratio (y) = 0.36735 0.11767
# Poissons Ratio (z) = 0.34115 0.20454
#
# Static dielectric constant tensor:
#      x y z
#    x 4.035270 0.000000 0.051940 
#    y 0.000000 3.680360 0.000000 
#    z 0.051940 0.000000 3.582530 
# 
# 
# High freq. dielectric constant tensor:
#      x y z
#    x 1.817280 0.000000 0.011370 
#    y 0.000000 1.786380 0.000000 
#    z 0.011370 0.000000 1.787100 
# 
# From -- ./inp_files/44119.got.cif
#   From: 2010.03.12/outbox.cif.g09.slc.cpg/sg5_23_cif.got.tgz:44119.got - 2010.03.31 09:47:26.
