data_PCOD8049562
_publ_section_title
;
Structure prediction by ZEFSAII (Michael W. Deem and Ramdas Pophale) SiO2 
 PCOD8049562
Probable space group: C 2
;
_chemical_formula_sum "Si O2"
_cell_formula_units_Z 28
_cell_length_a 19.452850
_cell_length_b 11.772978
_cell_length_c 16.648594
_cell_angle_alpha 90.000000
_cell_angle_beta 20.891712
_cell_angle_gamma 90.000000
_cell_volume 1359.665116
_symmetry_space_group_name_H-M "C 2"
_symmetry_group_IT_number 5
_symmetry_cell_setting 'monoclinic'
loop_
_space_group_symop_operation_xyz
x,y,z
-x,y,-z
1/2+x,1/2+y,z
1/2-x,1/2+y,-z
loop_
_atom_site_type_symbol
_atom_site_label
_atom_site_fract_x
_atom_site_fract_y
_atom_site_fract_z
Si Si1 0.500000 0.352770 0.500000
Si Si2 0.378979 0.964727 0.061424
Si Si3 0.345522 0.881852 0.919698
Si Si4 0.284952 0.865978 0.713722
Si Si5 0.607078 0.493445 0.050256
Si Si6 0.123075 0.687081 0.226671
Si Si7 0.325206 0.001021 0.519125
Si Si8 0.500000 0.181733 0.000000
O O1 0.668070 0.443319 0.325396
O O2 0.525188 0.273899 0.394816
O O3 0.500000 0.901524 0.000000
O O4 0.403089 0.914233 0.947186
O O5 0.438884 0.098758 0.992650
O O6 0.547870 0.893400 0.650943
O O7 0.251546 0.756053 0.020829
O O8 0.183980 0.963335 0.055667
O O9 0.500000 0.828766 0.500000
O O10 0.182634 0.761343 0.779623
O O11 0.284276 0.976984 0.657544
O O12 0.160710 0.893710 0.929125
O O13 0.377614 0.514421 0.305725
O O14 0.725435 0.605009 0.892628
O O15 0.951434 0.615805 0.371317
#
# Coordination Sequence:
#
# PCOD8049562 Si02
#       8
#     2   4   4   4   4   4   4   2
#     4  10  20  40  70  88 128 166 212 272 314 384
#     4   9  23  43  62  92 125 168 227 255 315 391
#     4  10  23  43  62  90 137 171 216 268 318 387
#     4  12  21  41  69  94 131 169 215 269 327 384
#     4  11  23  41  65  99 130 166 224 264 320 399
#     4  10  22  40  64  95 125 173 205 269 336 366
#     4  11  23  42  64  97 133 167 216 273 318 391
#     4  10  24  40  66  94 128 176 218 266 316 386
#
# _framework density 20.593305999999998
#
# number of rings (size 3 to 8) (size 9 to 14) (size 15 to 20)
#    0.429    1.143    4.286    0.857    1.000    8.000 
#    2.571    0.000    0.000    0.000    0.000    0.000 
#    0.000    0.000    0.000    0.000    0.000    0.000 
#
# Total GULP energy -173455.582308 kJ/mol
# GULP energy per Si atom -12389.684451 kJ/mol
# Density = 2.054643 g / cm^3
# Si number density = 20.593306 Si / 1000 Ang^3
#
#
#
# Elastic Constant Matrix: (Units=GPa)
#
#
# Indices 1 2 3 4 5 6 
#
# 1 112.3038 29.3545 47.1638 -0.0242 -17.2336 -0.0078
# 2 29.3545 95.1553 42.3670 0.2242 -10.4384 0.1371
# 3 47.1638 42.3670 133.1894 0.1296 -34.4690 0.0946
# 4 -0.0242 0.2242 0.1296 227.9834 -0.0739 88.5264
# 5 -17.2336 -10.4384 -34.4690 -0.0739 41.7222 -0.0545
# 6 -0.0078 0.1371 0.0946 88.5264 -0.0545 77.7071
#
#
#
# Elastic Compliance Matrix: (Units=1/GPa)
#
#
# Indices 1 2 3 4 5 6 
#
# 1 0.010836 -0.001915 -0.002790 0.000003 0.001692 0.000006
# 2 -0.001915 0.012583 -0.003453 -0.000006 -0.000495 -0.000011
# 3 -0.002790 -0.003453 0.011540 0.000000 0.007517 -0.000003
# 4 0.000003 -0.000006 0.000000 0.007866 0.000002 -0.008961
# 5 0.001692 -0.000495 0.007517 0.000002 0.030754 0.000011
# 6 0.000006 -0.000011 -0.000003 -0.008961 0.000011 0.023078
#
#
# Mechanical properties :
#
#
# Convention : Reuss Voigt Hill
#
# Bulk Modulus (GPa) = 53.63854 64.26878 58.95366
# Shear Modulus (GPa) = 41.95106 84.26674 63.10890
#
# Velocity S-wave (km/s) = 4.51834 6.40377 5.54183
# Velocity P-wave (km/s) = 7.30231 9.27114 8.34499
#
# Compressibility (1/GPa) = 0.01864331
#
# Stress axis : x y z
#
# Youngs Moduli (GPa) = 92.28139 79.47342 86.65560
#
# Poissons Ratio (x) = 0.15219 0.24180
# Poissons Ratio (y) = 0.17672 0.29919
# Poissons Ratio (z) = 0.25750 0.27439
#
# Static dielectric constant tensor:
#      x y z
#    x 2.526340 0.000460 0.206330 
#    y 0.000460 3.733280 -0.000130 
#    z 0.206330 -0.000130 3.768610 
# 
# 
# High freq. dielectric constant tensor:
#      x y z
#    x 1.796410 0.000000 -0.016500 
#    y 0.000000 1.794190 0.000000 
#    z -0.016500 0.000000 1.812580 
# 
# From -- ./inp_files/62908.got.cif
#   From: 2010.03.12/outbox.cif.g09.slc.cpg/sg5_32_cif.got.tgz:62908.got - 2010.03.31 09:47:26.
