data_PCOD8049801
_publ_section_title
;
Structure prediction by ZEFSAII (Michael W. Deem and Ramdas Pophale) SiO2 
 PCOD8049801
Probable space group: C 2
;
_chemical_formula_sum "Si O2"
_cell_formula_units_Z 26
_cell_length_a 4.978715
_cell_length_b 30.347315
_cell_length_c 8.786336
_cell_angle_alpha 90.000000
_cell_angle_beta 115.375004
_cell_angle_gamma 90.000000
_cell_volume 1199.455773
_symmetry_space_group_name_H-M "C 2"
_symmetry_group_IT_number 5
_symmetry_cell_setting 'monoclinic'
loop_
_space_group_symop_operation_xyz
x,y,z
-x,y,-z
1/2+x,1/2+y,z
1/2-x,1/2+y,-z
loop_
_atom_site_type_symbol
_atom_site_label
_atom_site_fract_x
_atom_site_fract_y
_atom_site_fract_z
Si Si1 0.708218 0.072930 0.857142
Si Si2 0.056994 0.108246 0.688755
Si Si3 0.670884 0.789019 0.891737
Si Si4 0.614065 0.433071 0.695767
Si Si5 0.346317 0.693218 0.118290
Si Si6 0.105282 0.374530 0.689128
Si Si7 0.000000 0.496172 0.000000
O O1 0.389657 0.093845 0.818511
O O2 0.799455 0.076838 0.701452
O O3 0.000000 0.098036 0.000000
O O4 0.695614 0.024072 0.926733
O O5 0.029655 0.159642 0.723983
O O6 0.000000 0.100970 0.500000
O O7 0.538000 0.742295 0.799472
O O8 0.707458 0.828867 0.784443
O O9 0.500000 0.805839 0.000000
O O10 0.000000 0.773043 0.000000
O O11 0.500000 0.450710 0.500000
O O12 0.352225 0.412701 0.735113
O O13 0.839445 0.393204 0.724984
O O14 0.769452 0.469572 0.837728
O O15 0.500000 0.680501 0.000000
O O16 0.000000 0.688020 0.000000
O O17 0.000000 0.359816 0.500000
#
# Coordination Sequence:
#
# PCOD8049801 Si02
#       7
#     4   4   4   4   4   4   2
#     4  12  25  46  67  97 128 170 227 270 344 407
#     4  12  25  43  68 100 134 177 222 275 339 403
#     4  10  21  36  60 100 126 169 222 264 310 383
#     4  10  25  44  65  98 131 169 220 276 330 401
#     4  10  21  38  64  91 134 172 218 268 315 388
#     4  10  22  41  63  92 134 171 207 266 330 382
#     4  12  28  44  76  96 128 180 224 278 360 390
#
# _framework density 21.676497999999999
#
# number of rings (size 3 to 8) (size 9 to 14) (size 15 to 20)
#    0.000    1.231    1.538    3.692    5.385    1.231 
#    2.769    0.000    0.000    9.231    0.000    0.000 
#    0.000    0.000    0.000    0.000    0.000    0.000 
#
# Total GULP energy -161046.265738 kJ/mol
# GULP energy per Si atom -12388.174288 kJ/mol
# Density = 2.162716 g / cm^3
# Si number density = 21.676498 Si / 1000 Ang^3
#
#
#
# Elastic Constant Matrix: (Units=GPa)
#
#
# Indices 1 2 3 4 5 6 
#
# 1 113.6958 26.6050 21.1039 0.0000 -5.5359 0.0000
# 2 26.6050 126.5915 78.9962 0.0000 -10.2133 0.0000
# 3 21.1039 78.9962 93.5675 0.0000 -7.9252 0.0000
# 4 0.0000 0.0000 0.0000 28.2735 0.0000 -27.7359
# 5 -5.5359 -10.2133 -7.9252 0.0000 33.5654 0.0000
# 6 0.0000 0.0000 0.0000 -27.7359 0.0000 68.2734
#
#
#
# Elastic Compliance Matrix: (Units=1/GPa)
#
#
# Indices 1 2 3 4 5 6 
#
# 1 0.009317 -0.001313 -0.000915 0.000000 0.000921 0.000000
# 2 -0.001313 0.016986 -0.013903 0.000000 0.001669 0.000000
# 3 -0.000915 -0.013903 0.022715 0.000000 0.000982 0.000000
# 4 0.000000 0.000000 0.000000 0.058803 0.000000 0.023889
# 5 0.000921 0.001669 0.000982 0.000000 0.030684 0.000000
# 6 0.000000 0.000000 0.000000 0.023889 0.000000 0.024352
#
#
# Mechanical properties :
#
#
# Convention : Reuss Voigt Hill
#
# Bulk Modulus (GPa) = 59.67982 65.25165 62.46573
# Shear Modulus (GPa) = 24.91216 39.83246 32.37231
#
# Velocity S-wave (km/s) = 3.39377 4.29136 3.86868
# Velocity P-wave (km/s) = 6.55352 7.39744 6.98824
#
# Compressibility (1/GPa) = 0.01675608
#
# Stress axis : x y z
#
# Youngs Moduli (GPa) = 107.32716 58.87212 44.02351
#
# Poissons Ratio (x) = 0.07729 0.04029
# Poissons Ratio (y) = 0.14090 0.61207
# Poissons Ratio (z) = 0.09822 0.81851
#
# Static dielectric constant tensor:
#      x y z
#    x 3.794800 0.000000 0.134990 
#    y 0.000000 3.857520 0.000000 
#    z 0.134990 0.000000 3.715440 
# 
# 
# High freq. dielectric constant tensor:
#      x y z
#    x 1.877470 0.000000 -0.007330 
#    y 0.000000 1.856070 0.000000 
#    z -0.007330 0.000000 1.831800 
# 
# From -- ./inp_files/13249.got.cif
#   From: 2010.03.12/outbox.cif.g09.slc.cpg/sg5_7_cif.got.tgz:13249.got - 2010.03.31 09:47:26.
