data_PCOD8049701
_publ_section_title
;
Structure prediction by ZEFSAII (Michael W. Deem and Ramdas Pophale) SiO2 
 PCOD8049701
Probable space group: C 2
;
_chemical_formula_sum "Si O2"
_cell_formula_units_Z 16
_cell_length_a 14.901769
_cell_length_b 10.307092
_cell_length_c 10.501495
_cell_angle_alpha 90.000000
_cell_angle_beta 23.317087
_cell_angle_gamma 90.000000
_cell_volume 638.443063
_symmetry_space_group_name_H-M "C 2"
_symmetry_group_IT_number 5
_symmetry_cell_setting 'monoclinic'
loop_
_space_group_symop_operation_xyz
x,y,z
-x,y,-z
1/2+x,1/2+y,z
1/2-x,1/2+y,-z
loop_
_atom_site_type_symbol
_atom_site_label
_atom_site_fract_x
_atom_site_fract_y
_atom_site_fract_z
Si Si1 0.954985 0.189300 0.704983
Si Si2 0.456356 0.341976 0.691323
Si Si3 0.300244 0.016055 0.362566
Si Si4 0.526534 0.051746 0.326431
O O1 0.000000 0.205429 0.500000
O O2 0.184811 0.159014 0.484665
O O3 0.818976 0.322961 0.921902
O O4 0.793049 0.060767 0.937201
O O5 0.500000 0.414905 0.500000
O O6 0.601636 0.410631 0.610569
O O7 0.564939 0.198561 0.538637
O O8 0.379680 0.992846 0.403240
O O9 0.500000 0.994245 0.000000
O O10 0.500000 0.981330 0.500000
#
# Coordination Sequence:
#
# PCOD8049701 Si02
#       4
#     4   4   4   4
#     4  10  20  43  70 100 144 171 227 289 337 397
#     4   9  22  43  68 102 137 181 225 283 338 413
#     4  12  22  39  79 102 129 190 230 274 348 410
#     4   9  22  45  69 102 143 175 226 290 339 400
#
# _framework density 25.060967000000002
#
# number of rings (size 3 to 8) (size 9 to 14) (size 15 to 20)
#    1.500    0.500    2.500    0.750    0.000    3.000 
#    0.000    2.500   16.500    1.500    0.000    0.000 
#    0.000    0.000    0.000    0.000    0.000    0.000 
#
# Total GULP energy -99106.588183 kJ/mol
# GULP energy per Si atom -12388.323523 kJ/mol
# Density = 2.500393 g / cm^3
# Si number density = 25.060967 Si / 1000 Ang^3
#
#
#
# Elastic Constant Matrix: (Units=GPa)
#
#
# Indices 1 2 3 4 5 6 
#
# 1 242.5132 40.4639 81.4064 -0.0001 16.8517 0.0000
# 2 40.4639 44.3324 40.0315 -0.0004 -10.7050 0.0000
# 3 81.4064 40.0315 151.5382 -0.0009 13.8483 0.0000
# 4 -0.0001 -0.0004 -0.0009 39.3869 0.0003 -10.2674
# 5 16.8517 -10.7050 13.8483 0.0003 50.2423 0.0001
# 6 0.0000 0.0000 0.0000 -10.2674 0.0001 32.2686
#
#
#
# Elastic Compliance Matrix: (Units=1/GPa)
#
#
# Indices 1 2 3 4 5 6 
#
# 1 0.005525 -0.004061 -0.001689 0.000000 -0.002253 0.000000
# 2 -0.004061 0.036832 -0.008607 0.000000 0.011582 0.000000
# 3 -0.001689 -0.008607 0.010151 0.000000 -0.004065 0.000000
# 4 0.000000 0.000000 0.000000 0.027686 0.000000 0.008809
# 5 -0.002253 0.011582 -0.004065 0.000000 0.024247 0.000000
# 6 0.000000 0.000000 0.000000 0.008809 0.000000 0.033793
#
#
# Mechanical properties :
#
#
# Convention : Reuss Voigt Hill
#
# Bulk Modulus (GPa) = 42.02688 84.68750 63.35719
# Shear Modulus (GPa) = 28.59110 42.81169 35.70140
#
# Velocity S-wave (km/s) = 3.38133 4.13764 3.77846
# Velocity P-wave (km/s) = 5.66134 7.52946 6.66121
#
# Compressibility (1/GPa) = 0.02379430
#
# Stress axis : x y z
#
# Youngs Moduli (GPa) = 181.00630 27.15019 98.50788
#
# Poissons Ratio (x) = 0.11027 0.16639
# Poissons Ratio (y) = 0.73513 0.84781
# Poissons Ratio (z) = 0.30574 0.23367
#
# Static dielectric constant tensor:
#      x y z
#    x 4.557630 0.000000 -0.005150 
#    y 0.000000 4.838450 0.000000 
#    z -0.005150 0.000000 4.626940 
# 
# 
# High freq. dielectric constant tensor:
#      x y z
#    x 1.991880 0.000000 0.002280 
#    y 0.000000 2.020630 0.000000 
#    z 0.002280 0.000000 1.999520 
# 
# From -- ./inp_files/1714.got.cif
#   From: 2010.03.12/outbox.cif.g09.slc.cpg/sg5_1_cif.got.tgz:1714.got - 2010.03.31 09:47:26.
