data_PCOD8049440
_publ_section_title
;
Structure prediction by ZEFSAII (Michael W. Deem and Ramdas Pophale) SiO2 
 PCOD8049440
Probable space group: C 2
;
_chemical_formula_sum "Si O2"
_cell_formula_units_Z 32
_cell_length_a 8.864189
_cell_length_b 21.551257
_cell_length_c 15.543807
_cell_angle_alpha 90.000000
_cell_angle_beta 149.766054
_cell_angle_gamma 90.000000
_cell_volume 1495.188715
_symmetry_space_group_name_H-M "C 2"
_symmetry_group_IT_number 5
_symmetry_cell_setting 'monoclinic'
loop_
_space_group_symop_operation_xyz
x,y,z
-x,y,-z
1/2+x,1/2+y,z
1/2-x,1/2+y,-z
loop_
_atom_site_type_symbol
_atom_site_label
_atom_site_fract_x
_atom_site_fract_y
_atom_site_fract_z
Si Si1 0.995650 0.870830 0.671144
Si Si2 0.334158 0.681636 0.826676
Si Si3 0.207269 0.951944 0.909282
Si Si4 0.532348 0.878382 0.817750
Si Si5 0.196384 0.552290 0.680490
Si Si6 0.331046 0.746899 0.160651
Si Si7 0.244564 0.972688 0.555650
Si Si8 0.309080 0.743977 0.488248
O O1 0.903510 0.941906 0.601199
O O2 0.745502 0.818006 0.543917
O O3 0.093266 0.884938 0.816972
O O4 0.275318 0.849046 0.751865
O O5 0.344102 0.612374 0.794799
O O6 0.504466 0.723892 0.842890
O O7 0.995264 0.705295 0.667270
O O8 0.500000 0.685289 0.000000
O O9 0.500000 0.974875 0.000000
O O10 0.281064 0.932972 0.043510
O O11 0.961565 0.005682 0.786798
O O12 0.718602 0.820896 0.872846
O O13 0.386258 0.910941 0.664671
O O14 0.000000 0.569107 0.500000
O O15 0.982170 0.524511 0.648423
O O16 0.516267 0.728519 0.337507
O O17 0.000000 0.716596 0.000000
O O18 0.000000 0.002903 0.500000
O O19 0.500000 0.723023 0.500000
#
# Coordination Sequence:
#
# PCOD8049440 Si02
#       8
#     4   4   4   4   4   4   4   4
#     4  10  20  39  66 104 143 179 224 283 353 425
#     4  12  30  52  72 100 139 190 248 300 353 416
#     4  10  24  40  65 105 143 182 224 289 354 414
#     4  10  22  37  67 101 150 176 222 288 360 412
#     4  12  26  47  73  97 138 191 239 281 347 433
#     4  12  26  45  71 107 142 189 236 294 355 423
#     4  10  22  40  65 105 141 180 222 282 349 419
#     4  12  26  44  74 104 143 188 237 293 357 422
#
# _framework density 21.401979000000001
#
# number of rings (size 3 to 8) (size 9 to 14) (size 15 to 20)
#    0.000    1.000    3.750    1.875    8.750    1.000 
#    0.000    2.500    0.000    0.000    0.000    0.000 
#    0.000    0.000    0.000    0.000    0.000    0.000 
#
# Total GULP energy -198367.117894 kJ/mol
# GULP energy per Si atom -12397.944868 kJ/mol
# Density = 2.135327 g / cm^3
# Si number density = 21.401979 Si / 1000 Ang^3
#
#
#
# Elastic Constant Matrix: (Units=GPa)
#
#
# Indices 1 2 3 4 5 6 
#
# 1 121.2392 35.1500 60.4658 0.0125 -3.3665 -0.0099
# 2 35.1500 74.0395 35.9097 -0.0203 -2.9510 -0.0162
# 3 60.4658 35.9097 142.2228 0.9548 -2.3713 -0.5077
# 4 0.0125 -0.0203 0.9548 233.8961 -0.0337 -101.9691
# 5 -3.3665 -2.9510 -2.3713 -0.0337 32.1881 0.0142
# 6 -0.0099 -0.0162 -0.5077 -101.9691 0.0142 64.8887
#
#
#
# Elastic Compliance Matrix: (Units=1/GPa)
#
#
# Indices 1 2 3 4 5 6 
#
# 1 0.011190 -0.003404 -0.003889 0.000007 0.000572 -0.000019
# 2 -0.003404 0.016467 -0.002695 0.000016 0.000955 0.000007
# 3 -0.003889 -0.002695 0.009366 -0.000022 0.000036 0.000038
# 4 0.000007 0.000016 -0.000022 0.013577 0.000005 0.021335
# 5 0.000572 0.000955 0.000036 0.000005 0.031217 0.000002
# 6 -0.000019 0.000007 0.000038 0.021335 0.000002 0.048937
#
#
# Mechanical properties :
#
#
# Convention : Reuss Voigt Hill
#
# Bulk Modulus (GPa) = 58.65517 66.72806 62.69161
# Shear Modulus (GPa) = 31.96678 79.92629 55.94654
#
# Velocity S-wave (km/s) = 3.86895 6.11771 5.11836
# Velocity P-wave (km/s) = 6.88653 9.00822 8.01786
#
# Compressibility (1/GPa) = 0.01704880
#
# Stress axis : x y z
#
# Youngs Moduli (GPa) = 89.36337 60.72638 106.77121
#
# Poissons Ratio (x) = 0.20669 0.41520
# Poissons Ratio (y) = 0.30416 0.28774
# Poissons Ratio (z) = 0.34751 0.16365
#
# Static dielectric constant tensor:
#      x y z
#    x 3.603310 -0.000060 0.017420 
#    y -0.000060 3.559860 -0.000010 
#    z 0.017420 -0.000010 4.077870 
# 
# 
# High freq. dielectric constant tensor:
#      x y z
#    x 1.849830 0.000000 -0.005680 
#    y 0.000000 1.818400 0.000000 
#    z -0.005680 0.000000 1.856960 
# 
# From -- ./inp_files/51725.got.cif
#   From: 2010.03.12/outbox.cif.g09.slc.cpg/sg5_26_cif.got.tgz:51725.got - 2010.03.31 09:47:26.
