data_PCOD8049187
_publ_section_title
;
Structure prediction by ZEFSAII (Michael W. Deem and Ramdas Pophale) SiO2 
 PCOD8049187
Probable space group: C 2
;
_chemical_formula_sum "Si O2"
_cell_formula_units_Z 32
_cell_length_a 10.586697
_cell_length_b 8.675776
_cell_length_c 28.726549
_cell_angle_alpha 90.000000
_cell_angle_beta 34.860874
_cell_angle_gamma 90.000000
_cell_volume 1508.112041
_symmetry_space_group_name_H-M "C 2"
_symmetry_group_IT_number 5
_symmetry_cell_setting 'monoclinic'
loop_
_space_group_symop_operation_xyz
x,y,z
-x,y,-z
1/2+x,1/2+y,z
1/2-x,1/2+y,-z
loop_
_atom_site_type_symbol
_atom_site_label
_atom_site_fract_x
_atom_site_fract_y
_atom_site_fract_z
Si Si1 0.710165 0.461260 0.311670
Si Si2 0.125563 0.454086 0.313711
Si Si3 0.256543 0.165430 0.055441
Si Si4 0.343501 0.195193 0.195678
Si Si5 0.492838 0.677900 0.227885
Si Si6 0.010058 0.222143 0.570271
Si Si7 0.350866 0.237993 0.391836
Si Si8 0.801123 0.306118 0.025398
O O1 0.836986 0.586138 0.242321
O O2 0.570010 0.548827 0.393663
O O3 0.536886 0.367509 0.332813
O O4 0.888839 0.339782 0.277682
O O5 0.251835 0.365003 0.234770
O O6 0.307486 0.546083 0.289003
O O7 0.985827 0.332574 0.386453
O O8 0.953765 0.575475 0.343744
O O9 0.076009 0.196076 0.149922
O O10 0.259299 0.987185 0.040717
O O11 0.500000 0.218651 0.000000
O O12 0.165199 0.263237 0.039083
O O13 0.198361 0.126534 0.197486
O O14 0.594737 0.205823 0.104493
O O15 0.838305 0.293058 0.585582
O O16 0.253089 0.216218 0.473777
O O17 0.000000 0.258770 0.000000
#
# Coordination Sequence:
#
# PCOD8049187 Si02
#       8
#     4   4   4   4   4   4   4   4
#     4  10  23  36  58  93 116 155 200 244 294 355
#     4  10  21  38  57  87 119 155 194 246 298 350
#     4  11  24  44  64  88 122 160 202 249 304 365
#     4  11  22  41  61  87 124 157 197 251 299 352
#     4  11  22  39  63  86 120 160 199 246 299 356
#     4  10  20  37  59  83 121 154 195 244 291 349
#     4  10  20  37  59  86 115 158 197 240 292 352
#     4  11  26  43  63  92 121 159 204 249 307 362
#
# _framework density 21.218582999999999
#
# number of rings (size 3 to 8) (size 9 to 14) (size 15 to 20)
#    0.000    1.500    2.500    2.250    1.750    1.500 
#    9.000    0.000    0.000   12.000    0.000    0.000 
#    0.000    0.000    0.000    0.000    0.000    0.000 
#
# Total GULP energy -198416.004883 kJ/mol
# GULP energy per Si atom -12401.000305 kJ/mol
# Density = 2.117029 g / cm^3
# Si number density = 21.218583 Si / 1000 Ang^3
#
#
#
# Elastic Constant Matrix: (Units=GPa)
#
#
# Indices 1 2 3 4 5 6 
#
# 1 65.2201 -2.5864 -16.6692 0.0002 -10.0560 -0.0004
# 2 -2.5864 66.1727 8.4371 -0.0001 -4.9201 -0.0004
# 3 -16.6692 8.4371 61.5780 0.0020 -1.5097 -0.0009
# 4 0.0002 -0.0001 0.0020 27.3826 -0.0007 4.8054
# 5 -10.0560 -4.9201 -1.5097 -0.0007 33.4839 -0.0005
# 6 -0.0004 -0.0004 -0.0009 4.8054 -0.0005 19.3335
#
#
#
# Elastic Compliance Matrix: (Units=1/GPa)
#
#
# Indices 1 2 3 4 5 6 
#
# 1 0.017426 0.000481 0.004787 0.000000 0.005520 0.000001
# 2 0.000481 0.015553 -0.001943 0.000000 0.002342 0.000000
# 3 0.004787 -0.001943 0.017850 -0.000002 0.001957 0.000001
# 4 0.000000 0.000000 -0.000002 0.038185 0.000001 -0.009491
# 5 0.005520 0.002342 0.001957 0.000001 0.031955 0.000001
# 6 0.000001 0.000000 0.000001 -0.009491 0.000001 0.054083
#
#
# Mechanical properties :
#
#
# Convention : Reuss Voigt Hill
#
# Bulk Modulus (GPa) = 17.39800 19.03710 18.21755
# Shear Modulus (GPa) = 26.65787 29.62593 28.14190
#
# Velocity S-wave (km/s) = 3.54834 3.74066 3.64577
# Velocity P-wave (km/s) = 5.00049 5.25815 5.13093
#
# Compressibility (1/GPa) = 0.05747788
#
# Stress axis : x y z
#
# Youngs Moduli (GPa) = 57.38449 64.29753 56.02379
#
# Poissons Ratio (x) = -0.03094 -0.26817
# Poissons Ratio (y) = -0.02761 0.10887
# Poissons Ratio (z) = -0.27468 0.12495
#
# Static dielectric constant tensor:
#      x y z
#    x 3.638860 0.000000 -0.038500 
#    y 0.000000 3.784240 0.000000 
#    z -0.038500 0.000000 3.929630 
# 
# 
# High freq. dielectric constant tensor:
#      x y z
#    x 1.821620 0.000000 -0.003880 
#    y 0.000000 1.833590 0.000000 
#    z -0.003880 0.000000 1.840030 
# 
# From -- ./inp_files/60313.got.cif
#   From: 2010.03.12/outbox.cif.g09.slc.cpg/sg5_31_cif.got.tgz:60313.got - 2010.03.31 09:47:26.
