data_PCOD8049334
_publ_section_title
;
Structure prediction by ZEFSAII (Michael W. Deem and Ramdas Pophale) SiO2 
 PCOD8049334
Probable space group: C 2
;
_chemical_formula_sum "Si O2"
_cell_formula_units_Z 30
_cell_length_a 14.012236
_cell_length_b 17.000406
_cell_length_c 11.046886
_cell_angle_alpha 90.000000
_cell_angle_beta 36.030528
_cell_angle_gamma 90.000000
_cell_volume 1547.902523
_symmetry_space_group_name_H-M "C 2"
_symmetry_group_IT_number 5
_symmetry_cell_setting 'monoclinic'
loop_
_space_group_symop_operation_xyz
x,y,z
-x,y,-z
1/2+x,1/2+y,z
1/2-x,1/2+y,-z
loop_
_atom_site_type_symbol
_atom_site_label
_atom_site_fract_x
_atom_site_fract_y
_atom_site_fract_z
Si Si1 0.500000 0.391590 0.000000
Si Si2 0.496765 0.492871 0.365379
Si Si3 0.250886 0.960598 0.914321
Si Si4 0.829283 0.628841 0.797408
Si Si5 0.990341 0.158635 0.278589
Si Si6 0.174566 0.856131 0.587590
Si Si7 0.989308 0.328687 0.650154
Si Si8 0.658137 0.195876 0.482768
O O1 0.628364 0.449690 0.928941
O O2 0.578695 0.338202 0.812485
O O3 0.500000 0.464982 0.500000
O O4 0.453011 0.585126 0.404005
O O5 0.367663 0.440700 0.424328
O O6 0.670596 0.480560 0.125398
O O7 0.339007 0.878611 0.853509
O O8 0.358806 0.034638 0.759835
O O9 0.829130 0.673978 0.670421
O O10 0.988405 0.659037 0.708788
O O11 0.651657 0.644623 0.034491
O O12 0.824560 0.167083 0.373166
O O13 0.030369 0.235404 0.316286
O O14 0.362282 0.860236 0.424797
O O15 0.138592 0.789063 0.525642
O O16 0.000000 0.351329 0.500000
#
# Coordination Sequence:
#
# PCOD8049334 Si02
#       8
#     2   4   4   4   4   4   4   4
#     4  10  20  38  62  90 120 154 212 256 298 370
#     4  10  23  42  63  83 126 165 202 247 313 375
#     4  10  23  37  65  94 115 163 207 256 313 358
#     4  10  23  37  63  87 125 160 204 256 309 367
#     4  10  23  40  60  89 122 164 204 256 307 369
#     4  10  23  37  61  93 118 165 203 254 310 365
#     4  11  22  38  62  91 123 153 209 260 310 359
#     4  10  23  37  59  93 120 159 203 253 312 363
#
# _framework density 19.381066000000001
#
# number of rings (size 3 to 8) (size 9 to 14) (size 15 to 20)
#    0.000    1.867    1.333    0.800   14.933    0.000 
#    0.000    2.000    0.000    0.000    0.000    0.000 
#    0.000    0.000    0.000    0.000    0.000    0.000 
#
# Total GULP energy -185876.041294 kJ/mol
# GULP energy per Si atom -12391.736086 kJ/mol
# Density = 1.933695 g / cm^3
# Si number density = 19.381066 Si / 1000 Ang^3
#
#
#
# Elastic Constant Matrix: (Units=GPa)
#
#
# Indices 1 2 3 4 5 6 
#
# 1 90.8338 53.4941 47.6215 0.0006 -6.1197 -0.0020
# 2 53.4941 144.1643 47.0434 0.0010 -7.2420 -0.0066
# 3 47.6215 47.0434 84.9572 -0.0022 -8.4850 -0.0092
# 4 0.0006 0.0010 -0.0022 32.1141 0.0008 -0.4584
# 5 -6.1197 -7.2420 -8.4850 0.0008 44.4967 0.0057
# 6 -0.0020 -0.0066 -0.0092 -0.4584 0.0057 26.9037
#
#
#
# Elastic Compliance Matrix: (Units=1/GPa)
#
#
# Indices 1 2 3 4 5 6 
#
# 1 0.017272 -0.003960 -0.007458 -0.000001 0.000309 -0.000002
# 2 -0.003960 0.009385 -0.002935 0.000000 0.000423 0.000001
# 3 -0.007458 -0.002935 0.017764 0.000001 0.001884 0.000004
# 4 -0.000001 0.000000 0.000001 0.031147 0.000000 0.000531
# 5 0.000309 0.000423 0.001884 0.000000 0.022944 -0.000004
# 6 -0.000002 0.000001 0.000004 0.000531 -0.000004 0.037179
#
#
# Mechanical properties :
#
#
# Convention : Reuss Voigt Hill
#
# Bulk Modulus (GPa) = 63.62978 68.47478 66.05228
# Shear Modulus (GPa) = 29.47515 32.15598 30.81557
#
# Velocity S-wave (km/s) = 3.90400 4.07768 3.99178
# Velocity P-wave (km/s) = 7.29547 7.58798 7.44316
#
# Compressibility (1/GPa) = 0.01571591
#
# Stress axis : x y z
#
# Youngs Moduli (GPa) = 57.89730 106.55537 56.29244
#
# Poissons Ratio (x) = 0.42194 0.41983
# Poissons Ratio (y) = 0.22926 0.16521
# Poissons Ratio (z) = 0.43180 0.31272
#
# Static dielectric constant tensor:
#      x y z
#    x 3.523840 -0.000010 -0.200970 
#    y -0.000010 3.743540 0.000010 
#    z -0.200970 0.000010 3.709100 
# 
# 
# High freq. dielectric constant tensor:
#      x y z
#    x 1.749590 0.000000 -0.012690 
#    y 0.000000 1.764830 0.000000 
#    z -0.012690 0.000000 1.755410 
# 
# From -- ./inp_files/43299.got.cif
#   From: 2010.03.12/outbox.cif.g09.slc.cpg/sg5_22_cif.got.tgz:43299.got - 2010.03.31 09:47:26.
