data_PCOD8049284
_publ_section_title
;
Structure prediction by ZEFSAII (Michael W. Deem and Ramdas Pophale) SiO2 
 PCOD8049284
Probable space group: C 2
;
_chemical_formula_sum "Si O2"
_cell_formula_units_Z 16
_cell_length_a 18.161987
_cell_length_b 5.086226
_cell_length_c 11.689987
_cell_angle_alpha 90.000000
_cell_angle_beta 31.914445
_cell_angle_gamma 90.000000
_cell_volume 570.877877
_symmetry_space_group_name_H-M "C 2"
_symmetry_group_IT_number 5
_symmetry_cell_setting 'monoclinic'
loop_
_space_group_symop_operation_xyz
x,y,z
-x,y,-z
1/2+x,1/2+y,z
1/2-x,1/2+y,-z
loop_
_atom_site_type_symbol
_atom_site_label
_atom_site_fract_x
_atom_site_fract_y
_atom_site_fract_z
Si Si1 0.357031 0.965980 0.720386
Si Si2 0.631991 0.627563 0.743894
Si Si3 0.098007 0.320953 0.081149
Si Si4 0.772911 0.616757 0.272741
O O1 0.500000 0.119924 0.500000
O O2 0.354851 0.893116 0.855348
O O3 0.356837 0.709811 0.635797
O O4 0.219700 0.130623 0.869028
O O5 0.557412 0.686937 0.717584
O O6 0.691405 0.336097 0.678407
O O7 0.747841 0.853254 0.622364
O O8 0.500000 0.672214 0.000000
O O9 0.103974 0.571843 0.986391
#
# Coordination Sequence:
#
# PCOD8049284 Si02
#       4
#     4   4   4   4
#     4  12  26  45  70 109 146 190 237 294 360 440
#     4  10  20  37  73  98 133 191 235 291 354 413
#     4  11  24  43  75 102 145 190 236 297 365 417
#     4  11  21  42  70 103 137 187 240 288 355 422
#
# _framework density 28.027011000000002
#
# number of rings (size 3 to 8) (size 9 to 14) (size 15 to 20)
#    0.000    1.000    7.500    2.250    0.000    1.000 
#    0.000    2.500    0.000    0.000    0.000    0.000 
#    0.000    0.000    0.000    0.000    0.000    0.000 
#
# Total GULP energy -99104.992656 kJ/mol
# GULP energy per Si atom -12388.124082 kJ/mol
# Density = 2.796322 g / cm^3
# Si number density = 28.027011 Si / 1000 Ang^3
#
#
#
# Elastic Constant Matrix: (Units=GPa)
#
#
# Indices 1 2 3 4 5 6 
#
# 1 194.4076 61.7253 25.1877 -0.0071 1.9604 -0.0004
# 2 61.7253 154.8112 21.7775 -0.0223 -14.5448 -0.0045
# 3 25.1877 21.7775 64.7042 -0.0087 -22.6330 0.0018
# 4 -0.0071 -0.0223 -0.0087 16.3318 0.0052 -15.5269
# 5 1.9604 -14.5448 -22.6330 0.0052 44.5101 0.0004
# 6 -0.0004 -0.0045 0.0018 -15.5269 0.0004 34.3218
#
#
#
# Elastic Compliance Matrix: (Units=1/GPa)
#
#
# Indices 1 2 3 4 5 6 
#
# 1 0.006230 -0.002356 -0.002429 -0.000002 -0.002280 -0.000001
# 2 -0.002356 0.007733 -0.000931 0.000016 0.002157 0.000008
# 3 -0.002429 -0.000931 0.020246 0.000007 0.010098 0.000002
# 4 -0.000002 0.000016 0.000007 0.107440 -0.000004 0.048605
# 5 -0.002280 0.002157 0.010098 -0.000004 0.028407 -0.000003
# 6 -0.000001 0.000008 0.000002 0.048605 -0.000003 0.051125
#
#
# Mechanical properties :
#
#
# Convention : Reuss Voigt Hill
#
# Bulk Modulus (GPa) = 43.90685 70.14488 57.02586
# Shear Modulus (GPa) = 20.81558 39.38157 30.09858
#
# Velocity S-wave (km/s) = 2.72820 3.75257 3.28062
# Velocity P-wave (km/s) = 5.06202 6.62251 5.89414
#
# Compressibility (1/GPa) = 0.02277549
#
# Stress axis : x y z
#
# Youngs Moduli (GPa) = 160.52097 129.32289 49.39242
#
# Poissons Ratio (x) = 0.30472 0.12000
# Poissons Ratio (y) = 0.37824 0.04597
# Poissons Ratio (z) = 0.38997 0.12036
#
# Static dielectric constant tensor:
#      x y z
#    x 5.650510 0.000010 -0.230420 
#    y 0.000010 5.117330 0.000000 
#    z -0.230420 0.000000 5.017950 
# 
# 
# High freq. dielectric constant tensor:
#      x y z
#    x 2.176160 0.000000 0.007950 
#    y 0.000000 2.113820 0.000000 
#    z 0.007950 0.000000 2.116870 
# 
# From -- ./inp_files/41047.got.cif
#   From: 2010.03.12/outbox.cif.g09.slc.cpg/sg5_21_cif.got.tgz:41047.got - 2010.03.31 09:47:26.
