data_PCOD8049994
_publ_section_title
;
Structure prediction by ZEFSAII (Michael W. Deem and Ramdas Pophale) SiO2 
 PCOD8049994
Probable space group: C 2
;
_chemical_formula_sum "Si O2"
_cell_formula_units_Z 28
_cell_length_a 17.558195
_cell_length_b 5.010585
_cell_length_c 31.342789
_cell_angle_alpha 90.000000
_cell_angle_beta 153.334423
_cell_angle_gamma 90.000000
_cell_volume 1237.489576
_symmetry_space_group_name_H-M "C 2"
_symmetry_group_IT_number 5
_symmetry_cell_setting 'monoclinic'
loop_
_space_group_symop_operation_xyz
x,y,z
-x,y,-z
1/2+x,1/2+y,z
1/2-x,1/2+y,-z
loop_
_atom_site_type_symbol
_atom_site_label
_atom_site_fract_x
_atom_site_fract_y
_atom_site_fract_z
Si Si1 0.510632 0.729570 0.051008
Si Si2 0.195619 0.082760 0.786606
Si Si3 0.526005 0.066699 0.323958
Si Si4 0.098102 0.079184 0.505917
Si Si5 0.987306 0.581761 0.400454
Si Si6 0.351317 0.405387 0.798358
Si Si7 0.293414 0.268732 0.046975
O O1 0.588575 0.552894 0.128016
O O2 0.318871 0.820330 0.967178
O O3 0.631660 0.988110 0.103354
O O4 0.500000 0.577606 0.000000
O O5 0.253384 0.140527 0.766208
O O6 0.109367 0.351729 0.762792
O O7 0.052889 0.858905 0.717652
O O8 0.699940 0.055857 0.384485
O O9 0.565356 0.004151 0.393434
O O10 0.055325 0.377279 0.469751
O O11 0.000000 0.009284 0.500000
O O12 0.042623 0.876141 0.441363
O O13 0.781115 0.579829 0.294909
O O14 0.508547 0.335697 0.846166
O O15 0.219886 0.459741 0.973104
#
# Coordination Sequence:
#
# PCOD8049994 Si02
#       7
#     4   4   4   4   4   4   4
#     4  11  23  42  67  98 134 173 220 274 329 371
#     4  11  20  41  66  95 129 167 219 272 313 381
#     4  11  23  42  72  93 126 174 223 260 321 400
#     4  12  26  45  65 101 134 165 213 277 334 389
#     4  11  22  41  73  93 129 175 219 260 325 393
#     4  10  22  42  69  97 133 171 227 266 320 391
#     4  10  21  39  64  89 126 173 215 264 317 387
#
# _framework density 22.626450999999999
#
# number of rings (size 3 to 8) (size 9 to 14) (size 15 to 20)
#    0.000    1.143    4.286    3.857    0.000    0.571 
#    5.143    0.000    0.000    0.000    0.000    0.000 
#    0.000    0.000    0.000    0.000    0.000    0.000 
#
# Total GULP energy -173531.357945 kJ/mol
# GULP energy per Si atom -12395.096996 kJ/mol
# Density = 2.257495 g / cm^3
# Si number density = 22.626451 Si / 1000 Ang^3
#
#
#
# Elastic Constant Matrix: (Units=GPa)
#
#
# Indices 1 2 3 4 5 6 
#
# 1 136.0442 18.3934 52.7539 0.0061 43.4792 -0.0155
# 2 18.3934 91.2986 18.6974 -0.0526 10.8749 0.0279
# 3 52.7539 18.6974 78.4334 -0.0737 39.3021 0.0414
# 4 0.0061 -0.0526 -0.0737 33.1419 -0.0252 6.6961
# 5 43.4792 10.8749 39.3021 -0.0252 50.7985 0.0299
# 6 -0.0155 0.0279 0.0414 6.6961 0.0299 16.2714
#
#
#
# Elastic Compliance Matrix: (Units=1/GPa)
#
#
# Indices 1 2 3 4 5 6 
#
# 1 0.010997 -0.000633 -0.004241 -0.000026 -0.005995 0.000044
# 2 -0.000633 0.011561 -0.002224 0.000018 -0.000213 -0.000022
# 3 -0.004241 -0.002224 0.022986 0.000049 -0.013678 -0.000054
# 4 -0.000026 0.000018 0.000049 0.032910 0.000005 -0.013543
# 5 -0.005995 -0.000213 -0.013678 0.000005 0.035445 -0.000038
# 6 0.000044 -0.000022 -0.000054 -0.013543 -0.000038 0.067031
#
#
# Mechanical properties :
#
#
# Convention : Reuss Voigt Hill
#
# Bulk Modulus (GPa) = 31.89903 53.94064 42.91984
# Shear Modulus (GPa) = 24.32187 34.43781 29.37984
#
# Velocity S-wave (km/s) = 3.28217 3.90553 3.60734
# Velocity P-wave (km/s) = 5.33781 6.65049 6.02998
#
# Compressibility (1/GPa) = 0.03134892
#
# Stress axis : x y z
#
# Youngs Moduli (GPa) = 90.93445 86.49521 43.50393
#
# Poissons Ratio (x) = 0.05473 0.18452
# Poissons Ratio (y) = 0.05754 0.09674
# Poissons Ratio (z) = 0.38569 0.19234
#
# Static dielectric constant tensor:
#      x y z
#    x 4.049650 -0.000120 0.513090 
#    y -0.000120 4.057780 0.000000 
#    z 0.513090 0.000000 4.061040 
# 
# 
# High freq. dielectric constant tensor:
#      x y z
#    x 1.872720 -0.000010 0.038890 
#    y -0.000010 1.898760 0.000010 
#    z 0.038890 0.000010 1.882350 
# 
# From -- ./inp_files/71963.got.cif
#   From: 2010.03.12/outbox.cif.g09.slc.cpg/sg5_36_cif.got.tgz:71963.got - 2010.03.31 09:47:26.
