data_PCOD8049823
_publ_section_title
;
Structure prediction by ZEFSAII (Michael W. Deem and Ramdas Pophale) SiO2 
 PCOD8049823
Probable space group: C 2
;
_chemical_formula_sum "Si O2"
_cell_formula_units_Z 32
_cell_length_a 23.807061
_cell_length_b 9.373687
_cell_length_c 22.007611
_cell_angle_alpha 90.000000
_cell_angle_beta 160.623095
_cell_angle_gamma 90.000000
_cell_volume 1629.448068
_symmetry_space_group_name_H-M "C 2"
_symmetry_group_IT_number 5
_symmetry_cell_setting 'monoclinic'
loop_
_space_group_symop_operation_xyz
x,y,z
-x,y,-z
1/2+x,1/2+y,z
1/2-x,1/2+y,-z
loop_
_atom_site_type_symbol
_atom_site_label
_atom_site_fract_x
_atom_site_fract_y
_atom_site_fract_z
Si Si1 0.428122 0.326670 0.165819
Si Si2 0.449023 0.332024 0.515217
Si Si3 0.200358 0.074277 0.798985
Si Si4 0.559767 0.137126 0.204341
Si Si5 0.564126 0.809982 0.747162
Si Si6 0.919765 0.611812 0.587669
Si Si7 0.657901 0.588542 0.418539
Si Si8 0.677669 0.049615 0.204526
O O1 0.516583 0.288779 0.191416
O O2 0.455917 0.195812 0.239955
O O3 0.511833 0.470670 0.276270
O O4 0.228864 0.347652 0.954878
O O5 0.500000 0.282005 0.500000
O O6 0.596272 0.426980 0.697254
O O7 0.409731 0.191991 0.513596
O O8 0.277440 0.421566 0.337486
O O9 0.100341 0.203003 0.728465
O O10 0.219581 0.117593 0.747118
O O11 0.383318 0.049111 0.017150
O O12 0.689598 0.048590 0.379341
O O13 0.642165 0.165717 0.221813
O O14 0.422494 0.740987 0.646269
O O15 0.492225 0.956115 0.647040
O O16 0.733268 0.600472 0.427636
O O17 0.500000 0.985798 0.000000
#
# Coordination Sequence:
#
# PCOD8049823 Si02
#       8
#     4   4   4   4   4   4   4   4
#     4  10  21  37  56  82 114 148 184 226 275 332
#     4  10  21  39  58  81 111 145 187 230 275 330
#     4   9  19  35  59  84 112 147 187 227 272 328
#     4   9  18  33  56  85 113 141 186 232 270 319
#     4  11  22  37  55  84 114 145 186 229 276 328
#     4  11  22  36  57  82 111 146 182 229 281 324
#     4  11  22  38  56  79 112 149 186 227 275 334
#     4   9  17  33  58  85 108 143 188 232 274 325
#
# _framework density 19.638552000000001
#
# number of rings (size 3 to 8) (size 9 to 14) (size 15 to 20)
#    0.000    2.000    0.000    4.500    0.000    3.000 
#    0.000   14.375    0.000    0.000    0.000    0.875 
#    0.000    0.000    0.000    0.000    0.000    0.000 
#
# Total GULP energy -198366.040700 kJ/mol
# GULP energy per Si atom -12397.877544 kJ/mol
# Density = 1.959385 g / cm^3
# Si number density = 19.638552 Si / 1000 Ang^3
#
#
#
# Elastic Constant Matrix: (Units=GPa)
#
#
# Indices 1 2 3 4 5 6 
#
# 1 111.4813 52.3087 38.0395 0.0006 3.7968 -0.0001
# 2 52.3087 110.7647 45.5491 0.0016 -2.2462 0.0007
# 3 38.0395 45.5491 116.0475 0.0012 1.9288 0.0001
# 4 0.0006 0.0016 0.0012 27.2448 0.0016 -3.5486
# 5 3.7968 -2.2462 1.9288 0.0016 23.1572 0.0004
# 6 -0.0001 0.0007 0.0001 -3.5486 0.0004 33.4259
#
#
#
# Elastic Compliance Matrix: (Units=1/GPa)
#
#
# Indices 1 2 3 4 5 6 
#
# 1 0.012028 -0.004914 -0.001976 0.000000 -0.002284 0.000000
# 2 -0.004914 0.012819 -0.003460 -0.000001 0.002337 0.000000
# 3 -0.001976 -0.003460 0.010638 0.000000 -0.000898 0.000000
# 4 0.000000 -0.000001 0.000000 0.037219 -0.000003 0.003951
# 5 -0.002284 0.002337 -0.000898 -0.000003 0.043859 -0.000001
# 6 0.000000 0.000000 0.000000 0.003951 -0.000001 0.030336
#
#
# Mechanical properties :
#
#
# Convention : Reuss Voigt Hill
#
# Bulk Modulus (GPa) = 67.63379 67.78756 67.71068
# Shear Modulus (GPa) = 28.98118 30.25867 29.61992
#
# Velocity S-wave (km/s) = 3.84569 3.92953 3.88784
# Velocity P-wave (km/s) = 7.36432 7.42838 7.39642
#
# Compressibility (1/GPa) = 0.01478551
#
# Stress axis : x y z
#
# Youngs Moduli (GPa) = 83.14069 78.01060 94.00575
#
# Poissons Ratio (x) = 0.38334 0.18575
# Poissons Ratio (y) = 0.40855 0.32521
# Poissons Ratio (z) = 0.16428 0.26988
#
# Static dielectric constant tensor:
#      x y z
#    x 3.858730 0.000000 0.073370 
#    y 0.000000 3.239790 0.000000 
#    z 0.073370 0.000000 3.772040 
# 
# 
# High freq. dielectric constant tensor:
#      x y z
#    x 1.778600 0.000000 0.009580 
#    y 0.000000 1.729380 0.000000 
#    z 0.009580 0.000000 1.775670 
# 
# From -- ./inp_files/69935.got.cif
#   From: 2010.03.12/outbox.cif.g09.slc.cpg/sg5_35_cif.got.tgz:69935.got - 2010.03.31 09:47:26.
