data_PCOD8049393
_publ_section_title
;
Structure prediction by ZEFSAII (Michael W. Deem and Ramdas Pophale) SiO2 
 PCOD8049393
Probable space group: C 2
;
_chemical_formula_sum "Si O2"
_cell_formula_units_Z 22
_cell_length_a 16.533241
_cell_length_b 8.421841
_cell_length_c 18.797677
_cell_angle_alpha 90.000000
_cell_angle_beta 23.984037
_cell_angle_gamma 90.000000
_cell_volume 1063.924109
_symmetry_space_group_name_H-M "C 2"
_symmetry_group_IT_number 5
_symmetry_cell_setting 'monoclinic'
loop_
_space_group_symop_operation_xyz
x,y,z
-x,y,-z
1/2+x,1/2+y,z
1/2-x,1/2+y,-z
loop_
_atom_site_type_symbol
_atom_site_label
_atom_site_fract_x
_atom_site_fract_y
_atom_site_fract_z
Si Si1 0.500000 0.060951 0.500000
Si Si2 0.082597 0.832870 0.153821
Si Si3 0.229407 0.779739 0.703477
Si Si4 0.968782 0.202817 0.788217
Si Si5 0.922071 0.784715 0.432879
Si Si6 0.432540 0.636849 0.660859
O O1 0.504292 0.162806 0.424471
O O2 0.295767 0.959437 0.669641
O O3 0.986005 0.762521 0.159200
O O4 0.997241 0.744139 0.292576
O O5 0.026671 0.017400 0.197033
O O6 0.318145 0.799647 0.960081
O O7 0.240069 0.666109 0.764607
O O8 0.384836 0.729804 0.518765
O O9 0.892320 0.216493 0.769007
O O10 0.182802 0.284065 0.626296
O O11 0.013963 0.953145 0.379260
#
# Coordination Sequence:
#
# PCOD8049393 Si02
#       6
#     2   4   4   4   4   4
#     4  10  20  38  68  88 122 162 212 254 316 360
#     4  11  25  41  65  92 128 163 214 251 311 371
#     4  10  20  39  64  94 120 167 208 250 313 371
#     4  11  24  40  64  96 122 171 204 261 307 369
#     4  11  22  43  65  91 123 165 209 261 308 369
#     4   9  21  37  64  93 121 163 204 250 318 358
#
# _framework density 20.678166999999998
#
# number of rings (size 3 to 8) (size 9 to 14) (size 15 to 20)
#    0.000    1.818    3.636    1.091    2.545    3.636 
#    0.000    0.909    0.000    0.000    0.000    0.000 
#    0.000    0.000    0.000    0.000    0.000    0.000 
#
# Total GULP energy -136352.458380 kJ/mol
# GULP energy per Si atom -12395.678035 kJ/mol
# Density = 2.063110 g / cm^3
# Si number density = 20.678167 Si / 1000 Ang^3
#
#
#
# Elastic Constant Matrix: (Units=GPa)
#
#
# Indices 1 2 3 4 5 6 
#
# 1 159.5517 50.0316 46.3262 -0.0017 -1.6574 0.0000
# 2 50.0316 74.0472 9.4521 -0.0056 3.3597 -0.0002
# 3 46.3262 9.4521 85.8348 -0.0060 1.2127 0.0003
# 4 -0.0017 -0.0056 -0.0060 16.5525 0.0008 4.8717
# 5 -1.6574 3.3597 1.2127 0.0008 17.5452 -0.0001
# 6 0.0000 -0.0002 0.0003 4.8717 -0.0001 28.1997
#
#
#
# Elastic Compliance Matrix: (Units=1/GPa)
#
#
# Indices 1 2 3 4 5 6 
#
# 1 0.009449 -0.005918 -0.004481 -0.000003 0.002336 0.000001
# 2 -0.005918 0.017517 0.001322 0.000006 -0.004005 -0.000001
# 3 -0.004481 0.001322 0.013946 0.000005 -0.001640 -0.000001
# 4 -0.000003 0.000006 0.000005 0.063650 -0.000005 -0.010996
# 5 0.002336 -0.004005 -0.001640 -0.000005 0.058096 0.000001
# 6 0.000001 -0.000001 -0.000001 -0.010996 0.000001 0.037361
#
#
# Mechanical properties :
#
#
# Convention : Reuss Voigt Hill
#
# Bulk Modulus (GPa) = 43.94244 59.00595 51.47419
# Shear Modulus (GPa) = 22.14750 26.70107 24.42428
#
# Velocity S-wave (km/s) = 3.27625 3.59732 3.44053
# Velocity P-wave (km/s) = 5.96729 6.77138 6.38201
#
# Compressibility (1/GPa) = 0.02275704
#
# Stress axis : x y z
#
# Youngs Moduli (GPa) = 105.83528 57.08861 71.70366
#
# Poissons Ratio (x) = 0.33786 0.32129
# Poissons Ratio (y) = 0.62635 -0.09478
# Poissons Ratio (z) = 0.47423 -0.07546
#
# Static dielectric constant tensor:
#      x y z
#    x 4.433660 -0.000010 0.029690 
#    y -0.000010 3.740480 0.000000 
#    z 0.029690 0.000000 3.493550 
# 
# 
# High freq. dielectric constant tensor:
#      x y z
#    x 1.829440 0.000000 0.003240 
#    y 0.000000 1.806240 0.000000 
#    z 0.003240 0.000000 1.786420 
# 
# From -- ./inp_files/22659.got.cif
#   From: 2010.03.12/outbox.cif.g09.slc.cpg/sg5_12_cif.got.tgz:22659.got - 2010.03.31 09:47:26.
