data_PCOD8049587
_publ_section_title
;
Structure prediction by ZEFSAII (Michael W. Deem and Ramdas Pophale) SiO2 
 PCOD8049587
Probable space group: C 2
;
_chemical_formula_sum "Si O2"
_cell_formula_units_Z 28
_cell_length_a 13.620396
_cell_length_b 6.553486
_cell_length_c 17.621803
_cell_angle_alpha 90.000000
_cell_angle_beta 55.898909
_cell_angle_gamma 90.000000
_cell_volume 1302.473317
_symmetry_space_group_name_H-M "C 2"
_symmetry_group_IT_number 5
_symmetry_cell_setting 'monoclinic'
loop_
_space_group_symop_operation_xyz
x,y,z
-x,y,-z
1/2+x,1/2+y,z
1/2-x,1/2+y,-z
loop_
_atom_site_type_symbol
_atom_site_label
_atom_site_fract_x
_atom_site_fract_y
_atom_site_fract_z
Si Si1 0.660912 0.647350 0.119988
Si Si2 0.544885 0.854506 0.703432
Si Si3 0.216652 0.933776 0.239286
Si Si4 0.279932 0.560027 0.300432
Si Si5 0.077148 0.255197 0.394764
Si Si6 0.572316 0.182771 0.802313
Si Si7 0.398690 0.362539 0.982793
O O1 0.555193 0.790615 0.193048
O O2 0.663737 0.456062 0.177794
O O3 0.638158 0.570199 0.044761
O O4 0.783378 0.771260 0.073182
O O5 0.661478 0.709955 0.662206
O O6 0.505891 0.855449 0.633463
O O7 0.569381 0.088233 0.718295
O O8 0.224523 0.695541 0.256381
O O9 0.136134 0.051536 0.336161
O O10 0.345924 0.035554 0.182656
O O11 0.174820 0.420450 0.379952
O O12 0.380241 0.414291 0.222253
O O13 0.000000 0.190219 0.500000
O O14 0.447469 0.197965 0.900334
O O15 0.500000 0.416044 0.000000
#
# Coordination Sequence:
#
# PCOD8049587 Si02
#       7
#     4   4   4   4   4   4   4
#     4  11  23  40  60  94 127 178 225 269 341 384
#     4  10  22  41  65  91 127 175 217 266 334 402
#     4   9  21  41  67  89 128 171 217 265 328 403
#     4  10  21  41  66  95 121 179 215 263 338 392
#     4  10  23  42  65 101 130 162 219 274 331 398
#     4  10  20  41  63  87 130 167 219 270 319 394
#     4  12  24  39  60  94 132 165 225 282 317 381
#
# _framework density 21.497561999999999
#
# number of rings (size 3 to 8) (size 9 to 14) (size 15 to 20)
#    0.000    1.714    2.857    0.857    2.000    1.714 
#    7.714    0.000    0.000    0.000    0.000    0.000 
#    0.000    0.000    0.000    0.000    0.000    0.000 
#
# Total GULP energy -173586.117531 kJ/mol
# GULP energy per Si atom -12399.008395 kJ/mol
# Density = 2.144863 g / cm^3
# Si number density = 21.497562 Si / 1000 Ang^3
#
#
#
# Elastic Constant Matrix: (Units=GPa)
#
#
# Indices 1 2 3 4 5 6 
#
# 1 108.5692 27.4542 41.2265 0.0002 8.5392 0.0006
# 2 27.4542 96.6841 30.3338 0.0004 3.9528 0.0016
# 3 41.2265 30.3338 93.9106 0.0000 4.7413 -0.0001
# 4 0.0002 0.0004 0.0000 17.5118 0.0000 4.0997
# 5 8.5392 3.9528 4.7413 0.0000 27.7335 0.0002
# 6 0.0006 0.0016 -0.0001 4.0997 0.0002 29.5867
#
#
#
# Elastic Compliance Matrix: (Units=1/GPa)
#
#
# Indices 1 2 3 4 5 6 
#
# 1 0.011517 -0.001803 -0.004345 0.000000 -0.002546 0.000000
# 2 -0.001803 0.011820 -0.002995 0.000000 -0.000617 -0.000001
# 3 -0.004345 -0.002995 0.013551 0.000000 -0.000552 0.000000
# 4 0.000000 0.000000 0.000000 0.059019 0.000000 -0.008178
# 5 -0.002546 -0.000617 -0.000552 0.000000 0.037024 0.000000
# 6 0.000000 -0.000001 0.000000 -0.008178 0.000000 0.034932
#
#
# Mechanical properties :
#
#
# Convention : Reuss Voigt Hill
#
# Bulk Modulus (GPa) = 53.75880 55.24365 54.50122
# Shear Modulus (GPa) = 25.99434 28.30969 27.15202
#
# Velocity S-wave (km/s) = 3.48109 3.63282 3.55777
# Velocity P-wave (km/s) = 6.42017 6.58407 6.50263
#
# Compressibility (1/GPa) = 0.01860161
#
# Stress axis : x y z
#
# Youngs Moduli (GPa) = 86.82975 84.60305 73.79437
#
# Poissons Ratio (x) = 0.15254 0.32063
# Poissons Ratio (y) = 0.15656 0.22103
# Poissons Ratio (z) = 0.37727 0.25340
#
# Static dielectric constant tensor:
#      x y z
#    x 4.122590 0.000000 -0.069300 
#    y 0.000000 3.792540 0.000000 
#    z -0.069300 0.000000 3.512710 
# 
# 
# High freq. dielectric constant tensor:
#      x y z
#    x 1.862450 0.000000 -0.004980 
#    y 0.000000 1.838240 0.000000 
#    z -0.004980 0.000000 1.812960 
# 
# From -- ./inp_files/61169.got.cif
#   From: 2010.03.12/outbox.cif.g09.slc.cpg/sg5_31_cif.got.tgz:61169.got - 2010.03.31 09:47:26.
