data_PCOD8049483
_publ_section_title
;
Structure prediction by ZEFSAII (Michael W. Deem and Ramdas Pophale) SiO2 
 PCOD8049483
Probable space group: C 2
;
_chemical_formula_sum "Si O2"
_cell_formula_units_Z 26
_cell_length_a 9.532494
_cell_length_b 14.107937
_cell_length_c 15.377798
_cell_angle_alpha 90.000000
_cell_angle_beta 143.122155
_cell_angle_gamma 90.000000
_cell_volume 1241.068528
_symmetry_space_group_name_H-M "C 2"
_symmetry_group_IT_number 5
_symmetry_cell_setting 'monoclinic'
loop_
_space_group_symop_operation_xyz
x,y,z
-x,y,-z
1/2+x,1/2+y,z
1/2-x,1/2+y,-z
loop_
_atom_site_type_symbol
_atom_site_label
_atom_site_fract_x
_atom_site_fract_y
_atom_site_fract_z
Si Si1 0.451632 0.319020 0.373873
Si Si2 0.448683 0.796918 0.566542
Si Si3 0.867417 0.175472 0.204042
Si Si4 0.124170 0.151776 0.155004
Si Si5 0.133214 0.945972 0.212945
Si Si6 0.753781 0.471329 0.835923
Si Si7 0.000000 0.830767 0.000000
O O1 0.500000 0.309542 0.500000
O O2 0.690694 0.341072 0.441567
O O3 0.335088 0.224925 0.274799
O O4 0.280655 0.408491 0.268327
O O5 0.500000 0.746082 0.500000
O O6 0.433710 0.712051 0.631130
O O7 0.633096 0.883706 0.662866
O O8 0.934744 0.163920 0.137466
O O9 0.735291 0.083883 0.178109
O O10 0.710900 0.267135 0.133445
O O11 0.221079 0.045360 0.214615
O O12 0.000000 0.168330 0.000000
O O13 0.981340 0.958317 0.224042
O O14 0.945822 0.897778 0.055085
O O15 0.000000 0.439041 0.000000
#
# Coordination Sequence:
#
# PCOD8049483 Si02
#       7
#     4   4   4   4   4   4   2
#     4  12  26  44  68  98 138 179 230 281 333 402
#     4  11  23  45  68  97 131 190 223 276 341 407
#     4  10  23  41  67  96 136 170 230 278 335 402
#     4  11  24  43  67 101 133 182 224 283 338 401
#     4  10  23  41  69  93 132 178 226 269 336 411
#     4  11  24  43  67 101 133 176 223 286 337 396
#     4  10  20  40  60  98 126 166 210 276 326 394
#
# _framework density 20.94969
#
# number of rings (size 3 to 8) (size 9 to 14) (size 15 to 20)
#    0.000    1.231    4.615    0.462    4.308    2.462 
#    0.000    0.000    0.000    0.000    0.000    0.000 
#    0.000    0.000    0.000    0.000    0.000    0.000 
#
# Total GULP energy -161048.116251 kJ/mol
# GULP energy per Si atom -12388.316635 kJ/mol
# Density = 2.090201 g / cm^3
# Si number density = 20.949690 Si / 1000 Ang^3
#
#
#
# Elastic Constant Matrix: (Units=GPa)
#
#
# Indices 1 2 3 4 5 6 
#
# 1 83.3465 33.4065 44.2914 -0.0009 -9.2559 0.0000
# 2 33.4065 130.2622 61.1150 -0.0057 -11.4483 -0.0007
# 3 44.2914 61.1150 128.3827 -0.0234 -13.0435 -0.0026
# 4 -0.0009 -0.0057 -0.0234 78.9809 -0.0077 1.0052
# 5 -9.2559 -11.4483 -13.0435 -0.0077 43.7669 -0.0007
# 6 0.0000 -0.0007 -0.0026 1.0052 -0.0007 26.9795
#
#
#
# Elastic Compliance Matrix: (Units=1/GPa)
#
#
# Indices 1 2 3 4 5 6 
#
# 1 0.015114 -0.001764 -0.004224 -0.000001 0.001476 0.000000
# 2 -0.001764 0.010154 -0.004118 0.000000 0.001056 0.000000
# 3 -0.004224 -0.004118 0.011350 0.000003 0.001412 0.000001
# 4 -0.000001 0.000000 0.000003 0.012667 0.000003 -0.000472
# 5 0.001476 0.001056 0.001412 0.000003 0.023857 0.000001
# 6 0.000000 0.000000 0.000001 -0.000472 0.000001 0.037083
#
#
# Mechanical properties :
#
#
# Convention : Reuss Voigt Hill
#
# Bulk Modulus (GPa) = 60.95594 68.84636 64.90115
# Shear Modulus (GPa) = 36.78975 43.49070 40.14023
#
# Velocity S-wave (km/s) = 4.19513 4.56121 4.38200
# Velocity P-wave (km/s) = 7.25431 7.78933 7.52657
#
# Compressibility (1/GPa) = 0.01640529
#
# Stress axis : x y z
#
# Youngs Moduli (GPa) = 66.16331 98.48333 88.10365
#
# Poissons Ratio (x) = 0.17377 0.37219
# Poissons Ratio (y) = 0.11674 0.36279
# Poissons Ratio (z) = 0.27950 0.40553
#
# Static dielectric constant tensor:
#      x y z
#    x 3.599750 0.000000 -0.044010 
#    y 0.000000 4.071900 0.000000 
#    z -0.044010 0.000000 3.418960 
# 
# 
# High freq. dielectric constant tensor:
#      x y z
#    x 1.807640 0.000000 -0.009140 
#    y 0.000000 1.831890 0.000000 
#    z -0.009140 0.000000 1.830870 
# 
# From -- ./inp_files/51123.got.cif
#   From: 2010.03.12/outbox.cif.g09.slc.cpg/sg5_26_cif.got.tgz:51123.got - 2010.03.31 09:47:26.
