data_PCOD8049036
_publ_section_title
;
Structure prediction by ZEFSAII (Michael W. Deem and Ramdas Pophale) SiO2 
 PCOD8049036
Probable space group: C 2
;
_chemical_formula_sum "Si O2"
_cell_formula_units_Z 26
_cell_length_a 25.464108
_cell_length_b 9.128622
_cell_length_c 11.656759
_cell_angle_alpha 90.000000
_cell_angle_beta 30.765925
_cell_angle_gamma 90.000000
_cell_volume 1386.067114
_symmetry_space_group_name_H-M "C 2"
_symmetry_group_IT_number 5
_symmetry_cell_setting 'monoclinic'
loop_
_space_group_symop_operation_xyz
x,y,z
-x,y,-z
1/2+x,1/2+y,z
1/2-x,1/2+y,-z
loop_
_atom_site_type_symbol
_atom_site_label
_atom_site_fract_x
_atom_site_fract_y
_atom_site_fract_z
Si Si1 0.731649 0.922190 0.352292
Si Si2 0.500000 0.019351 0.500000
Si Si3 0.313105 0.927149 0.984046
Si Si4 0.896218 0.925964 0.245180
Si Si5 0.398833 0.095566 0.244845
Si Si6 0.240775 0.092701 0.338668
Si Si7 0.712223 0.111052 0.173239
O O1 0.818322 0.932005 0.285613
O O2 0.713505 0.755342 0.345072
O O3 0.627739 0.989730 0.599923
O O4 0.758798 0.019373 0.191322
O O5 0.585669 0.116629 0.408375
O O6 0.566264 0.921054 0.283735
O O7 0.261950 0.769357 0.083888
O O8 0.301708 0.000696 0.129478
O O9 0.249932 0.027877 0.012796
O O10 0.917512 0.761821 0.251921
O O11 0.862296 0.013672 0.422797
O O12 0.000000 0.996230 0.000000
O O13 0.309933 0.102366 0.319804
O O14 0.500000 0.026559 0.000000
#
# Coordination Sequence:
#
# PCOD8049036 Si02
#       7
#     4   2   4   4   4   4   4
#     4  10  20  35  56  84 116 152 196 245 299 352
#     4   8  24  40  66  86 118 162 200 244 308 366
#     4  10  21  41  62  86 119 155 201 253 297 362
#     4   9  19  38  53  84 117 154 201 238 297 360
#     4   9  19  32  57  78 110 156 192 239 297 354
#     4  10  20  35  56  84 117 150 196 249 294 352
#     4  10  21  41  62  85 120 156 201 250 299 360
#
# _framework density 18.758109000000001
#
# number of rings (size 3 to 8) (size 9 to 14) (size 15 to 20)
#    0.923    1.538    0.000    1.846    2.154    1.846 
#    5.538    0.769    0.000    0.000    0.000    0.000 
#    0.000    0.000    0.000    0.000    0.000    0.000 
#
# Total GULP energy -161064.262454 kJ/mol
# GULP energy per Si atom -12389.558650 kJ/mol
# Density = 1.871542 g / cm^3
# Si number density = 18.758109 Si / 1000 Ang^3
#
#
#
# Elastic Constant Matrix: (Units=GPa)
#
#
# Indices 1 2 3 4 5 6 
#
# 1 26.2179 23.8603 14.7035 0.0000 10.6117 0.0000
# 2 23.8603 131.5078 56.5973 0.0000 7.5866 0.0000
# 3 14.7035 56.5973 136.0871 0.0000 4.2573 0.0000
# 4 0.0000 0.0000 0.0000 34.6294 0.0000 5.0922
# 5 10.6117 7.5866 4.2573 0.0000 28.3303 0.0000
# 6 0.0000 0.0000 0.0000 5.0922 0.0000 22.2398
#
#
#
# Elastic Compliance Matrix: (Units=1/GPa)
#
#
# Indices 1 2 3 4 5 6 
#
# 1 0.053533 -0.007847 -0.001968 0.000000 -0.017655 0.000000
# 2 -0.007847 0.010516 -0.003546 0.000000 0.000656 0.000000
# 3 -0.001968 -0.003546 0.009025 0.000000 0.000331 0.000000
# 4 0.000000 0.000000 0.000000 0.029883 0.000000 -0.006842
# 5 -0.017655 0.000656 0.000331 0.000000 0.041685 0.000000
# 6 0.000000 0.000000 0.000000 -0.006842 0.000000 0.046531
#
#
# Mechanical properties :
#
#
# Convention : Reuss Voigt Hill
#
# Bulk Modulus (GPa) = 21.57432 53.79278 37.68355
# Shear Modulus (GPa) = 21.42718 30.28334 25.85526
#
# Velocity S-wave (km/s) = 3.38344 4.02234 3.71664
# Velocity P-wave (km/s) = 5.17589 7.09307 6.20892
#
# Compressibility (1/GPa) = 0.04635140
#
# Stress axis : x y z
#
# Youngs Moduli (GPa) = 18.68004 95.09073 110.79853
#
# Poissons Ratio (x) = 0.74621 0.21805
# Poissons Ratio (y) = 0.14659 0.39292
# Poissons Ratio (z) = 0.03676 0.33722
#
# Static dielectric constant tensor:
#      x y z
#    x 3.253920 0.000000 0.103310 
#    y 0.000000 3.571410 0.000000 
#    z 0.103310 0.000000 3.556550 
# 
# 
# High freq. dielectric constant tensor:
#      x y z
#    x 1.714560 0.000000 0.012360 
#    y 0.000000 1.723710 0.000000 
#    z 0.012360 0.000000 1.729990 
# 
# From -- ./inp_files/47903.got.cif
#   From: 2010.03.12/outbox.cif.g09.slc.cpg/sg5_24_cif.got.tgz:47903.got - 2010.03.31 09:47:26.
