data_PCOD8049631
_publ_section_title
;
Structure prediction by ZEFSAII (Michael W. Deem and Ramdas Pophale) SiO2 
 PCOD8049631
Probable space group: C 2
;
_chemical_formula_sum "Si O2"
_cell_formula_units_Z 28
_cell_length_a 9.080203
_cell_length_b 11.464949
_cell_length_c 14.137787
_cell_angle_alpha 90.000000
_cell_angle_beta 61.826675
_cell_angle_gamma 90.000000
_cell_volume 1297.427040
_symmetry_space_group_name_H-M "C 2"
_symmetry_group_IT_number 5
_symmetry_cell_setting 'monoclinic'
loop_
_space_group_symop_operation_xyz
x,y,z
-x,y,-z
1/2+x,1/2+y,z
1/2-x,1/2+y,-z
loop_
_atom_site_type_symbol
_atom_site_label
_atom_site_fract_x
_atom_site_fract_y
_atom_site_fract_z
Si Si1 0.450226 0.578240 0.261480
Si Si2 0.172710 0.165052 0.896846
Si Si3 0.679095 0.448031 0.406591
Si Si4 0.247178 0.915520 0.178935
Si Si5 0.008676 0.622483 0.891885
Si Si6 0.300642 0.698058 0.683026
Si Si7 0.820244 0.429186 0.553271
O O1 0.343213 0.626122 0.206834
O O2 0.587372 0.483857 0.184485
O O3 0.548891 0.681385 0.286526
O O4 0.323290 0.518376 0.372924
O O5 0.216384 0.301347 0.892591
O O6 0.325645 0.100681 0.902418
O O7 0.000000 0.135179 0.000000
O O8 0.500000 0.416611 0.500000
O O9 0.709423 0.380824 0.299206
O O10 0.703535 0.586963 0.385075
O O11 0.801686 0.396688 0.448599
O O12 0.411077 0.994826 0.125182
O O13 0.123215 0.706629 0.792130
O O14 0.000000 0.677419 0.000000
O O15 0.324899 0.814106 0.616140
O O16 0.000000 0.492034 0.500000
#
# Coordination Sequence:
#
# PCOD8049631 Si02
#       7
#     4   4   4   4   4   4   4
#     4  10  24  45  61  97 132 162 216 268 303 383
#     4  12  25  41  70  97 124 167 213 260 325 381
#     4  10  20  42  63  91 134 170 208 264 311 369
#     4  10  23  44  67  91 132 169 211 261 317 375
#     4  10  22  44  68  92 129 166 209 268 319 372
#     4  10  23  43  67  89 133 170 211 265 315 374
#     4  12  25  38  66  99 127 173 215 254 323 373
#
# _framework density 21.581177
#
# number of rings (size 3 to 8) (size 9 to 14) (size 15 to 20)
#    0.000    1.714    2.857    3.429    6.000    0.000 
#    0.000    8.571    0.000    0.000    0.000    0.000 
#    0.000    0.000    0.000    0.000    0.000    0.000 
#
# Total GULP energy -173569.482387 kJ/mol
# GULP energy per Si atom -12397.820170 kJ/mol
# Density = 2.153206 g / cm^3
# Si number density = 21.581177 Si / 1000 Ang^3
#
#
#
# Elastic Constant Matrix: (Units=GPa)
#
#
# Indices 1 2 3 4 5 6 
#
# 1 163.1338 21.9679 42.0678 0.0000 -3.4906 0.0000
# 2 21.9679 42.1711 9.0109 0.0000 -2.4165 0.0000
# 3 42.0678 9.0109 81.7661 0.0000 -4.3259 0.0000
# 4 0.0000 0.0000 0.0000 25.0162 0.0000 -0.9550
# 5 -3.4906 -2.4165 -4.3259 0.0000 49.0655 0.0000
# 6 0.0000 0.0000 0.0000 -0.9550 0.0000 20.6866
#
#
#
# Elastic Compliance Matrix: (Units=1/GPa)
#
#
# Indices 1 2 3 4 5 6 
#
# 1 0.007452 -0.003133 -0.003485 0.000000 0.000069 0.000000
# 2 -0.003133 0.025648 -0.001165 0.000000 0.000938 0.000000
# 3 -0.003485 -0.001165 0.014201 0.000000 0.000947 0.000000
# 4 0.000000 0.000000 0.000000 0.040045 0.000000 0.001849
# 5 0.000069 0.000938 0.000947 0.000000 0.020515 0.000000
# 6 0.000000 0.000000 0.000000 0.001849 0.000000 0.048426
#
#
# Mechanical properties :
#
#
# Convention : Reuss Voigt Hill
#
# Bulk Modulus (GPa) = 31.51107 48.12937 39.82022
# Shear Modulus (GPa) = 27.40746 33.22193 30.31469
#
# Velocity S-wave (km/s) = 3.56753 3.92777 3.75197
# Velocity P-wave (km/s) = 5.62162 6.55132 6.10419
#
# Compressibility (1/GPa) = 0.03173488
#
# Stress axis : x y z
#
# Youngs Moduli (GPa) = 134.19118 38.98972 70.41517
#
# Poissons Ratio (x) = 0.12217 0.24540
# Poissons Ratio (y) = 0.42047 0.08202
# Poissons Ratio (z) = 0.46767 0.04542
#
# Static dielectric constant tensor:
#      x y z
#    x 2.933960 0.000000 -0.858290 
#    y 0.000000 3.488410 0.000000 
#    z -0.858290 0.000000 3.683390 
# 
# 
# High freq. dielectric constant tensor:
#      x y z
#    x 1.860950 0.000000 -0.006790 
#    y 0.000000 1.815160 0.000000 
#    z -0.006790 0.000000 1.862340 
# 
# From -- ./inp_files/50416.got.cif
#   From: 2010.03.12/outbox.cif.g09.slc.cpg/sg5_26_cif.got.tgz:50416.got - 2010.03.31 09:47:26.
