data_PCOD8049289
_publ_section_title
;
Structure prediction by ZEFSAII (Michael W. Deem and Ramdas Pophale) SiO2 
 PCOD8049289
Probable space group: C 2
;
_chemical_formula_sum "Si O2"
_cell_formula_units_Z 28
_cell_length_a 17.317225
_cell_length_b 17.151573
_cell_length_c 4.979273
_cell_angle_alpha 90.000000
_cell_angle_beta 72.320289
_cell_angle_gamma 90.000000
_cell_volume 1409.080646
_symmetry_space_group_name_H-M "C 2"
_symmetry_group_IT_number 5
_symmetry_cell_setting 'monoclinic'
loop_
_space_group_symop_operation_xyz
x,y,z
-x,y,-z
1/2+x,1/2+y,z
1/2-x,1/2+y,-z
loop_
_atom_site_type_symbol
_atom_site_label
_atom_site_fract_x
_atom_site_fract_y
_atom_site_fract_z
Si Si1 0.595076 0.973690 0.346825
Si Si2 0.183814 0.532785 0.756226
Si Si3 0.948346 0.933705 0.295794
Si Si4 0.786955 0.883483 0.672620
Si Si5 0.183836 0.150687 0.296982
Si Si6 0.296338 0.827197 0.740028
Si Si7 0.591285 0.598197 0.889833
O O1 0.500000 0.972658 0.500000
O O2 0.626340 0.884270 0.309203
O O3 0.641582 0.027691 0.511891
O O4 0.613560 0.013513 0.042946
O O5 0.258544 0.472803 0.686638
O O6 0.224432 0.617261 0.766902
O O7 0.879635 0.875550 0.478492
O O8 0.000000 0.959771 0.500000
O O9 0.907556 0.008896 0.204192
O O10 0.000000 0.892732 0.000000
O O11 0.732661 0.829615 0.536573
O O12 0.776719 0.854842 0.988369
O O13 0.182420 0.239624 0.199868
O O14 0.140882 0.150296 0.630224
O O15 0.133548 0.100382 0.135339
O O16 0.500000 0.631109 0.000000
#
# Coordination Sequence:
#
# PCOD8049289 Si02
#       7
#     4   4   4   4   4   4   4
#     4  10  21  39  60  87 113 148 201 249 297 352
#     4  10  21  35  62  84 110 153 197 243 292 339
#     4  11  21  34  58  88 116 151 192 244 294 340
#     4  10  20  38  57  83 115 149 203 243 278 356
#     4  12  22  39  58  87 124 160 196 241 299 365
#     4  10  23  37  59  85 115 159 193 243 304 353
#     4  11  23  34  55  88 124 153 187 230 288 354
#
# _framework density 19.871115
#
# number of rings (size 3 to 8) (size 9 to 14) (size 15 to 20)
#    0.000    1.429    1.429    5.143    4.000    1.143 
#    0.000    0.000    0.000    8.571    0.000    0.000 
#    0.000    0.000    0.000    0.000    0.000    0.000 
#
# Total GULP energy -173620.207283 kJ/mol
# GULP energy per Si atom -12401.443377 kJ/mol
# Density = 1.982589 g / cm^3
# Si number density = 19.871115 Si / 1000 Ang^3
#
#
#
# Elastic Constant Matrix: (Units=GPa)
#
#
# Indices 1 2 3 4 5 6 
#
# 1 81.8140 38.1721 35.1834 0.0000 -15.8967 0.0000
# 2 38.1721 53.9718 13.2069 0.0000 -7.4426 0.0000
# 3 35.1834 13.2069 112.2913 0.0000 -17.6132 0.0000
# 4 0.0000 0.0000 0.0000 14.9941 0.0000 0.4898
# 5 -15.8967 -7.4426 -17.6132 0.0000 48.7953 0.0000
# 6 0.0000 0.0000 0.0000 0.4898 0.0000 14.8585
#
#
#
# Elastic Compliance Matrix: (Units=1/GPa)
#
#
# Indices 1 2 3 4 5 6 
#
# 1 0.020987 -0.013300 -0.004513 0.000000 0.003180 0.000000
# 2 -0.013300 0.027737 0.000942 0.000000 0.000238 0.000000
# 3 -0.004513 0.000942 0.010601 0.000000 0.002500 0.000000
# 4 0.000000 0.000000 0.000000 0.066765 0.000000 -0.002201
# 5 0.003180 0.000238 0.002500 0.000000 0.022468 0.000000
# 6 0.000000 0.000000 0.000000 -0.002201 0.000000 0.067374
#
#
# Mechanical properties :
#
#
# Convention : Reuss Voigt Hill
#
# Bulk Modulus (GPa) = 39.08795 46.80019 42.94407
# Shear Modulus (GPa) = 19.36473 26.49723 22.93098
#
# Velocity S-wave (km/s) = 3.12511 3.65561 3.40072
# Velocity P-wave (km/s) = 5.72147 6.43591 6.08918
#
# Compressibility (1/GPa) = 0.02558333
#
# Stress axis : x y z
#
# Youngs Moduli (GPa) = 47.64878 36.05254 94.33414
#
# Poissons Ratio (x) = 0.47952 0.42570
# Poissons Ratio (y) = 0.63375 -0.08890
# Poissons Ratio (z) = 0.21502 -0.03398
#
# Static dielectric constant tensor:
#      x y z
#    x 3.474430 0.000000 -0.003380 
#    y 0.000000 3.214940 0.000000 
#    z -0.003380 0.000000 3.978220 
# 
# 
# High freq. dielectric constant tensor:
#      x y z
#    x 1.767450 0.000000 0.004120 
#    y 0.000000 1.733750 0.000000 
#    z 0.004120 0.000000 1.804680 
# 
# From -- ./inp_files/7188.got.cif
#   From: 2010.03.12/outbox.cif.g09.slc.cpg/sg5_4_cif.got.tgz:7188.got - 2010.03.31 09:47:26.
