data_PCOD8049210
_publ_section_title
;
Structure prediction by ZEFSAII (Michael W. Deem and Ramdas Pophale) SiO2 
 PCOD8049210
Probable space group: C 2
;
_chemical_formula_sum "Si O2"
_cell_formula_units_Z 24
_cell_length_a 13.751503
_cell_length_b 13.488789
_cell_length_c 9.092532
_cell_angle_alpha 90.000000
_cell_angle_beta 134.537338
_cell_angle_gamma 90.000000
_cell_volume 1202.186148
_symmetry_space_group_name_H-M "C 2"
_symmetry_group_IT_number 5
_symmetry_cell_setting 'monoclinic'
loop_
_space_group_symop_operation_xyz
x,y,z
-x,y,-z
1/2+x,1/2+y,z
1/2-x,1/2+y,-z
loop_
_atom_site_type_symbol
_atom_site_label
_atom_site_fract_x
_atom_site_fract_y
_atom_site_fract_z
Si Si1 0.960799 0.813410 0.626209
Si Si2 0.772184 0.221191 0.460253
Si Si3 0.371059 0.517956 0.459263
Si Si4 0.529552 0.844689 0.700451
Si Si5 0.116218 0.520055 0.002688
Si Si6 0.200589 0.734808 0.055758
O O1 0.843271 0.733812 0.538702
O O2 0.000000 0.795755 0.500000
O O3 0.909071 0.925062 0.600802
O O4 0.090981 0.807148 0.868706
O O5 0.822041 0.107544 0.510603
O O6 0.700357 0.248712 0.230635
O O7 0.896787 0.294020 0.630565
O O8 0.500000 0.555634 0.500000
O O9 0.251296 0.478754 0.225173
O O10 0.500000 0.872738 0.500000
O O11 0.650129 0.764200 0.845120
O O12 0.563531 0.944497 0.824053
O O13 0.160026 0.622497 0.969640
O O14 0.000000 0.541179 0.000000
#
# Coordination Sequence:
#
# PCOD8049210 Si02
#       6
#     4   4   4   4   4   4
#     4  11  22  36  59  88 114 143 187 239 279 321
#     4  10  20  38  60  82 112 152 189 225 276 340
#     4  10  20  37  61  84 109 150 193 226 271 339
#     4  10  21  36  58  87 115 143 186 238 280 321
#     4  11  21  37  59  83 112 152 190 225 275 339
#     4  10  21  38  59  82 113 152 188 225 277 340
#
# _framework density 19.963632
#
# number of rings (size 3 to 8) (size 9 to 14) (size 15 to 20)
#    0.000    1.667    0.000    8.000    0.000    0.667 
#    0.000    1.667    0.000   13.000    0.000    2.333 
#    0.000    0.000    0.000    0.000    0.000    0.000 
#
# Total GULP energy -148808.933542 kJ/mol
# GULP energy per Si atom -12400.744462 kJ/mol
# Density = 1.991819 g / cm^3
# Si number density = 19.963632 Si / 1000 Ang^3
#
#
#
# Elastic Constant Matrix: (Units=GPa)
#
#
# Indices 1 2 3 4 5 6 
#
# 1 113.9187 46.3099 40.4299 0.0000 15.5351 0.0000
# 2 46.3099 137.4165 77.7735 0.0000 -1.4396 0.0000
# 3 40.4299 77.7735 127.3159 0.0000 24.8833 0.0000
# 4 0.0000 0.0000 0.0000 41.7159 0.0000 9.0396
# 5 15.5351 -1.4396 24.8833 0.0000 24.2809 0.0000
# 6 0.0000 0.0000 0.0000 9.0396 0.0000 27.5691
#
#
#
# Elastic Compliance Matrix: (Units=1/GPa)
#
#
# Indices 1 2 3 4 5 6 
#
# 1 0.011415 -0.004249 0.000559 0.000000 -0.008128 0.000000
# 2 -0.004249 0.014800 -0.010497 0.000000 0.014354 0.000000
# 3 0.000559 -0.010497 0.017858 0.000000 -0.019281 0.000000
# 4 0.000000 0.000000 0.000000 0.025805 0.000000 -0.008461
# 5 -0.008128 0.014354 -0.019281 0.000000 0.066996 0.000000
# 6 0.000000 0.000000 0.000000 -0.008461 0.000000 0.039047
#
#
# Mechanical properties :
#
#
# Convention : Reuss Voigt Hill
#
# Bulk Modulus (GPa) = 63.69500 78.63084 71.16292
# Shear Modulus (GPa) = 23.86310 32.98904 28.42607
#
# Velocity S-wave (km/s) = 3.46110 4.06945 3.77754
# Velocity P-wave (km/s) = 6.92438 7.84558 7.39933
#
# Compressibility (1/GPa) = 0.01569982
#
# Stress axis : x y z
#
# Youngs Moduli (GPa) = 87.60106 67.56545 55.99762
#
# Poissons Ratio (x) = 0.28705 -0.03130
# Poissons Ratio (y) = 0.37217 0.58783
# Poissons Ratio (z) = -0.04896 0.70926
#
# Static dielectric constant tensor:
#      x y z
#    x 3.666010 0.000000 0.343410 
#    y 0.000000 3.593790 0.000000 
#    z 0.343410 0.000000 3.757930 
# 
# 
# High freq. dielectric constant tensor:
#      x y z
#    x 1.775000 0.000000 0.031650 
#    y 0.000000 1.780510 0.000000 
#    z 0.031650 0.000000 1.782870 
# 
# From -- ./inp_files/24740.got.cif
#   From: 2010.03.12/outbox.cif.g09.slc.cpg/sg5_13_cif.got.tgz:24740.got - 2010.03.31 09:47:26.
