data_PCOD8049407
_publ_section_title
;
Structure prediction by ZEFSAII (Michael W. Deem and Ramdas Pophale) SiO2 
 PCOD8049407
Probable space group: C 2
;
_chemical_formula_sum "Si O2"
_cell_formula_units_Z 30
_cell_length_a 6.706535
_cell_length_b 13.768893
_cell_length_c 20.020067
_cell_angle_alpha 90.000000
_cell_angle_beta 121.197716
_cell_angle_gamma 90.000000
_cell_volume 1581.336631
_symmetry_space_group_name_H-M "C 2"
_symmetry_group_IT_number 5
_symmetry_cell_setting 'monoclinic'
loop_
_space_group_symop_operation_xyz
x,y,z
-x,y,-z
1/2+x,1/2+y,z
1/2-x,1/2+y,-z
loop_
_atom_site_type_symbol
_atom_site_label
_atom_site_fract_x
_atom_site_fract_y
_atom_site_fract_z
Si Si1 0.500000 0.429631 0.500000
Si Si2 0.185659 0.434003 0.202881
Si Si3 0.609298 0.094172 0.088501
Si Si4 0.974113 0.224230 0.821831
Si Si5 0.994026 0.347912 0.572884
Si Si6 0.074099 0.603807 0.811037
Si Si7 0.409514 0.489375 0.631399
Si Si8 0.918995 0.190641 0.306169
O O1 0.730196 0.365527 0.550047
O O2 0.472146 0.489990 0.563471
O O3 0.243745 0.502821 0.147895
O O4 0.108552 0.327777 0.163069
O O5 0.966666 0.486546 0.203364
O O6 0.406574 0.429026 0.290996
O O7 0.406796 0.128547 0.105649
O O8 0.782907 0.185122 0.105738
O O9 0.500000 0.059954 0.000000
O O10 0.791937 0.139569 0.807546
O O11 0.992692 0.240637 0.746149
O O12 0.098354 0.268538 0.639266
O O13 0.000000 0.302690 0.500000
O O14 0.153789 0.445038 0.600802
O O15 0.840823 0.652341 0.743451
O O16 0.403307 0.602383 0.649323
#
# Coordination Sequence:
#
# PCOD8049407 Si02
#       8
#     2   4   4   4   4   4   4   4
#     4  10  22  38  54  84 118 152 200 246 292 358
#     4   9  20  40  60  88 118 152 201 241 294 350
#     4   9  21  43  54  88 129 145 201 252 280 361
#     4  11  19  38  63  84 116 160 192 239 303 343
#     4  10  22  39  57  84 119 157 198 247 300 348
#     4   8  20  38  56  90 113 144 198 240 287 350
#     4  10  20  39  58  86 119 155 194 253 296 342
#     4  10  21  36  59  89 112 151 201 243 288 358
#
# _framework density 18.971294
#
# number of rings (size 3 to 8) (size 9 to 14) (size 15 to 20)
#    0.800    1.600    1.333    1.600    0.933    4.800 
#   10.800    0.000    0.000    0.000    0.000    0.000 
#    0.000    0.000    0.000    0.000    0.000    0.000 
#
# Total GULP energy -185822.919061 kJ/mol
# GULP energy per Si atom -12388.194604 kJ/mol
# Density = 1.892811 g / cm^3
# Si number density = 18.971294 Si / 1000 Ang^3
#
#
#
# Elastic Constant Matrix: (Units=GPa)
#
#
# Indices 1 2 3 4 5 6 
#
# 1 77.7093 18.7504 18.5939 0.0000 -0.1287 0.0000
# 2 18.7504 76.4336 26.0947 0.0000 1.0035 0.0000
# 3 18.5939 26.0947 116.7783 0.0000 -3.7012 0.0000
# 4 0.0000 0.0000 0.0000 19.6636 0.0000 -5.2645
# 5 -0.1287 1.0035 -3.7012 0.0000 10.4073 0.0000
# 6 0.0000 0.0000 0.0000 -5.2645 0.0000 8.6713
#
#
#
# Elastic Compliance Matrix: (Units=1/GPa)
#
#
# Indices 1 2 3 4 5 6 
#
# 1 0.013941 -0.002879 -0.001580 0.000000 -0.000112 0.000000
# 2 -0.002879 0.014824 -0.002934 0.000000 -0.002508 0.000000
# 3 -0.001580 -0.002934 0.009587 0.000000 0.003673 0.000000
# 4 0.000000 0.000000 0.000000 0.060726 0.000000 0.036868
# 5 -0.000112 -0.002508 0.003673 0.000000 0.097633 0.000000
# 6 0.000000 0.000000 0.000000 0.036868 0.000000 0.137706
#
#
# Mechanical properties :
#
#
# Convention : Reuss Voigt Hill
#
# Bulk Modulus (GPa) = 42.43307 44.19993 43.31650
# Shear Modulus (GPa) = 14.00333 21.58057 17.79195
#
# Velocity S-wave (km/s) = 2.71981 3.37640 3.06573
# Velocity P-wave (km/s) = 5.68143 6.20878 5.95095
#
# Compressibility (1/GPa) = 0.02356652
#
# Stress axis : x y z
#
# Youngs Moduli (GPa) = 71.73078 67.45812 104.31087
#
# Poissons Ratio (x) = 0.19422 0.16481
# Poissons Ratio (y) = 0.20652 0.30600
# Poissons Ratio (z) = 0.11333 0.19789
#
# Static dielectric constant tensor:
#      x y z
#    x 3.349440 0.000000 -0.081140 
#    y 0.000000 3.348950 0.000000 
#    z -0.081140 0.000000 3.440690 
# 
# 
# High freq. dielectric constant tensor:
#      x y z
#    x 1.726570 0.000000 -0.005330 
#    y 0.000000 1.725680 0.000000 
#    z -0.005330 0.000000 1.736200 
# 
# From -- ./inp_files/58901.got.cif
#   From: 2010.03.12/outbox.cif.g09.slc.cpg/sg5_30_cif.got.tgz:58901.got - 2010.03.31 09:47:26.
