data_PCOD8049465
_publ_section_title
;
Structure prediction by ZEFSAII (Michael W. Deem and Ramdas Pophale) SiO2 
 PCOD8049465
Probable space group: C 2
;
_chemical_formula_sum "Si O2"
_cell_formula_units_Z 26
_cell_length_a 15.191444
_cell_length_b 12.480696
_cell_length_c 13.775289
_cell_angle_alpha 90.000000
_cell_angle_beta 27.643695
_cell_angle_gamma 90.000000
_cell_volume 1211.797657
_symmetry_space_group_name_H-M "C 2"
_symmetry_group_IT_number 5
_symmetry_cell_setting 'monoclinic'
loop_
_space_group_symop_operation_xyz
x,y,z
-x,y,-z
1/2+x,1/2+y,z
1/2-x,1/2+y,-z
loop_
_atom_site_type_symbol
_atom_site_label
_atom_site_fract_x
_atom_site_fract_y
_atom_site_fract_z
Si Si1 0.000000 0.471570 0.000000
Si Si2 0.796431 0.792223 0.154718
Si Si3 0.684692 0.109691 0.477115
Si Si4 0.337050 0.332765 0.584338
Si Si5 0.500000 0.640954 0.500000
Si Si6 0.625796 0.108896 0.058320
Si Si7 0.000000 0.460831 0.500000
Si Si8 0.004364 0.011718 0.691657
O O1 0.179995 0.399537 0.796554
O O2 0.967510 0.548295 0.940821
O O3 0.690563 0.709964 0.330605
O O4 0.653919 0.893136 0.286409
O O5 0.811124 0.729311 0.037221
O O6 0.000000 0.825755 0.000000
O O7 0.753097 0.222815 0.366462
O O8 0.515896 0.128384 0.716342
O O9 0.862353 0.059600 0.357338
O O10 0.622412 0.030986 0.453219
O O11 0.500000 0.301638 0.500000
O O12 0.425582 0.392488 0.403057
O O13 0.494506 0.569040 0.598473
O O14 0.791622 0.031132 0.939185
#
# Coordination Sequence:
#
# PCOD8049465 Si02
#       8
#     2   4   4   4   2   4   2   4
#     4  12  22  46  76 106 136 186 244 300 338 428
#     4  10  20  39  70  95 132 180 220 280 354 400
#     4  12  28  46  66 103 146 185 232 296 343 426
#     4  12  24  45  75 101 143 194 236 290 362 412
#     4   9  18  37  66 104 134 165 232 293 328 412
#     4  11  23  42  74 106 133 177 245 287 344 424
#     4  11  28  47  60  96 152 183 226 281 354 420
#     4  11  22  42  72 103 136 180 237 290 348 412
#
# _framework density 21.455727
#
# number of rings (size 3 to 8) (size 9 to 14) (size 15 to 20)
#    0.000    0.923    5.385    1.846    0.000    8.615 
#    1.385    0.000    0.000    0.000    0.000    0.000 
#    0.000    0.000    0.000    0.000    0.000    0.000 
#
# Total GULP energy -161128.368776 kJ/mol
# GULP energy per Si atom -12394.489906 kJ/mol
# Density = 2.140689 g / cm^3
# Si number density = 21.455727 Si / 1000 Ang^3
#
#
#
# Elastic Constant Matrix: (Units=GPa)
#
#
# Indices 1 2 3 4 5 6 
#
# 1 106.0097 41.8408 15.6721 -0.0012 -16.8284 0.0018
# 2 41.8408 105.6091 5.7211 -0.0047 0.5615 0.0022
# 3 15.6721 5.7211 77.4045 -0.0072 -3.7945 0.0010
# 4 -0.0012 -0.0047 -0.0072 25.8248 0.0029 -12.8033
# 5 -16.8284 0.5615 -3.7945 0.0029 38.5022 -0.0018
# 6 0.0018 0.0022 0.0010 -12.8033 -0.0018 10.0677
#
#
#
# Elastic Compliance Matrix: (Units=1/GPa)
#
#
# Indices 1 2 3 4 5 6 
#
# 1 0.012485 -0.004872 -0.001906 -0.000004 0.005340 -0.000005
# 2 -0.004872 0.011410 0.000031 0.000003 -0.002293 0.000002
# 3 -0.001906 0.000031 0.013326 0.000008 0.000480 0.000010
# 4 -0.000004 0.000003 0.000008 0.104794 -0.000003 0.133269
# 5 0.005340 -0.002293 0.000480 -0.000003 0.028387 0.000001
# 6 -0.000005 0.000002 0.000010 0.133269 0.000001 0.268809
#
#
# Mechanical properties :
#
#
# Convention : Reuss Voigt Hill
#
# Bulk Modulus (GPa) = 42.14585 46.16569 44.15577
# Shear Modulus (GPa) = 10.85506 29.93157 20.39331
#
# Velocity S-wave (km/s) = 2.25173 3.73907 3.08634
# Velocity P-wave (km/s) = 5.14258 6.34069 5.77280
#
# Compressibility (1/GPa) = 0.02372713
#
# Stress axis : x y z
#
# Youngs Moduli (GPa) = 80.09341 87.64624 75.03946
#
# Poissons Ratio (x) = 0.42698 0.14303
# Poissons Ratio (y) = 0.39019 -0.00230
# Poissons Ratio (z) = 0.15266 -0.00269
#
# Static dielectric constant tensor:
#      x y z
#    x 4.521170 -0.000010 -0.711420 
#    y -0.000010 4.109910 0.000000 
#    z -0.711420 0.000000 5.512350 
# 
# 
# High freq. dielectric constant tensor:
#      x y z
#    x 1.832670 0.000000 -0.011400 
#    y 0.000000 1.844690 0.000000 
#    z -0.011400 0.000000 1.854250 
# 
# From -- ./inp_files/54556.got.cif
#   From: 2010.03.12/outbox.cif.g09.slc.cpg/sg5_28_cif.got.tgz:54556.got - 2010.03.31 09:47:26.
