data_PCOD8049357
_publ_section_title
;
Structure prediction by ZEFSAII (Michael W. Deem and Ramdas Pophale) SiO2 
 PCOD8049357
Probable space group: C 2
;
_chemical_formula_sum "Si O2"
_cell_formula_units_Z 30
_cell_length_a 20.669294
_cell_length_b 12.203011
_cell_length_c 13.226662
_cell_angle_alpha 90.000000
_cell_angle_beta 152.687536
_cell_angle_gamma 90.000000
_cell_volume 1530.759175
_symmetry_space_group_name_H-M "C 2"
_symmetry_group_IT_number 5
_symmetry_cell_setting 'monoclinic'
loop_
_space_group_symop_operation_xyz
x,y,z
-x,y,-z
1/2+x,1/2+y,z
1/2-x,1/2+y,-z
loop_
_atom_site_type_symbol
_atom_site_label
_atom_site_fract_x
_atom_site_fract_y
_atom_site_fract_z
Si Si1 0.340870 0.027920 0.514341
Si Si2 0.556342 0.459443 0.189431
Si Si3 0.843294 0.594827 0.300675
Si Si4 0.000000 0.994277 0.500000
Si Si5 0.721668 0.332761 0.727045
Si Si6 0.679914 0.267380 0.452166
Si Si7 0.921882 0.097207 0.181980
Si Si8 0.020612 0.314231 0.227698
O O1 0.287714 0.031883 0.323980
O O2 0.388546 0.148960 0.617432
O O3 0.216544 0.998677 0.417365
O O4 0.456528 0.931817 0.686364
O O5 0.565618 0.327749 0.221110
O O6 0.479013 0.523305 0.170154
O O7 0.500000 0.486005 0.000000
O O8 0.846238 0.722874 0.325402
O O9 0.000000 0.550528 0.500000
O O10 0.746337 0.577503 0.066821
O O11 0.970836 0.066728 0.361145
O O12 0.856532 0.927530 0.319310
O O13 0.686881 0.343753 0.560947
O O14 0.891918 0.334216 0.971451
O O15 0.839088 0.262744 0.628534
O O16 0.966877 0.223861 0.233213
#
# Coordination Sequence:
#
# PCOD8049357 Si02
#       8
#     4   4   4   2   4   4   4   4
#     4  10  21  37  63  90 123 156 207 267 313 377
#     4  11  20  38  62  92 121 160 206 259 326 371
#     4  10  21  38  62  89 116 163 219 258 300 376
#     4  12  24  42  60  92 134 176 212 262 316 376
#     4  10  21  38  62  90 121 164 215 254 304 378
#     4  10  20  38  64  90 124 154 208 268 314 377
#     4  11  23  41  64  90 130 170 210 259 321 382
#     4  10  22  39  62  95 122 164 206 262 321 377
#
# _framework density 19.598119000000001
#
# number of rings (size 3 to 8) (size 9 to 14) (size 15 to 20)
#    0.000    1.600    4.667    0.400    1.867    0.000 
#    1.200    5.333    0.000    0.000    0.000    0.000 
#    0.000    0.000    0.000    0.000    0.000    0.000 
#
# Total GULP energy -185852.757014 kJ/mol
# GULP energy per Si atom -12390.183801 kJ/mol
# Density = 1.955351 g / cm^3
# Si number density = 19.598119 Si / 1000 Ang^3
#
#
#
# Elastic Constant Matrix: (Units=GPa)
#
#
# Indices 1 2 3 4 5 6 
#
# 1 82.3654 34.7033 45.5607 0.0000 -10.3215 0.0000
# 2 34.7033 115.9819 45.3070 0.0000 -7.7297 0.0000
# 3 45.5607 45.3070 91.9488 0.0000 -8.4083 0.0000
# 4 0.0000 0.0000 0.0000 17.8369 0.0000 4.2593
# 5 -10.3215 -7.7297 -8.4083 0.0000 35.9074 0.0000
# 6 0.0000 0.0000 0.0000 4.2593 0.0000 22.6125
#
#
#
# Elastic Compliance Matrix: (Units=1/GPa)
#
#
# Indices 1 2 3 4 5 6 
#
# 1 0.017463 -0.002176 -0.007321 0.000000 0.002837 0.000000
# 2 -0.002176 0.010990 -0.004269 0.000000 0.000741 0.000000
# 3 -0.007321 -0.004269 0.016688 0.000000 0.000884 0.000000
# 4 0.000000 0.000000 0.000000 0.058704 0.000000 -0.011058
# 5 0.002837 0.000741 0.000884 0.000000 0.029031 0.000000
# 6 0.000000 0.000000 0.000000 -0.011058 0.000000 0.046306
#
#
# Mechanical properties :
#
#
# Convention : Reuss Voigt Hill
#
# Bulk Modulus (GPa) = 56.79333 60.15979 58.47656
# Shear Modulus (GPa) = 23.51992 26.25305 24.88649
#
# Velocity S-wave (km/s) = 3.46802 3.66398 3.56735
# Velocity P-wave (km/s) = 6.71402 6.97589 6.84621
#
# Compressibility (1/GPa) = 0.01760770
#
# Stress axis : x y z
#
# Youngs Moduli (GPa) = 57.26315 90.98927 59.92369
#
# Poissons Ratio (x) = 0.19801 0.43872
# Poissons Ratio (y) = 0.12461 0.25584
# Poissons Ratio (z) = 0.41924 0.38847
#
# Static dielectric constant tensor:
#      x y z
#    x 3.491280 0.000000 0.004300 
#    y 0.000000 3.634670 0.000000 
#    z 0.004300 0.000000 3.600460 
# 
# 
# High freq. dielectric constant tensor:
#      x y z
#    x 1.761520 0.000000 0.003390 
#    y 0.000000 1.762430 0.000000 
#    z 0.003390 0.000000 1.755530 
# 
# From -- ./inp_files/39151.got.cif
#   From: 2010.03.12/outbox.cif.g09.slc.cpg/sg5_20_cif.got.tgz:39151.got - 2010.03.31 09:47:26.
