data_PCOD8049650
_publ_section_title
;
Structure prediction by ZEFSAII (Michael W. Deem and Ramdas Pophale) SiO2 
 PCOD8049650
Probable space group: C 2
;
_chemical_formula_sum "Si O2"
_cell_formula_units_Z 22
_cell_length_a 20.743397
_cell_length_b 8.299226
_cell_length_c 9.178556
_cell_angle_alpha 90.000000
_cell_angle_beta 38.201542
_cell_angle_gamma 90.000000
_cell_volume 977.196858
_symmetry_space_group_name_H-M "C 2"
_symmetry_group_IT_number 5
_symmetry_cell_setting 'monoclinic'
loop_
_space_group_symop_operation_xyz
x,y,z
-x,y,-z
1/2+x,1/2+y,z
1/2-x,1/2+y,-z
loop_
_atom_site_type_symbol
_atom_site_label
_atom_site_fract_x
_atom_site_fract_y
_atom_site_fract_z
Si Si1 0.820938 0.233410 0.690541
Si Si2 0.261083 0.726480 0.259388
Si Si3 0.464469 0.847976 0.768470
Si Si4 0.188636 0.545683 0.137057
Si Si5 0.229531 0.565560 0.600460
Si Si6 0.500000 0.006505 0.000000
O O1 0.767401 0.391921 0.852447
O O2 0.789387 0.206750 0.579551
O O3 0.946467 0.254483 0.481430
O O4 0.777465 0.082781 0.860163
O O5 0.174764 0.685122 0.286859
O O6 0.264446 0.580847 0.370558
O O7 0.240100 0.892544 0.383684
O O8 0.369488 0.729370 0.977104
O O9 0.419146 0.000428 0.755645
O O10 0.519355 0.901996 0.820654
O O11 0.106044 0.606698 0.834008
#
# Coordination Sequence:
#
# PCOD8049650 Si02
#       6
#     4   4   4   4   4   2
#     4  12  23  44  73 104 146 189 248 294 367 436
#     4  11  23  43  70 106 150 189 247 303 363 435
#     4  11  23  42  75 104 142 198 235 294 380 421
#     4  12  23  42  73 107 142 190 244 300 362 436
#     4  11  23  44  71 106 145 198 241 308 362 437
#     4  10  20  42  66 106 134 192 242 284 378 422
#
# _framework density 22.513376999999998
#
# number of rings (size 3 to 8) (size 9 to 14) (size 15 to 20)
#    0.000    0.727    5.455    4.909    0.000    0.000 
#    0.000    3.636   12.000    1.091    0.000    0.000 
#    0.000    0.000    0.000    0.000    0.000    0.000 
#
# Total GULP energy -136272.908244 kJ/mol
# GULP energy per Si atom -12388.446204 kJ/mol
# Density = 2.246214 g / cm^3
# Si number density = 22.513377 Si / 1000 Ang^3
#
#
#
# Elastic Constant Matrix: (Units=GPa)
#
#
# Indices 1 2 3 4 5 6 
#
# 1 161.2532 45.2986 44.2130 0.0000 6.9505 0.0000
# 2 45.2986 68.6183 47.5286 0.0000 -7.0264 0.0000
# 3 44.2130 47.5286 124.1416 0.0000 -8.2082 0.0000
# 4 0.0000 0.0000 0.0000 51.1183 0.0000 9.7610
# 5 6.9505 -7.0264 -8.2082 0.0000 38.3191 0.0000
# 6 0.0000 0.0000 0.0000 9.7610 0.0000 55.1039
#
#
#
# Elastic Compliance Matrix: (Units=1/GPa)
#
#
# Indices 1 2 3 4 5 6 
#
# 1 0.007958 -0.004675 -0.001214 0.000000 -0.002561 0.000000
# 2 -0.004675 0.022737 -0.006805 0.000000 0.003560 0.000000
# 3 -0.001214 -0.006805 0.011183 0.000000 0.001368 0.000000
# 4 0.000000 0.000000 0.000000 0.020247 0.000000 -0.003587
# 5 -0.002561 0.003560 0.001368 0.000000 0.027507 0.000000
# 6 0.000000 0.000000 0.000000 -0.003587 0.000000 0.018783
#
#
# Mechanical properties :
#
#
# Convention : Reuss Voigt Hill
#
# Bulk Modulus (GPa) = 60.63679 69.78817 65.21248
# Shear Modulus (GPa) = 35.89383 43.37312 39.63347
#
# Velocity S-wave (km/s) = 3.99724 4.39401 4.20031
# Velocity P-wave (km/s) = 6.94954 7.53717 7.24931
#
# Compressibility (1/GPa) = 0.01649164
#
# Stress axis : x y z
#
# Youngs Moduli (GPa) = 125.66241 43.98033 89.41910
#
# Poissons Ratio (x) = 0.20561 0.10852
# Poissons Ratio (y) = 0.58747 0.60848
# Poissons Ratio (z) = 0.15251 0.29928
#
# Static dielectric constant tensor:
#      x y z
#    x 4.506420 0.000000 0.420520 
#    y 0.000000 3.893640 0.000000 
#    z 0.420520 0.000000 4.158750 
# 
# 
# High freq. dielectric constant tensor:
#      x y z
#    x 1.911050 0.000000 0.037810 
#    y 0.000000 1.854990 0.000000 
#    z 0.037810 0.000000 1.890960 
# 
# From -- ./inp_files/28850.got.cif
#   From: 2010.03.12/outbox.cif.g09.slc.cpg/sg5_15_cif.got.tgz:28850.got - 2010.03.31 09:47:26.
