data_PCOD8049878
_publ_section_title
;
Structure prediction by ZEFSAII (Michael W. Deem and Ramdas Pophale) SiO2 
 PCOD8049878
Probable space group: C 2
;
_chemical_formula_sum "Si O2"
_cell_formula_units_Z 32
_cell_length_a 8.168908
_cell_length_b 23.821339
_cell_length_c 13.857919
_cell_angle_alpha 90.000000
_cell_angle_beta 32.542969
_cell_angle_gamma 90.000000
_cell_volume 1450.626277
_symmetry_space_group_name_H-M "C 2"
_symmetry_group_IT_number 5
_symmetry_cell_setting 'monoclinic'
loop_
_space_group_symop_operation_xyz
x,y,z
-x,y,-z
1/2+x,1/2+y,z
1/2-x,1/2+y,-z
loop_
_atom_site_type_symbol
_atom_site_label
_atom_site_fract_x
_atom_site_fract_y
_atom_site_fract_z
Si Si1 0.858886 0.812600 0.803734
Si Si2 0.384268 0.616189 0.665647
Si Si3 0.733359 0.334108 0.805551
Si Si4 0.160323 0.898975 0.520461
Si Si5 0.643181 0.098777 0.192297
Si Si6 0.685261 0.022052 0.505365
Si Si7 0.621256 0.205005 0.329786
Si Si8 0.846788 0.215470 0.817438
O O1 0.972585 0.759206 0.685558
O O2 0.035429 0.810627 0.816233
O O3 0.956934 0.869612 0.702692
O O4 0.500000 0.812287 0.000000
O O5 0.500000 0.613963 0.500000
O O6 0.541757 0.566492 0.648545
O O7 0.476219 0.675299 0.668559
O O8 0.019498 0.605694 0.832312
O O9 0.906433 0.280166 0.762588
O O10 0.987577 0.379085 0.650556
O O11 0.500000 0.360508 0.000000
O O12 0.000000 0.884490 0.500000
O O13 0.155207 0.964759 0.542513
O O14 0.541367 0.041621 0.296271
O O15 0.526220 0.148927 0.321025
O O16 0.000000 0.099012 0.000000
O O17 0.500000 0.013353 0.500000
O O18 0.500000 0.209246 0.500000
O O19 0.988675 0.203944 0.161850
O O20 0.500000 0.199112 0.000000
#
# Coordination Sequence:
#
# PCOD8049878 Si02
#       8
#     4   4   4   4   4   4   4   4
#     4  12  24  42  65  96 131 169 214 266 322 385
#     4  10  21  38  60  86 121 163 203 250 306 367
#     4  11  24  42  65  95 129 167 212 264 319 383
#     4  12  25  45  68  92 124 167 215 268 324 381
#     4  11  22  39  63  95 128 166 211 265 319 377
#     4  11  24  44  64  88 121 162 213 265 316 381
#     4  12  23  38  63  95 131 172 211 258 318 385
#     4  11  21  36  57  89 125 160 199 250 306 367
#
# _framework density 22.059438
#
# number of rings (size 3 to 8) (size 9 to 14) (size 15 to 20)
#    0.000    0.750    0.000   10.875    0.000    1.500 
#    0.000    4.375    0.000    0.000    0.000    0.000 
#    0.000    0.000    0.000    0.000    0.000    0.000 
#
# Total GULP energy -198426.248601 kJ/mol
# GULP energy per Si atom -12401.640538 kJ/mol
# Density = 2.200923 g / cm^3
# Si number density = 22.059438 Si / 1000 Ang^3
#
#
#
# Elastic Constant Matrix: (Units=GPa)
#
#
# Indices 1 2 3 4 5 6 
#
# 1 109.2454 -2.5706 2.2156 0.0000 -9.5575 0.0000
# 2 -2.5706 108.8293 23.8004 0.0000 6.9663 0.0000
# 3 2.2156 23.8004 81.3911 0.0000 -3.1059 0.0000
# 4 0.0000 0.0000 0.0000 20.6151 0.0000 -7.7323
# 5 -9.5575 6.9663 -3.1059 0.0000 35.1118 0.0000
# 6 0.0000 0.0000 0.0000 -7.7323 0.0000 31.4789
#
#
#
# Elastic Compliance Matrix: (Units=1/GPa)
#
#
# Indices 1 2 3 4 5 6 
#
# 1 0.009380 0.000102 -0.000189 0.000000 0.002516 0.000000
# 2 0.000102 0.009991 -0.003009 0.000000 -0.002221 0.000000
# 3 -0.000189 -0.003009 0.013237 0.000000 0.001716 0.000000
# 4 0.000000 0.000000 0.000000 0.053431 0.000000 0.013124
# 5 0.002516 -0.002221 0.001716 0.000000 0.029758 0.000000
# 6 0.000000 0.000000 0.000000 0.013124 0.000000 0.034991
#
#
# Mechanical properties :
#
#
# Convention : Reuss Voigt Hill
#
# Bulk Modulus (GPa) = 37.85656 38.48406 38.17031
# Shear Modulus (GPa) = 30.15929 35.84251 33.00090
#
# Velocity S-wave (km/s) = 3.70156 4.03527 3.87201
# Velocity P-wave (km/s) = 5.95543 6.26057 6.10990
#
# Compressibility (1/GPa) = 0.02641550
#
# Stress axis : x y z
#
# Youngs Moduli (GPa) = 106.60888 100.08653 75.54613
#
# Poissons Ratio (x) = -0.01019 0.01429
# Poissons Ratio (y) = -0.01086 0.22733
# Poissons Ratio (z) = 0.02016 0.30118
#
# Static dielectric constant tensor:
#      x y z
#    x 4.764560 0.000000 -0.379440 
#    y 0.000000 3.867620 0.000000 
#    z -0.379440 0.000000 4.103870 
# 
# 
# High freq. dielectric constant tensor:
#      x y z
#    x 1.896270 0.000000 -0.018030 
#    y 0.000000 1.859110 0.000000 
#    z -0.018030 0.000000 1.867120 
# 
# From -- ./inp_files/51675.got.cif
#   From: 2010.03.12/outbox.cif.g09.slc.cpg/sg5_26_cif.got.tgz:51675.got - 2010.03.31 09:47:26.
