data_PCOD8049877
_publ_section_title
;
Structure prediction by ZEFSAII (Michael W. Deem and Ramdas Pophale) SiO2 
 PCOD8049877
Probable space group: C 2
;
_chemical_formula_sum "Si O2"
_cell_formula_units_Z 20
_cell_length_a 8.857061
_cell_length_b 5.205568
_cell_length_c 18.283637
_cell_angle_alpha 90.000000
_cell_angle_beta 67.010891
_cell_angle_gamma 90.000000
_cell_volume 776.035279
_symmetry_space_group_name_H-M "C 2"
_symmetry_group_IT_number 5
_symmetry_cell_setting 'monoclinic'
loop_
_space_group_symop_operation_xyz
x,y,z
-x,y,-z
1/2+x,1/2+y,z
1/2-x,1/2+y,-z
loop_
_atom_site_type_symbol
_atom_site_label
_atom_site_fract_x
_atom_site_fract_y
_atom_site_fract_z
Si Si1 0.835872 0.432290 0.406876
Si Si2 0.926828 0.931996 0.434952
Si Si3 0.191603 0.075429 0.970666
Si Si4 0.354329 0.069893 0.786733
Si Si5 0.758275 0.569174 0.269811
O O1 0.965283 0.670548 0.382128
O O2 0.765804 0.401521 0.502829
O O3 0.701825 0.484458 0.365030
O O4 0.939162 0.168614 0.374387
O O5 0.000000 0.970798 0.500000
O O6 0.264411 0.001535 0.878717
O O7 0.281263 0.331387 0.982163
O O8 0.000000 0.134682 0.000000
O O9 0.311178 0.362068 0.773444
O O10 0.547005 0.038869 0.761993
O O11 0.292084 0.858638 0.739949
#
# Coordination Sequence:
#
# PCOD8049877 Si02
#       5
#     4   4   4   4   4
#     4  10  23  37  58  89 114 170 205 274 316 385
#     4  10  21  38  60  83 119 152 226 258 324 376
#     4  12  24  44  72 100 136 175 221 270 326 385
#     4  12  26  45  68 103 134 177 219 272 324 405
#     4  12  26  44  69  96 141 173 223 268 340 389
#
# _framework density 25.772023000000001
#
# number of rings (size 3 to 8) (size 9 to 14) (size 15 to 20)
#    0.000    0.800    0.000    7.200    5.600    0.000 
#    0.000    0.000    0.000    0.000    0.000    0.000 
#    0.000    0.000    0.000    0.000    0.000    0.000 
#
# Total GULP energy -123980.496906 kJ/mol
# GULP energy per Si atom -12398.049691 kJ/mol
# Density = 2.571336 g / cm^3
# Si number density = 25.772023 Si / 1000 Ang^3
#
#
#
# Elastic Constant Matrix: (Units=GPa)
#
#
# Indices 1 2 3 4 5 6 
#
# 1 85.8795 33.2432 -3.8573 0.0000 6.6289 0.0000
# 2 33.2432 219.1877 4.6782 0.0000 27.1215 0.0000
# 3 -3.8573 4.6782 83.8246 0.0000 -6.5356 0.0000
# 4 0.0000 0.0000 0.0000 31.5676 0.0000 8.4455
# 5 6.6289 27.1215 -6.5356 0.0000 33.9666 0.0000
# 6 0.0000 0.0000 0.0000 8.4455 0.0000 10.9654
#
#
#
# Elastic Compliance Matrix: (Units=1/GPa)
#
#
# Indices 1 2 3 4 5 6 
#
# 1 0.012432 -0.001789 0.000603 0.000000 -0.000881 0.000000
# 2 -0.001789 0.005351 -0.000697 0.000000 -0.004057 0.000000
# 3 0.000603 -0.000697 0.012214 0.000000 0.002789 0.000000
# 4 0.000000 0.000000 0.000000 0.039900 0.000000 -0.030730
# 5 -0.000881 -0.004057 0.002789 0.000000 0.033389 0.000000
# 6 0.000000 0.000000 0.000000 -0.030730 0.000000 0.114864
#
#
# Mechanical properties :
#
#
# Convention : Reuss Voigt Hill
#
# Bulk Modulus (GPa) = 38.12483 50.77999 44.45241
# Shear Modulus (GPa) = 21.67704 38.95511 30.31607
#
# Velocity S-wave (km/s) = 2.90333 3.89205 3.43347
# Velocity P-wave (km/s) = 5.10532 6.32011 5.74491
#
# Compressibility (1/GPa) = 0.02622962
#
# Stress axis : x y z
#
# Youngs Moduli (GPa) = 80.43769 186.89527 81.87450
#
# Poissons Ratio (x) = 0.33441 -0.04939
# Poissons Ratio (y) = 0.14393 0.05709
# Poissons Ratio (z) = -0.04852 0.13032
#
# Static dielectric constant tensor:
#      x y z
#    x 5.293240 0.000000 -1.329220 
#    y 0.000000 5.230760 0.000000 
#    z -1.329220 0.000000 7.716520 
# 
# 
# High freq. dielectric constant tensor:
#      x y z
#    x 2.056590 0.000000 -0.014280 
#    y 0.000000 2.056760 0.000000 
#    z -0.014280 0.000000 2.035740 
# 
# From -- ./inp_files/59141.got.cif
#   From: 2010.03.12/outbox.cif.g09.slc.cpg/sg5_30_cif.got.tgz:59141.got - 2010.03.31 09:47:26.
