data_PCOD8049972
_publ_section_title
;
Structure prediction by ZEFSAII (Michael W. Deem and Ramdas Pophale) SiO2 
 PCOD8049972
Probable space group: C 2
;
_chemical_formula_sum "Si O2"
_cell_formula_units_Z 20
_cell_length_a 4.881242
_cell_length_b 13.406997
_cell_length_c 12.389492
_cell_angle_alpha 90.000000
_cell_angle_beta 91.349763
_cell_angle_gamma 90.000000
_cell_volume 810.578033
_symmetry_space_group_name_H-M "C 2"
_symmetry_group_IT_number 5
_symmetry_cell_setting 'monoclinic'
loop_
_space_group_symop_operation_xyz
x,y,z
-x,y,-z
1/2+x,1/2+y,z
1/2-x,1/2+y,-z
loop_
_atom_site_type_symbol
_atom_site_label
_atom_site_fract_x
_atom_site_fract_y
_atom_site_fract_z
Si Si1 0.992213 0.625000 0.882329
Si Si2 0.025069 0.117684 0.255493
Si Si3 0.960438 0.394363 0.117971
Si Si4 0.505331 0.388164 0.741589
Si Si5 0.744064 0.248129 0.431694
O O1 0.193336 0.669188 0.789083
O O2 0.679595 0.629722 0.845660
O O3 0.094041 0.511409 0.897485
O O4 0.000000 0.678089 0.000000
O O5 0.900108 0.168086 0.359661
O O6 0.067282 0.002465 0.285483
O O7 0.189767 0.372663 0.210792
O O8 0.687952 0.344477 0.164792
O O9 0.000000 0.345707 0.000000
O O10 0.433690 0.331293 0.631545
O O11 0.500000 0.195451 0.500000
O O12 0.000000 0.296924 0.500000
#
# Coordination Sequence:
#
# PCOD8049972 Si02
#       5
#     4   4   4   4   4
#     4   9  17  33  61  94 127 163 201 247 311 389
#     4  10  21  39  62  91 126 164 210 260 317 386
#     4   9  17  33  61  94 127 163 201 247 311 389
#     4  10  21  39  62  91 126 164 210 260 317 386
#     4  12  26  44  64  88 126 170 220 284 328 362
#
# _framework density 24.673749999999998
#
# number of rings (size 3 to 8) (size 9 to 14) (size 15 to 20)
#    0.000    2.000    0.000    3.600    0.000    5.600 
#    0.000    6.000    0.000    0.000    0.000    0.000 
#    0.000    0.000    0.000    0.000    0.000    0.000 
#
# Total GULP energy -123937.847833 kJ/mol
# GULP energy per Si atom -12393.784783 kJ/mol
# Density = 2.461759 g / cm^3
# Si number density = 24.673750 Si / 1000 Ang^3
#
#
#
# Elastic Constant Matrix: (Units=GPa)
#
#
# Indices 1 2 3 4 5 6 
#
# 1 135.4743 -0.0497 44.8603 0.0000 -21.8420 0.0000
# 2 -0.0497 39.3189 31.9948 0.0000 -5.8826 0.0000
# 3 44.8603 31.9948 144.1679 0.0000 -12.0092 0.0000
# 4 0.0000 0.0000 0.0000 11.8383 0.0000 0.0018
# 5 -21.8420 -5.8826 -12.0092 0.0000 48.7577 0.0000
# 6 0.0000 0.0000 0.0000 0.0018 0.0000 17.9662
#
#
#
# Elastic Compliance Matrix: (Units=1/GPa)
#
#
# Indices 1 2 3 4 5 6 
#
# 1 0.009032 0.003168 -0.003211 0.000000 0.003638 0.000000
# 2 0.003168 0.032360 -0.007886 0.000000 0.003381 0.000000
# 3 -0.003211 -0.007886 0.009685 0.000000 -0.000004 0.000000
# 4 0.000000 0.000000 0.000000 0.084471 0.000000 -0.000009
# 5 0.003638 0.003381 -0.000004 0.000000 0.022546 0.000000
# 6 0.000000 0.000000 0.000000 -0.000009 0.000000 0.055660
#
#
# Mechanical properties :
#
#
# Convention : Reuss Voigt Hill
#
# Bulk Modulus (GPa) = 28.39224 52.50798 40.45011
# Shear Modulus (GPa) = 20.71670 31.85615 26.28643
#
# Velocity S-wave (km/s) = 2.90077 3.59708 3.26753
# Velocity P-wave (km/s) = 4.76984 6.21121 5.53762
#
# Compressibility (1/GPa) = 0.03522089
#
# Stress axis : x y z
#
# Youngs Moduli (GPa) = 110.71405 30.90260 103.25128
#
# Poissons Ratio (x) = -0.09791 0.33150
# Poissons Ratio (y) = -0.35077 0.81421
# Poissons Ratio (z) = 0.35546 0.24369
#
# Static dielectric constant tensor:
#      x y z
#    x 4.689390 0.000000 -0.221920 
#    y 0.000000 4.323930 0.000000 
#    z -0.221920 0.000000 4.595570 
# 
# 
# High freq. dielectric constant tensor:
#      x y z
#    x 2.001430 0.000000 -0.007670 
#    y 0.000000 1.962480 0.000000 
#    z -0.007670 0.000000 1.986340 
# 
# From -- ./inp_files/33256.got.cif
#   From: 2010.03.12/outbox.cif.g09.slc.cpg/sg5_17_cif.got.tgz:33256.got - 2010.03.31 09:47:26.
