data_PCOD8049132
_publ_section_title
;
Structure prediction by ZEFSAII (Michael W. Deem and Ramdas Pophale) SiO2 
 PCOD8049132
Probable space group: C 2
;
_chemical_formula_sum "Si O2"
_cell_formula_units_Z 30
_cell_length_a 11.205272
_cell_length_b 18.409009
_cell_length_c 13.469112
_cell_angle_alpha 90.000000
_cell_angle_beta 146.296118
_cell_angle_gamma 90.000000
_cell_volume 1541.725742
_symmetry_space_group_name_H-M "C 2"
_symmetry_group_IT_number 5
_symmetry_cell_setting 'monoclinic'
loop_
_space_group_symop_operation_xyz
x,y,z
-x,y,-z
1/2+x,1/2+y,z
1/2-x,1/2+y,-z
loop_
_atom_site_type_symbol
_atom_site_label
_atom_site_fract_x
_atom_site_fract_y
_atom_site_fract_z
Si Si1 0.430865 0.948150 0.792420
Si Si2 0.701397 0.632636 0.201425
Si Si3 0.654002 0.448164 0.792457
Si Si4 0.138928 0.205393 0.499962
Si Si5 0.966783 0.602402 0.205606
Si Si6 0.500000 0.248928 0.500000
Si Si7 0.727787 0.346791 0.499957
Si Si8 0.055731 0.102417 0.794515
O O1 0.247987 0.932398 0.747996
O O2 0.401851 0.896513 0.677327
O O3 0.404778 0.031052 0.738826
O O4 0.667455 0.934279 0.999981
O O5 0.857273 0.585855 0.237358
O O6 0.821312 0.702962 0.321437
O O7 0.617286 0.585837 0.237253
O O8 0.500000 0.662495 0.000000
O O9 0.452744 0.396569 0.677331
O O10 0.573056 0.531082 0.738938
O O11 0.373718 0.170281 0.675876
O O12 0.158579 0.292825 0.500001
O O13 0.000000 0.189068 0.500000
O O14 0.021761 0.170307 0.323971
O O15 0.787079 0.623256 0.000070
O O16 0.614961 0.296370 0.499780
#
# Coordination Sequence:
#
# PCOD8049132 Si02
#       8
#     4   4   4   4   4   2   4   4
#     4  10  21  37  59  86 115 150 191 235 283 336
#     4  10  20  36  62  90 116 147 186 236 288 337
#     4  10  21  37  59  86 115 150 191 235 283 336
#     4  12  25  40  59  84 116 154 194 238 289 342
#     4  10  21  39  63  89 115 148 193 240 285 336
#     4  12  20  36  58  86 116 150 184 236 290 340
#     4  12  23  38  56  83 116 150 191 236 286 341
#     4  10  21  39  63  89 115 148 193 240 285 336
#
# _framework density 19.458714000000001
#
# number of rings (size 3 to 8) (size 9 to 14) (size 15 to 20)
#    0.000    1.333    4.000    1.600    0.000    3.733 
#    2.400    0.000    0.000    0.000    0.000    0.000 
#    0.000    0.000    0.000    0.000    0.000    0.000 
#
# Total GULP energy -186004.626227 kJ/mol
# GULP energy per Si atom -12400.308415 kJ/mol
# Density = 1.941442 g / cm^3
# Si number density = 19.458714 Si / 1000 Ang^3
#
#
#
# Elastic Constant Matrix: (Units=GPa)
#
#
# Indices 1 2 3 4 5 6 
#
# 1 88.7353 21.4786 32.9004 0.0000 0.7141 0.0000
# 2 21.4786 101.3346 59.8998 0.0000 -2.4720 0.0000
# 3 32.9004 59.8998 112.3815 0.0001 -2.2443 0.0003
# 4 0.0000 0.0000 0.0001 28.9147 0.0001 0.8512
# 5 0.7141 -2.4720 -2.2443 0.0001 22.4890 0.0001
# 6 0.0000 0.0000 0.0003 0.8512 0.0001 41.3068
#
#
#
# Elastic Compliance Matrix: (Units=1/GPa)
#
#
# Indices 1 2 3 4 5 6 
#
# 1 0.012693 -0.000736 -0.003340 0.000000 -0.000817 0.000000
# 2 -0.000736 0.014465 -0.007477 0.000000 0.000867 0.000000
# 3 -0.003340 -0.007477 0.013875 0.000000 0.000669 0.000000
# 4 0.000000 0.000000 0.000000 0.034605 0.000000 -0.000713
# 5 -0.000817 0.000867 0.000669 0.000000 0.044654 0.000000
# 6 0.000000 0.000000 0.000000 -0.000713 0.000000 0.024224
#
#
# Mechanical properties :
#
#
# Convention : Reuss Voigt Hill
#
# Bulk Modulus (GPa) = 55.78366 59.00098 57.39232
# Shear Modulus (GPa) = 28.80220 31.08695 29.94458
#
# Velocity S-wave (km/s) = 3.85147 4.00132 3.92711
# Velocity P-wave (km/s) = 6.96480 7.19266 7.07964
#
# Compressibility (1/GPa) = 0.01792640
#
# Stress axis : x y z
#
# Youngs Moduli (GPa) = 78.78656 69.13066 72.07299
#
# Poissons Ratio (x) = 0.05088 0.24071
# Poissons Ratio (y) = 0.05799 0.53891
# Poissons Ratio (z) = 0.26314 0.51691
#
# Static dielectric constant tensor:
#      x y z
#    x 3.667000 0.000000 -0.002720 
#    y 0.000000 3.506000 0.000000 
#    z -0.002720 0.000000 3.704110 
# 
# 
# High freq. dielectric constant tensor:
#      x y z
#    x 1.754490 0.000000 -0.001250 
#    y 0.000000 1.745180 0.000000 
#    z -0.001250 0.000000 1.774080 
# 
# From -- ./inp_files/53416.got.cif
#   From: 2010.03.12/outbox.cif.g09.slc.cpg/sg5_27_cif.got.tgz:53416.got - 2010.03.31 09:47:26.
