data_PCOD8049998
_publ_section_title
;
Structure prediction by ZEFSAII (Michael W. Deem and Ramdas Pophale) SiO2 
 PCOD8049998
Probable space group: C 2
;
_chemical_formula_sum "Si O2"
_cell_formula_units_Z 22
_cell_length_a 13.312926
_cell_length_b 13.690343
_cell_length_c 10.580348
_cell_angle_alpha 90.000000
_cell_angle_beta 147.770095
_cell_angle_gamma 90.000000
_cell_volume 1028.428095
_symmetry_space_group_name_H-M "C 2"
_symmetry_group_IT_number 5
_symmetry_cell_setting 'monoclinic'
loop_
_space_group_symop_operation_xyz
x,y,z
-x,y,-z
1/2+x,1/2+y,z
1/2-x,1/2+y,-z
loop_
_atom_site_type_symbol
_atom_site_label
_atom_site_fract_x
_atom_site_fract_y
_atom_site_fract_z
Si Si1 0.191749 0.601890 0.331996
Si Si2 0.500000 0.448913 0.000000
Si Si3 0.293471 0.016426 0.907883
Si Si4 0.558484 0.814016 0.917482
Si Si5 0.830342 0.307876 0.422641
Si Si6 0.448959 0.600040 0.145735
O O1 0.240572 0.519388 0.278837
O O2 0.220753 0.705432 0.292135
O O3 0.323837 0.600960 0.596531
O O4 0.979684 0.577587 0.148483
O O5 0.328040 0.388496 0.762801
O O6 0.604478 0.517683 0.010188
O O7 0.124557 0.072469 0.794765
O O8 0.296619 0.902668 0.955890
O O9 0.398554 0.822410 0.639622
O O10 0.640035 0.703984 0.992630
O O11 0.500000 0.830625 0.000000
O O12 0.000000 0.315188 0.500000
#
# Coordination Sequence:
#
# PCOD8049998 Si02
#       6
#     4   2   4   4   4   4
#     4  10  21  39  64  91 124 165 218 263 309 386
#     4  12  24  38  64  94 130 172 218 258 324 394
#     4  11  21  39  69  91 124 170 221 255 321 389
#     4  11  22  43  66  93 135 167 206 277 324 366
#     4  11  24  42  66  94 133 173 216 267 325 390
#     4  11  24  40  63  93 130 169 210 267 326 381
#
# _framework density 21.391869
#
# number of rings (size 3 to 8) (size 9 to 14) (size 15 to 20)
#    0.000    1.091    2.727    6.000    0.000    1.455 
#    0.000    0.000    0.000    0.000    0.000    0.000 
#    0.000    0.000    0.000    0.000    0.000    0.000 
#
# Total GULP energy -136292.086981 kJ/mol
# GULP energy per Si atom -12390.189726 kJ/mol
# Density = 2.134318 g / cm^3
# Si number density = 21.391869 Si / 1000 Ang^3
#
#
#
# Elastic Constant Matrix: (Units=GPa)
#
#
# Indices 1 2 3 4 5 6 
#
# 1 74.5540 21.9492 30.7120 0.0000 -7.4118 0.0000
# 2 21.9492 162.5506 39.4797 0.0000 -2.1152 0.0000
# 3 30.7120 39.4797 64.2476 0.0000 -16.3417 0.0000
# 4 0.0000 0.0000 0.0000 18.7269 0.0000 -13.6658
# 5 -7.4118 -2.1152 -16.3417 0.0000 31.8297 0.0000
# 6 0.0000 0.0000 0.0000 -13.6658 0.0000 22.2579
#
#
#
# Elastic Compliance Matrix: (Units=1/GPa)
#
#
# Indices 1 2 3 4 5 6 
#
# 1 0.016722 -0.000364 -0.007805 0.000000 -0.000137 0.000000
# 2 -0.000364 0.007360 -0.004883 0.000000 -0.002103 0.000000
# 3 -0.007805 -0.004883 0.025019 0.000000 0.010703 0.000000
# 4 0.000000 0.000000 0.000000 0.096745 0.000000 0.059399
# 5 -0.000137 -0.002103 0.010703 0.000000 0.036740 0.000000
# 6 0.000000 0.000000 0.000000 0.059399 0.000000 0.081398
#
#
# Mechanical properties :
#
#
# Convention : Reuss Voigt Hill
#
# Bulk Modulus (GPa) = 43.48570 53.95932 48.72251
# Shear Modulus (GPa) = 16.79242 28.51033 22.65137
#
# Velocity S-wave (km/s) = 2.80481 3.65467 3.25757
# Velocity P-wave (km/s) = 5.55532 6.56413 6.08068
#
# Compressibility (1/GPa) = 0.02299607
#
# Stress axis : x y z
#
# Youngs Moduli (GPa) = 59.80257 135.87353 39.97009
#
# Poissons Ratio (x) = 0.04948 0.31195
# Poissons Ratio (y) = 0.02178 0.19519
# Poissons Ratio (z) = 0.46673 0.66351
#
# Static dielectric constant tensor:
#      x y z
#    x 3.734880 0.000000 -0.065080 
#    y 0.000000 4.363640 0.000000 
#    z -0.065080 0.000000 3.807850 
# 
# 
# High freq. dielectric constant tensor:
#      x y z
#    x 1.825490 0.000000 -0.017900 
#    y 0.000000 1.862220 0.000000 
#    z -0.017900 0.000000 1.830170 
# 
# From -- ./inp_files/42730.got.cif
#   From: 2010.03.12/outbox.cif.g09.slc.cpg/sg5_22_cif.got.tgz:42730.got - 2010.03.31 09:47:26.
