data_PCOD8049729
_publ_section_title
;
Structure prediction by ZEFSAII (Michael W. Deem and Ramdas Pophale) SiO2 
 PCOD8049729
Probable space group: C 2
;
_chemical_formula_sum "Si O2"
_cell_formula_units_Z 30
_cell_length_a 15.576958
_cell_length_b 8.169065
_cell_length_c 11.088178
_cell_angle_alpha 90.000000
_cell_angle_beta 116.232929
_cell_angle_gamma 90.000000
_cell_volume 1265.638862
_symmetry_space_group_name_H-M "C 2"
_symmetry_group_IT_number 5
_symmetry_cell_setting 'monoclinic'
loop_
_space_group_symop_operation_xyz
x,y,z
-x,y,-z
1/2+x,1/2+y,z
1/2-x,1/2+y,-z
loop_
_atom_site_type_symbol
_atom_site_label
_atom_site_fract_x
_atom_site_fract_y
_atom_site_fract_z
Si Si1 0.648051 0.077780 0.394446
Si Si2 0.501358 0.927784 0.135784
Si Si3 0.895087 0.265630 0.270534
Si Si4 0.523871 0.428103 0.645526
Si Si5 0.500000 0.017074 0.500000
Si Si6 0.828279 0.939563 0.648940
Si Si7 0.866655 0.716224 0.110468
Si Si8 0.781360 0.961900 0.884671
O O1 0.679334 0.244337 0.350533
O O2 0.605370 0.963219 0.260712
O O3 0.564840 0.116471 0.442660
O O4 0.741204 0.999546 0.512178
O O5 0.453036 0.784583 0.182546
O O6 0.437806 0.092375 0.088677
O O7 0.500000 0.857296 0.000000
O O8 0.785233 0.303750 0.177717
O O9 0.925843 0.401695 0.385319
O O10 0.906063 0.083480 0.327501
O O11 0.500000 0.358356 0.500000
O O12 0.429937 0.491803 0.656985
O O13 0.580292 0.275589 0.736355
O O14 0.826003 0.013107 0.783378
O O15 0.769460 0.621028 0.088176
O O16 0.856101 0.882719 0.025309
#
# Coordination Sequence:
#
# PCOD8049729 Si02
#       8
#     4   4   4   4   2   4   4   4
#     4  11  25  44  71 107 139 189 236 298 362 417
#     4  10  22  45  70  97 142 187 232 280 369 427
#     4  10  22  44  69 100 137 188 231 290 356 418
#     4  12  28  46  70 106 146 193 241 292 369 422
#     4  10  20  44  74  90 148 184 232 288 364 428
#     4  12  28  42  72 109 143 185 241 306 345 433
#     4  11  25  48  74 104 140 195 230 302 365 434
#     4  11  25  49  74 105 142 185 248 296 361 425
#
# _framework density 23.703446
#
# number of rings (size 3 to 8) (size 9 to 14) (size 15 to 20)
#    0.000    1.067    3.333    1.600    8.400    0.000 
#   12.000    0.000    0.000    0.000    0.000    0.000 
#    0.000    0.000    0.000    0.000    0.000    0.000 
#
# Total GULP energy -185999.203011 kJ/mol
# GULP energy per Si atom -12399.946867 kJ/mol
# Density = 2.364950 g / cm^3
# Si number density = 23.703446 Si / 1000 Ang^3
#
#
#
# Elastic Constant Matrix: (Units=GPa)
#
#
# Indices 1 2 3 4 5 6 
#
# 1 46.7036 13.9205 20.7248 0.0000 -3.9487 0.0000
# 2 13.9205 42.8914 8.0237 0.0000 -0.8616 0.0000
# 3 20.7248 8.0237 124.5160 0.0000 -21.2919 0.0000
# 4 0.0000 0.0000 0.0000 15.2880 0.0000 29.9673
# 5 -3.9487 -0.8616 -21.2919 0.0000 39.0362 0.0000
# 6 0.0000 0.0000 0.0000 29.9673 0.0000 11.6909
#
#
#
# Elastic Compliance Matrix: (Units=1/GPa)
#
#
# Indices 1 2 3 4 5 6 
#
# 1 0.025312 -0.007522 -0.003660 0.000000 0.000398 0.000000
# 2 -0.007522 0.025839 -0.000491 0.000000 -0.000459 0.000000
# 3 -0.003660 -0.000491 0.009492 0.000000 0.004796 0.000000
# 4 0.000000 0.000000 0.000000 -0.016253 0.000000 0.041661
# 5 0.000398 -0.000459 0.004796 0.000000 0.028263 0.000000
# 6 0.000000 0.000000 0.000000 0.041661 0.000000 -0.021254
#
#
# Mechanical properties :
#
#
# Convention : Reuss Voigt Hill
#
# Bulk Modulus (GPa) = 26.81337 33.27211 30.04274
# Shear Modulus (GPa) = 57.35366 24.63249 40.99308
#
# Velocity S-wave (km/s) = 4.92431 3.22715 4.16313
# Velocity P-wave (km/s) = 6.60821 5.28709 5.98422
#
# Compressibility (1/GPa) = 0.03729482
#
# Stress axis : x y z
#
# Youngs Moduli (GPa) = 39.50767 38.70149 105.35045
#
# Poissons Ratio (x) = 0.29112 0.38560
# Poissons Ratio (y) = 0.29719 0.05177
# Poissons Ratio (z) = 0.14460 0.01902
#
# Static dielectric constant tensor:
#      x y z
#    x 4.242650 0.000000 -0.277530 
#    y 0.000000 3.959450 0.000000 
#    z -0.277530 0.000000 6.319880 
# 
# 
# High freq. dielectric constant tensor:
#      x y z
#    x 1.927880 0.000000 0.001190 
#    y 0.000000 1.936110 0.000000 
#    z 0.001190 0.000000 1.958680 
# 
# From -- ./inp_files/42052.got.cif
#   From: 2010.03.12/outbox.cif.g09.slc.cpg/sg5_22_cif.got.tgz:42052.got - 2010.03.31 09:47:26.
