data_PCOD8049431
_publ_section_title
;
Structure prediction by ZEFSAII (Michael W. Deem and Ramdas Pophale) SiO2 
 PCOD8049431
Probable space group: C 2
;
_chemical_formula_sum "Si O2"
_cell_formula_units_Z 32
_cell_length_a 11.610472
_cell_length_b 15.467474
_cell_length_c 17.258563
_cell_angle_alpha 90.000000
_cell_angle_beta 30.777896
_cell_angle_gamma 90.000000
_cell_volume 1585.984862
_symmetry_space_group_name_H-M "C 2"
_symmetry_group_IT_number 5
_symmetry_cell_setting 'monoclinic'
loop_
_space_group_symop_operation_xyz
x,y,z
-x,y,-z
1/2+x,1/2+y,z
1/2-x,1/2+y,-z
loop_
_atom_site_type_symbol
_atom_site_label
_atom_site_fract_x
_atom_site_fract_y
_atom_site_fract_z
Si Si1 0.259072 0.832930 0.838417
Si Si2 0.938437 0.508671 0.719183
Si Si3 0.724952 0.787448 0.344553
Si Si4 0.285847 0.836137 0.171607
Si Si5 0.987748 0.231876 0.181532
Si Si6 0.864765 0.683142 0.848055
Si Si7 0.245763 0.564398 0.328208
Si Si8 0.643497 0.438456 0.617738
O O1 0.316698 0.830442 0.714567
O O2 0.393218 0.760535 0.808461
O O3 0.333043 0.927515 0.826155
O O4 0.000000 0.815206 0.000000
O O5 0.950198 0.589595 0.770811
O O6 0.753429 0.536103 0.761658
O O7 0.185054 0.480526 0.544169
O O8 0.500000 0.735450 0.500000
O O9 0.749650 0.859337 0.396980
O O10 0.933359 0.723428 0.218797
O O11 0.374985 0.815476 0.206300
O O12 0.195272 0.745637 0.188806
O O13 0.087886 0.907487 0.289878
O O14 0.500000 0.872594 0.000000
O O15 0.792053 0.165080 0.315549
O O16 0.153505 0.179276 0.027957
O O17 0.420714 0.509792 0.279837
O O18 0.000000 0.541109 0.500000
#
# Coordination Sequence:
#
# PCOD8049431 Si02
#       8
#     4   4   4   4   4   4   4   4
#     4  12  25  40  64  97 131 168 218 267 326 394
#     4  11  22  39  66  98 123 166 223 274 317 379
#     4  11  20  41  68  90 130 174 208 268 330 391
#     4   9  20  38  65  89 126 172 211 263 333 384
#     4  11  23  41  61  96 130 168 218 268 323 395
#     4  10  22  39  64  94 127 166 222 273 322 381
#     4  10  21  37  62  92 126 162 218 268 315 379
#     4  10  20  39  64  98 125 160 222 269 321 386
#
# _framework density 20.176738
#
# number of rings (size 3 to 8) (size 9 to 14) (size 15 to 20)
#    0.000    1.500    5.000    0.375    1.750    3.000 
#    0.000    3.125    0.000    0.000    0.000    0.000 
#    0.000    0.000    0.000    0.000    0.000    0.000 
#
# Total GULP energy -198339.082401 kJ/mol
# GULP energy per Si atom -12396.192650 kJ/mol
# Density = 2.013081 g / cm^3
# Si number density = 20.176738 Si / 1000 Ang^3
#
#
#
# Elastic Constant Matrix: (Units=GPa)
#
#
# Indices 1 2 3 4 5 6 
#
# 1 75.6595 36.7008 34.9964 0.0050 -11.6348 -0.0094
# 2 36.7008 92.9347 27.7403 -0.0281 -6.1855 -0.0038
# 3 34.9964 27.7403 61.9449 -0.1000 -14.7462 -0.0254
# 4 0.0050 -0.0281 -0.1000 34.5529 0.0296 -4.5813
# 5 -11.6348 -6.1855 -14.7462 0.0296 24.8330 0.0135
# 6 -0.0094 -0.0038 -0.0254 -4.5813 0.0135 26.5787
#
#
#
# Elastic Compliance Matrix: (Units=1/GPa)
#
#
# Indices 1 2 3 4 5 6 
#
# 1 0.020061 -0.005256 -0.008215 -0.000035 0.003211 -0.000009
# 2 -0.005256 0.013799 -0.003468 0.000003 -0.001085 -0.000002
# 3 -0.008215 -0.003468 0.024709 0.000065 0.009959 0.000026
# 4 -0.000035 0.000003 0.000065 0.029618 -0.000015 0.005105
# 5 0.003211 -0.001085 0.009959 -0.000015 0.047417 -0.000016
# 6 -0.000009 -0.000002 0.000026 0.005105 -0.000016 0.038504
#
#
# Mechanical properties :
#
#
# Convention : Reuss Voigt Hill
#
# Bulk Modulus (GPa) = 40.50372 47.71268 44.10820
# Shear Modulus (GPa) = 23.12493 25.93304 24.52898
#
# Velocity S-wave (km/s) = 3.38911 3.58899 3.49048
# Velocity P-wave (km/s) = 5.95255 6.39321 6.17681
#
# Compressibility (1/GPa) = 0.02468909
#
# Stress axis : x y z
#
# Youngs Moduli (GPa) = 49.84911 72.46900 40.47148
#
# Poissons Ratio (x) = 0.38091 0.33248
# Poissons Ratio (y) = 0.26202 0.14037
# Poissons Ratio (z) = 0.40952 0.25134
#
# Static dielectric constant tensor:
#      x y z
#    x 3.735110 -0.000020 -0.066200 
#    y -0.000020 3.481760 0.000000 
#    z -0.066200 0.000000 3.664350 
# 
# 
# High freq. dielectric constant tensor:
#      x y z
#    x 1.779790 0.000000 -0.006100 
#    y 0.000000 1.773590 0.000010 
#    z -0.006100 0.000010 1.787330 
# 
# From -- ./inp_files/44956.got.cif
#   From: 2010.03.12/outbox.cif.g09.slc.cpg/sg5_23_cif.got.tgz:44956.got - 2010.03.31 09:47:26.
