data_PCOD8049554
_publ_section_title
;
Structure prediction by ZEFSAII (Michael W. Deem and Ramdas Pophale) SiO2 
 PCOD8049554
Probable space group: C 2
;
_chemical_formula_sum "Si O2"
_cell_formula_units_Z 22
_cell_length_a 21.692316
_cell_length_b 8.534296
_cell_length_c 9.736200
_cell_angle_alpha 90.000000
_cell_angle_beta 147.836876
_cell_angle_gamma 90.000000
_cell_volume 959.500746
_symmetry_space_group_name_H-M "C 2"
_symmetry_group_IT_number 5
_symmetry_cell_setting 'monoclinic'
loop_
_space_group_symop_operation_xyz
x,y,z
-x,y,-z
1/2+x,1/2+y,z
1/2-x,1/2+y,-z
loop_
_atom_site_type_symbol
_atom_site_label
_atom_site_fract_x
_atom_site_fract_y
_atom_site_fract_z
Si Si1 0.516342 0.761660 0.776786
Si Si2 0.000000 0.034994 0.000000
Si Si3 0.355783 0.255064 0.790675
Si Si4 0.216880 0.267071 0.780358
Si Si5 0.752033 0.619544 0.117471
Si Si6 0.439308 0.106393 0.692327
O O1 0.491280 0.640227 0.849375
O O2 0.422547 0.747898 0.475257
O O3 0.499797 0.937111 0.802864
O O4 0.645352 0.730576 0.962171
O O5 0.882078 0.929215 0.781959
O O6 0.239964 0.236417 0.661224
O O7 0.355823 0.124393 0.669740
O O8 0.458610 0.230524 0.096128
O O9 0.272233 0.436356 0.915295
O O10 0.276399 0.151304 0.001972
O O11 0.867132 0.655991 0.422040
#
# Coordination Sequence:
#
# PCOD8049554 Si02
#       6
#     4   2   4   4   4   4
#     4  11  23  42  68 100 129 174 226 276 331 400
#     4  10  20  40  68  96 132 170 222 276 334 388
#     4  10  22  45  62 103 135 171 221 280 334 392
#     4  11  26  44  67  96 139 172 228 272 332 399
#     4  11  25  46  65  99 133 184 218 274 334 403
#     4   9  23  44  67  96 134 172 221 274 334 393
#
# _framework density 22.928591999999998
#
# number of rings (size 3 to 8) (size 9 to 14) (size 15 to 20)
#    0.000    1.818    1.818    1.636    5.091    3.636 
#    3.273    0.000    0.000    0.000    0.000    0.000 
#    0.000    0.000    0.000    0.000    0.000    0.000 
#
# Total GULP energy -136296.655171 kJ/mol
# GULP energy per Si atom -12390.605016 kJ/mol
# Density = 2.287641 g / cm^3
# Si number density = 22.928592 Si / 1000 Ang^3
#
#
#
# Elastic Constant Matrix: (Units=GPa)
#
#
# Indices 1 2 3 4 5 6 
#
# 1 59.2457 7.9807 -18.5964 0.0000 -0.8361 0.0000
# 2 7.9807 77.8453 9.6162 0.0000 2.2396 0.0000
# 3 -18.5964 9.6162 67.5398 0.0000 -1.2221 0.0000
# 4 0.0000 0.0000 0.0000 30.4253 0.0000 -8.7927
# 5 -0.8361 2.2396 -1.2221 0.0000 30.6004 0.0000
# 6 0.0000 0.0000 0.0000 -8.7927 0.0000 36.6960
#
#
#
# Elastic Compliance Matrix: (Units=1/GPa)
#
#
# Indices 1 2 3 4 5 6 
#
# 1 0.019021 -0.002673 0.005635 0.000000 0.000940 0.000000
# 2 -0.002673 0.013484 -0.002677 0.000000 -0.001167 0.000000
# 3 0.005635 -0.002677 0.016757 0.000000 0.001019 0.000000
# 4 0.000000 0.000000 0.000000 0.035313 0.000000 0.008461
# 5 0.000940 -0.001167 0.001019 0.000000 0.032831 0.000000
# 6 0.000000 0.000000 0.000000 0.008461 0.000000 0.029278
#
#
# Mechanical properties :
#
#
# Convention : Reuss Voigt Hill
#
# Bulk Modulus (GPa) = 20.06753 22.51464 21.29108
# Shear Modulus (GPa) = 30.72656 33.25303 31.98979
#
# Velocity S-wave (km/s) = 3.66471 3.81239 3.73928
# Velocity P-wave (km/s) = 5.16507 5.40554 5.28667
#
# Compressibility (1/GPa) = 0.04983175
#
# Stress axis : x y z
#
# Youngs Moduli (GPa) = 52.57375 74.16032 59.67591
#
# Poissons Ratio (x) = 0.19824 -0.33626
# Poissons Ratio (y) = 0.14054 0.15975
# Poissons Ratio (z) = -0.29624 0.19853
#
# Static dielectric constant tensor:
#      x y z
#    x 4.362190 0.000000 -0.112320 
#    y 0.000000 4.078700 0.000000 
#    z -0.112320 0.000000 4.036770 
# 
# 
# High freq. dielectric constant tensor:
#      x y z
#    x 1.906150 0.000000 -0.006830 
#    y 0.000000 1.903060 0.000000 
#    z -0.006830 0.000000 1.904520 
# 
# From -- ./inp_files/29065.got.cif
#   From: 2010.03.12/outbox.cif.g09.slc.cpg/sg5_15_cif.got.tgz:29065.got - 2010.03.31 09:47:26.
