data_PCOD8049364
_publ_section_title
;
Structure prediction by ZEFSAII (Michael W. Deem and Ramdas Pophale) SiO2 
 PCOD8049364
Probable space group: C 2
;
_chemical_formula_sum "Si O2"
_cell_formula_units_Z 28
_cell_length_a 17.171465
_cell_length_b 8.822473
_cell_length_c 13.889168
_cell_angle_alpha 90.000000
_cell_angle_beta 40.355576
_cell_angle_gamma 90.000000
_cell_volume 1362.489957
_symmetry_space_group_name_H-M "C 2"
_symmetry_group_IT_number 5
_symmetry_cell_setting 'monoclinic'
loop_
_space_group_symop_operation_xyz
x,y,z
-x,y,-z
1/2+x,1/2+y,z
1/2-x,1/2+y,-z
loop_
_atom_site_type_symbol
_atom_site_label
_atom_site_fract_x
_atom_site_fract_y
_atom_site_fract_z
Si Si1 0.440121 0.413630 0.460593
Si Si2 0.708567 0.993541 0.771532
Si Si3 0.974298 0.267784 0.124485
Si Si4 0.675536 0.561231 0.600714
Si Si5 0.585318 0.231195 0.179574
Si Si6 0.691220 0.931703 0.004464
Si Si7 0.342924 0.239629 0.314756
O O1 0.500000 0.485548 0.500000
O O2 0.304524 0.383185 0.626443
O O3 0.426259 0.532776 0.385969
O O4 0.515349 0.268617 0.347616
O O5 0.706882 0.168800 0.737505
O O6 0.580758 0.927250 0.859842
O O7 0.730889 0.001555 0.864362
O O8 0.879423 0.174263 0.272249
O O9 0.091272 0.302581 0.078892
O O10 0.000000 0.176987 0.000000
O O11 0.712591 0.406029 0.619402
O O12 0.797674 0.631662 0.444284
O O13 0.488342 0.246244 0.184564
O O14 0.641701 0.061458 0.123818
O O15 0.691574 0.352336 0.060185
#
# Coordination Sequence:
#
# PCOD8049364 Si02
#       7
#     4   4   4   4   4   4   4
#     4  10  20  38  65  88 123 169 218 261 326 386
#     4  10  20  43  65  91 121 176 216 265 330 396
#     4  10  21  39  60  91 126 168 214 263 327 402
#     4  10  21  38  64  95 122 163 223 274 323 379
#     4  11  23  39  62  93 128 171 215 270 328 394
#     4  11  24  38  65  90 134 170 214 263 340 394
#     4  10  21  38  66  92 123 167 221 274 315 392
#
# _framework density 20.550609999999999
#
# number of rings (size 3 to 8) (size 9 to 14) (size 15 to 20)
#    0.000    1.714    2.857    2.571    4.000    0.000 
#    5.143    0.000    0.000    0.857    0.000    0.000 
#    0.000    0.000    0.000    0.000    0.000    0.000 
#
# Total GULP energy -173437.305095 kJ/mol
# GULP energy per Si atom -12388.378935 kJ/mol
# Density = 2.050384 g / cm^3
# Si number density = 20.550610 Si / 1000 Ang^3
#
#
#
# Elastic Constant Matrix: (Units=GPa)
#
#
# Indices 1 2 3 4 5 6 
#
# 1 77.9980 33.8108 33.2284 0.0000 -3.1818 0.0000
# 2 33.8108 96.3865 38.5928 0.0001 -2.9963 0.0000
# 3 33.2284 38.5928 87.1963 0.0000 -10.7100 0.0000
# 4 0.0000 0.0001 0.0000 27.2825 0.0000 -3.8954
# 5 -3.1818 -2.9963 -10.7100 0.0000 34.6501 0.0000
# 6 0.0000 0.0000 0.0000 -3.8954 0.0000 20.1166
#
#
#
# Elastic Compliance Matrix: (Units=1/GPa)
#
#
# Indices 1 2 3 4 5 6 
#
# 1 0.016467 -0.003962 -0.004551 0.000000 -0.000237 0.000000
# 2 -0.003962 0.013577 -0.004574 0.000000 -0.000603 0.000000
# 3 -0.004551 -0.004574 0.015724 0.000000 0.004047 0.000000
# 4 0.000000 0.000000 0.000000 0.037696 0.000000 0.007300
# 5 -0.000237 -0.000603 0.004047 0.000000 0.030037 0.000000
# 6 0.000000 0.000000 0.000000 0.007300 0.000000 0.051124
#
#
# Mechanical properties :
#
#
# Convention : Reuss Voigt Hill
#
# Bulk Modulus (GPa) = 51.03120 52.53831 51.78476
# Shear Modulus (GPa) = 25.33841 26.80643 26.07242
#
# Velocity S-wave (km/s) = 3.51519 3.61558 3.56574
# Velocity P-wave (km/s) = 6.43127 6.56131 6.49661
#
# Compressibility (1/GPa) = 0.01959585
#
# Stress axis : x y z
#
# Youngs Moduli (GPa) = 60.72658 73.65362 63.59722
#
# Poissons Ratio (x) = 0.29179 0.28943
# Poissons Ratio (y) = 0.24058 0.29087
# Poissons Ratio (z) = 0.27637 0.33686
#
# Static dielectric constant tensor:
#      x y z
#    x 3.721420 0.000000 0.010960 
#    y 0.000000 3.533910 0.000000 
#    z 0.010960 0.000000 4.097560 
# 
# 
# High freq. dielectric constant tensor:
#      x y z
#    x 1.790220 0.000000 -0.010910 
#    y 0.000000 1.773370 0.000000 
#    z -0.010910 0.000000 1.822310 
# 
# From -- ./inp_files/55736.got.cif
#   From: 2010.03.12/outbox.cif.g09.slc.cpg/sg5_28_cif.got.tgz:55736.got - 2010.03.31 09:47:26.
