data_PCOD8049640
_publ_section_title
;
Structure prediction by ZEFSAII (Michael W. Deem and Ramdas Pophale) SiO2 
 PCOD8049640
Probable space group: C 2
;
_chemical_formula_sum "Si O2"
_cell_formula_units_Z 28
_cell_length_a 13.735444
_cell_length_b 10.504823
_cell_length_c 10.514636
_cell_angle_alpha 90.000000
_cell_angle_beta 117.443091
_cell_angle_gamma 90.000000
_cell_volume 1346.414839
_symmetry_space_group_name_H-M "C 2"
_symmetry_group_IT_number 5
_symmetry_cell_setting 'monoclinic'
loop_
_space_group_symop_operation_xyz
x,y,z
-x,y,-z
1/2+x,1/2+y,z
1/2-x,1/2+y,-z
loop_
_atom_site_type_symbol
_atom_site_label
_atom_site_fract_x
_atom_site_fract_y
_atom_site_fract_z
Si Si1 0.000000 0.319480 0.000000
Si Si2 0.385201 0.576711 0.983523
Si Si3 0.680127 0.629596 0.776147
Si Si4 0.500000 0.503295 0.500000
Si Si5 0.397963 0.095809 0.509142
Si Si6 0.231874 0.402686 0.727787
Si Si7 0.180195 0.849788 0.479873
Si Si8 0.634029 0.993603 0.255772
O O1 0.105435 0.229939 0.031628
O O2 0.039626 0.406487 0.139492
O O3 0.287465 0.509120 0.849665
O O4 0.500000 0.514978 0.000000
O O5 0.359204 0.563224 0.117117
O O6 0.588046 0.595293 0.618479
O O7 0.688561 0.783927 0.786275
O O8 0.800313 0.573752 0.811454
O O9 0.563150 0.414339 0.437904
O O10 0.500000 0.158589 0.500000
O O11 0.306469 0.206529 0.457800
O O12 0.365027 0.971851 0.408067
O O13 0.431040 0.073945 0.677135
O O14 0.313525 0.348362 0.669488
O O15 0.278574 0.921461 0.605183
#
# Coordination Sequence:
#
# PCOD8049640 Si02
#       8
#     2   4   4   2   4   4   4   4
#     4  10  24  44  62  86 128 164 220 250 308 372
#     4  10  25  42  62  89 121 170 207 253 311 361
#     4  11  24  41  65  92 125 165 206 256 313 371
#     4  10  22  40  68  90 126 162 202 258 316 368
#     4  11  23  38  64  98 123 161 202 258 314 362
#     4  11  24  42  63  92 131 158 212 256 308 373
#     4  10  20  42  64  92 127 157 207 254 309 375
#     4  10  23  41  62  91 122 168 203 254 309 370
#
# _framework density 20.795967999999998
#
# number of rings (size 3 to 8) (size 9 to 14) (size 15 to 20)
#    0.429    1.143    2.143    1.714    5.000    1.143 
#    1.286    0.000    0.000    0.000    0.000    0.000 
#    0.000    0.000    0.000    0.000    0.000    0.000 
#
# Total GULP energy -173457.384051 kJ/mol
# GULP energy per Si atom -12389.813146 kJ/mol
# Density = 2.074864 g / cm^3
# Si number density = 20.795968 Si / 1000 Ang^3
#
#
#
# Elastic Constant Matrix: (Units=GPa)
#
#
# Indices 1 2 3 4 5 6 
#
# 1 86.4029 23.7590 41.3612 0.0000 -24.6466 0.0000
# 2 23.7590 97.6538 36.9771 0.0000 -2.1911 0.0000
# 3 41.3612 36.9771 98.2302 0.0000 -14.1950 0.0000
# 4 0.0000 0.0000 0.0000 33.2638 0.0000 2.8322
# 5 -24.6466 -2.1911 -14.1950 0.0000 35.8015 0.0000
# 6 0.0000 0.0000 0.0000 2.8322 0.0000 30.7618
#
#
#
# Elastic Compliance Matrix: (Units=1/GPa)
#
#
# Indices 1 2 3 4 5 6 
#
# 1 0.017398 -0.002071 -0.005127 0.000000 0.009818 0.000000
# 2 -0.002071 0.012231 -0.004063 0.000000 -0.002288 0.000000
# 3 -0.005127 -0.004063 0.014132 0.000000 0.001825 0.000000
# 4 0.000000 0.000000 0.000000 0.030300 0.000000 -0.002790
# 5 0.009818 -0.002288 0.001825 0.000000 0.035274 0.000000
# 6 0.000000 0.000000 0.000000 -0.002790 0.000000 0.032765
#
#
# Mechanical properties :
#
#
# Convention : Reuss Voigt Hill
#
# Bulk Modulus (GPa) = 47.08331 54.05349 50.56840
# Shear Modulus (GPa) = 29.12008 31.97806 30.54907
#
# Velocity S-wave (km/s) = 3.74608 3.92561 3.83690
# Velocity P-wave (km/s) = 6.43433 6.82612 6.63312
#
# Compressibility (1/GPa) = 0.02123895
#
# Stress axis : x y z
#
# Youngs Moduli (GPa) = 57.47724 81.75798 70.76043
#
# Poissons Ratio (x) = 0.16933 0.36282
# Poissons Ratio (y) = 0.11904 0.28749
# Poissons Ratio (z) = 0.29471 0.33217
#
# Static dielectric constant tensor:
#      x y z
#    x 3.870530 0.000000 -0.310250 
#    y 0.000000 3.738540 0.000000 
#    z -0.310250 0.000000 3.599690 
# 
# 
# High freq. dielectric constant tensor:
#      x y z
#    x 1.815070 0.000000 -0.020190 
#    y 0.000000 1.817300 0.000000 
#    z -0.020190 0.000000 1.799980 
# 
# From -- ./inp_files/23736.got.cif
#   From: 2010.03.12/outbox.cif.g09.slc.cpg/sg5_12_cif.got.tgz:23736.got - 2010.03.31 09:47:26.
