data_PCOD8049379
_publ_section_title
;
Structure prediction by ZEFSAII (Michael W. Deem and Ramdas Pophale) SiO2 
 PCOD8049379
Probable space group: C 2
;
_chemical_formula_sum "Si O2"
_cell_formula_units_Z 22
_cell_length_a 19.951809
_cell_length_b 8.411867
_cell_length_c 6.976094
_cell_angle_alpha 90.000000
_cell_angle_beta 119.044812
_cell_angle_gamma 90.000000
_cell_volume 1023.570601
_symmetry_space_group_name_H-M "C 2"
_symmetry_group_IT_number 5
_symmetry_cell_setting 'monoclinic'
loop_
_space_group_symop_operation_xyz
x,y,z
-x,y,-z
1/2+x,1/2+y,z
1/2-x,1/2+y,-z
loop_
_atom_site_type_symbol
_atom_site_label
_atom_site_fract_x
_atom_site_fract_y
_atom_site_fract_z
Si Si1 0.795038 0.653330 0.025737
Si Si2 0.762024 0.941261 0.723604
Si Si3 0.141300 0.440528 0.211693
Si Si4 0.586934 0.588357 0.054132
Si Si5 0.000000 0.649354 0.000000
Si Si6 0.935857 0.848005 0.257417
O O1 0.746830 0.586845 0.137164
O O2 0.863074 0.748521 0.227940
O O3 0.751392 0.774618 0.821413
O O4 0.823255 0.506698 0.935473
O O5 0.702069 0.942432 0.468050
O O6 0.848449 0.969814 0.757830
O O7 0.112343 0.266479 0.120138
O O8 0.068050 0.540480 0.179567
O O9 0.500000 0.559709 0.000000
O O10 0.587707 0.529105 0.832504
O O11 0.032458 0.760607 0.883475
O O12 0.000000 0.857092 0.500000
#
# Coordination Sequence:
#
# PCOD8049379 Si02
#       6
#     4   4   4   4   2   4
#     4  10  23  41  64  96 128 165 223 262 307 396
#     4  11  23  43  67  94 131 172 212 264 323 376
#     4  11  22  42  66  95 128 173 208 267 323 370
#     4  11  23  44  63  99 131 162 220 263 313 389
#     4  10  20  38  66  94 134 158 220 262 310 390
#     4  10  21  41  63  92 127 173 207 264 325 371
#
# _framework density 21.493387999999999
#
# number of rings (size 3 to 8) (size 9 to 14) (size 15 to 20)
#    0.000    1.455    1.818    3.273    0.000    0.000 
#   19.636    0.909    0.000    0.000    0.000    0.000 
#    0.000    0.000    0.000    0.000    0.000    0.000 
#
# Total GULP energy -136284.509148 kJ/mol
# GULP energy per Si atom -12389.500832 kJ/mol
# Density = 2.144447 g / cm^3
# Si number density = 21.493388 Si / 1000 Ang^3
#
#
#
# Elastic Constant Matrix: (Units=GPa)
#
#
# Indices 1 2 3 4 5 6 
#
# 1 105.8512 33.4784 42.9843 0.0000 24.9175 0.0000
# 2 33.4784 115.6871 44.4620 0.0000 10.8732 0.0000
# 3 42.9843 44.4620 124.4361 0.0000 48.2213 0.0000
# 4 0.0000 0.0000 0.0000 22.4953 0.0000 8.2047
# 5 24.9175 10.8732 48.2213 0.0000 38.8010 0.0000
# 6 0.0000 0.0000 0.0000 8.2047 0.0000 26.7715
#
#
#
# Elastic Compliance Matrix: (Units=1/GPa)
#
#
# Indices 1 2 3 4 5 6 
#
# 1 0.012017 -0.002547 -0.001016 0.000000 -0.005740 0.000000
# 2 -0.002547 0.010766 -0.004691 0.000000 0.004448 0.000000
# 3 -0.001016 -0.004691 0.017942 0.000000 -0.020331 0.000000
# 4 0.000000 0.000000 0.000000 0.050048 0.000000 -0.015338
# 5 -0.005740 0.004448 -0.020331 0.000000 0.053479 0.000000
# 6 0.000000 0.000000 0.000000 -0.015338 0.000000 0.042054
#
#
# Mechanical properties :
#
#
# Convention : Reuss Voigt Hill
#
# Bulk Modulus (GPa) = 41.29565 65.31375 53.30470
# Shear Modulus (GPa) = 23.70952 32.61688 28.16320
#
# Velocity S-wave (km/s) = 3.32491 3.89978 3.62376
# Velocity P-wave (km/s) = 5.83052 7.12260 6.50870
#
# Compressibility (1/GPa) = 0.02421562
#
# Stress axis : x y z
#
# Youngs Moduli (GPa) = 83.21640 92.88656 55.73564
#
# Poissons Ratio (x) = 0.23662 0.05666
# Poissons Ratio (y) = 0.21198 0.26143
# Poissons Ratio (z) = 0.08459 0.43569
#
# Static dielectric constant tensor:
#      x y z
#    x 4.323170 0.000000 0.236110 
#    y 0.000000 4.216690 0.000000 
#    z 0.236110 0.000000 3.472780 
# 
# 
# High freq. dielectric constant tensor:
#      x y z
#    x 1.857480 0.000000 0.022120 
#    y 0.000000 1.862700 0.000000 
#    z 0.022120 0.000000 1.826440 
# 
# From -- ./inp_files/9229.got.cif
#   From: 2010.03.12/outbox.cif.g09.slc.cpg/sg5_5_cif.got.tgz:9229.got - 2010.03.31 09:47:26.
