data_PCOD8049923
_publ_section_title
;
Structure prediction by ZEFSAII (Michael W. Deem and Ramdas Pophale) SiO2 
 PCOD8049923
Probable space group: C 2
;
_chemical_formula_sum "Si O2"
_cell_formula_units_Z 20
_cell_length_a 19.665604
_cell_length_b 5.280372
_cell_length_c 18.984957
_cell_angle_alpha 90.000000
_cell_angle_beta 151.877415
_cell_angle_gamma 90.000000
_cell_volume 929.252526
_symmetry_space_group_name_H-M "C 2"
_symmetry_group_IT_number 5
_symmetry_cell_setting 'monoclinic'
loop_
_space_group_symop_operation_xyz
x,y,z
-x,y,-z
1/2+x,1/2+y,z
1/2-x,1/2+y,-z
loop_
_atom_site_type_symbol
_atom_site_label
_atom_site_fract_x
_atom_site_fract_y
_atom_site_fract_z
Si Si1 0.843526 0.058800 0.392977
Si Si2 0.086893 0.565088 0.898717
Si Si3 0.735536 0.565231 0.079128
Si Si4 0.334645 0.058589 0.325020
Si Si5 0.265949 0.074976 0.560628
O O1 0.758446 0.307338 0.287188
O O2 0.855989 0.064632 0.489578
O O3 0.000000 0.052862 0.500000
O O4 0.759088 0.806558 0.289990
O O5 0.146151 0.564138 0.873745
O O6 0.915485 0.558775 0.738738
O O7 0.138838 0.316990 0.987750
O O8 0.135578 0.817384 0.983807
O O9 0.825355 0.562975 0.232751
O O10 0.500000 0.052240 0.500000
O O11 0.254322 0.339280 0.509481
#
# Coordination Sequence:
#
# PCOD8049923 Si02
#       5
#     4   4   4   4   4
#     4  10  23  39  61  96 128 166 217 260 335 378
#     4  10  23  40  63  94 132 171 217 259 333 374
#     4  10  21  41  65  93 129 175 212 264 318 404
#     4  10  21  38  65  93 126 167 222 260 317 385
#     4  12  26  42  67  98 135 169 222 279 314 379
#
# _framework density 21.522676000000001
#
# number of rings (size 3 to 8) (size 9 to 14) (size 15 to 20)
#    0.000    1.600    0.000    3.600   11.200    0.000 
#    0.000    6.000    0.000    0.000    0.000    0.000 
#    0.000    0.000    0.000    0.000    0.000    0.000 
#
# Total GULP energy -123983.958745 kJ/mol
# GULP energy per Si atom -12398.395875 kJ/mol
# Density = 2.147369 g / cm^3
# Si number density = 21.522676 Si / 1000 Ang^3
#
#
#
# Elastic Constant Matrix: (Units=GPa)
#
#
# Indices 1 2 3 4 5 6 
#
# 1 112.9203 28.6074 30.7429 -0.0001 -20.2345 0.0001
# 2 28.6074 199.0608 28.4085 -0.0004 -17.7478 0.0002
# 3 30.7429 28.4085 106.6838 -0.0002 -20.1956 0.0000
# 4 -0.0001 -0.0004 -0.0002 28.6069 0.0000 -15.4702
# 5 -20.2345 -17.7478 -20.1956 0.0000 40.4388 0.0000
# 6 0.0001 0.0002 0.0000 -15.4702 0.0000 26.4168
#
#
#
# Elastic Compliance Matrix: (Units=1/GPa)
#
#
# Indices 1 2 3 4 5 6 
#
# 1 0.010299 -0.000855 -0.002027 0.000000 0.003766 0.000000
# 2 -0.000855 0.005410 -0.000912 0.000000 0.001491 0.000000
# 3 -0.002027 -0.000912 0.010970 0.000000 0.004064 0.000000
# 4 0.000000 0.000000 0.000000 0.051158 0.000000 0.029959
# 5 0.003766 0.001491 0.004064 0.000000 0.029297 0.000000
# 6 0.000000 0.000000 0.000000 0.029959 0.000000 0.055399
#
#
# Mechanical properties :
#
#
# Convention : Reuss Voigt Hill
#
# Bulk Modulus (GPa) = 52.38343 66.02029 59.20186
# Shear Modulus (GPa) = 28.33110 41.15291 34.74200
#
# Velocity S-wave (km/s) = 3.63207 4.37747 4.02208
# Velocity P-wave (km/s) = 6.47926 7.50273 7.00970
#
# Compressibility (1/GPa) = 0.01909001
#
# Stress axis : x y z
#
# Youngs Moduli (GPa) = 97.09530 184.85891 91.15917
#
# Poissons Ratio (x) = 0.15806 0.18481
# Poissons Ratio (y) = 0.08302 0.08312
# Poissons Ratio (z) = 0.19685 0.16857
#
# Static dielectric constant tensor:
#      x y z
#    x 3.790560 0.000000 -0.133050 
#    y 0.000000 8.360140 0.000000 
#    z -0.133050 0.000000 3.519130 
# 
# 
# High freq. dielectric constant tensor:
#      x y z
#    x 1.840700 0.000000 -0.018150 
#    y 0.000000 1.885480 0.000000 
#    z -0.018150 0.000000 1.816440 
# 
# From -- ./inp_files/28254.got.cif
#   From: 2010.03.12/outbox.cif.g09.slc.cpg/sg5_15_cif.got.tgz:28254.got - 2010.03.31 09:47:26.
