data_PCOD8049911
_publ_section_title
;
Structure prediction by ZEFSAII (Michael W. Deem and Ramdas Pophale) SiO2 
 PCOD8049911
Probable space group: C 2
;
_chemical_formula_sum "Si O2"
_cell_formula_units_Z 32
_cell_length_a 12.457236
_cell_length_b 18.773198
_cell_length_c 8.933906
_cell_angle_alpha 90.000000
_cell_angle_beta 130.741920
_cell_angle_gamma 90.000000
_cell_volume 1582.974756
_symmetry_space_group_name_H-M "C 2"
_symmetry_group_IT_number 5
_symmetry_cell_setting 'monoclinic'
loop_
_space_group_symop_operation_xyz
x,y,z
-x,y,-z
1/2+x,1/2+y,z
1/2-x,1/2+y,-z
loop_
_atom_site_type_symbol
_atom_site_label
_atom_site_fract_x
_atom_site_fract_y
_atom_site_fract_z
Si Si1 0.633298 0.691460 0.213179
Si Si2 0.647294 0.732184 0.561724
Si Si3 0.346440 0.472867 0.869520
Si Si4 0.804253 0.869198 0.588452
Si Si5 0.634675 0.189061 0.015946
Si Si6 0.640566 0.095828 0.724875
Si Si7 0.841683 0.353339 0.836361
Si Si8 0.879456 0.845508 0.119366
O O1 0.612385 0.692508 0.373390
O O2 0.769780 0.644857 0.304022
O O3 0.663477 0.768686 0.175928
O O4 0.500000 0.659424 0.000000
O O5 0.500000 0.756605 0.500000
O O6 0.742067 0.802686 0.625695
O O7 0.728657 0.678558 0.750614
O O8 0.298263 0.445605 0.663584
O O9 0.226489 0.522630 0.831938
O O10 0.500000 0.512733 0.000000
O O11 0.370185 0.397937 0.972432
O O12 0.708185 0.888018 0.361251
O O13 0.960667 0.847644 0.672061
O O14 0.500000 0.184698 0.000000
O O15 0.619280 0.130632 0.869707
O O16 0.655223 0.265448 0.958697
O O17 0.500000 0.080755 0.500000
O O18 0.735896 0.376199 0.870851
O O19 0.000000 0.382697 0.000000
#
# Coordination Sequence:
#
# PCOD8049911 Si02
#       8
#     4   4   4   4   4   4   4   4
#     4  10  21  39  58  89 130 171 214 257 330 399
#     4  11  22  34  61  98 129 165 211 281 335 374
#     4  10  23  44  65  90 125 177 223 259 326 407
#     4  10  21  38  63  92 124 170 217 269 324 396
#     4  12  22  41  65  97 129 169 224 282 335 397
#     4  12  26  40  64  94 129 180 213 278 334 401
#     4  10  22  34  60  99 131 162 208 277 329 378
#     4  11  20  40  66  93 127 168 219 274 330 387
#
# _framework density 20.215104
#
# number of rings (size 3 to 8) (size 9 to 14) (size 15 to 20)
#    0.000    1.250    3.750    2.625    5.250    1.500 
#    0.000    3.125    0.000    3.000    0.000    0.000 
#    0.000    0.000    0.000    0.000    0.000    0.000 
#
# Total GULP energy -198336.412474 kJ/mol
# GULP energy per Si atom -12396.025780 kJ/mol
# Density = 2.016909 g / cm^3
# Si number density = 20.215104 Si / 1000 Ang^3
#
#
#
# Elastic Constant Matrix: (Units=GPa)
#
#
# Indices 1 2 3 4 5 6 
#
# 1 140.1808 23.7374 55.3120 0.0000 11.7676 0.0000
# 2 23.7374 57.6367 37.5167 0.0000 -0.5604 0.0000
# 3 55.3120 37.5167 159.0243 0.0000 11.1715 0.0000
# 4 0.0000 0.0000 0.0000 13.0667 0.0000 5.0508
# 5 11.7676 -0.5604 11.1715 0.0000 37.5896 0.0000
# 6 0.0000 0.0000 0.0000 5.0508 0.0000 28.0181
#
#
#
# Elastic Compliance Matrix: (Units=1/GPa)
#
#
# Indices 1 2 3 4 5 6 
#
# 1 0.008577 -0.002011 -0.002368 0.000000 -0.002011 0.000000
# 2 -0.002011 0.021087 -0.004434 0.000000 0.002262 0.000000
# 3 -0.002368 -0.004434 0.008283 0.000000 -0.001787 0.000000
# 4 0.000000 0.000000 0.000000 0.082263 0.000000 -0.014830
# 5 -0.002011 0.002262 -0.001787 0.000000 0.027798 0.000000
# 6 0.000000 0.000000 0.000000 -0.014830 0.000000 0.038364
#
#
# Mechanical properties :
#
#
# Convention : Reuss Voigt Hill
#
# Bulk Modulus (GPa) = 49.20814 65.55267 57.38041
# Shear Modulus (GPa) = 23.72241 31.75325 27.73783
#
# Velocity S-wave (km/s) = 3.42935 3.96759 3.70825
# Velocity P-wave (km/s) = 6.33054 7.31348 6.83969
#
# Compressibility (1/GPa) = 0.02032184
#
# Stress axis : x y z
#
# Youngs Moduli (GPa) = 116.58782 47.42369 120.72240
#
# Poissons Ratio (x) = 0.09537 0.28582
# Poissons Ratio (y) = 0.23445 0.53530
# Poissons Ratio (z) = 0.27604 0.21028
#
# Static dielectric constant tensor:
#      x y z
#    x 3.916190 0.000000 0.144210 
#    y 0.000000 3.330450 0.000000 
#    z 0.144210 0.000000 4.002600 
# 
# 
# High freq. dielectric constant tensor:
#      x y z
#    x 1.800100 0.000000 0.005270 
#    y 0.000000 1.754610 0.000000 
#    z 0.005270 0.000000 1.807900 
# 
# From -- ./inp_files/21932.got.cif
#   From: 2010.03.12/outbox.cif.g09.slc.cpg/sg5_11_cif.got.tgz:21932.got - 2010.03.31 09:47:26.
