data_PCOD8049186
_publ_section_title
;
Structure prediction by ZEFSAII (Michael W. Deem and Ramdas Pophale) SiO2 
 PCOD8049186
Probable space group: C 2
;
_chemical_formula_sum "Si O2"
_cell_formula_units_Z 28
_cell_length_a 11.785531
_cell_length_b 8.492911
_cell_length_c 15.165270
_cell_angle_alpha 90.000000
_cell_angle_beta 115.507655
_cell_angle_gamma 90.000000
_cell_volume 1369.986988
_symmetry_space_group_name_H-M "C 2"
_symmetry_group_IT_number 5
_symmetry_cell_setting 'monoclinic'
loop_
_space_group_symop_operation_xyz
x,y,z
-x,y,-z
1/2+x,1/2+y,z
1/2-x,1/2+y,-z
loop_
_atom_site_type_symbol
_atom_site_label
_atom_site_fract_x
_atom_site_fract_y
_atom_site_fract_z
Si Si1 0.630773 0.156380 0.217397
Si Si2 0.689756 0.635413 0.387542
Si Si3 0.164156 0.781338 0.410937
Si Si4 0.214452 0.161446 0.904209
Si Si5 0.076575 0.860078 0.939344
Si Si6 0.944803 0.557671 0.391488
Si Si7 0.993518 0.359603 0.242394
O O1 0.705341 0.220186 0.327964
O O2 0.728093 0.124865 0.172055
O O3 0.523020 0.285315 0.161428
O O4 0.571287 0.987712 0.215574
O O5 0.724762 0.740536 0.483988
O O6 0.644285 0.467088 0.406705
O O7 0.806347 0.623613 0.360047
O O8 0.579101 0.711483 0.294923
O O9 0.032692 0.702804 0.393417
O O10 0.114665 0.301631 0.859509
O O11 0.148239 0.007224 0.920988
O O12 0.323418 0.222726 0.005348
O O13 0.000000 0.917155 0.000000
O O14 0.935617 0.427655 0.312952
O O15 0.000000 0.480495 0.500000
#
# Coordination Sequence:
#
# PCOD8049186 Si02
#       7
#     4   4   4   4   4   4   4
#     4  10  22  40  59  86 117 147 191 240 280 336
#     4  11  21  37  57  83 120 157 192 234 278 329
#     4  10  20  37  59  83 117 155 194 236 279 330
#     4  11  23  40  63  87 113 150 186 233 293 342
#     4  10  23  42  62  85 114 145 187 237 288 345
#     4   9  20  38  56  81 118 158 195 235 277 324
#     4  11  23  36  59  89 116 152 193 231 282 338
#
# _framework density 20.438151000000001
#
# number of rings (size 3 to 8) (size 9 to 14) (size 15 to 20)
#    0.000    1.714    0.000    5.143    0.000    5.714 
#    0.000    9.286    0.000    0.000    0.000    0.000 
#    0.000    0.000    0.000    0.000    0.000    0.000 
#
# Total GULP energy -173650.653835 kJ/mol
# GULP energy per Si atom -12403.618131 kJ/mol
# Density = 2.039163 g / cm^3
# Si number density = 20.438151 Si / 1000 Ang^3
#
#
#
# Elastic Constant Matrix: (Units=GPa)
#
#
# Indices 1 2 3 4 5 6 
#
# 1 82.0240 36.9530 23.2011 0.0000 -4.9474 0.0000
# 2 36.9530 100.8221 3.8328 0.0000 -11.4056 0.0000
# 3 23.2011 3.8328 42.0593 0.0000 -4.4485 0.0000
# 4 0.0000 0.0000 0.0000 1.5495 0.0000 8.8478
# 5 -4.9474 -11.4056 -4.4485 0.0000 27.4280 0.0000
# 6 0.0000 0.0000 0.0000 8.8478 0.0000 31.8478
#
#
#
# Elastic Compliance Matrix: (Units=1/GPa)
#
#
# Indices 1 2 3 4 5 6 
#
# 1 0.017520 -0.006173 -0.009197 0.000000 -0.000899 0.000000
# 2 -0.006173 0.012594 0.002741 0.000000 0.004568 0.000000
# 3 -0.009197 0.002741 0.029043 0.000000 0.004191 0.000000
# 4 0.000000 0.000000 0.000000 -1.100588 0.000000 0.305761
# 5 -0.000899 0.004568 0.004191 0.000000 0.038876 0.000000
# 6 0.000000 0.000000 0.000000 0.305761 0.000000 -0.053546
#
#
# Mechanical properties :
#
#
# Convention : Reuss Voigt Hill
#
# Bulk Modulus (GPa) = 29.50068 39.20878 34.35473
# Shear Modulus (GPa) = -4.90416 22.89296 8.99440
#
# Velocity S-wave (km/s) = -1.55072 3.35043 2.10008
# Velocity P-wave (km/s) = 3.35547 5.84748 4.76719
#
# Compressibility (1/GPa) = 0.03389752
#
# Stress axis : x y z
#
# Youngs Moduli (GPa) = 57.07763 79.40495 34.43199
#
# Poissons Ratio (x) = 0.49020 0.31667
# Poissons Ratio (y) = 0.35236 -0.09438
# Poissons Ratio (z) = 0.52494 -0.21764
#
# Static dielectric constant tensor:
#      x y z
#    x 4.041800 0.000000 -0.422040 
#    y 0.000000 3.589290 0.000000 
#    z -0.422040 0.000000 4.474970 
# 
# 
# High freq. dielectric constant tensor:
#      x y z
#    x 1.803470 0.000000 0.000020 
#    y 0.000000 1.800950 0.000000 
#    z 0.000020 0.000000 1.808150 
# 
# From -- ./inp_files/52222.got.cif
#   From: 2010.03.12/outbox.cif.g09.slc.cpg/sg5_27_cif.got.tgz:52222.got - 2010.03.31 09:47:26.
