data_PCOD8049925
_publ_section_title
;
Structure prediction by ZEFSAII (Michael W. Deem and Ramdas Pophale) SiO2 
 PCOD8049925
Probable space group: C 2
;
_chemical_formula_sum "Si O2"
_cell_formula_units_Z 28
_cell_length_a 28.228392
_cell_length_b 5.012193
_cell_length_c 10.323366
_cell_angle_alpha 90.000000
_cell_angle_beta 61.399602
_cell_angle_gamma 90.000000
_cell_volume 1282.388752
_symmetry_space_group_name_H-M "C 2"
_symmetry_group_IT_number 5
_symmetry_cell_setting 'monoclinic'
loop_
_space_group_symop_operation_xyz
x,y,z
-x,y,-z
1/2+x,1/2+y,z
1/2-x,1/2+y,-z
loop_
_atom_site_type_symbol
_atom_site_label
_atom_site_fract_x
_atom_site_fract_y
_atom_site_fract_z
Si Si1 0.498620 0.298560 0.852245
Si Si2 0.903119 0.800966 0.791040
Si Si3 0.281890 0.243870 0.915140
Si Si4 0.319288 0.852107 0.418991
Si Si5 0.063043 0.298220 0.407958
Si Si6 0.064667 0.305819 0.693767
Si Si7 0.280631 0.352248 0.615444
O O1 0.437650 0.283045 0.878235
O O2 0.522260 0.593021 0.802324
O O3 0.535568 0.090861 0.726957
O O4 0.500000 0.218044 0.000000
O O5 0.840679 0.745006 0.905700
O O6 0.925849 0.596565 0.654786
O O7 0.908199 0.097525 0.727850
O O8 0.288520 0.312031 0.756420
O O9 0.243233 0.451423 0.038048
O O10 0.380962 0.806458 0.290963
O O11 0.300652 0.645407 0.553105
O O12 0.282535 0.821880 0.339226
O O13 0.315737 0.143819 0.487169
O O14 0.086493 0.250659 0.520394
O O15 0.000000 0.236818 0.500000
#
# Coordination Sequence:
#
# PCOD8049925 Si02
#       7
#     4   4   4   4   4   4   4
#     4  12  26  41  58  86 127 165 198 240 296 375
#     4  12  24  43  63  93 126 160 204 265 303 356
#     4  12  26  42  64  89 124 170 211 247 301 368
#     4  10  21  38  66  90 119 153 195 263 308 354
#     4  12  21  39  69  94 124 153 202 260 314 361
#     4  12  23  39  63  93 119 157 202 243 310 367
#     4  10  21  41  61  91 121 153 203 255 309 347
#
# _framework density 21.834254999999999
#
# number of rings (size 3 to 8) (size 9 to 14) (size 15 to 20)
#    0.000    0.571    2.857    6.000    0.000    2.286 
#    0.000    0.000    0.000    0.000    0.000    0.000 
#    0.000    0.000    0.000    0.000    0.000    0.000 
#
# Total GULP energy -173697.359987 kJ/mol
# GULP energy per Si atom -12406.954285 kJ/mol
# Density = 2.178456 g / cm^3
# Si number density = 21.834255 Si / 1000 Ang^3
#
#
#
# Elastic Constant Matrix: (Units=GPa)
#
#
# Indices 1 2 3 4 5 6 
#
# 1 186.6054 22.0297 38.6198 0.0000 -13.7634 0.0000
# 2 22.0297 79.8812 2.7128 0.0000 -4.9211 0.0000
# 3 38.6198 2.7128 56.1615 0.0000 5.0739 0.0000
# 4 0.0000 0.0000 0.0000 29.0857 0.0000 0.3063
# 5 -13.7634 -4.9211 5.0739 0.0000 33.6065 0.0000
# 6 0.0000 0.0000 0.0000 0.3063 0.0000 26.6995
#
#
#
# Elastic Compliance Matrix: (Units=1/GPa)
#
#
# Indices 1 2 3 4 5 6 
#
# 1 0.006793 -0.001504 -0.004897 0.000000 0.003301 0.000000
# 2 -0.001504 0.013000 0.000294 0.000000 0.001243 0.000000
# 3 -0.004897 0.000294 0.021632 0.000000 -0.005229 0.000000
# 4 0.000000 0.000000 0.000000 0.034385 0.000000 -0.000395
# 5 0.003301 0.001243 -0.005229 0.000000 0.032080 0.000000
# 6 0.000000 0.000000 0.000000 -0.000395 0.000000 0.037458
#
#
# Mechanical properties :
#
#
# Convention : Reuss Voigt Hill
#
# Bulk Modulus (GPa) = 34.23416 49.93030 42.08223
# Shear Modulus (GPa) = 29.88654 35.16408 32.52531
#
# Velocity S-wave (km/s) = 3.70373 4.01746 3.86378
# Velocity P-wave (km/s) = 5.83124 6.66614 6.26262
#
# Compressibility (1/GPa) = 0.02921059
#
# Stress axis : x y z
#
# Youngs Moduli (GPa) = 147.20061 76.92349 46.22882
#
# Poissons Ratio (x) = 0.11568 0.22639
# Poissons Ratio (y) = 0.22136 -0.01358
# Poissons Ratio (z) = 0.72087 -0.02260
#
# Static dielectric constant tensor:
#      x y z
#    x 4.307860 0.000000 0.081970 
#    y 0.000000 4.020460 0.000000 
#    z 0.081970 0.000000 3.580940 
# 
# 
# High freq. dielectric constant tensor:
#      x y z
#    x 1.880500 0.000000 0.001270 
#    y 0.000000 1.875040 0.000000 
#    z 0.001270 0.000000 1.829410 
# 
# From -- ./inp_files/32225.got.cif
#   From: 2010.03.12/outbox.cif.g09.slc.cpg/sg5_17_cif.got.tgz:32225.got - 2010.03.31 09:47:26.
