data_PCOD8049786
_publ_section_title
;
Structure prediction by ZEFSAII (Michael W. Deem and Ramdas Pophale) SiO2 
 PCOD8049786
Probable space group: C 2
;
_chemical_formula_sum "Si O2"
_cell_formula_units_Z 28
_cell_length_a 12.688199
_cell_length_b 8.148635
_cell_length_c 13.515035
_cell_angle_alpha 90.000000
_cell_angle_beta 69.275457
_cell_angle_gamma 90.000000
_cell_volume 1306.921456
_symmetry_space_group_name_H-M "C 2"
_symmetry_group_IT_number 5
_symmetry_cell_setting 'monoclinic'
loop_
_space_group_symop_operation_xyz
x,y,z
-x,y,-z
1/2+x,1/2+y,z
1/2-x,1/2+y,-z
loop_
_atom_site_type_symbol
_atom_site_label
_atom_site_fract_x
_atom_site_fract_y
_atom_site_fract_z
Si Si1 0.376219 0.773960 0.060346
Si Si2 0.999281 0.868525 0.213919
Si Si3 0.949754 0.390194 0.298406
Si Si4 0.810850 0.115709 0.288420
Si Si5 0.352854 0.685073 0.860297
Si Si6 0.054457 0.651606 0.383271
Si Si7 0.126975 0.608461 0.844185
O O1 0.321616 0.689924 0.173983
O O2 0.386962 0.971821 0.065777
O O3 0.500000 0.698404 0.000000
O O4 0.305099 0.729196 0.985694
O O5 0.975244 0.742710 0.129865
O O6 0.045563 0.777194 0.295661
O O7 0.875916 0.944246 0.277083
O O8 0.092122 0.003421 0.155231
O O9 0.869114 0.237213 0.349402
O O10 0.874901 0.517498 0.260542
O O11 0.056098 0.323300 0.199220
O O12 0.990019 0.480458 0.383575
O O13 0.682229 0.098849 0.360695
O O14 0.248490 0.694486 0.819418
O O15 0.000000 0.730176 0.500000
#
# Coordination Sequence:
#
# PCOD8049786 Si02
#       7
#     4   4   4   4   4   4   4
#     4  11  20  42  57  88 130 162 194 246 294 358
#     4  10  21  40  63  87 119 156 201 254 293 355
#     4   9  20  40  61  84 124 152 193 252 301 359
#     4  10  21  41  62  85 127 159 194 249 302 351
#     4  11  21  40  62  89 125 161 200 239 295 360
#     4  11  24  41  63  91 117 156 208 254 306 358
#     4  10  21  36  57  85 118 160 197 239 294 346
#
# _framework density 21.424392999999998
#
# number of rings (size 3 to 8) (size 9 to 14) (size 15 to 20)
#    0.000    1.714    4.286    2.571    0.000    3.429 
#    5.143    2.857    0.000    0.000    0.000    0.000 
#    0.000    0.000    0.000    0.000    0.000    0.000 
#
# Total GULP energy -173511.539792 kJ/mol
# GULP energy per Si atom -12393.681414 kJ/mol
# Density = 2.137563 g / cm^3
# Si number density = 21.424393 Si / 1000 Ang^3
#
#
#
# Elastic Constant Matrix: (Units=GPa)
#
#
# Indices 1 2 3 4 5 6 
#
# 1 109.0146 13.6320 17.3736 0.0000 2.2606 0.0000
# 2 13.6320 75.1283 11.0662 0.0000 15.9131 0.0000
# 3 17.3736 11.0662 56.4389 0.0000 -1.4243 0.0000
# 4 0.0000 0.0000 0.0000 16.7820 0.0000 6.1514
# 5 2.2606 15.9131 -1.4243 0.0000 18.4580 0.0000
# 6 0.0000 0.0000 0.0000 6.1514 0.0000 34.7089
#
#
#
# Elastic Compliance Matrix: (Units=1/GPa)
#
#
# Indices 1 2 3 4 5 6 
#
# 1 0.009783 -0.001308 -0.002762 0.000000 -0.000283 0.000000
# 2 -0.001308 0.017203 -0.003347 0.000000 -0.014929 0.000000
# 3 -0.002762 -0.003347 0.019344 0.000000 0.004717 0.000000
# 4 0.000000 0.000000 0.000000 0.063728 0.000000 -0.011294
# 5 -0.000283 -0.014929 0.004717 0.000000 0.067447 0.000000
# 6 0.000000 0.000000 0.000000 -0.011294 0.000000 0.030813
#
#
# Mechanical properties :
#
#
# Convention : Reuss Voigt Hill
#
# Bulk Modulus (GPa) = 31.75116 36.08061 33.91589
# Shear Modulus (GPa) = 21.39952 27.22377 24.31164
#
# Velocity S-wave (km/s) = 3.16387 3.56854 3.37228
# Velocity P-wave (km/s) = 5.31028 5.81866 5.57027
#
# Compressibility (1/GPa) = 0.03149491
#
# Stress axis : x y z
#
# Youngs Moduli (GPa) = 102.22090 58.12881 51.69601
#
# Poissons Ratio (x) = 0.07604 0.14279
# Poissons Ratio (y) = 0.13373 0.17303
# Poissons Ratio (z) = 0.28234 0.19457
#
# Static dielectric constant tensor:
#      x y z
#    x 4.096690 0.000000 0.174940 
#    y 0.000000 4.125730 0.000000 
#    z 0.174940 0.000000 3.372970 
# 
# 
# High freq. dielectric constant tensor:
#      x y z
#    x 1.857860 0.000000 0.011210 
#    y 0.000000 1.850510 0.000000 
#    z 0.011210 0.000000 1.788380 
# 
# From -- ./inp_files/52237.got.cif
#   From: 2010.03.12/outbox.cif.g09.slc.cpg/sg5_27_cif.got.tgz:52237.got - 2010.03.31 09:47:26.
