data_PCOD8049082
_publ_section_title
;
Structure prediction by ZEFSAII (Michael W. Deem and Ramdas Pophale) SiO2 
 PCOD8049082
Probable space group: C 2
;
_chemical_formula_sum "Si O2"
_cell_formula_units_Z 26
_cell_length_a 18.681361
_cell_length_b 8.717407
_cell_length_c 11.684312
_cell_angle_alpha 90.000000
_cell_angle_beta 138.952867
_cell_angle_gamma 90.000000
_cell_volume 1249.546837
_symmetry_space_group_name_H-M "C 2"
_symmetry_group_IT_number 5
_symmetry_cell_setting 'monoclinic'
loop_
_space_group_symop_operation_xyz
x,y,z
-x,y,-z
1/2+x,1/2+y,z
1/2-x,1/2+y,-z
loop_
_atom_site_type_symbol
_atom_site_label
_atom_site_fract_x
_atom_site_fract_y
_atom_site_fract_z
Si Si1 0.314088 0.440730 0.487693
Si Si2 0.690057 0.081690 0.546190
Si Si3 0.459647 0.455189 0.166797
Si Si4 0.832551 0.388960 0.877890
Si Si5 0.450320 0.100606 0.188883
Si Si6 0.260299 0.108199 0.136639
Si Si7 0.000000 0.150395 0.000000
O O1 0.299304 0.259779 0.464195
O O2 0.269001 0.493127 0.555328
O O3 0.442131 0.485276 0.622673
O O4 0.241121 0.499753 0.292403
O O5 0.564711 0.036690 0.372358
O O6 0.722854 0.036495 0.716033
O O7 0.449559 0.272853 0.139549
O O8 0.342364 0.529692 0.053500
O O9 0.509221 0.536206 0.116283
O O10 0.757781 0.292762 0.877264
O O11 0.893404 0.257379 0.876833
O O12 0.919509 0.493893 0.045466
O O13 0.366830 0.079201 0.191673
#
# Coordination Sequence:
#
# PCOD8049082 Si02
#       7
#     4   4   4   4   4   4   2
#     4  10  20  36  55  86 111 143 187 231 287 326
#     4  10  22  37  60  81 112 147 186 236 278 333
#     4  10  21  36  59  82 113 149 187 233 277 334
#     4  10  21  36  59  83 117 148 184 236 278 334
#     4  11  22  37  58  87 112 148 194 230 269 333
#     4  10  21  40  57  80 116 157 185 221 283 339
#     4  10  20  38  56  82 116 152 182 228 300 328
#
# _framework density 20.807544
#
# number of rings (size 3 to 8) (size 9 to 14) (size 15 to 20)
#    0.000    1.846    0.000    5.077    0.000    5.538 
#    0.000    2.308    0.000    0.000    0.000    2.154 
#    0.000    0.000    0.000    0.000    0.000    0.000 
#
# Total GULP energy -161102.347958 kJ/mol
# GULP energy per Si atom -12392.488304 kJ/mol
# Density = 2.076019 g / cm^3
# Si number density = 20.807544 Si / 1000 Ang^3
#
#
#
# Elastic Constant Matrix: (Units=GPa)
#
#
# Indices 1 2 3 4 5 6 
#
# 1 73.7441 18.0267 41.9327 0.0000 17.0821 0.0000
# 2 18.0267 46.5459 38.3479 0.0000 -1.8351 0.0000
# 3 41.9327 38.3479 165.5546 0.0000 25.6642 0.0000
# 4 0.0000 0.0000 0.0000 29.8318 0.0000 0.5874
# 5 17.0821 -1.8351 25.6642 0.0000 33.5796 0.0000
# 6 0.0000 0.0000 0.0000 0.5874 0.0000 21.1934
#
#
#
# Elastic Compliance Matrix: (Units=1/GPa)
#
#
# Indices 1 2 3 4 5 6 
#
# 1 0.017894 -0.005574 -0.002023 0.000000 -0.007862 0.000000
# 2 -0.005574 0.029811 -0.007017 0.000000 0.009828 0.000000
# 3 -0.002023 -0.007017 0.009164 0.000000 -0.006358 0.000000
# 4 0.000000 0.000000 0.000000 0.033540 0.000000 -0.000930
# 5 -0.007862 0.009828 -0.006358 0.000000 0.039176 0.000000
# 6 0.000000 0.000000 0.000000 -0.000930 0.000000 0.047210
#
#
# Mechanical properties :
#
#
# Convention : Reuss Voigt Hill
#
# Bulk Modulus (GPa) = 36.17633 53.60659 44.89146
# Shear Modulus (GPa) = 23.23039 29.42345 26.32692
#
# Velocity S-wave (km/s) = 3.34494 3.76450 3.56091
# Velocity P-wave (km/s) = 5.68701 6.68687 6.20711
#
# Compressibility (1/GPa) = 0.02764238
#
# Stress axis : x y z
#
# Youngs Moduli (GPa) = 55.88453 33.54422 109.12753
#
# Poissons Ratio (x) = 0.18697 0.22072
# Poissons Ratio (y) = 0.31149 0.76575
# Poissons Ratio (z) = 0.11303 0.23538
#
# Static dielectric constant tensor:
#      x y z
#    x 3.710630 0.000000 0.294650 
#    y 0.000000 3.702040 0.000000 
#    z 0.294650 0.000000 4.566980 
# 
# 
# High freq. dielectric constant tensor:
#      x y z
#    x 1.806580 0.000000 0.024300 
#    y 0.000000 1.797900 0.000000 
#    z 0.024300 0.000000 1.837230 
# 
# From -- ./inp_files/41628.got.cif
#   From: 2010.03.12/outbox.cif.g09.slc.cpg/sg5_21_cif.got.tgz:41628.got - 2010.03.31 09:47:26.
