data_PCOD8049398
_publ_section_title
;
Structure prediction by ZEFSAII (Michael W. Deem and Ramdas Pophale) SiO2 
 PCOD8049398
Probable space group: C 2
;
_chemical_formula_sum "Si O2"
_cell_formula_units_Z 30
_cell_length_a 20.279374
_cell_length_b 14.615302
_cell_length_c 8.825152
_cell_angle_alpha 90.000000
_cell_angle_beta 146.446376
_cell_angle_gamma 90.000000
_cell_volume 1445.731036
_symmetry_space_group_name_H-M "C 2"
_symmetry_group_IT_number 5
_symmetry_cell_setting 'monoclinic'
loop_
_space_group_symop_operation_xyz
x,y,z
-x,y,-z
1/2+x,1/2+y,z
1/2-x,1/2+y,-z
loop_
_atom_site_type_symbol
_atom_site_label
_atom_site_fract_x
_atom_site_fract_y
_atom_site_fract_z
Si Si1 0.286752 0.674060 0.413638
Si Si2 0.000000 0.107990 0.000000
Si Si3 0.378022 0.296812 0.723752
Si Si4 0.862063 0.002236 0.201454
Si Si5 0.640413 0.712916 0.774257
Si Si6 0.743071 0.866164 0.195354
Si Si7 0.671395 0.468164 0.191262
Si Si8 0.134368 0.501036 0.207327
O O1 0.422962 0.661764 0.728148
O O2 0.235731 0.741796 0.440184
O O3 0.295057 0.722719 0.265689
O O4 0.204099 0.582968 0.253447
O O5 0.909898 0.055678 0.936202
O O6 0.353998 0.322482 0.502342
O O7 0.396738 0.385966 0.860817
O O8 0.500000 0.241040 0.000000
O O9 0.830799 0.109104 0.121290
O O10 0.000000 0.988127 0.500000
O O11 0.789582 0.954777 0.196284
O O12 0.819801 0.950232 0.969989
O O13 0.500000 0.731515 0.500000
O O14 0.693364 0.786544 0.992796
O O15 0.643944 0.909088 0.121099
O O16 0.802179 0.482084 0.510956
O O17 0.000000 0.524955 0.000000
#
# Coordination Sequence:
#
# PCOD8049398 Si02
#       8
#     4   2   4   4   4   4   4   4
#     4  11  23  41  67 100 127 179 225 283 327 403
#     4  10  20  38  70  94 126 164 232 266 330 386
#     4  11  23  40  66  96 133 171 227 277 326 396
#     4  11  22  41  69  97 134 170 220 282 343 395
#     4  11  25  41  68 100 136 172 225 279 341 402
#     4  11  25  42  65 102 135 179 226 277 342 405
#     4  10  21  38  68  94 124 175 217 270 329 398
#     4  10  23  44  66  92 138 183 225 270 337 397
#
# _framework density 20.750747
#
# number of rings (size 3 to 8) (size 9 to 14) (size 15 to 20)
#    0.000    1.333    2.000    3.600    7.467    3.200 
#    1.200    0.000    0.000    0.000    0.000    0.000 
#    0.000    0.000    0.000    0.000    0.000    0.000 
#
# Total GULP energy -185903.484674 kJ/mol
# GULP energy per Si atom -12393.565645 kJ/mol
# Density = 2.070352 g / cm^3
# Si number density = 20.750747 Si / 1000 Ang^3
#
#
#
# Elastic Constant Matrix: (Units=GPa)
#
#
# Indices 1 2 3 4 5 6 
#
# 1 103.1489 40.7668 63.1902 0.0000 -12.8044 0.0000
# 2 40.7668 99.5918 63.0369 0.0000 -9.6387 0.0000
# 3 63.1902 63.0369 128.0089 0.0000 -3.1921 0.0000
# 4 0.0000 0.0000 0.0000 35.5368 0.0000 -15.5984
# 5 -12.8044 -9.6387 -3.1921 0.0000 38.9213 0.0000
# 6 0.0000 0.0000 0.0000 -15.5984 0.0000 27.3831
#
#
#
# Elastic Compliance Matrix: (Units=1/GPa)
#
#
# Indices 1 2 3 4 5 6 
#
# 1 0.014726 -0.001611 -0.006378 0.000000 0.003922 0.000000
# 2 -0.001611 0.015130 -0.006588 0.000000 0.002676 0.000000
# 3 -0.006378 -0.006588 0.014141 0.000000 -0.002570 0.000000
# 4 0.000000 0.000000 0.000000 0.037521 0.000000 0.021374
# 5 0.003922 0.002676 -0.002570 0.000000 0.027435 0.000000
# 6 0.000000 0.000000 0.000000 0.021374 0.000000 0.048694
#
#
# Mechanical properties :
#
#
# Convention : Reuss Voigt Hill
#
# Bulk Modulus (GPa) = 67.38133 73.85973 70.62053
# Shear Modulus (GPa) = 26.07583 31.28528 28.68056
#
# Velocity S-wave (km/s) = 3.54873 3.88709 3.72176
# Velocity P-wave (km/s) = 7.02379 7.47107 7.25088
#
# Compressibility (1/GPa) = 0.01484091
#
# Stress axis : x y z
#
# Youngs Moduli (GPa) = 67.90903 66.09527 70.71829
#
# Poissons Ratio (x) = 0.10650 0.45103
# Poissons Ratio (y) = 0.10942 0.46592
# Poissons Ratio (z) = 0.43311 0.43546
#
# Static dielectric constant tensor:
#      x y z
#    x 3.803450 0.000000 -0.174930 
#    y 0.000000 3.840910 0.000000 
#    z -0.174930 0.000000 3.876160 
# 
# 
# High freq. dielectric constant tensor:
#      x y z
#    x 1.816250 0.000000 -0.007910 
#    y 0.000000 1.813120 0.000000 
#    z -0.007910 0.000000 1.811580 
# 
# From -- ./inp_files/20397.got.cif
#   From: 2010.03.12/outbox.cif.g09.slc.cpg/sg5_11_cif.got.tgz:20397.got - 2010.03.31 09:47:26.
