data_PCOD8049281
_publ_section_title
;
Structure prediction by ZEFSAII (Michael W. Deem and Ramdas Pophale) SiO2 
 PCOD8049281
Probable space group: C 2
;
_chemical_formula_sum "Si O2"
_cell_formula_units_Z 30
_cell_length_a 5.903014
_cell_length_b 16.905497
_cell_length_c 16.584739
_cell_angle_alpha 90.000000
_cell_angle_beta 58.860667
_cell_angle_gamma 90.000000
_cell_volume 1416.575280
_symmetry_space_group_name_H-M "C 2"
_symmetry_group_IT_number 5
_symmetry_cell_setting 'monoclinic'
loop_
_space_group_symop_operation_xyz
x,y,z
-x,y,-z
1/2+x,1/2+y,z
1/2-x,1/2+y,-z
loop_
_atom_site_type_symbol
_atom_site_label
_atom_site_fract_x
_atom_site_fract_y
_atom_site_fract_z
Si Si1 0.592185 0.098930 0.152639
Si Si2 0.180472 0.720124 0.264405
Si Si3 0.500000 0.031915 0.000000
Si Si4 0.039095 0.970705 0.849814
Si Si5 0.116417 0.998558 0.295999
Si Si6 0.389103 0.775540 0.602815
Si Si7 0.497856 0.861177 0.744554
Si Si8 0.776602 0.129866 0.404505
O O1 0.634512 0.187181 0.181627
O O2 0.844834 0.050660 0.135470
O O3 0.320630 0.068171 0.238923
O O4 0.568326 0.092204 0.060278
O O5 0.412532 0.786016 0.218323
O O6 0.251993 0.649472 0.313306
O O7 0.923498 0.763398 0.346690
O O8 0.738618 0.969659 0.938623
O O9 0.035381 0.968108 0.754541
O O10 0.234903 0.897537 0.837033
O O11 0.899356 0.041540 0.392570
O O12 0.269070 0.925758 0.307771
O O13 0.500000 0.813998 0.500000
O O14 0.445474 0.836323 0.663327
O O15 0.532215 0.692129 0.588540
O O16 0.500000 0.131831 0.500000
#
# Coordination Sequence:
#
# PCOD8049281 Si02
#       8
#     4   4   2   4   4   4   4   4
#     4  10  20  37  68 100 123 161 219 269 327 386
#     4  11  21  39  65  97 125 179 216 264 320 387
#     4  10  22  36  70 108 120 160 214 286 326 390
#     4  10  20  41  63 101 126 162 216 266 334 389
#     4  10  20  39  62  94 128 166 216 268 324 382
#     4  11  22  40  64  92 134 179 225 263 319 381
#     4  10  24  38  65  95 131 179 215 260 329 394
#     4  11  21  36  65  95 127 170 228 272 314 371
#
# _framework density 21.177837
#
# number of rings (size 3 to 8) (size 9 to 14) (size 15 to 20)
#    0.000    1.600    4.000    1.200    0.000    0.000 
#    0.000    4.000    5.867    0.000  156.000    0.000 
#    0.000    0.000    0.000    0.000    0.000    0.000 
#
# Total GULP energy -185931.841900 kJ/mol
# GULP energy per Si atom -12395.456127 kJ/mol
# Density = 2.112964 g / cm^3
# Si number density = 21.177837 Si / 1000 Ang^3
#
#
#
# Elastic Constant Matrix: (Units=GPa)
#
#
# Indices 1 2 3 4 5 6 
#
# 1 107.9603 42.5136 38.6861 0.0000 -6.1215 0.0000
# 2 42.5136 102.5958 46.2218 0.0000 -5.1027 0.0000
# 3 38.6861 46.2218 90.3293 0.0000 -2.5550 0.0000
# 4 0.0000 0.0000 0.0000 20.8188 0.0000 -2.3240
# 5 -6.1215 -5.1027 -2.5550 0.0000 36.7387 0.0000
# 6 0.0000 0.0000 0.0000 -2.3240 0.0000 33.4448
#
#
#
# Elastic Compliance Matrix: (Units=1/GPa)
#
#
# Indices 1 2 3 4 5 6 
#
# 1 0.011844 -0.003347 -0.003324 0.000000 0.001277 0.000000
# 2 -0.003347 0.013676 -0.005538 0.000000 0.000957 0.000000
# 3 -0.003324 -0.005538 0.015321 0.000000 -0.000257 0.000000
# 4 0.000000 0.000000 0.000000 0.048409 0.000000 0.003364
# 5 0.001277 0.000957 -0.000257 0.000000 0.027547 0.000000
# 6 0.000000 0.000000 0.000000 0.003364 0.000000 0.030134
#
#
# Mechanical properties :
#
#
# Convention : Reuss Voigt Hill
#
# Bulk Modulus (GPa) = 60.88659 61.74762 61.31710
# Shear Modulus (GPa) = 28.27694 29.76474 29.02084
#
# Velocity S-wave (km/s) = 3.65802 3.75302 3.70583
# Velocity P-wave (km/s) = 6.83038 6.92822 6.87947
#
# Compressibility (1/GPa) = 0.01642398
#
# Stress axis : x y z
#
# Youngs Moduli (GPa) = 84.42993 73.11882 65.27200
#
# Poissons Ratio (x) = 0.24473 0.21695
# Poissons Ratio (y) = 0.28259 0.36146
# Poissons Ratio (z) = 0.28063 0.40491
#
# Static dielectric constant tensor:
#      x y z
#    x 4.244820 0.000000 -0.049400 
#    y 0.000000 3.653580 0.000000 
#    z -0.049400 0.000000 3.674290 
# 
# 
# High freq. dielectric constant tensor:
#      x y z
#    x 1.860850 0.000000 -0.006970 
#    y 0.000000 1.810350 0.000000 
#    z -0.006970 0.000000 1.802770 
# 
# From -- ./inp_files/58977.got.cif
#   From: 2010.03.12/outbox.cif.g09.slc.cpg/sg5_30_cif.got.tgz:58977.got - 2010.03.31 09:47:26.
