data_PCOD8049240
_publ_section_title
;
Structure prediction by ZEFSAII (Michael W. Deem and Ramdas Pophale) SiO2 
 PCOD8049240
Probable space group: C 2
;
_chemical_formula_sum "Si O2"
_cell_formula_units_Z 20
_cell_length_a 8.252204
_cell_length_b 23.301729
_cell_length_c 7.496490
_cell_angle_alpha 90.000000
_cell_angle_beta 36.375056
_cell_angle_gamma 90.000000
_cell_volume 854.910920
_symmetry_space_group_name_H-M "C 2"
_symmetry_group_IT_number 5
_symmetry_cell_setting 'monoclinic'
loop_
_space_group_symop_operation_xyz
x,y,z
-x,y,-z
1/2+x,1/2+y,z
1/2-x,1/2+y,-z
loop_
_atom_site_type_symbol
_atom_site_label
_atom_site_fract_x
_atom_site_fract_y
_atom_site_fract_z
Si Si1 0.948045 0.083360 0.335900
Si Si2 0.724780 0.864117 0.649403
Si Si3 0.780138 0.763462 0.338943
Si Si4 0.955852 0.651813 0.829564
Si Si5 0.292944 0.465336 0.323946
O O1 0.646702 0.106221 0.562264
O O2 0.000000 0.077056 0.500000
O O3 0.964290 0.021285 0.232041
O O4 0.149912 0.129828 0.062156
O O5 0.660775 0.815261 0.561555
O O6 0.745852 0.925361 0.535790
O O7 0.000000 0.846101 0.500000
O O8 0.500000 0.867805 0.000000
O O9 0.500000 0.736237 0.500000
O O10 0.946340 0.716214 0.312234
O O11 0.000000 0.787028 0.000000
O O12 0.000000 0.651109 0.000000
O O13 0.000000 0.480221 0.500000
O O14 0.500000 0.434641 0.000000
#
# Coordination Sequence:
#
# PCOD8049240 Si02
#       5
#     4   4   4   4   4
#     4  10  20  37  62  91 124 165 213 259 309 377
#     4  12  26  44  66  97 131 173 219 269 329 391
#     4  11  21  40  68  98 131 172 217 267 317 383
#     4   9  18  34  61  92 122 164 212 253 306 379
#     4  12  25  43  65  94 130 172 217 272 329 386
#
# _framework density 23.394252000000002
#
# number of rings (size 3 to 8) (size 9 to 14) (size 15 to 20)
#    0.000    1.200    0.000    8.400    0.000    2.400 
#    0.000    4.000    0.000    0.000    0.000    0.000 
#    0.000    0.000    0.000    0.000    0.000    0.000 
#
# Total GULP energy -123942.777169 kJ/mol
# GULP energy per Si atom -12394.277717 kJ/mol
# Density = 2.334101 g / cm^3
# Si number density = 23.394252 Si / 1000 Ang^3
#
#
#
# Elastic Constant Matrix: (Units=GPa)
#
#
# Indices 1 2 3 4 5 6 
#
# 1 57.0765 24.2797 39.5387 0.0000 -5.9209 0.0000
# 2 24.2797 127.4702 35.2800 0.0000 11.5872 0.0000
# 3 39.5387 35.2800 171.0674 0.0000 6.6067 0.0000
# 4 0.0000 0.0000 0.0000 37.6293 0.0000 -2.5700
# 5 -5.9209 11.5872 6.6067 0.0000 40.4427 0.0000
# 6 0.0000 0.0000 0.0000 -2.5700 0.0000 25.7694
#
#
#
# Elastic Compliance Matrix: (Units=1/GPa)
#
#
# Indices 1 2 3 4 5 6 
#
# 1 0.022833 -0.003499 -0.004754 0.000000 0.005122 0.000000
# 2 -0.003499 0.009040 -0.000942 0.000000 -0.002948 0.000000
# 3 -0.004754 -0.000942 0.007200 0.000000 -0.001602 0.000000
# 4 0.000000 0.000000 0.000000 0.026757 0.000000 0.002669
# 5 0.005122 -0.002948 -0.001602 0.000000 0.026583 0.000000
# 6 0.000000 0.000000 0.000000 0.002669 0.000000 0.039072
#
#
# Mechanical properties :
#
#
# Convention : Reuss Voigt Hill
#
# Bulk Modulus (GPa) = 48.34456 61.53456 54.93956
# Shear Modulus (GPa) = 31.89401 37.86933 34.88167
#
# Velocity S-wave (km/s) = 3.69633 4.02773 3.86558
# Velocity P-wave (km/s) = 6.23916 6.92752 6.59233
#
# Compressibility (1/GPa) = 0.02068485
#
# Stress axis : x y z
#
# Youngs Moduli (GPa) = 43.79614 110.61799 138.88015
#
# Poissons Ratio (x) = 0.38706 0.66018
# Poissons Ratio (y) = 0.15324 0.13080
# Poissons Ratio (z) = 0.20819 0.10418
#
# Static dielectric constant tensor:
#      x y z
#    x 4.031600 0.000000 -0.076820 
#    y 0.000000 4.309800 0.000000 
#    z -0.076820 0.000000 4.556350 
# 
# 
# High freq. dielectric constant tensor:
#      x y z
#    x 1.904710 0.000000 -0.004840 
#    y 0.000000 1.926040 0.000000 
#    z -0.004840 0.000000 1.949680 
# 
# From -- ./inp_files/17273.got.cif
#   From: 2010.03.12/outbox.cif.g09.slc.cpg/sg5_9_cif.got.tgz:17273.got - 2010.03.31 09:47:26.
