data_PCOD8049128
_publ_section_title
;
Structure prediction by ZEFSAII (Michael W. Deem and Ramdas Pophale) SiO2 
 PCOD8049128
Probable space group: C 2
;
_chemical_formula_sum "Si O2"
_cell_formula_units_Z 28
_cell_length_a 12.707119
_cell_length_b 20.917798
_cell_length_c 9.929521
_cell_angle_alpha 90.000000
_cell_angle_beta 31.178920
_cell_angle_gamma 90.000000
_cell_volume 1366.406190
_symmetry_space_group_name_H-M "C 2"
_symmetry_group_IT_number 5
_symmetry_cell_setting 'monoclinic'
loop_
_space_group_symop_operation_xyz
x,y,z
-x,y,-z
1/2+x,1/2+y,z
1/2-x,1/2+y,-z
loop_
_atom_site_type_symbol
_atom_site_label
_atom_site_fract_x
_atom_site_fract_y
_atom_site_fract_z
Si Si1 0.442833 0.493210 0.415792
Si Si2 0.842186 0.593574 0.373547
Si Si3 0.359019 0.773982 0.533367
Si Si4 0.725270 0.067307 0.097550
Si Si5 0.507372 0.681286 0.143352
Si Si6 0.500000 0.976192 0.500000
Si Si7 0.822289 0.904792 0.305320
Si Si8 0.000000 0.687481 0.000000
O O1 0.500000 0.464826 0.500000
O O2 0.248786 0.540928 0.629928
O O3 0.403941 0.435552 0.354732
O O4 0.629588 0.538734 0.174007
O O5 0.668353 0.628967 0.647703
O O6 0.988076 0.559708 0.318590
O O7 0.994580 0.643085 0.136377
O O8 0.500000 0.800038 0.500000
O O9 0.486532 0.737728 0.276213
O O10 0.225634 0.830112 0.612740
O O11 0.207682 0.726536 0.776727
O O12 0.706937 0.017218 0.240044
O O13 0.784434 0.140342 0.069396
O O14 0.500000 0.710457 0.000000
O O15 0.600885 0.932107 0.505686
O O16 0.000000 0.910832 0.000000
#
# Coordination Sequence:
#
# PCOD8049128 Si02
#       8
#     4   4   4   4   4   2   4   2
#     4  11  24  39  61  97 133 164 205 268 329 376
#     4  10  20  36  61  93 130 165 202 254 328 384
#     4  11  23  42  67  89 121 173 225 260 308 374
#     4  11  21  36  65  94 131 164 201 260 320 386
#     4  10  23  39  61  96 133 163 207 268 319 373
#     4  12  22  38  68  98 120 168 216 256 316 384
#     4  12  24  44  66  91 126 171 225 263 305 382
#     4  10  20  36  62  88 122 162 214 264 300 370
#
# _framework density 20.491710000000001
#
# number of rings (size 3 to 8) (size 9 to 14) (size 15 to 20)
#    0.000    1.143    4.286    2.571    2.000    4.000 
#    0.000    2.857    0.000    0.000    0.000    0.000 
#    0.000    0.000    0.000    0.000    0.000    0.000 
#
# Total GULP energy -173474.263687 kJ/mol
# GULP energy per Si atom -12391.018835 kJ/mol
# Density = 2.044507 g / cm^3
# Si number density = 20.491710 Si / 1000 Ang^3
#
#
#
# Elastic Constant Matrix: (Units=GPa)
#
#
# Indices 1 2 3 4 5 6 
#
# 1 127.6511 44.2003 38.9233 0.0076 12.5515 -0.0025
# 2 44.2003 108.7533 39.0167 0.0039 9.2779 -0.0014
# 3 38.9233 39.0167 80.4928 0.0185 7.4486 -0.0050
# 4 0.0076 0.0039 0.0185 29.4765 -0.0061 -5.4848
# 5 12.5515 9.2779 7.4486 -0.0061 33.3791 0.0020
# 6 -0.0025 -0.0014 -0.0050 -5.4848 0.0020 26.8010
#
#
#
# Elastic Compliance Matrix: (Units=1/GPa)
#
#
# Indices 1 2 3 4 5 6 
#
# 1 0.009999 -0.002676 -0.003327 -0.000001 -0.002273 0.000000
# 2 -0.002676 0.011970 -0.004384 0.000002 -0.001343 0.000000
# 3 -0.003327 -0.004384 0.016265 -0.000009 -0.001160 0.000001
# 4 -0.000001 0.000002 -0.000009 0.035268 0.000008 0.007218
# 5 -0.002273 -0.001343 -0.001160 0.000008 0.031446 -0.000001
# 6 0.000000 0.000000 0.000001 0.007218 -0.000001 0.038789
#
#
# Mechanical properties :
#
#
# Convention : Reuss Voigt Hill
#
# Bulk Modulus (GPa) = 57.27785 62.35308 59.81546
# Shear Modulus (GPa) = 29.35462 30.91510 30.13486
#
# Velocity S-wave (km/s) = 3.78896 3.88837 3.83899
# Velocity P-wave (km/s) = 6.86688 7.11714 6.99313
#
# Compressibility (1/GPa) = 0.01745876
#
# Stress axis : x y z
#
# Youngs Moduli (GPa) = 100.01431 83.54194 61.48246
#
# Poissons Ratio (x) = 0.22356 0.20458
# Poissons Ratio (y) = 0.26764 0.26953
# Poissons Ratio (z) = 0.33279 0.36624
#
# Static dielectric constant tensor:
#      x y z
#    x 3.704600 -0.000010 -0.173680 
#    y -0.000010 3.641630 0.000010 
#    z -0.173680 0.000010 3.716510 
# 
# 
# High freq. dielectric constant tensor:
#      x y z
#    x 1.797530 0.000000 -0.009940 
#    y 0.000000 1.793840 0.000000 
#    z -0.009940 0.000000 1.802940 
# 
# From -- ./inp_files/21909.got.cif
#   From: 2010.03.12/outbox.cif.g09.slc.cpg/sg5_11_cif.got.tgz:21909.got - 2010.03.31 09:47:26.
