data_PCOD8049169
_publ_section_title
;
Structure prediction by ZEFSAII (Michael W. Deem and Ramdas Pophale) SiO2 
 PCOD8049169
Probable space group: C 2
;
_chemical_formula_sum "Si O2"
_cell_formula_units_Z 30
_cell_length_a 17.642583
_cell_length_b 13.843031
_cell_length_c 11.761711
_cell_angle_alpha 90.000000
_cell_angle_beta 148.962837
_cell_angle_gamma 90.000000
_cell_volume 1481.056644
_symmetry_space_group_name_H-M "C 2"
_symmetry_group_IT_number 5
_symmetry_cell_setting 'monoclinic'
loop_
_space_group_symop_operation_xyz
x,y,z
-x,y,-z
1/2+x,1/2+y,z
1/2-x,1/2+y,-z
loop_
_atom_site_type_symbol
_atom_site_label
_atom_site_fract_x
_atom_site_fract_y
_atom_site_fract_z
Si Si1 0.874458 0.153510 0.635646
Si Si2 0.776990 0.360695 0.540784
Si Si3 0.841853 0.560348 0.245420
Si Si4 0.378253 0.479572 0.486459
Si Si5 0.179808 0.246186 0.048861
Si Si6 0.000000 0.334667 0.000000
Si Si7 0.840216 0.997989 0.782235
Si Si8 0.720138 0.449408 0.881256
O O1 0.767436 0.246636 0.501645
O O2 0.859206 0.097153 0.735534
O O3 0.832105 0.082627 0.479280
O O4 0.037854 0.191551 0.815978
O O5 0.645497 0.393338 0.453871
O O6 0.771570 0.422237 0.418545
O O7 0.931218 0.390536 0.803296
O O8 0.820594 0.675979 0.220259
O O9 0.715907 0.516594 0.163450
O O10 0.000000 0.534113 0.500000
O O11 0.820477 0.517100 0.090903
O O12 0.549467 0.470032 0.682761
O O13 0.265955 0.470716 0.235922
O O14 0.136008 0.271172 0.123969
O O15 0.226082 0.339209 0.033008
O O16 0.000000 0.948800 0.000000
#
# Coordination Sequence:
#
# PCOD8049169 Si02
#       8
#     4   4   4   4   4   2   4   4
#     4  10  21  41  71  91 116 168 219 257 313 375
#     4  10  21  36  69  96 116 160 219 265 303 367
#     4  12  26  40  58  99 130 165 211 263 314 371
#     4  10  21  42  68  90 127 164 213 257 319 380
#     4  11  21  40  66  89 121 168 214 253 313 377
#     4  10  20  36  70  92 116 156 226 254 304 372
#     4  11  22  42  67  89 131 167 212 265 313 376
#     4  11  24  41  63  91 130 171 201 258 318 387
#
# _framework density 20.255808999999999
#
# number of rings (size 3 to 8) (size 9 to 14) (size 15 to 20)
#    0.000    1.333    4.000    2.400    6.533    0.000 
#    2.400    0.000    5.867    0.000    0.000    0.000 
#    0.000    0.000    0.000    0.000    0.000    0.000 
#
# Total GULP energy -185861.023766 kJ/mol
# GULP energy per Si atom -12390.734918 kJ/mol
# Density = 2.020971 g / cm^3
# Si number density = 20.255809 Si / 1000 Ang^3
#
#
#
# Elastic Constant Matrix: (Units=GPa)
#
#
# Indices 1 2 3 4 5 6 
#
# 1 66.6052 39.9876 16.1987 0.0000 -11.1636 0.0000
# 2 39.9876 128.7494 53.1964 0.0000 -9.3998 0.0000
# 3 16.1987 53.1964 96.8198 0.0000 -11.9576 0.0000
# 4 0.0000 0.0000 0.0000 35.5197 0.0000 1.3382
# 5 -11.1636 -9.3998 -11.9576 0.0000 27.5154 0.0000
# 6 0.0000 0.0000 0.0000 1.3382 0.0000 30.2618
#
#
#
# Elastic Compliance Matrix: (Units=1/GPa)
#
#
# Indices 1 2 3 4 5 6 
#
# 1 0.019401 -0.005884 0.000751 0.000000 0.006188 0.000000
# 2 -0.005884 0.011864 -0.005631 0.000000 -0.000781 0.000000
# 3 0.000751 -0.005631 0.013839 0.000000 0.004396 0.000000
# 4 0.000000 0.000000 0.000000 0.028200 0.000000 -0.001247
# 5 0.006188 -0.000781 0.004396 0.000000 0.040497 0.000000
# 6 0.000000 0.000000 0.000000 -0.001247 0.000000 0.033100
#
#
# Mechanical properties :
#
#
# Convention : Reuss Voigt Hill
#
# Bulk Modulus (GPa) = 42.41386 56.77111 49.59249
# Shear Modulus (GPa) = 28.36270 30.84548 29.60409
#
# Velocity S-wave (km/s) = 3.74602 3.90654 3.82712
# Velocity P-wave (km/s) = 6.30038 6.95959 6.63817
#
# Compressibility (1/GPa) = 0.02357720
#
# Stress axis : x y z
#
# Youngs Moduli (GPa) = 51.54372 84.28876 72.25823
#
# Poissons Ratio (x) = 0.49598 -0.05429
# Poissons Ratio (y) = 0.30330 0.40685
# Poissons Ratio (z) = -0.03873 0.47459
#
# Static dielectric constant tensor:
#      x y z
#    x 3.786800 0.000000 -0.072520 
#    y 0.000000 3.748270 0.000000 
#    z -0.072520 0.000000 3.689420 
# 
# 
# High freq. dielectric constant tensor:
#      x y z
#    x 1.789730 0.000000 -0.001860 
#    y 0.000000 1.784150 0.000000 
#    z -0.001860 0.000000 1.783560 
# 
# From -- ./inp_files/40079.got.cif
#   From: 2010.03.12/outbox.cif.g09.slc.cpg/sg5_21_cif.got.tgz:40079.got - 2010.03.31 09:47:26.
