data_PCOD8049737
_publ_section_title
;
Structure prediction by ZEFSAII (Michael W. Deem and Ramdas Pophale) SiO2 
 PCOD8049737
Probable space group: C 2
;
_chemical_formula_sum "Si O2"
_cell_formula_units_Z 32
_cell_length_a 17.827659
_cell_length_b 8.148931
_cell_length_c 20.973562
_cell_angle_alpha 90.000000
_cell_angle_beta 154.272695
_cell_angle_gamma 90.000000
_cell_volume 1322.651376
_symmetry_space_group_name_H-M "C 2"
_symmetry_group_IT_number 5
_symmetry_cell_setting 'monoclinic'
loop_
_space_group_symop_operation_xyz
x,y,z
-x,y,-z
1/2+x,1/2+y,z
1/2-x,1/2+y,-z
loop_
_atom_site_type_symbol
_atom_site_label
_atom_site_fract_x
_atom_site_fract_y
_atom_site_fract_z
Si Si1 0.258871 0.968050 0.686320
Si Si2 0.112340 0.622668 0.913404
Si Si3 0.478556 0.723825 0.915505
Si Si4 0.841825 0.430382 0.510182
Si Si5 0.374872 0.793524 0.352508
Si Si6 0.128207 0.818781 0.460904
Si Si7 0.074816 0.915829 0.190681
Si Si8 0.684995 0.364724 0.863009
O O1 0.300577 0.823319 0.768617
O O2 0.865039 0.899936 0.464041
O O3 0.434785 0.020349 0.784150
O O4 0.163611 0.107151 0.654567
O O5 0.082934 0.786795 0.933791
O O6 0.139841 0.692420 0.863236
O O7 0.284626 0.520049 0.065601
O O8 0.500479 0.597419 0.873811
O O9 0.500000 0.634813 0.000000
O O10 0.633134 0.854658 0.033346
O O11 0.885619 0.622709 0.542884
O O12 0.790955 0.368488 0.541495
O O13 0.683283 0.390209 0.339635
O O14 0.016815 0.322493 0.629575
O O15 0.500000 0.878375 0.500000
O O16 0.195157 0.892240 0.219549
O O17 0.961391 0.901332 0.300485
#
# Coordination Sequence:
#
# PCOD8049737 Si02
#       8
#     4   4   4   4   4   4   4   4
#     4  10  23  47  73 103 148 191 238 317 373 446
#     4  10  21  43  72  99 141 192 233 291 376 438
#     4  11  25  45  69  99 138 190 244 298 368 450
#     4  11  24  44  72 110 149 189 248 313 379 447
#     4   9  22  42  70 100 141 188 236 295 381 434
#     4  12  25  42  76 116 147 188 255 315 379 446
#     4  10  20  46  69  95 143 191 238 304 363 450
#     4  11  24  41  71 101 146 184 245 298 367 445
#
# _framework density 24.193826999999999
#
# number of rings (size 3 to 8) (size 9 to 14) (size 15 to 20)
#    0.000    1.500    2.500    1.500    5.250    1.000 
#    0.000    9.375    2.750    0.000    0.000    0.000 
#    0.000    0.000    0.000    0.000    0.000    0.000 
#
# Total GULP energy -198232.078487 kJ/mol
# GULP energy per Si atom -12389.504905 kJ/mol
# Density = 2.413876 g / cm^3
# Si number density = 24.193827 Si / 1000 Ang^3
#
#
#
# Elastic Constant Matrix: (Units=GPa)
#
#
# Indices 1 2 3 4 5 6 
#
# 1 71.8437 29.5949 25.2126 -0.0002 -12.1991 -0.0001
# 2 29.5949 126.1417 37.8793 0.0003 -15.1220 -0.0003
# 3 25.2126 37.8793 97.9716 0.0015 -17.4168 -0.0005
# 4 -0.0002 0.0003 0.0015 31.7365 0.0001 2.3748
# 5 -12.1991 -15.1220 -17.4168 0.0001 25.7869 -0.0003
# 6 -0.0001 -0.0003 -0.0005 2.3748 -0.0003 35.6924
#
#
#
# Elastic Compliance Matrix: (Units=1/GPa)
#
#
# Indices 1 2 3 4 5 6 
#
# 1 0.016648 -0.002610 -0.002440 0.000000 0.004697 0.000000
# 2 -0.002610 0.009635 -0.002578 0.000000 0.002674 0.000000
# 3 -0.002440 -0.002578 0.012908 -0.000001 0.006052 0.000000
# 4 0.000000 0.000000 -0.000001 0.031667 0.000000 -0.002107
# 5 0.004697 0.002674 0.006052 0.000000 0.046657 0.000001
# 6 0.000000 0.000000 0.000000 -0.002107 0.000001 0.028157
#
#
# Mechanical properties :
#
#
# Convention : Reuss Voigt Hill
#
# Bulk Modulus (GPa) = 41.78180 53.48119 47.63149
# Shear Modulus (GPa) = 29.60216 32.19450 30.89833
#
# Velocity S-wave (km/s) = 3.50171 3.65182 3.57755
# Velocity P-wave (km/s) = 5.80141 6.31936 6.06592
#
# Compressibility (1/GPa) = 0.02393387
#
# Stress axis : x y z
#
# Youngs Moduli (GPa) = 60.06651 103.79159 77.47366
#
# Poissons Ratio (x) = 0.27091 0.18905
# Poissons Ratio (y) = 0.15678 0.19973
# Poissons Ratio (z) = 0.14657 0.26758
#
# Static dielectric constant tensor:
#      x y z
#    x 4.323530 0.000000 0.222950 
#    y 0.000000 4.275540 0.000000 
#    z 0.222950 0.000000 4.391390 
# 
# 
# High freq. dielectric constant tensor:
#      x y z
#    x 1.955630 0.000000 0.020050 
#    y 0.000000 1.960910 0.000000 
#    z 0.020050 0.000000 1.951700 
# 
# From -- ./inp_files/69107.got.cif
#   From: 2010.03.12/outbox.cif.g09.slc.cpg/sg5_35_cif.got.tgz:69107.got - 2010.03.31 09:47:26.
