data_PCOD8049869
_publ_section_title
;
Structure prediction by ZEFSAII (Michael W. Deem and Ramdas Pophale) SiO2 
 PCOD8049869
Probable space group: C 2
;
_chemical_formula_sum "Si O2"
_cell_formula_units_Z 32
_cell_length_a 9.416659
_cell_length_b 13.956548
_cell_length_c 14.736066
_cell_angle_alpha 90.000000
_cell_angle_beta 62.294709
_cell_angle_gamma 90.000000
_cell_volume 1714.635252
_symmetry_space_group_name_H-M "C 2"
_symmetry_group_IT_number 5
_symmetry_cell_setting 'monoclinic'
loop_
_space_group_symop_operation_xyz
x,y,z
-x,y,-z
1/2+x,1/2+y,z
1/2-x,1/2+y,-z
loop_
_atom_site_type_symbol
_atom_site_label
_atom_site_fract_x
_atom_site_fract_y
_atom_site_fract_z
Si Si1 0.893262 0.871100 0.253639
Si Si2 0.829295 0.238424 0.581940
Si Si3 0.820036 0.708895 0.562949
Si Si4 0.015081 0.707495 0.102423
Si Si5 0.909077 0.087425 0.246829
Si Si6 0.693368 0.366136 0.283150
Si Si7 0.656641 0.724210 0.896674
Si Si8 0.272005 0.583590 0.738350
O O1 0.730360 0.818537 0.330168
O O2 0.966213 0.815175 0.145593
O O3 0.010227 0.867836 0.305374
O O4 0.856421 0.979696 0.238899
O O5 0.718776 0.230633 0.528339
O O6 0.838439 0.136030 0.629236
O O7 0.000000 0.274465 0.500000
O O8 0.706557 0.628046 0.640224
O O9 0.800968 0.806856 0.625480
O O10 0.000000 0.669479 0.500000
O O11 0.196852 0.689210 0.082661
O O12 0.897537 0.629306 0.182360
O O13 0.000000 0.697409 0.000000
O O14 0.886992 0.140003 0.158867
O O15 0.095086 0.093241 0.221739
O O16 0.800594 0.318621 0.172896
O O17 0.758787 0.473231 0.279223
O O18 0.500000 0.750844 0.000000
#
# Coordination Sequence:
#
# PCOD8049869 Si02
#       8
#     4   4   4   4   4   4   4   4
#     4   9  20  38  58  81 115 144 188 231 277 327
#     4  11  21  36  55  86 114 151 189 233 274 327
#     4  11  21  36  59  80 116 153 191 227 276 330
#     4  10  21  39  61  83 112 149 179 229 284 336
#     4  10  21  38  58  85 112 149 186 235 277 328
#     4   9  20  38  59  82 108 152 188 227 273 334
#     4  10  21  39  61  84 112 144 185 229 281 336
#     4  10  21  38  59  83 115 145 190 231 278 333
#
# _framework density 18.662860999999999
#
# number of rings (size 3 to 8) (size 9 to 14) (size 15 to 20)
#    0.000    2.000    2.500    0.750    1.750    3.000 
#    2.250    2.500    0.000    0.000    0.000    0.000 
#    0.000    0.000    0.000    0.000    0.000    0.000 
#
# Total GULP energy -198402.764944 kJ/mol
# GULP energy per Si atom -12400.172809 kJ/mol
# Density = 1.862038 g / cm^3
# Si number density = 18.662861 Si / 1000 Ang^3
#
#
#
# Elastic Constant Matrix: (Units=GPa)
#
#
# Indices 1 2 3 4 5 6 
#
# 1 94.5555 27.1115 30.3378 0.0000 -7.7307 0.0000
# 2 27.1115 131.5465 28.7678 0.0000 -4.8219 0.0000
# 3 30.3378 28.7678 81.9575 0.0000 -6.5011 0.0000
# 4 0.0000 0.0000 0.0000 13.3081 0.0000 1.5124
# 5 -7.7307 -4.8219 -6.5011 0.0000 40.8843 0.0000
# 6 0.0000 0.0000 0.0000 1.5124 0.0000 24.4726
#
#
#
# Elastic Compliance Matrix: (Units=1/GPa)
#
#
# Indices 1 2 3 4 5 6 
#
# 1 0.012426 -0.001652 -0.003898 0.000000 0.001535 0.000000
# 2 -0.001652 0.008464 -0.002335 0.000000 0.000315 0.000000
# 3 -0.003898 -0.002335 0.014567 0.000000 0.001304 0.000000
# 4 0.000000 0.000000 0.000000 0.075674 0.000000 -0.004677
# 5 0.001535 0.000315 0.001304 0.000000 0.024994 0.000000
# 6 0.000000 0.000000 0.000000 -0.004677 0.000000 0.041151
#
#
# Mechanical properties :
#
#
# Convention : Reuss Voigt Hill
#
# Bulk Modulus (GPa) = 50.79222 53.38818 52.09020
# Shear Modulus (GPa) = 25.04914 30.52251 27.78582
#
# Velocity S-wave (km/s) = 3.66757 4.04848 3.86272
# Velocity P-wave (km/s) = 6.72380 7.10791 6.91852
#
# Compressibility (1/GPa) = 0.01968805
#
# Stress axis : x y z
#
# Youngs Moduli (GPa) = 80.47880 118.14089 68.64751
#
# Poissons Ratio (x) = 0.19520 0.26758
# Poissons Ratio (y) = 0.13297 0.16026
# Poissons Ratio (z) = 0.31369 0.27581
#
# Static dielectric constant tensor:
#      x y z
#    x 3.439760 0.000000 -0.080850 
#    y 0.000000 3.455670 0.000000 
#    z -0.080850 0.000000 3.425950 
# 
# 
# High freq. dielectric constant tensor:
#      x y z
#    x 1.729070 0.000000 -0.002860 
#    y 0.000000 1.720320 0.000000 
#    z -0.002860 0.000000 1.729660 
# 
# From -- ./inp_files/50916.got.cif
#   From: 2010.03.12/outbox.cif.g09.slc.cpg/sg5_26_cif.got.tgz:50916.got - 2010.03.31 09:47:26.
