data_PCOD8049406
_publ_section_title
;
Structure prediction by ZEFSAII (Michael W. Deem and Ramdas Pophale) SiO2 
 PCOD8049406
Probable space group: C 2
;
_chemical_formula_sum "Si O2"
_cell_formula_units_Z 32
_cell_length_a 12.547037
_cell_length_b 14.547283
_cell_length_c 18.047572
_cell_angle_alpha 90.000000
_cell_angle_beta 30.117542
_cell_angle_gamma 90.000000
_cell_volume 1652.918279
_symmetry_space_group_name_H-M "C 2"
_symmetry_group_IT_number 5
_symmetry_cell_setting 'monoclinic'
loop_
_space_group_symop_operation_xyz
x,y,z
-x,y,-z
1/2+x,1/2+y,z
1/2-x,1/2+y,-z
loop_
_atom_site_type_symbol
_atom_site_label
_atom_site_fract_x
_atom_site_fract_y
_atom_site_fract_z
Si Si1 0.251489 0.513250 0.349185
Si Si2 0.432865 0.667627 0.824988
Si Si3 0.683301 0.670012 0.451473
Si Si4 0.495921 0.196837 0.144778
Si Si5 0.917136 0.317325 0.363237
Si Si6 0.873231 0.976851 0.440497
Si Si7 0.797711 0.550411 0.161913
Si Si8 0.146098 0.881815 0.845171
O O1 0.369851 0.609497 0.263112
O O2 0.306059 0.470946 0.395531
O O3 0.350019 0.446812 0.228285
O O4 0.000000 0.528250 0.500000
O O5 0.524387 0.767102 0.748326
O O6 0.326847 0.619783 0.817260
O O7 0.249648 0.681470 0.996796
O O8 0.500000 0.673114 0.500000
O O9 0.635242 0.741122 0.544601
O O10 0.712462 0.568891 0.468316
O O11 0.904100 0.705397 0.282716
O O12 0.378804 0.107500 0.182746
O O13 0.446176 0.283042 0.122309
O O14 0.721705 0.386183 0.463753
O O15 0.113725 0.378128 0.271512
O O16 0.131149 0.973858 0.290406
O O17 0.000000 0.503315 0.000000
O O18 0.000000 0.920974 0.000000
#
# Coordination Sequence:
#
# PCOD8049406 Si02
#       8
#     4   4   4   4   4   4   4   4
#     4  11  23  40  60  87 129 169 201 250 314 374
#     4  10  20  39  57  86 123 165 197 247 320 365
#     4  12  21  37  64  94 125 161 208 261 311 363
#     4  11  19  34  64  91 123 149 206 261 317 356
#     4  12  21  37  63  91 125 163 206 260 306 369
#     4  11  22  36  60  97 127 158 213 256 310 374
#     4   9  16  33  59  85 123 157 191 254 314 358
#     4  12  21  35  63  96 124 154 211 271 309 359
#
# _framework density 19.359697000000001
#
# number of rings (size 3 to 8) (size 9 to 14) (size 15 to 20)
#    0.000    1.000    8.750    1.125    0.000    1.000 
#    0.000    0.625    0.000    0.000    0.000    0.000 
#    0.000    0.000    0.000    0.000    0.000    0.000 
#
# Total GULP energy -198369.371480 kJ/mol
# GULP energy per Si atom -12398.085718 kJ/mol
# Density = 1.931563 g / cm^3
# Si number density = 19.359697 Si / 1000 Ang^3
#
#
#
# Elastic Constant Matrix: (Units=GPa)
#
#
# Indices 1 2 3 4 5 6 
#
# 1 40.0376 25.8995 32.1859 0.0251 -0.0845 -0.0163
# 2 25.8995 89.0311 52.8965 0.0527 -9.2234 -0.0028
# 3 32.1859 52.8965 173.0612 0.2450 -3.3031 -0.0808
# 4 0.0251 0.0527 0.2450 20.1827 -0.1324 7.5679
# 5 -0.0845 -9.2234 -3.3031 -0.1324 29.4196 0.0469
# 6 -0.0163 -0.0028 -0.0808 7.5679 0.0469 26.4842
#
#
#
# Elastic Compliance Matrix: (Units=1/GPa)
#
#
# Indices 1 2 3 4 5 6 
#
# 1 0.032983 -0.007577 -0.003870 0.000004 -0.002715 0.000011
# 2 -0.007577 0.015912 -0.003367 0.000052 0.004589 -0.000036
# 3 -0.003870 -0.003367 0.007523 -0.000097 -0.000223 0.000048
# 4 0.000004 0.000052 -0.000097 0.055497 0.000281 -0.015859
# 5 -0.002715 0.004589 -0.000223 0.000281 0.035398 -0.000145
# 6 0.000011 -0.000036 0.000048 -0.015859 -0.000145 0.042291
#
#
# Mechanical properties :
#
#
# Convention : Reuss Voigt Hill
#
# Bulk Modulus (GPa) = 37.32669 58.23266 47.77967
# Shear Modulus (GPa) = 21.91423 27.96050 24.93736
#
# Velocity S-wave (km/s) = 3.36810 3.80447 3.59291
# Velocity P-wave (km/s) = 5.86923 7.03159 6.47654
#
# Compressibility (1/GPa) = 0.02679048
#
# Stress axis : x y z
#
# Youngs Moduli (GPa) = 30.31839 62.84591 132.92424
#
# Poissons Ratio (x) = 0.47617 0.51444
# Poissons Ratio (y) = 0.22972 0.44754
# Poissons Ratio (z) = 0.11734 0.21159
#
# Static dielectric constant tensor:
#      x y z
#    x 3.287790 0.000010 0.079540 
#    y 0.000010 3.419850 0.000110 
#    z 0.079540 0.000110 4.203230 
# 
# 
# High freq. dielectric constant tensor:
#      x y z
#    x 1.714810 0.000000 0.007520 
#    y 0.000000 1.733210 0.000000 
#    z 0.007520 0.000000 1.783570 
# 
# From -- ./inp_files/60672.got.cif
#   From: 2010.03.12/outbox.cif.g09.slc.cpg/sg5_31_cif.got.tgz:60672.got - 2010.03.31 09:47:26.
