data_PCOD8049472
_publ_section_title
;
Structure prediction by ZEFSAII (Michael W. Deem and Ramdas Pophale) SiO2 
 PCOD8049472
Probable space group: C 2
;
_chemical_formula_sum "Si O2"
_cell_formula_units_Z 28
_cell_length_a 24.078125
_cell_length_b 8.424937
_cell_length_c 6.779025
_cell_angle_alpha 90.000000
_cell_angle_beta 77.728308
_cell_angle_gamma 90.000000
_cell_volume 1343.748872
_symmetry_space_group_name_H-M "C 2"
_symmetry_group_IT_number 5
_symmetry_cell_setting 'monoclinic'
loop_
_space_group_symop_operation_xyz
x,y,z
-x,y,-z
1/2+x,1/2+y,z
1/2-x,1/2+y,-z
loop_
_atom_site_type_symbol
_atom_site_label
_atom_site_fract_x
_atom_site_fract_y
_atom_site_fract_z
Si Si1 0.328812 0.729400 0.508274
Si Si2 0.799596 0.025960 0.875021
Si Si3 0.410976 0.316883 0.743136
Si Si4 0.000000 0.314910 0.500000
Si Si5 0.932812 0.038226 0.373283
Si Si6 0.606649 0.959922 0.251460
Si Si7 0.192182 0.326717 0.893813
Si Si8 0.000000 0.873790 0.000000
O O1 0.287577 0.633183 0.687688
O O2 0.367705 0.586929 0.394475
O O3 0.360719 0.862981 0.607639
O O4 0.301163 0.826258 0.348636
O O5 0.858141 0.927934 0.838941
O O6 0.745673 0.915099 0.949233
O O7 0.805167 0.142865 0.053931
O O8 0.441990 0.405352 0.537208
O O9 0.385332 0.145907 0.708534
O O10 0.458546 0.281376 0.878119
O O11 0.963437 0.203424 0.389079
O O12 0.960455 0.420176 0.675784
O O13 0.955191 0.978799 0.149761
O O14 0.633673 0.909909 0.017876
#
# Coordination Sequence:
#
# PCOD8049472 Si02
#       8
#     4   4   4   2   4   4   4   2
#     4   9  22  41  63  91 123 164 208 254 315 375
#     4  10  23  40  66  91 128 164 207 265 312 360
#     4  11  23  42  59  92 128 165 206 263 313 366
#     4  10  20  40  60  84 126 170 194 266 320 344
#     4  10  21  38  61  85 120 163 207 258 308 366
#     4  10  24  40  62  91 133 161 208 263 312 367
#     4  11  22  43  66  96 123 168 212 251 313 383
#     4  12  22  34  66  86 120 164 216 248 310 374
#
# _framework density 20.837226000000001
#
# number of rings (size 3 to 8) (size 9 to 14) (size 15 to 20)
#    0.000    1.714    1.429    2.571    4.000    4.571 
#    2.571    2.857    0.000    0.000    0.000    0.000 
#    0.000    0.000    0.000    0.000    0.000    0.000 
#
# Total GULP energy -173464.216504 kJ/mol
# GULP energy per Si atom -12390.301179 kJ/mol
# Density = 2.078980 g / cm^3
# Si number density = 20.837226 Si / 1000 Ang^3
#
#
#
# Elastic Constant Matrix: (Units=GPa)
#
#
# Indices 1 2 3 4 5 6 
#
# 1 71.3710 25.6126 20.9066 0.0000 -9.5736 0.0000
# 2 25.6126 125.7674 27.4878 0.0000 -3.3711 0.0000
# 3 20.9066 27.4878 85.2878 0.0000 -3.6083 0.0000
# 4 0.0000 0.0000 0.0000 18.5783 0.0000 -7.7004
# 5 -9.5736 -3.3711 -3.6083 0.0000 21.1276 0.0000
# 6 0.0000 0.0000 0.0000 -7.7004 0.0000 27.5490
#
#
#
# Elastic Compliance Matrix: (Units=1/GPa)
#
#
# Indices 1 2 3 4 5 6 
#
# 1 0.016699 -0.002571 -0.002984 0.000000 0.006647 0.000000
# 2 -0.002571 0.008966 -0.002265 0.000000 -0.000121 0.000000
# 3 -0.002984 -0.002265 0.013209 0.000000 0.000543 0.000000
# 4 0.000000 0.000000 0.000000 0.060880 0.000000 0.017017
# 5 0.006647 -0.000121 0.000543 0.000000 0.050417 0.000000
# 6 0.000000 0.000000 0.000000 0.017017 0.000000 0.041055
#
#
# Mechanical properties :
#
#
# Convention : Reuss Voigt Hill
#
# Bulk Modulus (GPa) = 43.03510 47.82667 45.43089
# Shear Modulus (GPa) = 23.29792 27.34559 25.32175
#
# Velocity S-wave (km/s) = 3.34741 3.62656 3.48978
# Velocity P-wave (km/s) = 5.96976 6.36696 6.17156
#
# Compressibility (1/GPa) = 0.02323685
#
# Stress axis : x y z
#
# Youngs Moduli (GPa) = 59.88208 111.52703 75.70400
#
# Poissons Ratio (x) = 0.28668 0.22589
# Poissons Ratio (y) = 0.15393 0.17146
# Poissons Ratio (z) = 0.17868 0.25259
#
# Static dielectric constant tensor:
#      x y z
#    x 3.755490 0.000000 -0.313600 
#    y 0.000000 3.786370 0.000000 
#    z -0.313600 0.000000 3.836910 
# 
# 
# High freq. dielectric constant tensor:
#      x y z
#    x 1.808690 0.000000 -0.017700 
#    y 0.000000 1.816970 0.000000 
#    z -0.017700 0.000000 1.813790 
# 
# From -- ./inp_files/10775.got.cif
#   From: 2010.03.12/outbox.cif.g09.slc.cpg/sg5_6_cif.got.tgz:10775.got - 2010.03.31 09:47:26.
