data_PCOD8049172
_publ_section_title
;
Structure prediction by ZEFSAII (Michael W. Deem and Ramdas Pophale) SiO2 
 PCOD8049172
Probable space group: C 2
;
_chemical_formula_sum "Si O2"
_cell_formula_units_Z 32
_cell_length_a 8.361660
_cell_length_b 18.827476
_cell_length_c 10.906252
_cell_angle_alpha 90.000000
_cell_angle_beta 56.213784
_cell_angle_gamma 90.000000
_cell_volume 1426.996698
_symmetry_space_group_name_H-M "C 2"
_symmetry_group_IT_number 5
_symmetry_cell_setting 'monoclinic'
loop_
_space_group_symop_operation_xyz
x,y,z
-x,y,-z
1/2+x,1/2+y,z
1/2-x,1/2+y,-z
loop_
_atom_site_type_symbol
_atom_site_label
_atom_site_fract_x
_atom_site_fract_y
_atom_site_fract_z
Si Si1 0.491156 0.424120 0.219253
Si Si2 0.122414 0.195272 0.562027
Si Si3 0.537090 0.036155 0.277244
Si Si4 0.718467 0.548262 0.588823
Si Si5 0.289457 0.756248 0.839724
Si Si6 0.779574 0.411395 0.902098
Si Si7 0.226827 0.165473 0.926102
Si Si8 0.968589 0.766958 0.281533
O O1 0.447879 0.488333 0.332609
O O2 0.349346 0.420013 0.163931
O O3 0.488745 0.350931 0.298852
O O4 0.694865 0.439051 0.067403
O O5 0.145575 0.128322 0.643812
O O6 0.325744 0.231089 0.440790
O O7 0.000000 0.166083 0.500000
O O8 0.992430 0.253982 0.682790
O O9 0.316370 0.051805 0.410509
O O10 0.639537 0.027599 0.363634
O O11 0.645580 0.095002 0.149006
O O12 0.536335 0.961490 0.203254
O O13 0.314344 0.827965 0.908090
O O14 0.110214 0.757632 0.823287
O O15 0.255113 0.688660 0.940515
O O16 0.323754 0.227242 0.799281
O O17 0.000000 0.152739 0.000000
#
# Coordination Sequence:
#
# PCOD8049172 Si02
#       8
#     4   4   4   4   4   4   4   4
#     4   9  18  32  60  80 110 143 189 238 286 330
#     4  10  21  36  59  82 114 151 197 235 288 350
#     4  10  22  34  56  84 117 145 190 240 288 345
#     4  10  20  37  55  83 113 153 189 237 291 340
#     4  10  21  37  62  85 114 151 195 245 289 338
#     4   9  18  33  54  86 108 141 191 238 281 335
#     4  12  23  36  58  86 121 155 189 237 295 347
#     4  10  20  40  59  86 113 152 196 243 283 343
#
# _framework density 22.424720000000001
#
# number of rings (size 3 to 8) (size 9 to 14) (size 15 to 20)
#    0.000    2.000    2.500    1.125    7.000    0.000 
#    0.000    0.000    2.750    1.500    0.000    0.000 
#    0.000    0.000    0.000    0.000    0.000    0.000 
#
# Total GULP energy -198244.037945 kJ/mol
# GULP energy per Si atom -12390.252372 kJ/mol
# Density = 2.237368 g / cm^3
# Si number density = 22.424720 Si / 1000 Ang^3
#
#
#
# Elastic Constant Matrix: (Units=GPa)
#
#
# Indices 1 2 3 4 5 6 
#
# 1 13.5123 7.9716 18.2475 0.0000 -9.5374 0.0000
# 2 7.9716 135.1875 60.1752 0.0000 -2.2305 0.0000
# 3 18.2475 60.1752 122.4469 0.0000 -16.8901 0.0000
# 4 0.0000 0.0000 0.0000 51.1673 0.0000 -1.7043
# 5 -9.5374 -2.2305 -16.8901 0.0000 22.0230 0.0000
# 6 0.0000 0.0000 0.0000 -1.7043 0.0000 18.8292
#
#
#
# Elastic Compliance Matrix: (Units=1/GPa)
#
#
# Indices 1 2 3 4 5 6 
#
# 1 0.120814 -0.001360 -0.011337 0.000000 0.043488 0.000000
# 2 -0.001360 0.009654 -0.005019 0.000000 -0.003461 0.000000
# 3 -0.011337 -0.005019 0.012945 0.000000 0.004510 0.000000
# 4 0.000000 0.000000 0.000000 0.019603 0.000000 0.001774
# 5 0.043488 -0.003461 0.004510 0.000000 0.067348 0.000000
# 6 0.000000 0.000000 0.000000 0.001774 0.000000 0.053269
#
#
# Mechanical properties :
#
#
# Convention : Reuss Voigt Hill
#
# Bulk Modulus (GPa) = 9.26090 49.32614 29.29352
# Shear Modulus (GPa) = 14.08209 30.72073 22.40141
#
# Velocity S-wave (km/s) = 2.50866 3.70530 3.16406
# Velocity P-wave (km/s) = 3.53976 6.35214 5.14196
#
# Compressibility (1/GPa) = 0.10798084
#
# Stress axis : x y z
#
# Youngs Moduli (GPa) = 8.27717 103.57955 77.24969
#
# Poissons Ratio (x) = 0.14087 0.87579
# Poissons Ratio (y) = 0.01126 0.38773
# Poissons Ratio (z) = 0.09384 0.51989
#
# Static dielectric constant tensor:
#      x y z
#    x 3.529130 0.000000 -0.257490 
#    y 0.000000 4.118170 0.000000 
#    z -0.257490 0.000000 4.467970 
# 
# 
# High freq. dielectric constant tensor:
#      x y z
#    x 1.822750 0.000000 -0.014960 
#    y 0.000000 1.887480 0.000000 
#    z -0.014960 0.000000 1.904320 
# 
# From -- ./inp_files/37359.got.cif
#   From: 2010.03.12/outbox.cif.g09.slc.cpg/sg5_19_cif.got.tgz:37359.got - 2010.03.31 09:47:26.
