data_PCOD8049491
_publ_section_title
;
Structure prediction by ZEFSAII (Michael W. Deem and Ramdas Pophale) SiO2 
 PCOD8049491
Probable space group: C 2
;
_chemical_formula_sum "Si O2"
_cell_formula_units_Z 32
_cell_length_a 14.518085
_cell_length_b 23.390113
_cell_length_c 8.664072
_cell_angle_alpha 90.000000
_cell_angle_beta 149.304342
_cell_angle_gamma 90.000000
_cell_volume 1501.898311
_symmetry_space_group_name_H-M "C 2"
_symmetry_group_IT_number 5
_symmetry_cell_setting 'monoclinic'
loop_
_space_group_symop_operation_xyz
x,y,z
-x,y,-z
1/2+x,1/2+y,z
1/2-x,1/2+y,-z
loop_
_atom_site_type_symbol
_atom_site_label
_atom_site_fract_x
_atom_site_fract_y
_atom_site_fract_z
Si Si1 0.981918 0.976770 0.298871
Si Si2 0.808277 0.905154 0.807729
Si Si3 0.044213 0.596422 0.902347
Si Si4 0.142385 0.699342 0.830006
Si Si5 0.925503 0.095962 0.543418
Si Si6 0.357447 0.979906 0.668948
Si Si7 0.307264 0.275256 0.802608
Si Si8 0.978432 0.201125 0.789904
O O1 0.163447 0.973464 0.463803
O O2 0.000000 0.954824 0.500000
O O3 0.932422 0.044732 0.219504
O O4 0.827446 0.938479 0.998022
O O5 0.647745 0.936650 0.483157
O O6 0.748398 0.840172 0.749691
O O7 0.000000 0.906413 0.000000
O O8 0.060781 0.640382 0.784207
O O9 0.903216 0.544315 0.672098
O O10 0.237034 0.566687 0.218672
O O11 0.000000 0.630278 0.000000
O O12 0.000000 0.722749 0.500000
O O13 0.175517 0.745358 0.008777
O O14 0.328774 0.691889 0.010201
O O15 0.000000 0.131519 0.500000
O O16 0.889132 0.138445 0.634724
O O17 0.500000 0.958235 0.000000
O O18 0.148558 0.248533 0.469543
O O19 0.500000 0.270708 0.000000
O O20 0.000000 0.215824 0.000000
#
# Coordination Sequence:
#
# PCOD8049491 Si02
#       8
#     4   4   4   4   4   4   4   4
#     4  10  21  38  63  91 130 170 211 259 317 380
#     4   9  22  42  68  94 124 172 217 261 320 386
#     4  11  21  39  66  96 134 170 206 265 328 385
#     4  12  26  42  66  98 132 171 219 271 326 395
#     4  11  20  39  65  92 134 171 206 263 326 386
#     4  10  20  40  61  92 129 169 210 261 315 381
#     4  11  23  46  70  94 133 171 219 277 326 380
#     4  12  26  42  68  98 128 175 220 268 331 392
#
# _framework density 21.306370999999999
#
# number of rings (size 3 to 8) (size 9 to 14) (size 15 to 20)
#    0.000    1.250    5.000    1.500    1.750    3.500 
#    0.000    5.625    0.000    0.000    0.000    0.000 
#    0.000    0.000    0.000    0.000    0.000    0.000 
#
# Total GULP energy -198244.148020 kJ/mol
# GULP energy per Si atom -12390.259251 kJ/mol
# Density = 2.125788 g / cm^3
# Si number density = 21.306371 Si / 1000 Ang^3
#
#
#
# Elastic Constant Matrix: (Units=GPa)
#
#
# Indices 1 2 3 4 5 6 
#
# 1 100.5254 52.1717 46.7879 0.0000 -18.0611 0.0000
# 2 52.1717 150.5796 74.6867 0.0000 -33.0974 0.0000
# 3 46.7879 74.6867 130.6117 0.0000 -34.4621 0.0000
# 4 0.0000 0.0000 0.0000 31.4518 0.0000 -6.3556
# 5 -18.0611 -33.0974 -34.4621 0.0000 46.1472 0.0000
# 6 0.0000 0.0000 0.0000 -6.3556 0.0000 17.1488
#
#
#
# Elastic Compliance Matrix: (Units=1/GPa)
#
#
# Indices 1 2 3 4 5 6 
#
# 1 0.012888 -0.002921 -0.002700 0.000000 0.000933 0.000000
# 2 -0.002921 0.010368 -0.004012 0.000000 0.003296 0.000000
# 3 -0.002700 -0.004012 0.012304 0.000000 0.005254 0.000000
# 4 0.000000 0.000000 0.000000 0.034369 0.000000 0.012737
# 5 0.000933 0.003296 0.005254 0.000000 0.028322 0.000000
# 6 0.000000 0.000000 0.000000 0.012737 0.000000 0.063034
#
#
# Mechanical properties :
#
#
# Convention : Reuss Voigt Hill
#
# Bulk Modulus (GPa) = 61.37830 81.00104 71.18967
# Shear Modulus (GPa) = 26.88408 32.82091 29.85250
#
# Velocity S-wave (km/s) = 3.55602 3.92909 3.74720
# Velocity P-wave (km/s) = 6.76242 7.66051 7.22543
#
# Compressibility (1/GPa) = 0.01629240
#
# Stress axis : x y z
#
# Youngs Moduli (GPa) = 77.59075 96.45346 81.27223
#
# Poissons Ratio (x) = 0.28174 0.21947
# Poissons Ratio (y) = 0.22664 0.32610
# Poissons Ratio (z) = 0.20953 0.38701
#
# Static dielectric constant tensor:
#      x y z
#    x 4.070940 0.000000 -0.076450 
#    y 0.000000 3.885010 0.000000 
#    z -0.076450 0.000000 4.065650 
# 
# 
# High freq. dielectric constant tensor:
#      x y z
#    x 1.842620 0.000000 0.001810 
#    y 0.000000 1.821360 0.000000 
#    z 0.001810 0.000000 1.834880 
# 
# From -- ./inp_files/25654.got.cif
#   From: 2010.03.12/outbox.cif.g09.slc.cpg/sg5_13_cif.got.tgz:25654.got - 2010.03.31 09:47:26.
