data_PCOD8049598
_publ_section_title
;
Structure prediction by ZEFSAII (Michael W. Deem and Ramdas Pophale) SiO2 
 PCOD8049598
Probable space group: C 2
;
_chemical_formula_sum "Si O2"
_cell_formula_units_Z 30
_cell_length_a 16.670062
_cell_length_b 8.626251
_cell_length_c 28.151897
_cell_angle_alpha 90.000000
_cell_angle_beta 158.563197
_cell_angle_gamma 90.000000
_cell_volume 1479.531981
_symmetry_space_group_name_H-M "C 2"
_symmetry_group_IT_number 5
_symmetry_cell_setting 'monoclinic'
loop_
_space_group_symop_operation_xyz
x,y,z
-x,y,-z
1/2+x,1/2+y,z
1/2-x,1/2+y,-z
loop_
_atom_site_type_symbol
_atom_site_label
_atom_site_fract_x
_atom_site_fract_y
_atom_site_fract_z
Si Si1 0.267908 0.639710 0.243922
Si Si2 0.384206 0.610077 0.202051
Si Si3 0.500000 0.618703 0.000000
Si Si4 0.009659 0.502475 0.833373
Si Si5 0.094354 0.850412 0.983750
Si Si6 0.621665 0.636140 0.516871
Si Si7 0.221582 0.817945 0.602289
Si Si8 0.068990 0.766219 0.791489
O O1 0.333130 0.571727 0.228785
O O2 0.471537 0.685047 0.389629
O O3 0.095154 0.520831 0.172581
O O4 0.130961 0.796909 0.163177
O O5 0.199104 0.723807 0.078031
O O6 0.621727 0.690329 0.333598
O O7 0.404719 0.450289 0.183812
O O8 0.527034 0.510691 0.969802
O O9 0.720663 0.720979 0.124849
O O10 0.225932 0.395377 0.957169
O O11 0.058198 0.668604 0.834706
O O12 0.831739 0.409894 0.705786
O O13 0.500000 0.667402 0.500000
O O14 0.667010 0.452389 0.533966
O O15 0.847277 0.733768 0.639172
O O16 0.000000 0.736913 0.500000
#
# Coordination Sequence:
#
# PCOD8049598 Si02
#       8
#     4   4   2   4   4   4   4   4
#     4  12  21  38  68  92 125 158 213 270 302 368
#     4  11  24  37  64  97 127 151 208 279 315 358
#     4  10  20  42  68  82 122 178 206 246 328 380
#     4   9  20  41  65  83 122 173 209 240 317 389
#     4  10  22  41  62  92 123 170 207 255 323 384
#     4  10  20  41  66  86 122 174 213 244 316 388
#     4   9  17  40  67  82 120 170 207 238 318 387
#     4  10  22  40  64  90 124 165 206 260 322 374
#
# _framework density 20.276683999999999
#
# number of rings (size 3 to 8) (size 9 to 14) (size 15 to 20)
#    0.000    1.867    5.333    0.800    1.867    2.667 
#    2.400    0.000    0.000    0.000    0.000    0.000 
#    0.000    0.000    0.000    0.000    0.000    0.000 
#
# Total GULP energy -185889.529624 kJ/mol
# GULP energy per Si atom -12392.635308 kJ/mol
# Density = 2.023053 g / cm^3
# Si number density = 20.276684 Si / 1000 Ang^3
#
#
#
# Elastic Constant Matrix: (Units=GPa)
#
#
# Indices 1 2 3 4 5 6 
#
# 1 101.1452 39.0877 29.4680 -0.0037 18.4442 0.0050
# 2 39.0877 100.7092 45.7210 0.0038 12.5905 0.0014
# 3 29.4680 45.7210 124.2957 0.0259 20.6503 0.0077
# 4 -0.0037 0.0038 0.0259 29.2529 0.0000 10.7093
# 5 18.4442 12.5905 20.6503 0.0000 36.1961 -0.0019
# 6 0.0050 0.0014 0.0077 10.7093 -0.0019 20.2620
#
#
#
# Elastic Compliance Matrix: (Units=1/GPa)
#
#
# Indices 1 2 3 4 5 6 
#
# 1 0.012452 -0.003922 -0.000753 0.000005 -0.004551 -0.000005
# 2 -0.003922 0.013265 -0.003883 0.000001 -0.000400 0.000001
# 3 -0.000753 -0.003883 0.010345 -0.000009 -0.004167 0.000001
# 4 0.000005 0.000001 -0.000009 0.042386 0.000001 -0.022403
# 5 -0.004551 -0.000400 -0.004167 0.000001 0.032463 0.000005
# 6 -0.000005 0.000001 0.000001 -0.022403 0.000005 0.061194
#
#
# Mechanical properties :
#
#
# Convention : Reuss Voigt Hill
#
# Bulk Modulus (GPa) = 52.78556 61.63373 57.20964
# Shear Modulus (GPa) = 25.57080 31.26710 28.41895
#
# Velocity S-wave (km/s) = 3.55504 3.93112 3.74780
# Velocity P-wave (km/s) = 6.55288 7.14614 6.85593
#
# Compressibility (1/GPa) = 0.01894458
#
# Stress axis : x y z
#
# Youngs Moduli (GPa) = 80.30999 75.38856 96.66909
#
# Poissons Ratio (x) = 0.29566 0.07283
# Poissons Ratio (y) = 0.31496 0.37536
# Poissons Ratio (z) = 0.06050 0.29273
#
# Static dielectric constant tensor:
#      x y z
#    x 3.585760 0.000040 0.388080 
#    y 0.000040 3.716520 0.000000 
#    z 0.388080 0.000000 4.107770 
# 
# 
# High freq. dielectric constant tensor:
#      x y z
#    x 1.776850 0.000000 0.028100 
#    y 0.000000 1.777980 0.000000 
#    z 0.028100 0.000000 1.802750 
# 
# From -- ./inp_files/72132.got.cif
#   From: 2010.03.12/outbox.cif.g09.slc.cpg/sg5_37_cif.got.tgz:72132.got - 2010.03.31 09:47:26.
