data_PCOD8049235
_publ_section_title
;
Structure prediction by ZEFSAII (Michael W. Deem and Ramdas Pophale) SiO2 
 PCOD8049235
Probable space group: C 2
;
_chemical_formula_sum "Si O2"
_cell_formula_units_Z 30
_cell_length_a 10.973572
_cell_length_b 17.993669
_cell_length_c 8.873091
_cell_angle_alpha 90.000000
_cell_angle_beta 120.394821
_cell_angle_gamma 90.000000
_cell_volume 1511.233930
_symmetry_space_group_name_H-M "C 2"
_symmetry_group_IT_number 5
_symmetry_cell_setting 'monoclinic'
loop_
_space_group_symop_operation_xyz
x,y,z
-x,y,-z
1/2+x,1/2+y,z
1/2-x,1/2+y,-z
loop_
_atom_site_type_symbol
_atom_site_label
_atom_site_fract_x
_atom_site_fract_y
_atom_site_fract_z
Si Si1 0.772643 0.949340 0.334571
Si Si2 0.757850 0.049496 0.053192
Si Si3 0.911794 0.809056 0.295754
Si Si4 0.533164 0.927911 0.849937
Si Si5 0.865509 0.907625 0.696075
Si Si6 0.500000 0.517032 0.000000
Si Si7 0.869014 0.310211 0.319312
Si Si8 0.148251 0.711468 0.013071
O O1 0.790757 0.868047 0.266570
O O2 0.615025 0.960423 0.302979
O O3 0.874174 0.951953 0.542684
O O4 0.811287 0.015761 0.245391
O O5 0.654842 0.989643 0.910305
O O6 0.898751 0.066325 0.042914
O O7 0.670192 0.123688 0.021081
O O8 0.000000 0.781842 0.500000
O O9 0.010719 0.847306 0.232305
O O10 0.845870 0.741325 0.157153
O O11 0.575352 0.854113 0.789907
O O12 0.500000 0.905558 0.000000
O O13 0.717320 0.866071 0.626955
O O14 0.891009 0.965505 0.843154
O O15 0.771996 0.244327 0.195687
O O16 0.000000 0.278191 0.500000
O O17 0.000000 0.728560 0.000000
#
# Coordination Sequence:
#
# PCOD8049235 Si02
#       8
#     4   4   4   4   4   2   4   4
#     4  10  20  38  64  93 123 158 206 266 314 363
#     4  11  24  41  61  92 126 166 211 256 323 382
#     4  10  21  39  68  97 121 162 217 264 313 376
#     4  10  20  37  62  88 122 158 207 265 313 365
#     4  11  20  38  68  92 122 153 216 273 310 370
#     4  12  22  40  62  94 118 164 218 266 318 364
#     4  12  23  40  64  99 130 162 215 268 317 377
#     4  12  24  44  65  88 132 176 213 256 319 391
#
# _framework density 19.851327999999999
#
# number of rings (size 3 to 8) (size 9 to 14) (size 15 to 20)
#    0.000    1.067    5.333    3.600    0.000    0.000 
#    6.000    3.333    0.000    0.000    0.000    0.000 
#    0.000    0.000    0.000    0.000    0.000    0.000 
#
# Total GULP energy -185943.361141 kJ/mol
# GULP energy per Si atom -12396.224076 kJ/mol
# Density = 1.980615 g / cm^3
# Si number density = 19.851328 Si / 1000 Ang^3
#
#
#
# Elastic Constant Matrix: (Units=GPa)
#
#
# Indices 1 2 3 4 5 6 
#
# 1 107.5216 18.2756 19.0265 0.0000 3.7506 0.0000
# 2 18.2756 72.0531 52.3223 0.0000 0.1907 0.0000
# 3 19.0265 52.3223 101.0998 0.0000 6.1926 0.0000
# 4 0.0000 0.0000 0.0000 18.0061 0.0000 4.5228
# 5 3.7506 0.1907 6.1926 0.0000 29.9147 0.0000
# 6 0.0000 0.0000 0.0000 4.5228 0.0000 27.4693
#
#
#
# Elastic Compliance Matrix: (Units=1/GPa)
#
#
# Indices 1 2 3 4 5 6 
#
# 1 0.009802 -0.001908 -0.000793 0.000000 -0.001053 0.000000
# 2 -0.001908 0.022759 -0.011572 0.000000 0.002490 0.000000
# 3 -0.000793 -0.011572 0.016224 0.000000 -0.003185 0.000000
# 4 0.000000 0.000000 0.000000 0.057933 0.000000 -0.009539
# 5 -0.001053 0.002490 -0.003185 0.000000 0.034204 0.000000
# 6 0.000000 0.000000 0.000000 -0.009539 0.000000 0.037975
#
#
# Mechanical properties :
#
#
# Convention : Reuss Voigt Hill
#
# Bulk Modulus (GPa) = 49.40659 51.10259 50.25459
# Shear Modulus (GPa) = 23.34394 27.81470 25.57932
#
# Velocity S-wave (km/s) = 3.43292 3.74726 3.59352
# Velocity P-wave (km/s) = 6.37617 6.67241 6.52597
#
# Compressibility (1/GPa) = 0.02024021
#
# Stress axis : x y z
#
# Youngs Moduli (GPa) = 102.02300 43.93854 61.63532
#
# Poissons Ratio (x) = 0.08381 0.04887
# Poissons Ratio (y) = 0.19461 0.71325
# Poissons Ratio (z) = 0.08090 0.50846
#
# Static dielectric constant tensor:
#      x y z
#    x 3.965210 0.000000 0.125980 
#    y 0.000000 3.177520 0.000000 
#    z 0.125980 0.000000 3.793630 
# 
# 
# High freq. dielectric constant tensor:
#      x y z
#    x 1.793240 0.000000 0.001780 
#    y 0.000000 1.731380 0.000000 
#    z 0.001780 0.000000 1.783650 
# 
# From -- ./inp_files/21480.got.cif
#   From: 2010.03.12/outbox.cif.g09.slc.cpg/sg5_11_cif.got.tgz:21480.got - 2010.03.31 09:47:26.
