data_PCOD8049901
_publ_section_title
;
Structure prediction by ZEFSAII (Michael W. Deem and Ramdas Pophale) SiO2 
 PCOD8049901
Probable space group: C 2
;
_chemical_formula_sum "Si O2"
_cell_formula_units_Z 20
_cell_length_a 11.492165
_cell_length_b 9.514617
_cell_length_c 18.226618
_cell_angle_alpha 90.000000
_cell_angle_beta 153.657396
_cell_angle_gamma 90.000000
_cell_volume 884.352813
_symmetry_space_group_name_H-M "C 2"
_symmetry_group_IT_number 5
_symmetry_cell_setting 'monoclinic'
loop_
_space_group_symop_operation_xyz
x,y,z
-x,y,-z
1/2+x,1/2+y,z
1/2-x,1/2+y,-z
loop_
_atom_site_type_symbol
_atom_site_label
_atom_site_fract_x
_atom_site_fract_y
_atom_site_fract_z
Si Si1 0.394916 0.501860 0.858173
Si Si2 0.034572 0.506850 0.823970
Si Si3 0.476988 0.795916 0.662136
Si Si4 0.234531 0.525560 0.178034
Si Si5 0.054800 0.737004 0.714004
O O1 0.219113 0.642676 0.747746
O O2 0.206674 0.366100 0.740549
O O3 0.500000 0.505370 0.000000
O O4 0.672452 0.499564 0.971348
O O5 0.992601 0.646215 0.750990
O O6 0.976067 0.370933 0.740691
O O7 0.822314 0.510707 0.767734
O O8 0.521770 0.629617 0.695498
O O9 0.197837 0.808241 0.465851
O O10 0.281607 0.372953 0.169081
O O11 0.000000 0.596876 0.000000
#
# Coordination Sequence:
#
# PCOD8049901 Si02
#       5
#     4   4   4   4   4
#     4   8  17  37  59  82 124 165 191 241 306 355
#     4  10  23  44  61  85 131 162 191 257 305 346
#     4  10  21  38  62  92 123 157 200 248 304 364
#     4  12  24  39  66  93 114 162 217 244 291 364
#     4  10  21  38  62  92 123 157 200 248 304 364
#
# _framework density 22.615410000000001
#
# number of rings (size 3 to 8) (size 9 to 14) (size 15 to 20)
#    0.000    2.400    0.000    6.000    0.000    9.600 
#    0.000    2.000    0.000   14.400    0.000    0.000 
#    0.000    0.000    0.000    0.000    0.000    0.000 
#
# Total GULP energy -123926.110354 kJ/mol
# GULP energy per Si atom -12392.611035 kJ/mol
# Density = 2.256394 g / cm^3
# Si number density = 22.615410 Si / 1000 Ang^3
#
#
#
# Elastic Constant Matrix: (Units=GPa)
#
#
# Indices 1 2 3 4 5 6 
#
# 1 79.0709 37.7229 10.8802 -0.0019 -5.8010 0.0014
# 2 37.7229 147.9614 21.5281 0.0141 2.8256 0.0025
# 3 10.8802 21.5281 120.4713 0.0268 5.3973 0.0082
# 4 -0.0019 0.0141 0.0268 46.9134 0.0058 1.3564
# 5 -5.8010 2.8256 5.3973 0.0058 12.7411 0.0014
# 6 0.0014 0.0025 0.0082 1.3564 0.0014 16.4272
#
#
#
# Elastic Compliance Matrix: (Units=1/GPa)
#
#
# Indices 1 2 3 4 5 6 
#
# 1 0.015255 -0.003894 -0.001052 0.000001 0.008255 -0.000001
# 2 -0.003894 0.007946 -0.000928 -0.000002 -0.003142 0.000000
# 3 -0.001052 -0.000928 0.008740 -0.000004 -0.003975 -0.000003
# 4 0.000001 -0.000002 -0.000004 0.021367 -0.000007 -0.001764
# 5 0.008255 -0.003142 -0.003975 -0.000007 0.084625 -0.000005
# 6 -0.000001 0.000000 -0.000003 -0.001764 -0.000005 0.061020
#
#
# Mechanical properties :
#
#
# Convention : Reuss Voigt Hill
#
# Bulk Modulus (GPa) = 49.51859 54.19622 51.85740
# Shear Modulus (GPa) = 22.99581 33.70783 28.35182
#
# Velocity S-wave (km/s) = 3.19222 3.86486 3.54453
# Velocity P-wave (km/s) = 5.96075 6.62816 6.30329
#
# Compressibility (1/GPa) = 0.02019444
#
# Stress axis : x y z
#
# Youngs Moduli (GPa) = 65.55283 125.84597 114.42204
#
# Poissons Ratio (x) = 0.49003 0.12034
# Poissons Ratio (y) = 0.25525 0.10613
# Poissons Ratio (z) = 0.06894 0.11673
#
# Static dielectric constant tensor:
#      x y z
#    x 4.015120 0.000000 0.691010 
#    y 0.000000 4.037080 0.000010 
#    z 0.691010 0.000010 4.631990 
# 
# 
# High freq. dielectric constant tensor:
#      x y z
#    x 1.849220 0.000000 0.017380 
#    y 0.000000 1.904890 0.000000 
#    z 0.017380 0.000000 1.899620 
# 
# From -- ./inp_files/44281.got.cif
#   From: 2010.03.12/outbox.cif.g09.slc.cpg/sg5_23_cif.got.tgz:44281.got - 2010.03.31 09:47:26.
