data_PCOD8049833
_publ_section_title
;
Structure prediction by ZEFSAII (Michael W. Deem and Ramdas Pophale) SiO2 
 PCOD8049833
Probable space group: C 2
;
_chemical_formula_sum "Si O2"
_cell_formula_units_Z 28
_cell_length_a 15.067801
_cell_length_b 8.230415
_cell_length_c 22.859430
_cell_angle_alpha 90.000000
_cell_angle_beta 151.180033
_cell_angle_gamma 90.000000
_cell_volume 1366.586822
_symmetry_space_group_name_H-M "C 2"
_symmetry_group_IT_number 5
_symmetry_cell_setting 'monoclinic'
loop_
_space_group_symop_operation_xyz
x,y,z
-x,y,-z
1/2+x,1/2+y,z
1/2-x,1/2+y,-z
loop_
_atom_site_type_symbol
_atom_site_label
_atom_site_fract_x
_atom_site_fract_y
_atom_site_fract_z
Si Si1 0.089679 0.273670 0.954486
Si Si2 0.906145 0.317140 0.540936
Si Si3 0.264491 0.116773 0.761627
Si Si4 0.000000 0.512554 0.000000
Si Si5 0.907986 0.569260 0.635500
Si Si6 0.179861 0.747456 0.705406
Si Si7 0.000000 0.560101 0.500000
Si Si8 0.928296 0.541641 0.146626
O O1 0.107365 0.368027 0.903392
O O2 0.119464 0.400029 0.025039
O O3 0.886719 0.194436 0.842140
O O4 0.236987 0.133735 0.041249
O O5 0.847855 0.407361 0.566657
O O6 0.775437 0.166108 0.453901
O O7 0.881270 0.443900 0.473647
O O8 0.117943 0.260035 0.669484
O O9 0.423027 0.144690 0.804764
O O10 0.357668 0.122315 0.880186
O O11 0.166837 0.942616 0.695232
O O12 0.043831 0.680511 0.676056
O O13 0.001283 0.508054 0.748064
O O14 0.133719 0.674617 0.615107
#
# Coordination Sequence:
#
# PCOD8049833 Si02
#       8
#     4   4   4   2   4   4   2   4
#     4  10  21  37  58  84 112 147 188 232 283 338
#     4  11  24  39  59  87 117 152 194 237 286 342
#     4  10  21  39  60  84 115 151 189 236 287 339
#     4   8  18  38  60  80 112 152 186 228 286 338
#     4  11  23  38  58  86 115 150 192 237 286 339
#     4   9  21  40  59  81 114 154 191 233 286 339
#     4  10  22  40  60  84 116 156 194 234 286 340
#     4  10  22  37  58  85 113 147 188 233 284 337
#
# _framework density 20.489003
#
# number of rings (size 3 to 8) (size 9 to 14) (size 15 to 20)
#    0.000    2.286    0.000    3.429    0.000   13.143 
#    0.000    0.000    0.000    0.000    0.000    0.000 
#    0.000    0.000    0.000    0.000    0.000    0.000 
#
# Total GULP energy -173611.688679 kJ/mol
# GULP energy per Si atom -12400.834906 kJ/mol
# Density = 2.044237 g / cm^3
# Si number density = 20.489003 Si / 1000 Ang^3
#
#
#
# Elastic Constant Matrix: (Units=GPa)
#
#
# Indices 1 2 3 4 5 6 
#
# 1 68.5768 1.0316 32.8996 0.0000 -21.3952 0.0000
# 2 1.0316 42.8814 16.3445 0.0002 -12.3181 0.0001
# 3 32.8996 16.3445 87.7886 0.0019 -24.9585 0.0005
# 4 0.0000 0.0002 0.0019 27.6771 0.0006 6.5884
# 5 -21.3952 -12.3181 -24.9585 0.0006 40.4865 0.0001
# 6 0.0000 0.0001 0.0005 6.5884 0.0001 29.8988
#
#
#
# Elastic Compliance Matrix: (Units=1/GPa)
#
#
# Indices 1 2 3 4 5 6 
#
# 1 0.019888 0.004106 -0.005910 0.000000 0.008115 0.000000
# 2 0.004106 0.027111 -0.004394 0.000000 0.007709 0.000000
# 3 -0.005910 -0.004394 0.015952 -0.000001 0.005373 0.000000
# 4 0.000000 0.000000 -0.000001 0.038131 -0.000001 -0.008403
# 5 0.008115 0.007709 0.005373 -0.000001 0.034646 0.000000
# 6 0.000000 0.000000 0.000000 -0.008403 0.000000 0.035298
#
#
# Mechanical properties :
#
#
# Convention : Reuss Voigt Hill
#
# Bulk Modulus (GPa) = 19.78159 33.31092 26.54625
# Shear Modulus (GPa) = 24.96576 29.54389 27.25482
#
# Velocity S-wave (km/s) = 3.49448 3.80141 3.65117
# Velocity P-wave (km/s) = 5.09486 5.96329 5.54610
#
# Compressibility (1/GPa) = 0.05055206
#
# Stress axis : x y z
#
# Youngs Moduli (GPa) = 50.28218 36.88567 62.68913
#
# Poissons Ratio (x) = -0.15143 0.37051
# Poissons Ratio (y) = -0.20643 0.27548
# Poissons Ratio (z) = 0.29718 0.16209
#
# Static dielectric constant tensor:
#      x y z
#    x 3.802050 0.000000 -0.143740 
#    y 0.000000 3.514500 0.000000 
#    z -0.143740 0.000000 3.804210 
# 
# 
# High freq. dielectric constant tensor:
#      x y z
#    x 1.808350 0.000000 -0.009440 
#    y 0.000000 1.788010 0.000000 
#    z -0.009440 0.000000 1.808510 
# 
# From -- ./inp_files/41715.got.cif
#   From: 2010.03.12/outbox.cif.g09.slc.cpg/sg5_21_cif.got.tgz:41715.got - 2010.03.31 09:47:26.
