data_PCOD8049508
_publ_section_title
;
Structure prediction by ZEFSAII (Michael W. Deem and Ramdas Pophale) SiO2 
 PCOD8049508
Probable space group: C 2
;
_chemical_formula_sum "Si O2"
_cell_formula_units_Z 32
_cell_length_a 16.803953
_cell_length_b 14.802524
_cell_length_c 11.938459
_cell_angle_alpha 90.000000
_cell_angle_beta 32.095308
_cell_angle_gamma 90.000000
_cell_volume 1577.826309
_symmetry_space_group_name_H-M "C 2"
_symmetry_group_IT_number 5
_symmetry_cell_setting 'monoclinic'
loop_
_space_group_symop_operation_xyz
x,y,z
-x,y,-z
1/2+x,1/2+y,z
1/2-x,1/2+y,-z
loop_
_atom_site_type_symbol
_atom_site_label
_atom_site_fract_x
_atom_site_fract_y
_atom_site_fract_z
Si Si1 0.895715 0.813050 0.517366
Si Si2 0.139962 0.252466 0.966135
Si Si3 0.553712 0.552080 0.055710
Si Si4 0.384361 0.014987 0.734723
Si Si5 0.130359 0.702000 0.131067
Si Si6 0.510984 0.937966 0.170458
Si Si7 0.194007 0.998332 0.474184
Si Si8 0.857012 0.604564 0.108853
O O1 0.744070 0.760786 0.731598
O O2 0.861340 0.916268 0.534824
O O3 0.000000 0.807865 0.500000
O O4 0.981385 0.765295 0.310099
O O5 0.233044 0.252434 0.971391
O O6 0.050503 0.160337 0.058709
O O7 0.024587 0.336012 0.108518
O O8 0.438357 0.522540 0.286307
O O9 0.500000 0.514522 0.000000
O O10 0.714602 0.508833 0.892774
O O11 0.500000 0.992923 0.500000
O O12 0.417922 0.113857 0.742493
O O13 0.417133 0.941603 0.791678
O O14 0.184898 0.673612 0.941146
O O15 0.338745 0.969807 0.374496
O O16 0.605349 0.003934 0.978580
O O17 0.225321 0.085774 0.356341
O O18 0.000000 0.648213 0.000000
#
# Coordination Sequence:
#
# PCOD8049508 Si02
#       8
#     4   4   4   4   4   4   4   4
#     4  10  21  35  65  94 125 160 217 260 312 367
#     4  10  21  38  62  91 122 163 209 267 306 370
#     4  11  25  39  64  97 130 158 213 269 318 367
#     4  10  20  40  64  85 126 171 206 252 324 387
#     4   9  19  36  59  95 120 160 208 261 312 369
#     4  10  21  39  62  88 122 166 217 254 313 375
#     4  11  23  39  63  96 122 166 212 266 313 371
#     4   9  19  37  61  86 125 165 207 251 316 375
#
# _framework density 20.281065999999999
#
# number of rings (size 3 to 8) (size 9 to 14) (size 15 to 20)
#    0.000    2.000    1.250    2.625    5.250    3.000 
#    0.000    1.875    0.000    0.000    0.000    0.000 
#    0.000    0.000    0.000    0.000    0.000    0.000 
#
# Total GULP energy -198370.575419 kJ/mol
# GULP energy per Si atom -12398.160964 kJ/mol
# Density = 2.023491 g / cm^3
# Si number density = 20.281066 Si / 1000 Ang^3
#
#
#
# Elastic Constant Matrix: (Units=GPa)
#
#
# Indices 1 2 3 4 5 6 
#
# 1 78.7254 17.9956 60.7685 -0.0002 9.9809 0.0008
# 2 17.9956 49.5289 24.8732 -0.0001 -5.5262 0.0002
# 3 60.7685 24.8732 127.8963 0.0000 -4.9695 0.0004
# 4 -0.0002 -0.0001 0.0000 32.4771 0.0001 -5.3021
# 5 9.9809 -5.5262 -4.9695 0.0001 25.9943 -0.0006
# 6 0.0008 0.0002 0.0004 -5.3021 -0.0006 -25.5171
#
#
#
# Elastic Compliance Matrix: (Units=1/GPa)
#
#
# Indices 1 2 3 4 5 6 
#
# 1 0.023609 -0.004497 -0.010813 0.000000 -0.012088 0.000001
# 2 -0.004497 0.023643 -0.002216 0.000000 0.006329 0.000000
# 3 -0.010813 -0.002216 0.013632 0.000000 0.006287 0.000000
# 4 0.000000 0.000000 0.000000 0.029781 0.000000 -0.006188
# 5 -0.012088 0.006329 0.006287 0.000000 0.045659 -0.000001
# 6 0.000001 0.000000 0.000000 -0.006188 -0.000001 -0.037904
#
#
# Mechanical properties :
#
#
# Convention : Reuss Voigt Hill
#
# Bulk Modulus (GPa) = 38.70935 51.49169 45.10052
# Shear Modulus (GPa) = 35.19115 16.75842 25.97479
#
# Velocity S-wave (km/s) = 4.17006 2.87768 3.58263
# Velocity P-wave (km/s) = 6.50490 6.04033 6.27691
#
# Compressibility (1/GPa) = 0.02583355
#
# Stress axis : x y z
#
# Youngs Moduli (GPa) = 42.35615 42.29607 73.35884
#
# Poissons Ratio (x) = 0.19019 0.79322
# Poissons Ratio (y) = 0.19046 0.16253
# Poissons Ratio (z) = 0.45799 0.09371
#
# Static dielectric constant tensor:
#      x y z
#    x 4.242170 0.000000 0.311290 
#    y 0.000000 3.499790 0.000000 
#    z 0.311290 0.000000 3.966760 
# 
# 
# High freq. dielectric constant tensor:
#      x y z
#    x 1.796450 0.000000 -0.000650 
#    y 0.000000 1.773040 0.000000 
#    z -0.000650 0.000000 1.788990 
# 
# From -- ./inp_files/44954.got.cif
#   From: 2010.03.12/outbox.cif.g09.slc.cpg/sg5_23_cif.got.tgz:44954.got - 2010.03.31 09:47:26.
