data_PCOD8049625
_publ_section_title
;
Structure prediction by ZEFSAII (Michael W. Deem and Ramdas Pophale) SiO2 
 PCOD8049625
Probable space group: C 2
;
_chemical_formula_sum "Si O2"
_cell_formula_units_Z 26
_cell_length_a 15.398954
_cell_length_b 9.203949
_cell_length_c 15.449409
_cell_angle_alpha 90.000000
_cell_angle_beta 142.568528
_cell_angle_gamma 90.000000
_cell_volume 1330.903742
_symmetry_space_group_name_H-M "C 2"
_symmetry_group_IT_number 5
_symmetry_cell_setting 'monoclinic'
loop_
_space_group_symop_operation_xyz
x,y,z
-x,y,-z
1/2+x,1/2+y,z
1/2-x,1/2+y,-z
loop_
_atom_site_type_symbol
_atom_site_label
_atom_site_fract_x
_atom_site_fract_y
_atom_site_fract_z
Si Si1 0.633151 0.887710 0.353059
Si Si2 0.874979 0.645139 0.963752
Si Si3 0.606750 0.181642 0.427794
Si Si4 0.000000 0.523335 0.500000
Si Si5 0.370357 0.860689 0.247275
Si Si6 0.670768 0.155442 0.877014
Si Si7 0.441439 0.828145 0.040645
O O1 0.786821 0.816013 0.488957
O O2 0.523261 0.808228 0.331448
O O3 0.573405 0.868364 0.208273
O O4 0.648400 0.057573 0.390335
O O5 0.898966 0.677176 0.083886
O O6 0.860884 0.472086 0.941929
O O7 0.730023 0.722963 0.820319
O O8 0.000000 0.706146 0.000000
O O9 0.604778 0.118253 0.522968
O O10 0.443724 0.232365 0.277584
O O11 0.890577 0.427114 0.358034
O O12 0.312248 0.984169 0.133815
O O13 0.827139 0.226120 0.997811
O O14 0.500000 0.748398 0.000000
#
# Coordination Sequence:
#
# PCOD8049625 Si02
#       7
#     4   4   4   2   4   4   4
#     4  10  21  41  60  86 118 155 194 238 295 345
#     4  11  21  37  60  88 120 152 190 246 296 341
#     4  10  22  39  63  83 120 154 196 243 290 344
#     4   8  20  40  58  84 116 156 198 242 280 350
#     4  10  21  40  60  84 118 155 196 244 286 348
#     4  10  20  42  60  86 119 153 198 239 291 348
#     4  11  23  39  62  87 121 153 195 243 295 346
#
# _framework density 19.535596999999999
#
# number of rings (size 3 to 8) (size 9 to 14) (size 15 to 20)
#    0.000    2.154    4.615    0.000    4.308    4.308 
#    2.769    0.000    0.000    0.000    0.000    0.000 
#    0.000    0.000    0.000    0.000    0.000    0.000 
#
# Total GULP energy -161116.818325 kJ/mol
# GULP energy per Si atom -12393.601410 kJ/mol
# Density = 1.949113 g / cm^3
# Si number density = 19.535597 Si / 1000 Ang^3
#
#
#
# Elastic Constant Matrix: (Units=GPa)
#
#
# Indices 1 2 3 4 5 6 
#
# 1 102.0420 14.2108 23.2662 0.0000 -17.8724 0.0000
# 2 14.2108 49.0361 23.2759 0.0000 9.6187 0.0000
# 3 23.2662 23.2759 68.8702 0.0000 -6.6046 0.0000
# 4 0.0000 0.0000 0.0000 33.3709 0.0000 8.9973
# 5 -17.8724 9.6187 -6.6046 0.0000 39.4770 0.0000
# 6 0.0000 0.0000 0.0000 8.9973 0.0000 32.3557
#
#
#
# Elastic Compliance Matrix: (Units=1/GPa)
#
#
# Indices 1 2 3 4 5 6 
#
# 1 0.011822 -0.003500 -0.002252 0.000000 0.005828 0.000000
# 2 -0.003500 0.027665 -0.009112 0.000000 -0.009850 0.000000
# 3 -0.002252 -0.009112 0.018777 0.000000 0.004342 0.000000
# 4 0.000000 0.000000 0.000000 0.032395 0.000000 -0.009008
# 5 0.005828 -0.009850 0.004342 0.000000 0.031096 0.000000
# 6 0.000000 0.000000 0.000000 -0.009008 0.000000 0.033411
#
#
# Mechanical properties :
#
#
# Convention : Reuss Voigt Hill
#
# Bulk Modulus (GPa) = 35.04452 37.93936 36.49194
# Shear Modulus (GPa) = 25.71952 31.65376 28.68664
#
# Velocity S-wave (km/s) = 3.63236 4.02968 3.83617
# Velocity P-wave (km/s) = 5.96404 6.41201 6.19208
#
# Compressibility (1/GPa) = 0.02853513
#
# Stress axis : x y z
#
# Youngs Moduli (GPa) = 84.59139 36.14710 53.25754
#
# Poissons Ratio (x) = 0.12653 0.11992
# Poissons Ratio (y) = 0.29609 0.48528
# Poissons Ratio (z) = 0.19048 0.32937
#
# Static dielectric constant tensor:
#      x y z
#    x 3.730480 0.000000 -0.124260 
#    y 0.000000 3.332340 0.000000 
#    z -0.124260 0.000000 3.532710 
# 
# 
# High freq. dielectric constant tensor:
#      x y z
#    x 1.770640 0.000000 -0.013650 
#    y 0.000000 1.734430 0.000000 
#    z -0.013650 0.000000 1.756970 
# 
# From -- ./inp_files/23375.got.cif
#   From: 2010.03.12/outbox.cif.g09.slc.cpg/sg5_12_cif.got.tgz:23375.got - 2010.03.31 09:47:26.
