data_PCOD8049135
_publ_section_title
;
Structure prediction by ZEFSAII (Michael W. Deem and Ramdas Pophale) SiO2 
 PCOD8049135
Probable space group: C 2
;
_chemical_formula_sum "Si O2"
_cell_formula_units_Z 32
_cell_length_a 19.500873
_cell_length_b 14.207357
_cell_length_c 9.322857
_cell_angle_alpha 90.000000
_cell_angle_beta 39.641072
_cell_angle_gamma 90.000000
_cell_volume 1647.861935
_symmetry_space_group_name_H-M "C 2"
_symmetry_group_IT_number 5
_symmetry_cell_setting 'monoclinic'
loop_
_space_group_symop_operation_xyz
x,y,z
-x,y,-z
1/2+x,1/2+y,z
1/2-x,1/2+y,-z
loop_
_atom_site_type_symbol
_atom_site_label
_atom_site_fract_x
_atom_site_fract_y
_atom_site_fract_z
Si Si1 0.765601 0.821130 0.797007
Si Si2 0.549555 0.171109 0.571496
Si Si3 0.214578 0.524033 0.378330
Si Si4 0.011657 0.989580 0.321416
Si Si5 0.799100 0.870159 0.060809
Si Si6 0.229216 0.999349 0.386253
Si Si7 0.828572 0.142314 0.977702
Si Si8 0.321136 0.162623 0.046114
O O1 0.869346 0.760826 0.572447
O O2 0.729897 0.899268 0.740491
O O3 0.789605 0.876309 0.904466
O O4 0.663471 0.752752 0.994609
O O5 0.500000 0.144476 0.500000
O O6 0.602545 0.078455 0.553875
O O7 0.447867 0.186960 0.838203
O O8 0.209299 0.430729 0.288093
O O9 0.245876 0.497497 0.487644
O O10 0.304460 0.591640 0.166418
O O11 0.000000 0.946099 0.500000
O O12 0.064982 0.093959 0.256080
O O13 0.082346 0.918321 0.108486
O O14 0.897854 0.006687 0.431360
O O15 0.777070 0.766018 0.157642
O O16 0.291422 0.086845 0.214240
O O17 0.728414 0.129897 0.027372
#
# Coordination Sequence:
#
# PCOD8049135 Si02
#       8
#     4   4   4   4   4   4   4   4
#     4  10  20  36  64  92 115 152 206 253 305 344
#     4  11  20  39  69  92 113 159 206 260 298 354
#     4  10  23  39  56  91 128 155 194 250 318 357
#     4  11  19  35  63  88 113 155 200 246 296 361
#     4  10  20  36  62  92 118 150 207 257 296 362
#     4  12  24  36  59  89 128 162 192 250 306 365
#     4   9  19  37  59  88 116 150 202 253 298 357
#     4  11  21  37  64  90 117 156 210 254 297 355
#
# _framework density 19.419103
#
# number of rings (size 3 to 8) (size 9 to 14) (size 15 to 20)
#    0.000    1.500    6.250    1.500    0.000    4.500 
#    0.000    2.500    0.000    3.000    0.000    0.000 
#    0.000    0.000    0.000    0.000    0.000    0.000 
#
# Total GULP energy -198218.491642 kJ/mol
# GULP energy per Si atom -12388.655728 kJ/mol
# Density = 1.937490 g / cm^3
# Si number density = 19.419103 Si / 1000 Ang^3
#
#
#
# Elastic Constant Matrix: (Units=GPa)
#
#
# Indices 1 2 3 4 5 6 
#
# 1 64.9487 42.0275 22.2174 0.0000 14.5318 0.0000
# 2 42.0275 131.7879 43.5695 0.0000 12.1609 0.0000
# 3 22.2174 43.5695 54.0676 0.0000 17.4980 0.0000
# 4 0.0000 0.0000 0.0000 32.5959 0.0000 -2.6689
# 5 14.5318 12.1609 17.4980 0.0000 22.7035 0.0000
# 6 0.0000 0.0000 0.0000 -2.6689 0.0000 20.1050
#
#
#
# Elastic Compliance Matrix: (Units=1/GPa)
#
#
# Indices 1 2 3 4 5 6 
#
# 1 0.021646 -0.005601 -0.001157 0.000000 -0.009963 0.000000
# 2 -0.005601 0.011817 -0.008437 0.000000 0.003758 0.000000
# 3 -0.001157 -0.008437 0.032065 0.000000 -0.019454 0.000000
# 4 0.000000 0.000000 0.000000 0.031016 0.000000 0.004117
# 5 -0.009963 0.003758 -0.019454 0.000000 0.063403 0.000000
# 6 0.000000 0.000000 0.000000 0.004117 0.000000 0.050285
#
#
# Mechanical properties :
#
#
# Convention : Reuss Voigt Hill
#
# Bulk Modulus (GPa) = 28.45890 51.82587 40.14238
# Shear Modulus (GPa) = 19.81491 24.61353 22.21422
#
# Velocity S-wave (km/s) = 3.19781 3.56405 3.38588
# Velocity P-wave (km/s) = 5.32180 6.60928 6.00017
#
# Compressibility (1/GPa) = 0.03513840
#
# Stress axis : x y z
#
# Youngs Moduli (GPa) = 46.19763 84.62627 31.18643
#
# Poissons Ratio (x) = 0.47401 0.03607
# Poissons Ratio (y) = 0.25876 0.26312
# Poissons Ratio (z) = 0.05344 0.71398
#
# Static dielectric constant tensor:
#      x y z
#    x 3.304280 0.000000 -0.115590 
#    y 0.000000 3.834360 0.000000 
#    z -0.115590 0.000000 3.663850 
# 
# 
# High freq. dielectric constant tensor:
#      x y z
#    x 1.719910 0.000000 0.002920 
#    y 0.000000 1.770090 0.000000 
#    z 0.002920 0.000000 1.748940 
# 
# From -- ./inp_files/29822.got.cif
#   From: 2010.03.12/outbox.cif.g09.slc.cpg/sg5_15_cif.got.tgz:29822.got - 2010.03.31 09:47:26.
