data_PCOD8049386
_publ_section_title
;
Structure prediction by ZEFSAII (Michael W. Deem and Ramdas Pophale) SiO2 
 PCOD8049386
Probable space group: C 2
;
_chemical_formula_sum "Si O2"
_cell_formula_units_Z 26
_cell_length_a 23.415772
_cell_length_b 8.622427
_cell_length_c 11.876656
_cell_angle_alpha 90.000000
_cell_angle_beta 149.509020
_cell_angle_gamma 90.000000
_cell_volume 1216.704091
_symmetry_space_group_name_H-M "C 2"
_symmetry_group_IT_number 5
_symmetry_cell_setting 'monoclinic'
loop_
_space_group_symop_operation_xyz
x,y,z
-x,y,-z
1/2+x,1/2+y,z
1/2-x,1/2+y,-z
loop_
_atom_site_type_symbol
_atom_site_label
_atom_site_fract_x
_atom_site_fract_y
_atom_site_fract_z
Si Si1 0.328732 0.069820 0.009924
Si Si2 0.745196 0.421190 0.086776
Si Si3 0.558677 0.942645 0.405375
Si Si4 0.500000 0.691232 0.000000
Si Si5 0.469953 0.607786 0.194672
Si Si6 0.290136 0.540286 0.413668
Si Si7 0.804817 0.355019 0.557631
O O1 0.268354 0.957866 0.996482
O O2 0.463746 0.074586 0.254620
O O3 0.286260 0.243542 0.952304
O O4 0.298293 0.000837 0.834673
O O5 0.861638 0.450355 0.350537
O O6 0.643131 0.531762 0.951943
O O7 0.486052 0.783638 0.266556
O O8 0.636317 0.976645 0.428016
O O9 0.470006 0.590925 0.059053
O O10 0.606091 0.799203 0.200112
O O11 0.585308 0.521837 0.428841
O O12 0.289075 0.435783 0.525075
O O13 0.260720 0.715640 0.403989
#
# Coordination Sequence:
#
# PCOD8049386 Si02
#       7
#     4   4   4   2   4   4   4
#     4  12  25  46  69  96 136 175 228 270 334 389
#     4  12  26  46  66  98 134 180 222 278 321 400
#     4  10  23  47  66  96 134 177 217 281 327 392
#     4   8  18  36  64  96 126 180 212 266 336 392
#     4  10  22  42  69  94 140 173 219 275 335 384
#     4  10  22  42  66 100 132 176 213 277 330 396
#     4  10  20  38  67  94 136 165 220 269 335 390
#
# _framework density 21.369205999999998
#
# number of rings (size 3 to 8) (size 9 to 14) (size 15 to 20)
#    0.000    1.846    3.077    3.231    4.308    1.846 
#    8.308    0.000    0.000    0.000    0.000    0.000 
#    0.000    0.000    0.000    0.000    0.000    0.000 
#
# Total GULP energy -161107.527295 kJ/mol
# GULP energy per Si atom -12392.886715 kJ/mol
# Density = 2.132057 g / cm^3
# Si number density = 21.369206 Si / 1000 Ang^3
#
#
#
# Elastic Constant Matrix: (Units=GPa)
#
#
# Indices 1 2 3 4 5 6 
#
# 1 115.1845 26.3177 49.3000 0.0000 -11.8593 0.0000
# 2 26.3177 28.6408 32.6687 0.0000 -7.8549 0.0000
# 3 49.3000 32.6687 128.7376 0.0000 -4.4602 0.0000
# 4 0.0000 0.0000 0.0000 27.6537 0.0000 6.4712
# 5 -11.8593 -7.8549 -4.4602 0.0000 27.6146 0.0000
# 6 0.0000 0.0000 0.0000 6.4712 0.0000 33.2789
#
#
#
# Elastic Compliance Matrix: (Units=1/GPa)
#
#
# Indices 1 2 3 4 5 6 
#
# 1 0.011669 -0.007063 -0.002587 0.000000 0.002584 0.000000
# 2 -0.007063 0.057738 -0.011548 0.000000 0.011525 0.000000
# 3 -0.002587 -0.011548 0.011601 0.000000 -0.002522 0.000000
# 4 0.000000 0.000000 0.000000 0.037885 0.000000 -0.007367
# 5 0.002584 0.011525 -0.002522 0.000000 0.040194 0.000000
# 6 0.000000 0.000000 0.000000 -0.007367 0.000000 0.031482
#
#
# Mechanical properties :
#
#
# Convention : Reuss Voigt Hill
#
# Bulk Modulus (GPa) = 25.89785 54.34840 40.12313
# Shear Modulus (GPa) = 20.33894 28.66120 24.50007
#
# Velocity S-wave (km/s) = 3.08845 3.66627 3.38969
# Velocity P-wave (km/s) = 4.98634 6.58865 5.84268
#
# Compressibility (1/GPa) = 0.03861324
#
# Stress axis : x y z
#
# Youngs Moduli (GPa) = 85.69927 17.31969 86.19755
#
# Poissons Ratio (x) = 0.12233 0.22296
# Poissons Ratio (y) = 0.60530 0.99537
# Poissons Ratio (z) = 0.22168 0.20000
#
# Static dielectric constant tensor:
#      x y z
#    x 4.024340 0.000000 0.041850 
#    y 0.000000 3.615720 0.000000 
#    z 0.041850 0.000000 4.065280 
# 
# 
# High freq. dielectric constant tensor:
#      x y z
#    x 1.849550 0.000000 -0.003360 
#    y 0.000000 1.811460 0.000000 
#    z -0.003360 0.000000 1.849100 
# 
# From -- ./inp_files/47374.got.cif
#   From: 2010.03.12/outbox.cif.g09.slc.cpg/sg5_24_cif.got.tgz:47374.got - 2010.03.31 09:47:26.
