data_PCOD8049029
_publ_section_title
;
Structure prediction by ZEFSAII (Michael W. Deem and Ramdas Pophale) SiO2 
 PCOD8049029
Probable space group: C 2
;
_chemical_formula_sum "Si O2"
_cell_formula_units_Z 32
_cell_length_a 12.109797
_cell_length_b 9.339603
_cell_length_c 14.736226
_cell_angle_alpha 90.000000
_cell_angle_beta 87.392436
_cell_angle_gamma 90.000000
_cell_volume 1664.951699
_symmetry_space_group_name_H-M "C 2"
_symmetry_group_IT_number 5
_symmetry_cell_setting 'monoclinic'
loop_
_space_group_symop_operation_xyz
x,y,z
-x,y,-z
1/2+x,1/2+y,z
1/2-x,1/2+y,-z
loop_
_atom_site_type_symbol
_atom_site_label
_atom_site_fract_x
_atom_site_fract_y
_atom_site_fract_z
Si Si1 0.742053 0.593970 0.296728
Si Si2 0.888259 0.824811 0.377402
Si Si3 0.188304 0.259411 0.002154
Si Si4 0.622263 0.452979 0.957046
Si Si5 0.856200 0.336906 0.195430
Si Si6 0.893129 0.329096 0.804149
Si Si7 0.404289 0.429334 0.560263
Si Si8 0.298851 0.524789 0.234684
O O1 0.846669 0.682029 0.329921
O O2 0.785233 0.472229 0.228459
O O3 0.657664 0.691927 0.244556
O O4 0.681168 0.529286 0.386051
O O5 0.843441 0.833499 0.484165
O O6 0.023741 0.828766 0.372749
O O7 0.842988 0.964702 0.327403
O O8 0.314182 0.309134 0.015796
O O9 0.110098 0.305787 0.087712
O O10 0.140818 0.331832 0.913373
O O11 0.189306 0.088105 0.994261
O O12 0.619368 0.466812 0.847990
O O13 0.500000 0.446535 0.000000
O O14 0.797663 0.196288 0.238831
O O15 0.980226 0.348304 0.229851
O O16 0.825897 0.471544 0.780019
O O17 0.500000 0.519416 0.500000
#
# Coordination Sequence:
#
# PCOD8049029 Si02
#       8
#     4   4   4   4   4   4   4   4
#     4  11  21  38  62  88 108 150 197 229 279 349
#     4   8  19  38  59  80 113 148 178 233 293 330
#     4  10  20  37  54  81 118 154 190 235 279 325
#     4  10  20  35  55  78 111 151 193 235 282 328
#     4  11  22  33  58  86 110 153 197 229 275 338
#     4  10  21  38  56  80 120 152 186 236 282 325
#     4   8  20  39  58  83 113 146 176 237 296 335
#     4   9  19  36  54  81 114 148 185 235 284 335
#
# _framework density 19.219776
#
# number of rings (size 3 to 8) (size 9 to 14) (size 15 to 20)
#    0.750    1.500    0.000    3.375    0.000    3.000 
#    0.000   16.875    0.000    3.000    0.000    0.000 
#    0.000    0.000    0.000    0.000    0.000    0.000 
#
# Total GULP energy -198294.593241 kJ/mol
# GULP energy per Si atom -12393.412078 kJ/mol
# Density = 1.917603 g / cm^3
# Si number density = 19.219776 Si / 1000 Ang^3
#
#
#
# Elastic Constant Matrix: (Units=GPa)
#
#
# Indices 1 2 3 4 5 6 
#
# 1 77.9166 32.2755 21.3477 0.0000 -5.1065 0.0000
# 2 32.2755 70.7197 19.5051 0.0000 -5.3462 0.0000
# 3 21.3477 19.5051 70.6042 0.0000 13.3141 0.0000
# 4 0.0000 0.0000 0.0000 22.5402 0.0000 -2.1577
# 5 -5.1065 -5.3462 13.3141 0.0000 24.9071 0.0000
# 6 0.0000 0.0000 0.0000 -2.1577 0.0000 22.3715
#
#
#
# Elastic Compliance Matrix: (Units=1/GPa)
#
#
# Indices 1 2 3 4 5 6 
#
# 1 0.016839 -0.006195 -0.004204 0.000000 0.004370 0.000000
# 2 -0.006195 0.018488 -0.004163 0.000000 0.004923 0.000000
# 3 -0.004204 -0.004163 0.018812 0.000000 -0.011811 0.000000
# 4 0.000000 0.000000 0.000000 0.044779 0.000000 0.004319
# 5 0.004370 0.004923 -0.011811 0.000000 0.048416 0.000000
# 6 0.000000 0.000000 0.000000 0.004319 0.000000 0.045116
#
#
# Mechanical properties :
#
#
# Convention : Reuss Voigt Hill
#
# Bulk Modulus (GPa) = 39.97603 40.61078 40.29340
# Shear Modulus (GPa) = 21.74757 23.70456 22.72606
#
# Velocity S-wave (km/s) = 3.36746 3.51571 3.44238
# Velocity P-wave (km/s) = 5.99702 6.13643 6.06713
#
# Compressibility (1/GPa) = 0.02501499
#
# Stress axis : x y z
#
# Youngs Moduli (GPa) = 59.38738 54.08905 53.15810
#
# Poissons Ratio (x) = 0.33509 0.22347
# Poissons Ratio (y) = 0.36791 0.22129
# Poissons Ratio (z) = 0.24965 0.22516
#
# Static dielectric constant tensor:
#      x y z
#    x 3.373180 0.000000 0.140280 
#    y 0.000000 3.399710 0.000000 
#    z 0.140280 0.000000 3.607450 
# 
# 
# High freq. dielectric constant tensor:
#      x y z
#    x 1.738480 0.000000 0.012530 
#    y 0.000000 1.732350 0.000000 
#    z 0.012530 0.000000 1.754100 
# 
# From -- ./inp_files/52454.got.cif
#   From: 2010.03.12/outbox.cif.g09.slc.cpg/sg5_27_cif.got.tgz:52454.got - 2010.03.31 09:47:26.
