data_PCOD8049766
_publ_section_title
;
Structure prediction by ZEFSAII (Michael W. Deem and Ramdas Pophale) SiO2 
 PCOD8049766
Probable space group: C 2
;
_chemical_formula_sum "Si O2"
_cell_formula_units_Z 30
_cell_length_a 17.392059
_cell_length_b 7.947542
_cell_length_c 12.157501
_cell_angle_alpha 90.000000
_cell_angle_beta 58.741056
_cell_angle_gamma 90.000000
_cell_volume 1436.508987
_symmetry_space_group_name_H-M "C 2"
_symmetry_group_IT_number 5
_symmetry_cell_setting 'monoclinic'
loop_
_space_group_symop_operation_xyz
x,y,z
-x,y,-z
1/2+x,1/2+y,z
1/2-x,1/2+y,-z
loop_
_atom_site_type_symbol
_atom_site_label
_atom_site_fract_x
_atom_site_fract_y
_atom_site_fract_z
Si Si1 0.208794 0.392170 0.619690
Si Si2 0.909974 0.199991 0.115442
Si Si3 0.576815 0.322896 0.861872
Si Si4 0.123972 0.694096 0.591732
Si Si5 0.000000 0.843606 0.500000
Si Si6 0.764344 0.673451 0.879622
Si Si7 0.250542 0.794567 0.874510
Si Si8 0.831995 0.989516 0.707308
O O1 0.138061 0.294071 0.748917
O O2 0.147896 0.496387 0.578998
O O3 0.279174 0.280940 0.499198
O O4 0.267698 0.521457 0.650138
O O5 0.842922 0.177219 0.061561
O O6 0.940449 0.020555 0.140383
O O7 0.000000 0.291838 0.000000
O O8 0.574839 0.244323 0.741872
O O9 0.673406 0.285505 0.841652
O O10 0.500000 0.245806 0.000000
O O11 0.054684 0.726021 0.544126
O O12 0.063418 0.979546 0.394755
O O13 0.797744 0.479307 0.841240
O O14 0.810745 0.797414 0.759589
O O15 0.791097 0.750375 0.976796
O O16 0.321016 0.644057 0.799228
#
# Coordination Sequence:
#
# PCOD8049766 Si02
#       8
#     4   4   4   4   2   4   4   4
#     4  10  21  40  66  87 123 176 216 260 322 401
#     4   9  20  39  60  95 127 163 210 273 322 380
#     4  10  22  37  65  95 124 161 216 269 325 386
#     4  11  22  42  67  92 127 171 220 265 326 395
#     4  10  26  42  66  92 134 168 210 286 326 370
#     4  10  21  35  64  93 132 165 211 266 321 396
#     4  11  20  38  63  94 124 174 212 257 332 391
#     4  10  21  43  61  92 128 171 214 260 327 385
#
# _framework density 20.883962
#
# number of rings (size 3 to 8) (size 9 to 14) (size 15 to 20)
#    0.000    1.867    2.667    0.800    1.867    2.667 
#    2.400    0.667    0.000    0.000    0.000    0.000 
#    0.000    0.000    0.000    0.000    0.000    0.000 
#
# Total GULP energy -185896.280212 kJ/mol
# GULP energy per Si atom -12393.085347 kJ/mol
# Density = 2.083643 g / cm^3
# Si number density = 20.883962 Si / 1000 Ang^3
#
#
#
# Elastic Constant Matrix: (Units=GPa)
#
#
# Indices 1 2 3 4 5 6 
#
# 1 78.1859 38.7126 46.4711 0.0000 -1.5699 0.0000
# 2 38.7126 122.8430 44.2979 0.0000 -6.8169 0.0000
# 3 46.4711 44.2979 130.4978 0.0000 -16.9630 0.0000
# 4 0.0000 0.0000 0.0000 26.2393 0.0000 6.2716
# 5 -1.5699 -6.8169 -16.9630 0.0000 41.4095 0.0000
# 6 0.0000 0.0000 0.0000 6.2716 0.0000 22.3902
#
#
#
# Elastic Compliance Matrix: (Units=1/GPa)
#
#
# Indices 1 2 3 4 5 6 
#
# 1 0.017795 -0.003807 -0.005322 0.000000 -0.002132 0.000000
# 2 -0.003807 0.010093 -0.001978 0.000000 0.000707 0.000000
# 3 -0.005322 -0.001978 0.010733 0.000000 0.003869 0.000000
# 4 0.000000 0.000000 0.000000 0.040845 0.000000 -0.011441
# 5 -0.002132 0.000707 0.003869 0.000000 0.025769 0.000000
# 6 0.000000 0.000000 0.000000 -0.011441 0.000000 0.047867
#
#
# Mechanical properties :
#
#
# Convention : Reuss Voigt Hill
#
# Bulk Modulus (GPa) = 60.95350 65.60999 63.28175
# Shear Modulus (GPa) = 27.65693 31.47747 29.56720
#
# Velocity S-wave (km/s) = 3.64306 3.88655 3.76677
# Velocity P-wave (km/s) = 6.85171 7.18506 7.02036
#
# Compressibility (1/GPa) = 0.01640595
#
# Stress axis : x y z
#
# Youngs Moduli (GPa) = 56.19415 99.07919 93.17401
#
# Poissons Ratio (x) = 0.37722 0.49586
# Poissons Ratio (y) = 0.21395 0.18434
# Poissons Ratio (z) = 0.29906 0.19602
#
# Static dielectric constant tensor:
#      x y z
#    x 3.733620 0.000000 -0.023860 
#    y 0.000000 3.778380 0.000000 
#    z -0.023860 0.000000 3.860140 
# 
# 
# High freq. dielectric constant tensor:
#      x y z
#    x 1.805170 0.000000 0.002010 
#    y 0.000000 1.812250 0.000000 
#    z 0.002010 0.000000 1.824770 
# 
# From -- ./inp_files/44313.got.cif
#   From: 2010.03.12/outbox.cif.g09.slc.cpg/sg5_23_cif.got.tgz:44313.got - 2010.03.31 09:47:26.
