data_PCOD8049974
_publ_section_title
;
Structure prediction by ZEFSAII (Michael W. Deem and Ramdas Pophale) SiO2 
 PCOD8049974
Probable space group: C 2
;
_chemical_formula_sum "Si O2"
_cell_formula_units_Z 26
_cell_length_a 20.208892
_cell_length_b 13.252302
_cell_length_c 7.956920
_cell_angle_alpha 90.000000
_cell_angle_beta 36.555818
_cell_angle_gamma 90.000000
_cell_volume 1269.222060
_symmetry_space_group_name_H-M "C 2"
_symmetry_group_IT_number 5
_symmetry_cell_setting 'monoclinic'
loop_
_space_group_symop_operation_xyz
x,y,z
-x,y,-z
1/2+x,1/2+y,z
1/2-x,1/2+y,-z
loop_
_atom_site_type_symbol
_atom_site_label
_atom_site_fract_x
_atom_site_fract_y
_atom_site_fract_z
Si Si1 0.512042 0.501620 0.669124
Si Si2 0.068417 0.199617 0.028119
Si Si3 0.752569 0.463043 0.167573
Si Si4 0.000000 0.858380 0.000000
Si Si5 0.525742 0.914682 0.136266
Si Si6 0.690747 0.254015 0.417506
Si Si7 0.392372 0.062792 0.609595
O O1 0.500000 0.460835 0.500000
O O2 0.445437 0.606220 0.816839
O O3 0.641998 0.522359 0.450520
O O4 0.465439 0.423751 0.905146
O O5 0.029774 0.301489 0.206172
O O6 0.198405 0.214195 0.716337
O O7 0.000000 0.174975 0.000000
O O8 0.717443 0.344869 0.232131
O O9 0.856744 0.473587 0.082593
O O10 0.789727 0.511861 0.916163
O O11 0.105280 0.788605 0.737373
O O12 0.423525 0.977238 0.413451
O O13 0.500000 0.892592 0.000000
O O14 0.639334 0.165885 0.412272
O O15 0.500000 0.086227 0.500000
#
# Coordination Sequence:
#
# PCOD8049974 Si02
#       7
#     4   4   4   2   4   4   4
#     4  11  22  41  69  94 127 168 217 256 326 378
#     4  10  21  41  61  95 125 167 216 257 314 384
#     4   9  21  40  59  91 127 162 209 268 304 386
#     4  10  24  46  64  92 132 168 208 278 312 386
#     4   9  20  38  62  90 130 166 210 259 320 375
#     4  10  22  41  65  91 131 164 212 260 327 372
#     4  10  21  39  62  93 125 167 215 260 319 380
#
# _framework density 20.484988000000001
#
# number of rings (size 3 to 8) (size 9 to 14) (size 15 to 20)
#    0.000    2.154    0.769    0.923    1.077    8.000 
#   19.385    0.000    0.000    0.000    0.000    0.000 
#    0.000    0.000    0.000    0.000    0.000    0.000 
#
# Total GULP energy -161085.960305 kJ/mol
# GULP energy per Si atom -12391.227716 kJ/mol
# Density = 2.043836 g / cm^3
# Si number density = 20.484988 Si / 1000 Ang^3
#
#
#
# Elastic Constant Matrix: (Units=GPa)
#
#
# Indices 1 2 3 4 5 6 
#
# 1 63.9857 41.1137 34.7906 0.0000 10.5651 0.0000
# 2 41.1137 121.5867 79.6431 0.0000 2.6993 0.0000
# 3 34.7906 79.6431 141.0669 0.0000 -4.4131 0.0000
# 4 0.0000 0.0000 0.0000 363.8129 0.0000 -105.6117
# 5 10.5651 2.6993 -4.4131 0.0000 30.3382 0.0000
# 6 0.0000 0.0000 0.0000 -105.6117 0.0000 67.5656
#
#
#
# Elastic Compliance Matrix: (Units=1/GPa)
#
#
# Indices 1 2 3 4 5 6 
#
# 1 0.021785 -0.005600 -0.002444 0.000000 -0.007444 0.000000
# 2 -0.005600 0.014645 -0.006898 0.000000 -0.000356 0.000000
# 3 -0.002444 -0.006898 0.011685 0.000000 0.003164 0.000000
# 4 0.000000 0.000000 0.000000 0.005032 0.000000 0.007865
# 5 -0.007444 -0.000356 0.003164 0.000000 0.036046 0.000000
# 6 0.000000 0.000000 0.000000 0.007865 0.000000 0.027095
#
#
# Mechanical properties :
#
#
# Convention : Reuss Voigt Hill
#
# Bulk Modulus (GPa) = 54.85398 70.85936 62.85667
# Shear Modulus (GPa) = 32.84121 103.74946 68.29533
#
# Velocity S-wave (km/s) = 4.00832 7.12436 5.78028
# Velocity P-wave (km/s) = 6.94680 10.11639 8.67754
#
# Compressibility (1/GPa) = 0.01823022
#
# Stress axis : x y z
#
# Youngs Moduli (GPa) = 45.90362 68.28445 85.58046
#
# Poissons Ratio (x) = 0.38242 0.20913
# Poissons Ratio (y) = 0.25708 0.59033
# Poissons Ratio (z) = 0.11217 0.47102
#
# Static dielectric constant tensor:
#      x y z
#    x 2.995910 0.000000 -0.510530 
#    y 0.000000 3.812470 0.000000 
#    z -0.510530 0.000000 3.670500 
# 
# 
# High freq. dielectric constant tensor:
#      x y z
#    x 1.792030 0.000000 -0.017440 
#    y 0.000000 1.805560 0.000000 
#    z -0.017440 0.000000 1.801550 
# 
# From -- ./inp_files/30918.got.cif
#   From: 2010.03.12/outbox.cif.g09.slc.cpg/sg5_16_cif.got.tgz:30918.got - 2010.03.31 09:47:26.
