data_PCOD8049767
_publ_section_title
;
Structure prediction by ZEFSAII (Michael W. Deem and Ramdas Pophale) SiO2 
 PCOD8049767
Probable space group: C 2
;
_chemical_formula_sum "Si O2"
_cell_formula_units_Z 24
_cell_length_a 20.719683
_cell_length_b 10.113865
_cell_length_c 16.495412
_cell_angle_alpha 90.000000
_cell_angle_beta 159.769212
_cell_angle_gamma 90.000000
_cell_volume 1195.340109
_symmetry_space_group_name_H-M "C 2"
_symmetry_group_IT_number 5
_symmetry_cell_setting 'monoclinic'
loop_
_space_group_symop_operation_xyz
x,y,z
-x,y,-z
1/2+x,1/2+y,z
1/2-x,1/2+y,-z
loop_
_atom_site_type_symbol
_atom_site_label
_atom_site_fract_x
_atom_site_fract_y
_atom_site_fract_z
Si Si1 0.699662 0.772790 0.272282
Si Si2 0.199930 0.536652 0.194655
Si Si3 0.360673 0.144285 0.046273
Si Si4 0.719019 0.314617 0.447898
Si Si5 0.882876 0.513202 0.530658
Si Si6 0.450524 0.735981 0.579292
O O1 0.695633 0.817109 0.361367
O O2 0.811299 0.636235 0.393479
O O3 0.786190 0.894628 0.322687
O O4 0.500000 0.743081 0.000000
O O5 0.169703 0.543434 0.063393
O O6 0.350399 0.647967 0.393911
O O7 0.000000 0.561818 0.000000
O O8 0.166752 0.206583 0.844868
O O9 0.506700 0.261916 0.197440
O O10 0.430724 0.056831 0.203330
O O11 0.732487 0.461465 0.422400
O O12 0.847587 0.216028 0.544921
O O13 0.930114 0.390216 0.527389
#
# Coordination Sequence:
#
# PCOD8049767 Si02
#       6
#     4   4   4   4   4   4
#     4  10  21  35  65  92 123 162 205 256 317 359
#     4  11  20  38  65  92 121 167 209 252 304 370
#     4  11  21  40  65  90 124 165 209 255 299 375
#     4   9  21  40  61  88 123 164 207 246 307 374
#     4   9  21  40  59  90 123 156 207 255 307 359
#     4  10  23  38  64  91 121 166 212 246 305 373
#
# _framework density 20.077967000000001
#
# number of rings (size 3 to 8) (size 9 to 14) (size 15 to 20)
#    1.000    1.000    1.667    2.500    2.333    4.667 
#    0.000    0.000    0.000    0.000    0.000    0.000 
#    0.000    0.000    0.000    0.000    0.000    0.000 
#
# Total GULP energy -148685.587224 kJ/mol
# GULP energy per Si atom -12390.465602 kJ/mol
# Density = 2.003227 g / cm^3
# Si number density = 20.077967 Si / 1000 Ang^3
#
#
#
# Elastic Constant Matrix: (Units=GPa)
#
#
# Indices 1 2 3 4 5 6 
#
# 1 44.0097 22.8465 39.2244 0.0010 6.8203 0.0009
# 2 22.8465 165.6058 76.5469 0.0005 -2.4143 0.0005
# 3 39.2244 76.5469 134.3719 0.0009 0.0319 0.0015
# 4 0.0010 0.0005 0.0009 31.8970 0.0008 1.4105
# 5 6.8203 -2.4143 0.0319 0.0008 41.6279 0.0009
# 6 0.0009 0.0005 0.0015 1.4105 0.0009 14.1656
#
#
#
# Elastic Compliance Matrix: (Units=1/GPa)
#
#
# Indices 1 2 3 4 5 6 
#
# 1 0.031808 -0.000235 -0.009150 -0.000001 -0.005218 -0.000001
# 2 -0.000235 0.008208 -0.004607 0.000000 0.000518 0.000000
# 3 -0.009150 -0.004607 0.012737 0.000000 0.001222 -0.000001
# 4 -0.000001 0.000000 0.000000 0.031490 0.000000 -0.003135
# 5 -0.005218 0.000518 0.001222 0.000000 0.024906 -0.000001
# 6 -0.000001 0.000000 -0.000001 -0.003135 -0.000001 0.070906
#
#
# Mechanical properties :
#
#
# Convention : Reuss Voigt Hill
#
# Bulk Modulus (GPa) = 40.37328 69.02476 54.69902
# Shear Modulus (GPa) = 23.11651 31.22942 27.17297
#
# Velocity S-wave (km/s) = 3.39682 3.94814 3.68281
# Velocity P-wave (km/s) = 5.96124 7.43215 6.73696
#
# Compressibility (1/GPa) = 0.02476886
#
# Stress axis : x y z
#
# Youngs Moduli (GPa) = 31.43868 121.83192 78.50913
#
# Poissons Ratio (x) = 0.02861 0.71836
# Poissons Ratio (y) = 0.00738 0.36172
# Poissons Ratio (z) = 0.28766 0.56133
#
# Static dielectric constant tensor:
#      x y z
#    x 3.379440 0.000000 -0.056010 
#    y 0.000000 3.830050 0.000000 
#    z -0.056010 0.000000 3.620130 
# 
# 
# High freq. dielectric constant tensor:
#      x y z
#    x 1.756780 0.000000 -0.007190 
#    y 0.000000 1.788440 0.000000 
#    z -0.007190 0.000000 1.788680 
# 
# From -- ./inp_files/57050.got.cif
#   From: 2010.03.12/outbox.cif.g09.slc.cpg/sg5_29_cif.got.tgz:57050.got - 2010.03.31 09:47:26.
