data_PCOD8049405
_publ_section_title
;
Structure prediction by ZEFSAII (Michael W. Deem and Ramdas Pophale) SiO2 
 PCOD8049405
Probable space group: C 2
;
_chemical_formula_sum "Si O2"
_cell_formula_units_Z 30
_cell_length_a 8.704754
_cell_length_b 17.544676
_cell_length_c 11.898059
_cell_angle_alpha 90.000000
_cell_angle_beta 62.127776
_cell_angle_gamma 90.000000
_cell_volume 1606.299372
_symmetry_space_group_name_H-M "C 2"
_symmetry_group_IT_number 5
_symmetry_cell_setting 'monoclinic'
loop_
_space_group_symop_operation_xyz
x,y,z
-x,y,-z
1/2+x,1/2+y,z
1/2-x,1/2+y,-z
loop_
_atom_site_type_symbol
_atom_site_label
_atom_site_fract_x
_atom_site_fract_y
_atom_site_fract_z
Si Si1 0.500000 0.491370 0.500000
Si Si2 0.148153 0.725024 0.360143
Si Si3 0.697021 0.059419 0.933316
Si Si4 0.562900 0.363262 0.654882
Si Si5 0.807568 0.597034 0.310532
Si Si6 0.307196 0.087672 0.815273
Si Si7 0.688134 0.738068 0.478938
Si Si8 0.520558 0.464428 0.866361
O O1 0.553558 0.440129 0.586501
O O2 0.662136 0.544021 0.413939
O O3 0.205076 0.667627 0.244015
O O4 0.315818 0.732046 0.384079
O O5 0.000000 0.697509 0.500000
O O6 0.094182 0.806153 0.324450
O O7 0.723394 0.111498 0.812853
O O8 0.500000 0.026123 0.000000
O O9 0.734786 0.103694 0.038064
O O10 0.837150 0.992119 0.878102
O O11 0.746996 0.322416 0.573036
O O12 0.564794 0.388028 0.783662
O O13 0.815978 0.677968 0.372103
O O14 0.995315 0.556412 0.263966
O O15 0.171812 0.028531 0.806593
O O16 0.500000 0.720095 0.500000
O O17 0.500000 0.437033 0.000000
#
# Coordination Sequence:
#
# PCOD8049405 Si02
#       8
#     2   4   4   4   4   4   4   4
#     4  12  22  36  66  90 118 164 204 254 308 370
#     4  10  20  39  57  83 128 161 193 247 310 358
#     4   9  20  38  61  90 122 157 210 254 295 358
#     4  11  22  42  59  86 128 162 194 251 324 356
#     4  11  21  37  62  94 119 164 213 246 300 367
#     4  10  21  38  63  89 122 162 205 253 300 359
#     4  11  23  38  59  89 125 160 201 259 304 365
#     4  10  22  40  62  92 124 160 206 261 302 362
#
# _framework density 18.676469000000001
#
# number of rings (size 3 to 8) (size 9 to 14) (size 15 to 20)
#    0.000    1.600    6.667    0.000    3.733    1.067 
#    2.400    0.000    0.000    2.400    0.000    0.000 
#    0.000    0.000    0.000    0.000    0.000    0.000 
#
# Total GULP energy -185887.500974 kJ/mol
# GULP energy per Si atom -12392.500065 kJ/mol
# Density = 1.863396 g / cm^3
# Si number density = 18.676469 Si / 1000 Ang^3
#
#
#
# Elastic Constant Matrix: (Units=GPa)
#
#
# Indices 1 2 3 4 5 6 
#
# 1 105.8807 33.5970 45.6891 0.0000 7.3642 0.0000
# 2 33.5970 83.0862 58.2905 0.0000 11.5907 0.0000
# 3 45.6891 58.2905 104.4193 0.0000 16.1830 0.0000
# 4 0.0000 0.0000 0.0000 30.9277 0.0000 7.6980
# 5 7.3642 11.5907 16.1830 0.0000 32.4219 0.0000
# 6 0.0000 0.0000 0.0000 7.6980 0.0000 24.1261
#
#
#
# Elastic Compliance Matrix: (Units=1/GPa)
#
#
# Indices 1 2 3 4 5 6 
#
# 1 0.011821 -0.001895 -0.004122 0.000000 0.000050 0.000000
# 2 -0.001895 0.020173 -0.010168 0.000000 -0.001706 0.000000
# 3 -0.004122 -0.010168 0.017719 0.000000 -0.004273 0.000000
# 4 0.000000 0.000000 0.000000 0.035123 0.000000 -0.011207
# 5 0.000050 -0.001706 -0.004273 0.000000 0.033575 0.000000
# 6 0.000000 0.000000 0.000000 -0.011207 0.000000 0.045025
#
#
# Mechanical properties :
#
#
# Convention : Reuss Voigt Hill
#
# Bulk Modulus (GPa) = 57.66002 63.17105 60.41554
# Shear Modulus (GPa) = 24.80313 27.88242 26.34278
#
# Velocity S-wave (km/s) = 3.64818 3.86802 3.75971
# Velocity P-wave (km/s) = 6.97752 7.33799 7.16002
#
# Compressibility (1/GPa) = 0.01734304
#
# Stress axis : x y z
#
# Youngs Moduli (GPa) = 84.59327 49.57013 56.43710
#
# Poissons Ratio (x) = 0.09393 0.23265
# Poissons Ratio (y) = 0.16030 0.57385
# Poissons Ratio (z) = 0.34873 0.50403
#
# Static dielectric constant tensor:
#      x y z
#    x 3.763920 0.000000 0.197450 
#    y 0.000000 3.155170 0.000000 
#    z 0.197450 0.000000 3.634510 
# 
# 
# High freq. dielectric constant tensor:
#      x y z
#    x 1.743030 0.000000 0.014910 
#    y 0.000000 1.694050 0.000000 
#    z 0.014910 0.000000 1.731400 
# 
# From -- ./inp_files/36812.got.cif
#   From: 2010.03.12/outbox.cif.g09.slc.cpg/sg5_19_cif.got.tgz:36812.got - 2010.03.31 09:47:26.
