data_PCOD8050747
_publ_section_title
;
Structure prediction by ZEFSAII (Michael W. Deem and Ramdas Pophale) SiO2 
 PCOD8050747
Probable space group: C 2
;
_chemical_formula_sum "Si O2"
_cell_formula_units_Z 20
_cell_length_a 17.533751
_cell_length_b 6.513529
_cell_length_c 7.495621
_cell_angle_alpha 90.000000
_cell_angle_beta 99.881716
_cell_angle_gamma 90.000000
_cell_volume 843.349129
_symmetry_space_group_name_H-M "C 2"
_symmetry_group_IT_number 5
_symmetry_cell_setting 'monoclinic'
loop_
_space_group_symop_operation_xyz
x,y,z
-x,y,-z
1/2+x,1/2+y,z
1/2-x,1/2+y,-z
loop_
_atom_site_type_symbol
_atom_site_label
_atom_site_fract_x
_atom_site_fract_y
_atom_site_fract_z
Si Si1 0.157005 0.302270 0.670612
Si Si2 0.792600 0.035379 0.614266
Si Si3 0.408748 0.196772 0.755287
Si Si4 0.361553 0.807156 0.946499
Si Si5 0.500000 0.953284 0.500000
Si Si6 0.500000 0.513544 0.000000
O O1 0.181493 0.095513 0.575463
O O2 0.200270 0.493026 0.587458
O O3 0.063176 0.317572 0.631411
O O4 0.187538 0.309954 0.888575
O O5 0.814339 0.215734 0.761275
O O6 0.829988 0.814857 0.674741
O O7 0.391059 0.034952 0.907269
O O8 0.446958 0.083625 0.607031
O O9 0.472164 0.367487 0.830100
O O10 0.430859 0.658712 0.032972
#
# Coordination Sequence:
#
# PCOD8050747 Si02
#       6
#     4   4   4   4   2   2
#     4  12  27  47  77 103 152 194 245 307 367 439
#     4  11  28  48  70 110 148 193 253 302 371 440
#     4  11  24  46  71 111 148 189 248 303 368 442
#     4  11  25  47  74 105 149 198 247 302 368 442
#     4  12  24  44  78 106 148 192 246 304 372 430
#     4  10  22  42  72 106 146 186 248 302 362 438
#
# _framework density 23.714971999999999
#
# number of rings (size 3 to 8) (size 9 to 14) (size 15 to 20)
#    0.000    0.800    2.000    4.200    8.400    0.000 
#    3.600    0.000    0.000    0.000    0.000    0.000 
#    0.000    0.000    0.000    0.000    0.000    0.000 
#
# Total GULP energy -123961.952285 kJ/mol
# GULP energy per Si atom -12396.195229 kJ/mol
# Density = 2.366100 g / cm^3
# Si number density = 23.714972 Si / 1000 Ang^3
#
#
#
# Elastic Constant Matrix: (Units=GPa)
#
#
# Indices 1 2 3 4 5 6 
#
# 1 103.9345 32.0798 26.4477 0.0000 -0.7858 0.0000
# 2 32.0798 127.0387 45.0514 0.0000 -6.8585 0.0000
# 3 26.4477 45.0514 122.1429 0.0000 -38.5140 0.0000
# 4 0.0000 0.0000 0.0000 -4.3662 0.0000 0.8653
# 5 -0.7858 -6.8585 -38.5140 0.0000 35.0788 0.0000
# 6 0.0000 0.0000 0.0000 0.8653 0.0000 29.2016
#
#
#
# Elastic Compliance Matrix: (Units=1/GPa)
#
#
# Indices 1 2 3 4 5 6 
#
# 1 0.010863 -0.002001 -0.002540 0.000000 -0.002937 0.000000
# 2 -0.002001 0.009622 -0.003880 0.000000 -0.002423 0.000000
# 3 -0.002540 -0.003880 0.015159 0.000000 0.015828 0.000000
# 4 0.000000 0.000000 0.000000 -0.227694 0.000000 0.006747
# 5 -0.002937 -0.002423 0.015828 0.000000 0.045346 0.000000
# 6 0.000000 0.000000 0.000000 0.006747 0.000000 0.034045
#
#
# Mechanical properties :
#
#
# Convention : Reuss Voigt Hill
#
# Bulk Modulus (GPa) = 53.18493 62.25264 57.71878
# Shear Modulus (GPa) = -55.83525 28.61865 -13.60830
#
# Velocity S-wave (km/s) = -4.85751 3.47764 -2.39807
# Velocity P-wave (km/s) = 2.99752 6.51403 4.08947
#
# Compressibility (1/GPa) = 0.01880232
#
# Stress axis : x y z
#
# Youngs Moduli (GPa) = 92.05362 103.92898 65.96668
#
# Poissons Ratio (x) = 0.20795 0.16757
# Poissons Ratio (y) = 0.18419 0.25594
# Poissons Ratio (z) = 0.23384 0.40323
#
# Static dielectric constant tensor:
#      x y z
#    x 4.693280 0.000000 0.243030 
#    y 0.000000 4.389140 0.000000 
#    z 0.243030 0.000000 4.305940 
# 
# 
# High freq. dielectric constant tensor:
#      x y z
#    x 1.943880 0.000000 0.006030 
#    y 0.000000 1.944980 0.000000 
#    z 0.006030 0.000000 1.945190 
# 
# From -- ./inp_files/25861.got.cif
#   From: 2010.03.12/outbox.cif.g09.slc.cpg/sg5_13_cif.got.tgz:25861.got - 2010.03.31 09:47:26.
