data_PCOD8050183
_publ_section_title
;
Structure prediction by ZEFSAII (Michael W. Deem and Ramdas Pophale) SiO2 
 PCOD8050183
Probable space group: C 2
;
_chemical_formula_sum "Si O2"
_cell_formula_units_Z 28
_cell_length_a 9.359418
_cell_length_b 25.806315
_cell_length_c 9.728186
_cell_angle_alpha 90.000000
_cell_angle_beta 32.910419
_cell_angle_gamma 90.000000
_cell_volume 1276.638944
_symmetry_space_group_name_H-M "C 2"
_symmetry_group_IT_number 5
_symmetry_cell_setting 'monoclinic'
loop_
_space_group_symop_operation_xyz
x,y,z
-x,y,-z
1/2+x,1/2+y,z
1/2-x,1/2+y,-z
loop_
_atom_site_type_symbol
_atom_site_label
_atom_site_fract_x
_atom_site_fract_y
_atom_site_fract_z
Si Si1 0.500000 0.314040 0.000000
Si Si2 0.000000 0.988821 0.000000
Si Si3 0.707946 0.904565 0.724351
Si Si4 0.880863 0.404349 0.731222
Si Si5 0.280565 0.066705 0.573112
Si Si6 0.074181 0.714679 0.085476
Si Si7 0.584198 0.666278 0.592402
Si Si8 0.795923 0.525762 0.275245
O O1 0.245857 0.350056 0.212121
O O2 0.523829 0.276980 0.115803
O O3 0.815547 0.949555 0.059162
O O4 0.883106 0.024010 0.213350
O O5 0.607356 0.891394 0.654932
O O6 0.000000 0.879893 0.500000
O O7 0.723678 0.965330 0.738624
O O8 0.500000 0.879596 0.000000
O O9 0.000000 0.430609 0.500000
O O10 0.500000 0.088943 0.500000
O O11 0.096234 0.112088 0.663646
O O12 0.408993 0.038164 0.336380
O O13 0.879425 0.691394 0.358872
O O14 0.384931 0.700898 0.847340
O O15 0.000000 0.687914 0.000000
O O16 0.500000 0.661333 0.500000
O O17 0.500000 0.549645 0.500000
O O18 0.000000 0.550887 0.000000
#
# Coordination Sequence:
#
# PCOD8050183 Si02
#       8
#     2   2   4   4   4   4   4   4
#     4   9  22  38  76 102 130 166 236 301 358 404
#     4  11  26  42  62  98 154 192 238 283 334 414
#     4  10  23  40  61  89 135 180 214 276 336 394
#     4  11  24  41  70 103 134 187 240 281 341 422
#     4  12  27  40  64  95 143 189 229 282 348 421
#     4   8  19  39  65 100 123 155 212 304 337 387
#     4  10  21  41  67  94 128 168 225 281 344 398
#     4  10  23  40  63  87 125 180 238 276 321 384
#
# _framework density 21.932590999999999
#
# number of rings (size 3 to 8) (size 9 to 14) (size 15 to 20)
#    0.429    1.429    0.000    2.571   16.000    1.714 
#    0.000    0.000    0.000    2.571    0.000    0.000 
#    0.000    0.000    0.000    0.000    0.000    0.000 
#
# Total GULP energy -173444.236028 kJ/mol
# GULP energy per Si atom -12388.874002 kJ/mol
# Density = 2.188267 g / cm^3
# Si number density = 21.932591 Si / 1000 Ang^3
#
#
#
# Elastic Constant Matrix: (Units=GPa)
#
#
# Indices 1 2 3 4 5 6 
#
# 1 116.8708 25.2576 67.1948 0.0000 -3.1028 0.0000
# 2 25.2576 106.3432 46.1744 0.0000 -10.0407 0.0000
# 3 67.1948 46.1744 168.5660 0.0000 -14.3598 0.0000
# 4 0.0000 0.0000 0.0000 32.2046 0.0000 -3.8485
# 5 -3.1028 -10.0407 -14.3598 0.0000 38.5818 0.0000
# 6 0.0000 0.0000 0.0000 -3.8485 0.0000 11.4880
#
#
#
# Elastic Compliance Matrix: (Units=1/GPa)
#
#
# Indices 1 2 3 4 5 6 
#
# 1 0.011195 -0.000879 -0.004301 0.000000 -0.000929 0.000000
# 2 -0.000879 0.010857 -0.002467 0.000000 0.001837 0.000000
# 3 -0.004301 -0.002467 0.008508 0.000000 0.002179 0.000000
# 4 0.000000 0.000000 0.000000 0.032346 0.000000 0.010836
# 5 -0.000929 0.001837 0.002179 0.000000 0.027133 0.000000
# 6 0.000000 0.000000 0.000000 0.010836 0.000000 0.090678
#
#
# Mechanical properties :
#
#
# Convention : Reuss Voigt Hill
#
# Bulk Modulus (GPa) = 65.50654 74.33706 69.92180
# Shear Modulus (GPa) = 24.86334 33.33176 29.09755
#
# Velocity S-wave (km/s) = 3.37059 3.90261 3.64631
# Velocity P-wave (km/s) = 6.71415 7.36710 7.04819
#
# Compressibility (1/GPa) = 0.01526565
#
# Stress axis : x y z
#
# Youngs Moduli (GPa) = 89.32953 92.10706 117.53384
#
# Poissons Ratio (x) = 0.08098 0.50548
# Poissons Ratio (y) = 0.07853 0.28997
# Poissons Ratio (z) = 0.38418 0.22724
#
# Static dielectric constant tensor:
#      x y z
#    x 3.868590 0.000000 -0.241090 
#    y 0.000000 3.612350 0.000000 
#    z -0.241090 0.000000 4.207370 
# 
# 
# High freq. dielectric constant tensor:
#      x y z
#    x 1.838620 0.000000 -0.017050 
#    y 0.000000 1.837960 0.000000 
#    z -0.017050 0.000000 1.870630 
# 
# From -- ./inp_files/17530.got.cif
#   From: 2010.03.12/outbox.cif.g09.slc.cpg/sg5_9_cif.got.tgz:17530.got - 2010.03.31 09:47:26.
