data_PCOD8050163
_publ_section_title
;
Structure prediction by ZEFSAII (Michael W. Deem and Ramdas Pophale) SiO2 
 PCOD8050163
Probable space group: C 2
;
_chemical_formula_sum "Si O2"
_cell_formula_units_Z 24
_cell_length_a 28.632201
_cell_length_b 5.269232
_cell_length_c 15.470257
_cell_angle_alpha 90.000000
_cell_angle_beta 157.641119
_cell_angle_gamma 90.000000
_cell_volume 887.866800
_symmetry_space_group_name_H-M "C 2"
_symmetry_group_IT_number 5
_symmetry_cell_setting 'monoclinic'
loop_
_space_group_symop_operation_xyz
x,y,z
-x,y,-z
1/2+x,1/2+y,z
1/2-x,1/2+y,-z
loop_
_atom_site_type_symbol
_atom_site_label
_atom_site_fract_x
_atom_site_fract_y
_atom_site_fract_z
Si Si1 0.690335 0.701340 0.296163
Si Si2 0.852495 0.202921 0.593494
Si Si3 0.877441 0.795506 0.153883
Si Si4 0.300863 0.621832 0.874933
Si Si5 0.649394 0.515955 0.716979
Si Si6 0.444968 0.837083 0.580834
O O1 0.772219 0.454699 0.450042
O O2 0.597417 0.702292 0.220390
O O3 0.626921 0.679589 0.092243
O O4 0.774959 0.951346 0.440061
O O5 0.959288 0.226729 0.703315
O O6 0.909603 0.844013 0.309100
O O7 0.963559 0.569358 0.270402
O O8 0.732635 0.728053 0.906079
O O9 0.891935 0.027692 0.108775
O O10 0.234995 0.873103 0.795221
O O11 0.197452 0.411875 0.677662
O O12 0.535597 0.629608 0.463858
#
# Coordination Sequence:
#
# PCOD8050163 Si02
#       6
#     4   4   4   4   4   4
#     4   9  17  33  65 102 136 180 231 299 362 436
#     4   9  17  34  63 105 134 174 244 296 353 439
#     4  11  24  43  65  99 143 188 236 309 360 433
#     4  10  21  41  64  99 140 182 236 295 371 430
#     4  11  22  44  64  95 140 185 241 293 371 434
#     4  10  23  41  67 101 135 187 248 296 358 445
#
# _framework density 27.031082000000001
#
# number of rings (size 3 to 8) (size 9 to 14) (size 15 to 20)
#    0.000    2.000    3.333    0.000    0.000    2.000 
#    3.000    0.000    0.000    1.000   13.000    0.000 
#    0.000    0.000    0.000    0.000    0.000    0.000 
#
# Total GULP energy -148710.955494 kJ/mol
# GULP energy per Si atom -12392.579624 kJ/mol
# Density = 2.696956 g / cm^3
# Si number density = 27.031082 Si / 1000 Ang^3
#
#
#
# Elastic Constant Matrix: (Units=GPa)
#
#
# Indices 1 2 3 4 5 6 
#
# 1 202.1478 48.1775 68.4510 0.0000 -44.0988 0.0000
# 2 48.1775 133.2789 18.7656 -0.0003 -14.8064 0.0001
# 3 68.4510 18.7656 135.6847 -0.0001 -58.4844 0.0000
# 4 0.0000 -0.0003 -0.0001 45.3185 0.0000 0.4915
# 5 -44.0988 -14.8064 -58.4844 0.0000 54.1655 0.0000
# 6 0.0000 0.0001 0.0000 0.4915 0.0000 49.2126
#
#
#
# Elastic Compliance Matrix: (Units=1/GPa)
#
#
# Indices 1 2 3 4 5 6 
#
# 1 0.006640 -0.001817 -0.001838 0.000000 0.002925 0.000000
# 2 -0.001817 0.008241 0.000206 0.000000 0.000996 0.000000
# 3 -0.001838 0.000206 0.014306 0.000000 0.014007 0.000000
# 4 0.000000 0.000000 0.000000 0.022068 0.000000 -0.000220
# 5 0.002925 0.000996 0.014007 0.000000 0.036240 0.000000
# 6 0.000000 0.000000 0.000000 -0.000220 0.000000 0.020322
#
#
# Mechanical properties :
#
#
# Convention : Reuss Voigt Hill
#
# Bulk Modulus (GPa) = 44.86084 82.43329 63.64706
# Shear Modulus (GPa) = 40.93499 52.12047 46.52773
#
# Velocity S-wave (km/s) = 3.89571 4.39586 4.15332
# Velocity P-wave (km/s) = 6.07186 7.50511 6.82620
#
# Compressibility (1/GPa) = 0.02229116
#
# Stress axis : x y z
#
# Youngs Moduli (GPa) = 150.59595 121.33880 69.90050
#
# Poissons Ratio (x) = 0.22042 0.12846
# Poissons Ratio (y) = 0.27357 -0.01441
# Poissons Ratio (z) = 0.27677 -0.02501
#
# Static dielectric constant tensor:
#      x y z
#    x 5.907000 0.000000 -0.737720 
#    y 0.000000 4.900460 0.000000 
#    z -0.737720 0.000000 5.174350 
# 
# 
# High freq. dielectric constant tensor:
#      x y z
#    x 2.120370 0.000000 -0.024560 
#    y 0.000000 2.094660 0.000000 
#    z -0.024560 0.000000 2.101400 
# 
# From -- ./inp_files/58334.got.cif
#   From: 2010.03.12/outbox.cif.g09.slc.cpg/sg5_30_cif.got.tgz:58334.got - 2010.03.31 09:47:26.
