data_PCOD8050522
_publ_section_title
;
Structure prediction by ZEFSAII (Michael W. Deem and Ramdas Pophale) SiO2 
 PCOD8050522
Probable space group: C 2
;
_chemical_formula_sum "Si O2"
_cell_formula_units_Z 26
_cell_length_a 10.172317
_cell_length_b 9.197177
_cell_length_c 12.887290
_cell_angle_alpha 90.000000
_cell_angle_beta 105.893748
_cell_angle_gamma 90.000000
_cell_volume 1159.598911
_symmetry_space_group_name_H-M "C 2"
_symmetry_group_IT_number 5
_symmetry_cell_setting 'monoclinic'
loop_
_space_group_symop_operation_xyz
x,y,z
-x,y,-z
1/2+x,1/2+y,z
1/2-x,1/2+y,-z
loop_
_atom_site_type_symbol
_atom_site_label
_atom_site_fract_x
_atom_site_fract_y
_atom_site_fract_z
Si Si1 0.000000 0.732641 0.500000
Si Si2 0.088060 0.844646 0.736383
Si Si3 0.638949 0.764185 0.572024
Si Si4 0.896016 0.838302 0.883821
Si Si5 0.348124 0.640071 0.789621
Si Si6 0.768406 0.044313 0.552842
Si Si7 0.135557 0.175881 0.797800
O O1 0.979083 0.832945 0.392735
O O2 0.875450 0.622837 0.477709
O O3 0.222677 0.746395 0.781190
O O4 0.973538 0.793415 0.794260
O O5 0.139749 0.005930 0.772534
O O6 0.500000 0.832068 0.500000
O O7 0.655449 0.598941 0.534452
O O8 0.639555 0.773897 0.695165
O O9 0.755307 0.869438 0.547680
O O10 0.773838 0.725671 0.886016
O O11 0.833621 0.001206 0.861755
O O12 0.000000 0.832788 0.000000
O O13 0.357223 0.587066 0.672019
O O14 0.499393 0.713542 0.836418
#
# Coordination Sequence:
#
# PCOD8050522 Si02
#       7
#     2   4   4   4   4   4   4
#     4  10  22  40  64  94 142 170 214 262 322 398
#     4  10  25  43  66 101 135 177 218 271 333 396
#     4  12  24  37  61  96 136 178 214 260 326 402
#     4  11  25  47  70  94 130 175 226 282 333 388
#     4  10  23  44  65  97 130 170 219 275 333 390
#     4  11  23  38  60  93 135 177 215 256 323 391
#     4  11  24  41  66  96 133 172 224 274 331 393
#
# _framework density 22.421544999999998
#
# number of rings (size 3 to 8) (size 9 to 14) (size 15 to 20)
#    0.000    1.231    3.846    0.923    7.538    3.692 
#    0.000    0.769    0.000    0.000    0.000    0.000 
#    0.000    0.000    0.000    0.000    0.000    0.000 
#
# Total GULP energy -161160.899452 kJ/mol
# GULP energy per Si atom -12396.992266 kJ/mol
# Density = 2.237051 g / cm^3
# Si number density = 22.421545 Si / 1000 Ang^3
#
#
#
# Elastic Constant Matrix: (Units=GPa)
#
#
# Indices 1 2 3 4 5 6 
#
# 1 115.6423 44.0312 27.6978 0.0000 22.5405 0.0000
# 2 44.0312 90.6051 20.8971 0.0000 14.0421 0.0000
# 3 27.6978 20.8971 90.2808 0.0000 25.0893 0.0000
# 4 0.0000 0.0000 0.0000 23.8625 0.0000 5.8341
# 5 22.5405 14.0421 25.0893 0.0000 36.0258 0.0000
# 6 0.0000 0.0000 0.0000 5.8341 0.0000 23.7992
#
#
#
# Elastic Compliance Matrix: (Units=1/GPa)
#
#
# Indices 1 2 3 4 5 6 
#
# 1 0.011604 -0.004647 -0.001203 0.000000 -0.004611 0.000000
# 2 -0.004647 0.013846 -0.001348 0.000000 -0.001550 0.000000
# 3 -0.001203 -0.001348 0.014139 0.000000 -0.008569 0.000000
# 4 0.000000 0.000000 0.000000 0.044578 0.000000 -0.010928
# 5 -0.004611 -0.001550 -0.008569 0.000000 0.037215 0.000000
# 6 0.000000 0.000000 0.000000 -0.010928 0.000000 0.044697
#
#
# Mechanical properties :
#
#
# Convention : Reuss Voigt Hill
#
# Bulk Modulus (GPa) = 39.69440 53.53115 46.61277
# Shear Modulus (GPa) = 26.47281 30.33098 28.40189
#
# Velocity S-wave (km/s) = 3.43984 3.68198 3.56297
# Velocity P-wave (km/s) = 5.78954 6.48095 6.14498
#
# Compressibility (1/GPa) = 0.02519247
#
# Stress axis : x y z
#
# Youngs Moduli (GPa) = 86.18049 72.22066 70.72663
#
# Poissons Ratio (x) = 0.33560 0.08508
# Poissons Ratio (y) = 0.40047 0.09537
# Poissons Ratio (z) = 0.10366 0.09739
#
# Static dielectric constant tensor:
#      x y z
#    x 4.305450 0.000000 0.185310 
#    y 0.000000 3.942250 0.000000 
#    z 0.185310 0.000000 3.988410 
# 
# 
# High freq. dielectric constant tensor:
#      x y z
#    x 1.903490 0.000000 0.024410 
#    y 0.000000 1.878350 0.000000 
#    z 0.024410 0.000000 1.864820 
# 
# From -- ./inp_files/52347.got.cif
#   From: 2010.03.12/outbox.cif.g09.slc.cpg/sg5_27_cif.got.tgz:52347.got - 2010.03.31 09:47:26.
