data_PCOD8050441
_publ_section_title
;
Structure prediction by ZEFSAII (Michael W. Deem and Ramdas Pophale) SiO2 
 PCOD8050441
Probable space group: C 2
;
_chemical_formula_sum "Si O2"
_cell_formula_units_Z 24
_cell_length_a 14.595733
_cell_length_b 16.005715
_cell_length_c 8.729413
_cell_angle_alpha 90.000000
_cell_angle_beta 37.095082
_cell_angle_gamma 90.000000
_cell_volume 1229.996343
_symmetry_space_group_name_H-M "C 2"
_symmetry_group_IT_number 5
_symmetry_cell_setting 'monoclinic'
loop_
_space_group_symop_operation_xyz
x,y,z
-x,y,-z
1/2+x,1/2+y,z
1/2-x,1/2+y,-z
loop_
_atom_site_type_symbol
_atom_site_label
_atom_site_fract_x
_atom_site_fract_y
_atom_site_fract_z
Si Si1 0.817643 0.909800 0.394213
Si Si2 0.956668 0.649503 0.790145
Si Si3 0.000000 0.765637 0.000000
Si Si4 0.500000 0.547161 0.000000
Si Si5 0.248938 0.174816 0.789609
Si Si6 0.506764 0.966345 0.672243
Si Si7 0.148549 0.358815 0.899588
O O1 0.877953 0.822563 0.248000
O O2 0.668551 0.927194 0.494080
O O3 0.788617 0.896431 0.614624
O O4 0.935046 0.986651 0.220188
O O5 0.811774 0.653058 0.872703
O O6 0.111161 0.685988 0.512186
O O7 0.986969 0.553006 0.790325
O O8 0.915200 0.704451 0.993372
O O9 0.634365 0.602454 0.890525
O O10 0.159872 0.261252 0.917354
O O11 0.500000 0.983100 0.500000
O O12 0.370637 0.905574 0.911335
O O13 0.000000 0.378079 0.000000
#
# Coordination Sequence:
#
# PCOD8050441 Si02
#       7
#     4   4   2   2   4   4   4
#     4  10  22  39  59  94 120 168 206 251 318 358
#     4  11  23  40  63  90 127 167 210 249 313 371
#     4  11  24  38  65  90 126 162 211 262 300 379
#     4  11  20  38  71  86 130 158 209 258 308 371
#     4  11  21  41  61  91 122 169 203 257 310 363
#     4  11  22  40  63  90 125 167 210 255 308 374
#     4  10  22  39  63  88 126 163 206 253 311 368
#
# _framework density 19.512253999999999
#
# number of rings (size 3 to 8) (size 9 to 14) (size 15 to 20)
#    0.000    1.333    5.833    0.000    5.833    0.000 
#    0.000    0.000    0.000    2.000    0.000    0.000 
#    0.000    0.000    0.000    0.000    0.000    0.000 
#
# Total GULP energy -148793.147551 kJ/mol
# GULP energy per Si atom -12399.428963 kJ/mol
# Density = 1.946784 g / cm^3
# Si number density = 19.512254 Si / 1000 Ang^3
#
#
#
# Elastic Constant Matrix: (Units=GPa)
#
#
# Indices 1 2 3 4 5 6 
#
# 1 81.2809 33.6796 27.4479 0.0002 2.1894 -0.0001
# 2 33.6796 149.2588 55.2639 0.0000 12.3405 0.0000
# 3 27.4479 55.2639 93.9854 0.0002 7.1053 -0.0002
# 4 0.0002 0.0000 0.0002 32.2389 -0.0003 3.9102
# 5 2.1894 12.3405 7.1053 -0.0003 20.4597 0.0003
# 6 -0.0001 0.0000 -0.0002 3.9102 0.0003 23.2159
#
#
#
# Elastic Compliance Matrix: (Units=1/GPa)
#
#
# Indices 1 2 3 4 5 6 
#
# 1 0.014171 -0.002186 -0.002915 0.000000 0.000814 0.000000
# 2 -0.002186 0.009154 -0.004462 0.000000 -0.003738 0.000000
# 3 -0.002915 -0.004462 0.014262 0.000000 -0.001950 0.000000
# 4 0.000000 0.000000 0.000000 0.031665 0.000001 -0.005333
# 5 0.000814 -0.003738 -0.001950 0.000001 0.051721 -0.000001
# 6 0.000000 0.000000 0.000000 -0.005333 -0.000001 0.043972
#
#
# Mechanical properties :
#
#
# Convention : Reuss Voigt Hill
#
# Bulk Modulus (GPa) = 54.16355 61.92311 58.04333
# Shear Modulus (GPa) = 26.28470 29.05848 27.67159
#
# Velocity S-wave (km/s) = 3.67425 3.86326 3.76994
# Velocity P-wave (km/s) = 6.76898 7.19055 6.98295
#
# Compressibility (1/GPa) = 0.01846260
#
# Stress axis : x y z
#
# Youngs Moduli (GPa) = 70.56618 109.24224 70.11566
#
# Poissons Ratio (x) = 0.23877 0.20438
# Poissons Ratio (y) = 0.15424 0.31283
# Poissons Ratio (z) = 0.20570 0.48740
#
# Static dielectric constant tensor:
#      x y z
#    x 3.350250 0.000000 0.063230 
#    y 0.000000 3.713010 0.000000 
#    z 0.063230 0.000000 3.805190 
# 
# 
# High freq. dielectric constant tensor:
#      x y z
#    x 1.739600 0.000000 -0.000270 
#    y 0.000000 1.782310 0.000000 
#    z -0.000270 0.000000 1.758960 
# 
# From -- ./inp_files/21067.got.cif
#   From: 2010.03.12/outbox.cif.g09.slc.cpg/sg5_11_cif.got.tgz:21067.got - 2010.03.31 09:47:26.
