data_PCOD8050590
_publ_section_title
;
Structure prediction by ZEFSAII (Michael W. Deem and Ramdas Pophale) SiO2 
 PCOD8050590
Probable space group: C 2
;
_chemical_formula_sum "Si O2"
_cell_formula_units_Z 26
_cell_length_a 13.515002
_cell_length_b 15.811566
_cell_length_c 8.374083
_cell_angle_alpha 90.000000
_cell_angle_beta 132.718973
_cell_angle_gamma 90.000000
_cell_volume 1314.717314
_symmetry_space_group_name_H-M "C 2"
_symmetry_group_IT_number 5
_symmetry_cell_setting 'monoclinic'
loop_
_space_group_symop_operation_xyz
x,y,z
-x,y,-z
1/2+x,1/2+y,z
1/2-x,1/2+y,-z
loop_
_atom_site_type_symbol
_atom_site_label
_atom_site_fract_x
_atom_site_fract_y
_atom_site_fract_z
Si Si1 0.613035 0.619170 0.997372
Si Si2 0.694092 0.207062 0.556978
Si Si3 0.868849 0.563471 0.755704
Si Si4 0.199477 0.985715 0.838203
Si Si5 0.532950 0.782723 0.212959
Si Si6 0.982135 0.446569 0.303156
Si Si7 0.500000 0.340721 0.500000
O O1 0.623469 0.547394 0.876281
O O2 0.557871 0.701760 0.848264
O O3 0.500000 0.588292 0.000000
O O4 0.753345 0.647509 0.237599
O O5 0.649670 0.147459 0.365528
O O6 0.811196 0.262720 0.612057
O O7 0.577675 0.274866 0.470344
O O8 0.738279 0.536367 0.718114
O O9 0.899393 0.485643 0.672900
O O10 0.000000 0.584215 0.000000
O O11 0.107564 0.902597 0.706174
O O12 0.334983 0.961265 0.074798
O O13 0.503617 0.846589 0.323289
O O14 0.500000 0.820625 0.000000
O O15 0.000000 0.482690 0.500000
#
# Coordination Sequence:
#
# PCOD8050590 Si02
#       7
#     4   4   4   4   4   4   2
#     4   9  21  41  69  89 125 171 221 257 319 396
#     4  10  22  41  64  92 130 174 208 267 323 393
#     4  10  23  40  65  89 127 170 221 260 318 390
#     4  11  24  42  65  98 130 172 211 276 324 389
#     4   9  19  40  62  88 123 166 208 259 319 388
#     4  11  22  40  64  93 123 169 218 266 315 389
#     4  12  26  38  68 100 140 164 214 272 348 366
#
# _framework density 19.776114
#
# number of rings (size 3 to 8) (size 9 to 14) (size 15 to 20)
#    0.000    2.154    0.000    5.077    9.692    1.231 
#    5.538    0.000    0.000    0.000    0.000    0.000 
#    0.000    0.000    0.000    0.000    0.000    0.000 
#
# Total GULP energy -161087.491925 kJ/mol
# GULP energy per Si atom -12391.345533 kJ/mol
# Density = 1.973110 g / cm^3
# Si number density = 19.776114 Si / 1000 Ang^3
#
#
#
# Elastic Constant Matrix: (Units=GPa)
#
#
# Indices 1 2 3 4 5 6 
#
# 1 108.8438 86.0221 49.5855 0.0000 -9.8734 0.0000
# 2 86.0221 123.4252 55.1644 0.0000 -11.3214 0.0000
# 3 49.5855 55.1644 69.6595 0.0000 -6.7113 0.0000
# 4 0.0000 0.0000 0.0000 21.6845 0.0000 -16.5488
# 5 -9.8734 -11.3214 -6.7113 0.0000 21.3898 0.0000
# 6 0.0000 0.0000 0.0000 -16.5488 0.0000 42.8012
#
#
#
# Elastic Compliance Matrix: (Units=1/GPa)
#
#
# Indices 1 2 3 4 5 6 
#
# 1 0.021734 -0.012616 -0.005317 0.000000 0.001686 0.000000
# 2 -0.012616 0.020144 -0.006708 0.000000 0.002734 0.000000
# 3 -0.005317 -0.006708 0.023587 0.000000 0.001396 0.000000
# 4 0.000000 0.000000 0.000000 0.065419 0.000000 0.025294
# 5 0.001686 0.002734 0.001396 0.000000 0.049414 0.000000
# 6 0.000000 0.000000 0.000000 0.025294 0.000000 0.033143
#
#
# Mechanical properties :
#
#
# Convention : Reuss Voigt Hill
#
# Bulk Modulus (GPa) = 61.79905 75.94138 68.87022
# Shear Modulus (GPa) = 18.64835 24.58554 21.61694
#
# Velocity S-wave (km/s) = 3.07412 3.52972 3.30977
# Velocity P-wave (km/s) = 6.62702 7.42266 7.03610
#
# Compressibility (1/GPa) = 0.01618148
#
# Stress axis : x y z
#
# Youngs Moduli (GPa) = 46.01131 49.64198 42.39546
#
# Poissons Ratio (x) = 0.62630 0.22542
# Poissons Ratio (y) = 0.58050 0.28441
# Poissons Ratio (z) = 0.24465 0.33302
#
# Static dielectric constant tensor:
#      x y z
#    x 3.728010 0.000000 0.075590 
#    y 0.000000 3.680820 0.000000 
#    z 0.075590 0.000000 3.571040 
# 
# 
# High freq. dielectric constant tensor:
#      x y z
#    x 1.771240 0.000000 0.010260 
#    y 0.000000 1.778880 0.000000 
#    z 0.010260 0.000000 1.767660 
# 
# From -- ./inp_files/24822.got.cif
#   From: 2010.03.12/outbox.cif.g09.slc.cpg/sg5_13_cif.got.tgz:24822.got - 2010.03.31 09:47:26.
