data_PCOD8050003
_publ_section_title
;
Structure prediction by ZEFSAII (Michael W. Deem and Ramdas Pophale) SiO2 
 PCOD8050003
Probable space group: C 2
;
_chemical_formula_sum "Si O2"
_cell_formula_units_Z 26
_cell_length_a 12.117009
_cell_length_b 8.211453
_cell_length_c 25.874587
_cell_angle_alpha 90.000000
_cell_angle_beta 28.125374
_cell_angle_gamma 90.000000
_cell_volume 1213.614464
_symmetry_space_group_name_H-M "C 2"
_symmetry_group_IT_number 5
_symmetry_cell_setting 'monoclinic'
loop_
_space_group_symop_operation_xyz
x,y,z
-x,y,-z
1/2+x,1/2+y,z
1/2-x,1/2+y,-z
loop_
_atom_site_type_symbol
_atom_site_label
_atom_site_fract_x
_atom_site_fract_y
_atom_site_fract_z
Si Si1 0.500000 0.004270 0.500000
Si Si2 0.085295 0.335307 0.359597
Si Si3 0.741419 0.813962 0.602489
Si Si4 0.435094 0.065241 0.245617
Si Si5 0.289465 0.826099 0.120840
Si Si6 0.540360 0.511440 0.140570
Si Si7 0.102940 0.377867 0.082391
O O1 0.269519 0.119939 0.602211
O O2 0.476567 0.895362 0.458632
O O3 0.200643 0.158591 0.323375
O O4 0.269957 0.462243 0.258586
O O5 0.871771 0.328416 0.407453
O O6 0.000000 0.895575 0.500000
O O7 0.597704 0.904953 0.706271
O O8 0.595690 0.188473 0.212225
O O9 0.580248 0.013678 0.135436
O O10 0.174337 0.975580 0.138234
O O11 0.382939 0.901049 0.135201
O O12 0.500000 0.748446 0.000000
O O13 0.583980 0.699117 0.113112
O O14 0.649801 0.404267 0.048587
#
# Coordination Sequence:
#
# PCOD8050003 Si02
#       7
#     2   4   4   4   4   4   4
#     4  10  26  42  64  90 120 168 210 268 314 362
#     4  11  24  44  66  91 128 163 213 261 312 372
#     4  10  26  43  63  93 124 160 215 263 317 363
#     4  11  24  39  66  96 120 168 209 248 318 373
#     4   9  20  39  60  93 131 164 202 246 302 369
#     4  10  21  39  64  95 126 167 204 248 311 369
#     4  11  21  40  64  92 135 161 200 252 303 377
#
# _framework density 21.423608000000002
#
# number of rings (size 3 to 8) (size 9 to 14) (size 15 to 20)
#    0.462    1.231    0.000    4.615    3.231    3.692 
#    0.000   10.000    0.000    0.000    0.000    0.000 
#    0.000    0.000    0.000    0.000    0.000    0.000 
#
# Total GULP energy -161145.656930 kJ/mol
# GULP energy per Si atom -12395.819764 kJ/mol
# Density = 2.137485 g / cm^3
# Si number density = 21.423608 Si / 1000 Ang^3
#
#
#
# Elastic Constant Matrix: (Units=GPa)
#
#
# Indices 1 2 3 4 5 6 
#
# 1 129.5403 21.1165 36.8137 -0.0004 -0.5972 -0.0026
# 2 21.1165 74.9791 5.5705 0.0008 11.8428 -0.0015
# 3 36.8137 5.5705 57.0161 0.0108 5.5108 0.0053
# 4 -0.0004 0.0008 0.0108 43.4828 0.0003 9.0039
# 5 -0.5972 11.8428 5.5108 0.0003 34.8520 -0.0009
# 6 -0.0026 -0.0015 0.0053 9.0039 -0.0009 21.3518
#
#
#
# Elastic Compliance Matrix: (Units=1/GPa)
#
#
# Indices 1 2 3 4 5 6 
#
# 1 0.009978 -0.002665 -0.006384 0.000001 0.002086 0.000002
# 2 -0.002665 0.014854 0.000774 -0.000001 -0.005215 0.000001
# 3 -0.006384 0.000774 0.021957 -0.000005 -0.003844 -0.000004
# 4 0.000001 -0.000001 -0.000005 0.025198 0.000000 -0.010626
# 5 0.002086 -0.005215 -0.003844 0.000000 0.031109 0.000002
# 6 0.000002 0.000001 -0.000004 -0.010626 0.000002 0.051315
#
#
# Mechanical properties :
#
#
# Convention : Reuss Voigt Hill
#
# Bulk Modulus (GPa) = 33.07093 43.17078 38.12086
# Shear Modulus (GPa) = 27.61823 33.13962 30.37893
#
# Velocity S-wave (km/s) = 3.59437 3.93730 3.76973
# Velocity P-wave (km/s) = 5.71806 6.39254 6.06468
#
# Compressibility (1/GPa) = 0.03023804
#
# Stress axis : x y z
#
# Youngs Moduli (GPa) = 100.22198 67.32210 45.54436
#
# Poissons Ratio (x) = 0.17943 0.29074
# Poissons Ratio (y) = 0.26712 -0.03524
# Poissons Ratio (z) = 0.63978 -0.05209
#
# Static dielectric constant tensor:
#      x y z
#    x 3.948380 0.000000 -0.041940 
#    y 0.000000 3.777560 0.000000 
#    z -0.041940 0.000000 3.832660 
# 
# 
# High freq. dielectric constant tensor:
#      x y z
#    x 1.845280 0.000000 0.004360 
#    y 0.000000 1.837640 0.000000 
#    z 0.004360 0.000000 1.835550 
# 
# From -- ./inp_files/47953.got.cif
#   From: 2010.03.12/outbox.cif.g09.slc.cpg/sg5_24_cif.got.tgz:47953.got - 2010.03.31 09:47:26.
