data_PCOD8050194
_publ_section_title
;
Structure prediction by ZEFSAII (Michael W. Deem and Ramdas Pophale) SiO2 
 PCOD8050194
Probable space group: C 2
;
_chemical_formula_sum "Si O2"
_cell_formula_units_Z 26
_cell_length_a 14.500434
_cell_length_b 12.132531
_cell_length_c 8.637206
_cell_angle_alpha 90.000000
_cell_angle_beta 52.196259
_cell_angle_gamma 90.000000
_cell_volume 1200.593509
_symmetry_space_group_name_H-M "C 2"
_symmetry_group_IT_number 5
_symmetry_cell_setting 'monoclinic'
loop_
_space_group_symop_operation_xyz
x,y,z
-x,y,-z
1/2+x,1/2+y,z
1/2-x,1/2+y,-z
loop_
_atom_site_type_symbol
_atom_site_label
_atom_site_fract_x
_atom_site_fract_y
_atom_site_fract_z
Si Si1 0.281221 0.454090 0.573582
Si Si2 0.000000 0.614524 0.500000
Si Si3 0.760936 0.538584 0.714545
Si Si4 0.175182 0.814896 0.883555
Si Si5 0.458425 0.285480 0.287865
Si Si6 0.372156 0.677838 0.568561
Si Si7 0.624791 0.752508 0.790288
O O1 0.221177 0.497186 0.478974
O O2 0.407440 0.397302 0.413954
O O3 0.306136 0.560693 0.652223
O O4 0.194004 0.367293 0.745010
O O5 0.111229 0.541823 0.334106
O O6 0.058705 0.685475 0.576796
O O7 0.682751 0.446994 0.879312
O O8 0.693992 0.653958 0.802576
O O9 0.113228 0.763624 0.795125
O O10 0.303085 0.760645 0.754660
O O11 0.097101 0.790528 0.114191
O O12 0.500000 0.663695 0.500000
O O13 0.380313 0.725575 0.386643
O O14 0.500000 0.764556 0.000000
#
# Coordination Sequence:
#
# PCOD8050194 Si02
#       7
#     4   2   4   4   4   4   4
#     4  10  21  45  62  91 126 173 203 257 320 379
#     4  12  22  40  64  98 128 156 210 276 302 360
#     4  10  22  38  67  92 127 167 208 257 315 378
#     4  10  22  44  64  91 124 177 209 243 321 390
#     4  10  21  41  69  87 121 167 215 251 306 378
#     4  11  24  42  63  93 132 163 207 264 313 371
#     4  11  23  43  69  92 125 167 216 256 317 378
#
# _framework density 21.655957000000001
#
# number of rings (size 3 to 8) (size 9 to 14) (size 15 to 20)
#    0.000    1.538    4.615    0.923    8.615    1.231 
#    5.538    0.000    0.000    0.000    0.000    0.000 
#    0.000    0.000    0.000    0.000    0.000    0.000 
#
# Total GULP energy -161159.595462 kJ/mol
# GULP energy per Si atom -12396.891959 kJ/mol
# Density = 2.160667 g / cm^3
# Si number density = 21.655957 Si / 1000 Ang^3
#
#
#
# Elastic Constant Matrix: (Units=GPa)
#
#
# Indices 1 2 3 4 5 6 
#
# 1 89.7710 41.9292 24.3315 0.0000 -28.1235 0.0000
# 2 41.9292 121.3424 43.7715 0.0000 -23.2164 0.0000
# 3 24.3315 43.7715 102.9992 0.0000 -42.4766 0.0000
# 4 0.0000 0.0000 0.0000 16.5406 0.0000 -12.1101
# 5 -28.1235 -23.2164 -42.4766 0.0000 32.7169 0.0000
# 6 0.0000 0.0000 0.0000 -12.1101 0.0000 29.6685
#
#
#
# Elastic Compliance Matrix: (Units=1/GPa)
#
#
# Indices 1 2 3 4 5 6 
#
# 1 0.017830 -0.004492 0.005818 0.000000 0.019693 0.000000
# 2 -0.004492 0.011034 -0.004286 0.000000 -0.001596 0.000000
# 3 0.005818 -0.004286 0.023600 0.000000 0.032600 0.000000
# 4 0.000000 0.000000 0.000000 0.086225 0.000000 0.035195
# 5 0.019693 -0.001596 0.032600 0.000000 0.088686 0.000000
# 6 0.000000 0.000000 0.000000 0.035195 0.000000 0.048072
#
#
# Mechanical properties :
#
#
# Convention : Reuss Voigt Hill
#
# Bulk Modulus (GPa) = 21.48489 59.35301 40.41895
# Shear Modulus (GPa) = 16.84174 29.39056 23.11615
#
# Velocity S-wave (km/s) = 2.79174 3.68796 3.27069
# Velocity P-wave (km/s) = 4.50936 6.75289 5.74177
#
# Compressibility (1/GPa) = 0.04654433
#
# Stress axis : x y z
#
# Youngs Moduli (GPa) = 56.08520 90.62815 42.37269
#
# Poissons Ratio (x) = 0.40710 -0.24654
# Poissons Ratio (y) = 0.25194 0.18162
# Poissons Ratio (z) = -0.32633 0.38846
#
# Static dielectric constant tensor:
#      x y z
#    x 3.794110 0.000000 -0.216470 
#    y 0.000000 4.078220 0.000000 
#    z -0.216470 0.000000 3.799420 
# 
# 
# High freq. dielectric constant tensor:
#      x y z
#    x 1.842830 0.000000 -0.024800 
#    y 0.000000 1.858650 0.000000 
#    z -0.024800 0.000000 1.832790 
# 
# From -- ./inp_files/23547.got.cif
#   From: 2010.03.12/outbox.cif.g09.slc.cpg/sg5_12_cif.got.tgz:23547.got - 2010.03.31 09:47:26.
