data_PCOD8050430
_publ_section_title
;
Structure prediction by ZEFSAII (Michael W. Deem and Ramdas Pophale) SiO2 
 PCOD8050430
Probable space group: C 2
;
_chemical_formula_sum "Si O2"
_cell_formula_units_Z 22
_cell_length_a 5.116652
_cell_length_b 18.221326
_cell_length_c 11.680318
_cell_angle_alpha 90.000000
_cell_angle_beta 110.751623
_cell_angle_gamma 90.000000
_cell_volume 1018.334069
_symmetry_space_group_name_H-M "C 2"
_symmetry_group_IT_number 5
_symmetry_cell_setting 'monoclinic'
loop_
_space_group_symop_operation_xyz
x,y,z
-x,y,-z
1/2+x,1/2+y,z
1/2-x,1/2+y,-z
loop_
_atom_site_type_symbol
_atom_site_label
_atom_site_fract_x
_atom_site_fract_y
_atom_site_fract_z
Si Si1 0.995829 0.252040 0.133239
Si Si2 0.700761 0.393738 0.803090
Si Si3 0.471950 0.028580 0.128473
Si Si4 0.000000 0.846509 0.000000
Si Si5 0.193259 0.981092 0.420212
Si Si6 0.946698 0.094969 0.767587
O O1 0.237545 0.308387 0.210469
O O2 0.047742 0.182604 0.222482
O O3 0.702147 0.293111 0.105370
O O4 0.000000 0.229492 0.000000
O O5 0.981046 0.443228 0.828174
O O6 0.441404 0.421971 0.688209
O O7 0.644629 0.400860 0.931465
O O8 0.183799 0.059682 0.136135
O O9 0.742053 0.071015 0.218392
O O10 0.500000 0.045434 0.000000
O O11 0.500000 0.951297 0.500000
O O12 0.000000 0.988276 0.500000
O O13 0.233960 0.060963 0.365350
#
# Coordination Sequence:
#
# PCOD8050430 Si02
#       6
#     4   4   4   2   4   4
#     4  10  22  40  63 103 140 176 209 271 352 422
#     4  10  24  39  69  95 138 174 225 275 349 399
#     4  11  22  36  61  99 131 172 216 269 334 408
#     4  10  22  38  70 104 144 172 212 282 348 432
#     4  11  25  47  71  93 129 181 239 286 323 379
#     4  11  25  40  66  92 134 177 223 275 333 396
#
# _framework density 21.603915000000001
#
# number of rings (size 3 to 8) (size 9 to 14) (size 15 to 20)
#    0.000    1.455    0.000    5.455   19.091    0.000 
#    0.000    0.909    0.000    0.000    0.000    0.000 
#    0.000    0.000    0.000    0.000    0.000    0.000 
#
# Total GULP energy -136303.748995 kJ/mol
# GULP energy per Si atom -12391.249909 kJ/mol
# Density = 2.155474 g / cm^3
# Si number density = 21.603915 Si / 1000 Ang^3
#
#
#
# Elastic Constant Matrix: (Units=GPa)
#
#
# Indices 1 2 3 4 5 6 
#
# 1 84.7228 33.2065 30.5790 0.0000 -3.9586 0.0000
# 2 33.2065 149.5440 55.4761 0.0000 -2.2087 0.0000
# 3 30.5790 55.4761 98.0262 0.0000 9.1613 0.0000
# 4 0.0000 0.0000 0.0000 21.6825 0.0000 4.1434
# 5 -3.9586 -2.2087 9.1613 0.0000 35.7441 0.0000
# 6 0.0000 0.0000 0.0000 4.1434 0.0000 13.2593
#
#
#
# Elastic Compliance Matrix: (Units=1/GPa)
#
#
# Indices 1 2 3 4 5 6 
#
# 1 0.013877 -0.001721 -0.003574 0.000000 0.002347 0.000000
# 2 -0.001721 0.008791 -0.004581 0.000000 0.001527 0.000000
# 3 -0.003574 -0.004581 0.014315 0.000000 -0.004348 0.000000
# 4 0.000000 0.000000 0.000000 0.049049 0.000000 -0.015327
# 5 0.002347 0.001527 -0.004348 0.000000 0.029445 0.000000
# 6 0.000000 0.000000 0.000000 -0.015327 0.000000 0.080208
#
#
# Mechanical properties :
#
#
# Convention : Reuss Voigt Hill
#
# Bulk Modulus (GPa) = 58.03441 63.42402 60.72921
# Shear Modulus (GPa) = 22.60575 28.33928 25.47251
#
# Velocity S-wave (km/s) = 3.23828 3.62576 3.43748
# Velocity P-wave (km/s) = 6.39556 6.85198 6.62770
#
# Compressibility (1/GPa) = 0.01723116
#
# Stress axis : x y z
#
# Youngs Moduli (GPa) = 72.05933 113.75174 69.85534
#
# Poissons Ratio (x) = 0.19575 0.24970
# Poissons Ratio (y) = 0.12400 0.32001
# Poissons Ratio (z) = 0.25757 0.52110
#
# Static dielectric constant tensor:
#      x y z
#    x 4.248750 0.000000 0.221970 
#    y 0.000000 3.839040 0.000000 
#    z 0.221970 0.000000 3.946540 
# 
# 
# High freq. dielectric constant tensor:
#      x y z
#    x 1.862980 0.000000 0.004800 
#    y 0.000000 1.839560 0.000000 
#    z 0.004800 0.000000 1.820280 
# 
# From -- ./inp_files/33420.got.cif
#   From: 2010.03.12/outbox.cif.g09.slc.cpg/sg5_17_cif.got.tgz:33420.got - 2010.03.31 09:47:26.
