data_PCOD8050266
_publ_section_title
;
Structure prediction by ZEFSAII (Michael W. Deem and Ramdas Pophale) SiO2 
 PCOD8050266
Probable space group: C 2
;
_chemical_formula_sum "Si O2"
_cell_formula_units_Z 22
_cell_length_a 11.161568
_cell_length_b 9.617461
_cell_length_c 10.701270
_cell_angle_alpha 90.000000
_cell_angle_beta 73.350771
_cell_angle_gamma 90.000000
_cell_volume 1100.579118
_symmetry_space_group_name_H-M "C 2"
_symmetry_group_IT_number 5
_symmetry_cell_setting 'monoclinic'
loop_
_space_group_symop_operation_xyz
x,y,z
-x,y,-z
1/2+x,1/2+y,z
1/2-x,1/2+y,-z
loop_
_atom_site_type_symbol
_atom_site_label
_atom_site_fract_x
_atom_site_fract_y
_atom_site_fract_z
Si Si1 0.312751 0.082040 0.709905
Si Si2 0.867099 0.180130 0.434916
Si Si3 0.868687 0.085812 0.702458
Si Si4 0.324791 0.316295 0.156307
Si Si5 0.104929 0.814946 0.144843
Si Si6 0.000000 0.430936 0.500000
O O1 0.252884 0.174652 0.617203
O O2 0.330732 0.174407 0.826669
O O3 0.222800 0.955106 0.765248
O O4 0.447944 0.027610 0.625724
O O5 0.845853 0.076466 0.559514
O O6 0.990914 0.142877 0.318061
O O7 0.885593 0.336127 0.483153
O O8 0.768568 0.188163 0.795791
O O9 0.858899 0.936278 0.769529
O O10 0.457567 0.284619 0.179990
O O11 0.337140 0.348952 0.006352
#
# Coordination Sequence:
#
# PCOD8050266 Si02
#       6
#     4   4   4   4   4   2
#     4  12  24  40  69  94 122 169 209 254 324 368
#     4  10  22  40  66  92 125 163 200 260 322 367
#     4  10  21  43  65  88 131 162 201 266 312 365
#     4  11  23  46  61  88 135 165 212 263 294 382
#     4  11  26  39  65  95 121 173 216 251 312 364
#     4  10  24  40  60  98 130 154 202 266 312 370
#
# _framework density 19.989474999999999
#
# number of rings (size 3 to 8) (size 9 to 14) (size 15 to 20)
#    0.000    1.455    5.455    1.091    5.091    1.455 
#    0.000    0.000    0.000    0.000    0.000    0.000 
#    0.000    0.000    0.000    0.000    0.000    0.000 
#
# Total GULP energy -136410.685192 kJ/mol
# GULP energy per Si atom -12400.971381 kJ/mol
# Density = 1.994398 g / cm^3
# Si number density = 19.989475 Si / 1000 Ang^3
#
#
#
# Elastic Constant Matrix: (Units=GPa)
#
#
# Indices 1 2 3 4 5 6 
#
# 1 83.7354 36.4626 46.3173 0.0000 9.1197 0.0000
# 2 36.4626 74.3375 25.6656 0.0000 1.4530 0.0000
# 3 46.3173 25.6656 96.1919 0.0000 -4.3989 0.0000
# 4 0.0000 0.0000 0.0000 26.4233 0.0000 2.0839
# 5 9.1197 1.4530 -4.3989 0.0000 35.7895 0.0000
# 6 0.0000 0.0000 0.0000 2.0839 0.0000 23.3929
#
#
#
# Elastic Compliance Matrix: (Units=1/GPa)
#
#
# Indices 1 2 3 4 5 6 
#
# 1 0.020066 -0.006940 -0.008077 0.000000 -0.005824 0.000000
# 2 -0.006940 0.017260 -0.001222 0.000000 0.000918 0.000000
# 3 -0.008077 -0.001222 0.014790 0.000000 0.003926 0.000000
# 4 0.000000 0.000000 0.000000 0.038113 0.000000 -0.003395
# 5 -0.005824 0.000918 0.003926 0.000000 0.029870 0.000000
# 6 0.000000 0.000000 0.000000 -0.003395 0.000000 0.043051
#
#
# Mechanical properties :
#
#
# Convention : Reuss Voigt Hill
#
# Bulk Modulus (GPa) = 50.91673 52.35064 51.63369
# Shear Modulus (GPa) = 24.73112 26.84243 25.78677
#
# Velocity S-wave (km/s) = 3.52121 3.66844 3.59558
# Velocity P-wave (km/s) = 6.48529 6.64750 6.56689
#
# Compressibility (1/GPa) = 0.01963991
#
# Stress axis : x y z
#
# Youngs Moduli (GPa) = 49.83470 57.93697 67.61163
#
# Poissons Ratio (x) = 0.40209 0.54608
# Poissons Ratio (y) = 0.34586 0.08259
# Poissons Ratio (z) = 0.40250 0.07077
#
# Static dielectric constant tensor:
#      x y z
#    x 3.573270 0.000000 -0.093540 
#    y 0.000000 3.529340 0.000000 
#    z -0.093540 0.000000 3.683890 
# 
# 
# High freq. dielectric constant tensor:
#      x y z
#    x 1.777140 0.000000 -0.006810 
#    y 0.000000 1.778190 0.000000 
#    z -0.006810 0.000000 1.786630 
# 
# From -- ./inp_files/38068.got.cif
#   From: 2010.03.12/outbox.cif.g09.slc.cpg/sg5_20_cif.got.tgz:38068.got - 2010.03.31 09:47:26.
