data_PCOD8050999
_publ_section_title
;
Structure prediction by ZEFSAII (Michael W. Deem and Ramdas Pophale) SiO2 
 PCOD8050999
Probable space group: C 2
;
_chemical_formula_sum "Si O2"
_cell_formula_units_Z 20
_cell_length_a 14.477466
_cell_length_b 7.023105
_cell_length_c 11.201961
_cell_angle_alpha 90.000000
_cell_angle_beta 127.856794
_cell_angle_gamma 90.000000
_cell_volume 899.277662
_symmetry_space_group_name_H-M "C 2"
_symmetry_group_IT_number 5
_symmetry_cell_setting 'monoclinic'
loop_
_space_group_symop_operation_xyz
x,y,z
-x,y,-z
1/2+x,1/2+y,z
1/2-x,1/2+y,-z
loop_
_atom_site_type_symbol
_atom_site_label
_atom_site_fract_x
_atom_site_fract_y
_atom_site_fract_z
Si Si1 0.077321 0.151940 0.443083
Si Si2 0.011340 0.661975 0.881560
Si Si3 0.625018 0.809249 0.871340
Si Si4 0.669006 0.487701 0.083985
Si Si5 0.806328 0.878973 0.640257
O O1 0.168690 0.325037 0.532904
O O2 0.000000 0.102698 0.500000
O O3 0.985872 0.201949 0.268114
O O4 0.153895 0.974815 0.453416
O O5 0.095274 0.528922 0.872975
O O6 0.058303 0.876497 0.941206
O O7 0.884777 0.687816 0.718453
O O8 0.000000 0.556373 0.000000
O O9 0.674455 0.693617 0.025033
O O10 0.726555 0.836081 0.855744
O O11 0.331197 0.519341 0.773218
#
# Coordination Sequence:
#
# PCOD8050999 Si02
#       5
#     4   4   4   4   4
#     4  12  26  47  72 101 149 194 237 297 363 433
#     4  10  23  40  68 101 137 176 238 299 349 420
#     4  12  23  43  72 104 138 193 235 296 366 421
#     4  11  23  43  71 103 141 181 242 299 350 425
#     4  11  25  49  67 106 147 187 244 299 357 437
#
# _framework density 22.240071
#
# number of rings (size 3 to 8) (size 9 to 14) (size 15 to 20)
#    0.000    0.800    6.000    1.200    2.800    0.000 
#    7.200    0.000    0.000    0.000    0.000    0.000 
#    0.000    0.000    0.000    0.000    0.000    0.000 
#
# Total GULP energy -123902.424880 kJ/mol
# GULP energy per Si atom -12390.242488 kJ/mol
# Density = 2.218945 g / cm^3
# Si number density = 22.240071 Si / 1000 Ang^3
#
#
#
# Elastic Constant Matrix: (Units=GPa)
#
#
# Indices 1 2 3 4 5 6 
#
# 1 146.4156 38.1372 47.0546 0.0000 -7.3914 0.0000
# 2 38.1372 66.5651 31.4593 0.0000 -12.0337 0.0000
# 3 47.0546 31.4593 91.4466 0.0000 2.3643 0.0000
# 4 0.0000 0.0000 0.0000 18.3377 0.0000 2.4972
# 5 -7.3914 -12.0337 2.3643 0.0000 40.7746 0.0000
# 6 0.0000 0.0000 0.0000 2.4972 0.0000 41.8228
#
#
#
# Elastic Compliance Matrix: (Units=1/GPa)
#
#
# Indices 1 2 3 4 5 6 
#
# 1 0.008832 -0.003286 -0.003435 0.000000 0.000830 0.000000
# 2 -0.003286 0.020569 -0.005535 0.000000 0.005796 0.000000
# 3 -0.003435 -0.005535 0.014688 0.000000 -0.003108 0.000000
# 4 0.000000 0.000000 0.000000 0.054979 0.000000 -0.003283
# 5 0.000830 0.005796 -0.003108 0.000000 0.026566 0.000000
# 6 0.000000 0.000000 0.000000 -0.003283 0.000000 0.024106
#
#
# Mechanical properties :
#
#
# Convention : Reuss Voigt Hill
#
# Bulk Modulus (GPa) = 51.08506 59.74774 55.41640
# Shear Modulus (GPa) = 27.65797 32.70544 30.18171
#
# Velocity S-wave (km/s) = 3.53031 3.83895 3.68786
# Velocity P-wave (km/s) = 6.29580 6.82446 6.56546
#
# Compressibility (1/GPa) = 0.01957519
#
# Stress axis : x y z
#
# Youngs Moduli (GPa) = 113.22662 48.61584 68.08472
#
# Poissons Ratio (x) = 0.15977 0.23390
# Poissons Ratio (y) = 0.37210 0.37686
# Poissons Ratio (z) = 0.38898 0.26909
#
# Static dielectric constant tensor:
#      x y z
#    x 4.306200 0.000000 0.075230 
#    y 0.000000 3.535240 0.000000 
#    z 0.075230 0.000000 3.954100 
# 
# 
# High freq. dielectric constant tensor:
#      x y z
#    x 1.898220 0.000000 0.013180 
#    y 0.000000 1.844810 0.000000 
#    z 0.013180 0.000000 1.876380 
# 
# From -- ./inp_files/41369.got.cif
#   From: 2010.03.12/outbox.cif.g09.slc.cpg/sg5_21_cif.got.tgz:41369.got - 2010.03.31 09:47:26.
