data_PCOD8050343
_publ_section_title
;
Structure prediction by ZEFSAII (Michael W. Deem and Ramdas Pophale) SiO2 
 PCOD8050343
Probable space group: C 2
;
_chemical_formula_sum "Si O2"
_cell_formula_units_Z 16
_cell_length_a 8.528433
_cell_length_b 12.664254
_cell_length_c 7.608647
_cell_angle_alpha 90.000000
_cell_angle_beta 128.058395
_cell_angle_gamma 90.000000
_cell_volume 647.056573
_symmetry_space_group_name_H-M "C 2"
_symmetry_group_IT_number 5
_symmetry_cell_setting 'monoclinic'
loop_
_space_group_symop_operation_xyz
x,y,z
-x,y,-z
1/2+x,1/2+y,z
1/2-x,1/2+y,-z
loop_
_atom_site_type_symbol
_atom_site_label
_atom_site_fract_x
_atom_site_fract_y
_atom_site_fract_z
Si Si1 0.148930 0.807390 0.458664
Si Si2 0.274561 0.442706 0.804974
Si Si3 0.404112 0.120443 0.112797
Si Si4 0.056838 0.243230 0.742624
O O1 0.233774 0.906535 0.405008
O O2 0.342224 0.757095 0.690922
O O3 0.000000 0.853323 0.500000
O O4 0.040359 0.718998 0.264771
O O5 0.118798 0.536553 0.743724
O O6 0.203320 0.343112 0.871158
O O7 0.500000 0.474254 0.000000
O O8 0.500000 0.072574 0.000000
O O9 0.174550 0.146688 0.907838
O O10 0.000000 0.223576 0.500000
#
# Coordination Sequence:
#
# PCOD8050343 Si02
#       4
#     4   4   4   4
#     4  11  25  46  77 108 157 202 248 309 379 450
#     4  11  24  47  74 112 153 195 250 309 377 445
#     4  12  24  48  79 114 151 196 254 315 381 444
#     4  10  21  48  77 103 157 194 244 319 370 447
#
# _framework density 24.727360999999998
#
# number of rings (size 3 to 8) (size 9 to 14) (size 15 to 20)
#    0.000    1.000    7.500    0.000    3.500    5.000 
#    0.000    1.250    0.000    0.000    0.000    0.000 
#    0.000    0.000    0.000    0.000    0.000    0.000 
#
# Total GULP energy -99137.685439 kJ/mol
# GULP energy per Si atom -12392.210680 kJ/mol
# Density = 2.467108 g / cm^3
# Si number density = 24.727361 Si / 1000 Ang^3
#
#
#
# Elastic Constant Matrix: (Units=GPa)
#
#
# Indices 1 2 3 4 5 6 
#
# 1 198.8250 64.4205 47.7360 0.0000 5.3586 0.0000
# 2 64.4205 95.8212 34.9633 0.0000 -13.2837 0.0000
# 3 47.7360 34.9633 65.9963 0.0000 24.9040 0.0000
# 4 0.0000 0.0000 0.0000 21.1220 0.0000 -3.8548
# 5 5.3586 -13.2837 24.9040 0.0000 44.7053 0.0000
# 6 0.0000 0.0000 0.0000 -3.8548 0.0000 39.4267
#
#
#
# Elastic Compliance Matrix: (Units=1/GPa)
#
#
# Indices 1 2 3 4 5 6 
#
# 1 0.006922 -0.003572 -0.003040 0.000000 -0.000198 0.000000
# 2 -0.003572 0.019252 -0.012580 0.000000 0.013157 0.000000
# 3 -0.003040 -0.012580 0.032020 0.000000 -0.021211 0.000000
# 4 0.000000 0.000000 0.000000 0.048204 0.000000 0.004713
# 5 -0.000198 0.013157 -0.021211 0.000000 0.038118 0.000000
# 6 0.000000 0.000000 0.000000 0.004713 0.000000 0.025824
#
#
# Mechanical properties :
#
#
# Convention : Reuss Voigt Hill
#
# Bulk Modulus (GPa) = 50.48044 72.76467 61.62256
# Shear Modulus (GPa) = 23.22048 35.28564 29.25306
#
# Velocity S-wave (km/s) = 3.06773 3.78165 3.44324
# Velocity P-wave (km/s) = 5.74518 6.96839 6.38614
#
# Compressibility (1/GPa) = 0.01980965
#
# Stress axis : x y z
#
# Youngs Moduli (GPa) = 144.46598 51.94375 31.23047
#
# Poissons Ratio (x) = 0.18553 0.09494
# Poissons Ratio (y) = 0.51601 0.39288
# Poissons Ratio (z) = 0.43918 0.65346
#
# Static dielectric constant tensor:
#      x y z
#    x 4.926230 0.000000 0.412090 
#    y 0.000000 4.114490 0.000000 
#    z 0.412090 0.000000 4.360700 
# 
# 
# High freq. dielectric constant tensor:
#      x y z
#    x 2.005570 0.000000 0.026650 
#    y 0.000000 1.951880 0.000000 
#    z 0.026650 0.000000 1.978650 
# 
# From -- ./inp_files/14136.got.cif
#   From: 2010.03.12/outbox.cif.g09.slc.cpg/sg5_8_cif.got.tgz:14136.got - 2010.03.31 09:47:26.
