data_PCOD8050680
_publ_section_title
;
Structure prediction by ZEFSAII (Michael W. Deem and Ramdas Pophale) SiO2 
 PCOD8050680
Probable space group: C 2
;
_chemical_formula_sum "Si O2"
_cell_formula_units_Z 24
_cell_length_a 14.352659
_cell_length_b 8.929486
_cell_length_c 9.601771
_cell_angle_alpha 90.000000
_cell_angle_beta 107.683667
_cell_angle_gamma 90.000000
_cell_volume 1172.433632
_symmetry_space_group_name_H-M "C 2"
_symmetry_group_IT_number 5
_symmetry_cell_setting 'monoclinic'
loop_
_space_group_symop_operation_xyz
x,y,z
-x,y,-z
1/2+x,1/2+y,z
1/2-x,1/2+y,-z
loop_
_atom_site_type_symbol
_atom_site_label
_atom_site_fract_x
_atom_site_fract_y
_atom_site_fract_z
Si Si1 0.184496 0.625000 0.821228
Si Si2 0.673136 0.656299 0.361094
Si Si3 0.020673 0.703698 0.351593
Si Si4 0.779482 0.964836 0.109468
Si Si5 0.295313 0.000866 0.625313
Si Si6 0.495815 0.495373 0.163568
O O1 0.245053 0.601001 0.709232
O O2 0.204743 0.788415 0.891329
O O3 0.070041 0.601739 0.738846
O O4 0.215244 0.502584 0.946916
O O5 0.682555 0.830013 0.405229
O O6 0.694262 0.555413 0.507244
O O7 0.566205 0.628730 0.247356
O O8 0.117744 0.605868 0.387701
O O9 0.032148 0.845470 0.256229
O O10 0.000000 0.759324 0.500000
O O11 0.719193 0.016521 0.216473
O O12 0.885968 0.042890 0.155689
O O13 0.500000 0.471987 0.000000
#
# Coordination Sequence:
#
# PCOD8050680 Si02
#       6
#     4   4   4   4   4   4
#     4  10  22  42  64  90 128 166 209 266 318 375
#     4  11  23  43  66  92 130 167 215 262 318 380
#     4  11  24  44  66  94 130 170 214 264 320 381
#     4  10  24  40  63  94 125 166 212 259 322 373
#     4  11  25  43  65  95 126 173 212 267 316 376
#     4  11  24  42  68  95 127 172 210 264 324 379
#
# _framework density 20.470241000000001
#
# number of rings (size 3 to 8) (size 9 to 14) (size 15 to 20)
#    0.000    1.333    3.333    1.000    9.333    2.667 
#    3.000    0.000    0.000    0.000    0.000    0.000 
#    0.000    0.000    0.000    0.000    0.000    0.000 
#
# Total GULP energy -148845.391991 kJ/mol
# GULP energy per Si atom -12403.782666 kJ/mol
# Density = 2.042365 g / cm^3
# Si number density = 20.470241 Si / 1000 Ang^3
#
#
#
# Elastic Constant Matrix: (Units=GPa)
#
#
# Indices 1 2 3 4 5 6 
#
# 1 77.2380 15.5997 12.8951 0.0000 10.1323 0.0000
# 2 15.5997 60.7880 48.6634 0.0000 -1.1421 0.0000
# 3 12.8951 48.6634 95.6928 0.0000 15.0899 0.0000
# 4 0.0000 0.0000 0.0000 34.0802 0.0000 5.9346
# 5 10.1323 -1.1421 15.0899 0.0000 35.9898 0.0000
# 6 0.0000 0.0000 0.0000 5.9346 0.0000 28.0339
#
#
#
# Elastic Compliance Matrix: (Units=1/GPa)
#
#
# Indices 1 2 3 4 5 6 
#
# 1 0.014316 -0.004740 0.001221 0.000000 -0.004693 0.000000
# 2 -0.004740 0.031218 -0.016708 0.000000 0.009330 0.000000
# 3 0.001221 -0.016708 0.020260 0.000000 -0.009368 0.000000
# 4 0.000000 0.000000 0.000000 0.030466 0.000000 -0.006449
# 5 -0.004693 0.009330 -0.009368 0.000000 0.033331 0.000000
# 6 0.000000 0.000000 0.000000 -0.006449 0.000000 0.037036
#
#
# Mechanical properties :
#
#
# Convention : Reuss Voigt Hill
#
# Bulk Modulus (GPa) = 39.46284 43.11500 41.28892
# Shear Modulus (GPa) = 23.19908 30.05816 26.62862
#
# Velocity S-wave (km/s) = 3.37012 3.83611 3.61064
# Velocity P-wave (km/s) = 5.87057 6.38192 6.13158
#
# Compressibility (1/GPa) = 0.02534030
#
# Stress axis : x y z
#
# Youngs Moduli (GPa) = 69.85193 32.03314 49.35947
#
# Poissons Ratio (x) = 0.15182 -0.06027
# Poissons Ratio (y) = 0.33107 0.82470
# Poissons Ratio (z) = -0.08530 0.53521
#
# Static dielectric constant tensor:
#      x y z
#    x 3.874100 0.000000 0.066410 
#    y 0.000000 3.546290 0.000000 
#    z 0.066410 0.000000 3.826670 
# 
# 
# High freq. dielectric constant tensor:
#      x y z
#    x 1.808830 0.000000 0.006270 
#    y 0.000000 1.785330 0.000000 
#    z 0.006270 0.000000 1.817660 
# 
# From -- ./inp_files/22792.got.cif
#   From: 2010.03.12/outbox.cif.g09.slc.cpg/sg5_12_cif.got.tgz:22792.got - 2010.03.31 09:47:26.
