data_PCOD8050367
_publ_section_title
;
Structure prediction by ZEFSAII (Michael W. Deem and Ramdas Pophale) SiO2 
 PCOD8050367
Probable space group: C 2
;
_chemical_formula_sum "Si O2"
_cell_formula_units_Z 26
_cell_length_a 18.468225
_cell_length_b 6.688769
_cell_length_c 11.305343
_cell_angle_alpha 90.000000
_cell_angle_beta 60.855202
_cell_angle_gamma 90.000000
_cell_volume 1219.731276
_symmetry_space_group_name_H-M "C 2"
_symmetry_group_IT_number 5
_symmetry_cell_setting 'monoclinic'
loop_
_space_group_symop_operation_xyz
x,y,z
-x,y,-z
1/2+x,1/2+y,z
1/2-x,1/2+y,-z
loop_
_atom_site_type_symbol
_atom_site_label
_atom_site_fract_x
_atom_site_fract_y
_atom_site_fract_z
Si Si1 0.153788 0.904590 0.663495
Si Si2 0.429266 0.869601 0.893061
Si Si3 0.493307 0.210467 0.706933
Si Si4 0.393537 0.596803 0.714832
Si Si5 0.000000 0.409009 0.500000
Si Si6 0.765059 0.057267 0.630691
Si Si7 0.115264 0.295382 0.808797
O O1 0.070922 0.771396 0.725916
O O2 0.235010 0.783167 0.636340
O O3 0.168264 0.002358 0.523247
O O4 0.140735 0.064652 0.777843
O O5 0.382602 0.703267 0.850629
O O6 0.526649 0.817427 0.817162
O O7 0.424523 0.094369 0.842341
O O8 0.387212 0.865796 0.053759
O O9 0.452375 0.403716 0.678760
O O10 0.528651 0.053650 0.582929
O O11 0.426080 0.763875 0.597546
O O12 0.306394 0.528667 0.727379
O O13 0.684438 0.919115 0.684654
#
# Coordination Sequence:
#
# PCOD8050367 Si02
#       7
#     4   4   4   4   2   4   4
#     4  12  24  41  71  98 136 176 218 274 339 397
#     4  10  24  46  70  94 131 180 232 273 322 408
#     4  11  22  42  70  98 130 179 225 267 337 398
#     4  11  24  42  66 102 133 173 223 280 331 391
#     4  10  22  36  68  98 138 166 220 276 326 398
#     4  12  26  41  67 102 135 173 218 280 342 388
#     4  11  24  47  67  97 134 177 230 274 324 404
#
# _framework density 21.31617
#
# number of rings (size 3 to 8) (size 9 to 14) (size 15 to 20)
#    0.000    0.923    4.615    2.308    4.308    3.692 
#    5.538    0.000    0.000    0.000    0.000    0.000 
#    0.000    0.000    0.000    0.000    0.000    0.000 
#
# Total GULP energy -161215.683102 kJ/mol
# GULP energy per Si atom -12401.206392 kJ/mol
# Density = 2.126765 g / cm^3
# Si number density = 21.316170 Si / 1000 Ang^3
#
#
#
# Elastic Constant Matrix: (Units=GPa)
#
#
# Indices 1 2 3 4 5 6 
#
# 1 84.4025 20.4545 9.4585 0.0000 10.5196 0.0000
# 2 20.4545 125.4777 36.9420 0.0000 5.7958 0.0000
# 3 9.4585 36.9420 88.3196 0.0000 11.7460 0.0000
# 4 0.0000 0.0000 0.0000 26.5985 0.0000 2.0775
# 5 10.5196 5.7958 11.7460 0.0000 29.1000 0.0000
# 6 0.0000 0.0000 0.0000 2.0775 0.0000 31.4960
#
#
#
# Elastic Compliance Matrix: (Units=1/GPa)
#
#
# Indices 1 2 3 4 5 6 
#
# 1 0.012839 -0.001891 -0.000018 0.000000 -0.004257 0.000000
# 2 -0.001891 0.009370 -0.003761 0.000000 0.000336 0.000000
# 3 -0.000018 -0.003761 0.013523 0.000000 -0.004703 0.000000
# 4 0.000000 0.000000 0.000000 0.037791 0.000000 -0.002493
# 5 -0.004257 0.000336 -0.004703 0.000000 0.037735 0.000000
# 6 0.000000 0.000000 0.000000 -0.002493 0.000000 0.031914
#
#
# Mechanical properties :
#
#
# Convention : Reuss Voigt Hill
#
# Bulk Modulus (GPa) = 40.99771 47.98998 44.49384
# Shear Modulus (GPa) = 30.74232 32.86190 31.80211
#
# Velocity S-wave (km/s) = 3.80176 3.93063 3.86673
# Velocity P-wave (km/s) = 6.20855 6.56979 6.39172
#
# Compressibility (1/GPa) = 0.02439161
#
# Stress axis : x y z
#
# Youngs Moduli (GPa) = 77.88834 106.72762 73.94746
#
# Poissons Ratio (x) = 0.20182 0.00131
# Poissons Ratio (y) = 0.14729 0.27813
# Poissons Ratio (z) = 0.00138 0.40143
#
# Static dielectric constant tensor:
#      x y z
#    x 3.659210 0.000000 0.110830 
#    y 0.000000 4.123230 0.000000 
#    z 0.110830 0.000000 3.639050 
# 
# 
# High freq. dielectric constant tensor:
#      x y z
#    x 1.826370 0.000000 0.012130 
#    y 0.000000 1.854180 0.000000 
#    z 0.012130 0.000000 1.822510 
# 
# From -- ./inp_files/45415.got.cif
#   From: 2010.03.12/outbox.cif.g09.slc.cpg/sg5_23_cif.got.tgz:45415.got - 2010.03.31 09:47:26.
