data_PCOD8050031
_publ_section_title
;
Structure prediction by ZEFSAII (Michael W. Deem and Ramdas Pophale) SiO2 
 PCOD8050031
Probable space group: C 2
;
_chemical_formula_sum "Si O2"
_cell_formula_units_Z 32
_cell_length_a 29.808104
_cell_length_b 5.479080
_cell_length_c 9.115017
_cell_angle_alpha 90.000000
_cell_angle_beta 90.018253
_cell_angle_gamma 90.000000
_cell_volume 1488.673493
_symmetry_space_group_name_H-M "C 2"
_symmetry_group_IT_number 5
_symmetry_cell_setting 'monoclinic'
loop_
_space_group_symop_operation_xyz
x,y,z
-x,y,-z
1/2+x,1/2+y,z
1/2-x,1/2+y,-z
loop_
_atom_site_type_symbol
_atom_site_label
_atom_site_fract_x
_atom_site_fract_y
_atom_site_fract_z
Si Si1 0.959602 0.470220 0.748998
Si Si2 0.612214 0.362397 0.250811
Si Si3 0.540565 0.330010 0.748961
Si Si4 0.428542 0.650273 0.000014
Si Si5 0.699321 0.901553 0.589519
Si Si6 0.060758 0.150253 0.499996
Si Si7 0.199294 0.897702 0.410528
Si Si8 0.387704 0.938005 0.250620
O O1 0.910574 0.595737 0.739502
O O2 0.969953 0.336795 0.594083
O O3 0.000141 0.649759 0.780223
O O4 0.960572 0.286922 0.885343
O O5 0.591876 0.521374 0.381399
O O6 0.665710 0.367463 0.272955
O O7 0.603079 0.465578 0.089176
O O8 0.539450 0.513836 0.885054
O O9 0.530202 0.462724 0.593825
O O10 0.589670 0.205158 0.740017
O O11 0.396835 0.834688 0.089024
O O12 0.750022 0.899654 0.650738
O O13 0.690035 0.649592 0.500073
O O14 0.665777 0.931839 0.727122
O O15 0.691049 0.149601 0.500002
O O16 0.091715 0.280055 0.618712
#
# Coordination Sequence:
#
# PCOD8050031 Si02
#       8
#     4   4   4   4   4   4   4   4
#     4  11  25  43  64  92 129 175 225 273 336 401
#     4  11  22  40  66  94 130 173 216 274 338 397
#     4  11  25  43  64  92 129 175 225 273 336 401
#     4  10  26  43  64  88 132 178 228 270 323 412
#     4  10  21  39  69 105 136 171 224 286 352 412
#     4  10  22  39  64  94 126 158 212 280 329 392
#     4  10  21  39  69 105 136 171 224 286 352 412
#     4  11  22  40  66  94 130 173 216 274 338 397
#
# _framework density 21.495647000000002
#
# number of rings (size 3 to 8) (size 9 to 14) (size 15 to 20)
#    0.000    1.500    1.250    3.000    3.500   10.000 
#    0.000    3.750    5.500    0.000    0.000    0.000 
#    0.000    0.000    0.000    0.000    0.000    0.000 
#
# Total GULP energy -198359.827204 kJ/mol
# GULP energy per Si atom -12397.489200 kJ/mol
# Density = 2.144672 g / cm^3
# Si number density = 21.495647 Si / 1000 Ang^3
#
#
#
# Elastic Constant Matrix: (Units=GPa)
#
#
# Indices 1 2 3 4 5 6 
#
# 1 131.9171 38.4857 44.7580 0.0000 -0.1737 0.0000
# 2 38.4857 128.3328 45.2678 0.0000 -0.5117 0.0000
# 3 44.7580 45.2678 135.9562 0.0000 -0.5003 0.0000
# 4 0.0000 0.0000 0.0000 17.1408 0.0000 -0.0572
# 5 -0.1737 -0.5117 -0.5003 0.0000 7.1065 0.0000
# 6 0.0000 0.0000 0.0000 -0.0572 0.0000 28.0709
#
#
#
# Elastic Compliance Matrix: (Units=1/GPa)
#
#
# Indices 1 2 3 4 5 6 
#
# 1 0.008907 -0.001855 -0.002315 0.000000 -0.000079 0.000000
# 2 -0.001855 0.009217 -0.002457 0.000000 0.000445 0.000000
# 3 -0.002315 -0.002457 0.008937 0.000000 0.000396 0.000000
# 4 0.000000 0.000000 0.000000 0.058341 0.000000 0.000119
# 5 -0.000079 0.000445 0.000396 0.000000 0.140774 0.000000
# 6 0.000000 0.000000 0.000000 0.000119 0.000000 0.035624
#
#
# Mechanical properties :
#
#
# Convention : Reuss Voigt Hill
#
# Bulk Modulus (GPa) = 72.42247 72.58100 72.50174
# Shear Modulus (GPa) = 17.87920 28.30996 23.09458
#
# Velocity S-wave (km/s) = 2.88715 3.63300 3.28134
# Velocity P-wave (km/s) = 6.69918 7.17196 6.93960
#
# Compressibility (1/GPa) = 0.01380787
#
# Stress axis : x y z
#
# Youngs Moduli (GPa) = 112.27133 108.49775 111.89700
#
# Poissons Ratio (x) = 0.20125 0.25904
# Poissons Ratio (y) = 0.20825 0.27488
# Poissons Ratio (z) = 0.25990 0.26653
#
# Static dielectric constant tensor:
#      x y z
#    x 3.883340 0.000000 -0.002780 
#    y 0.000000 4.437410 0.000000 
#    z -0.002780 0.000000 3.988880 
# 
# 
# High freq. dielectric constant tensor:
#      x y z
#    x 1.835350 0.000000 -0.000080 
#    y 0.000000 1.867040 0.000000 
#    z -0.000080 0.000000 1.836290 
# 
# From -- ./inp_files/32280.got.cif
#   From: 2010.03.12/outbox.cif.g09.slc.cpg/sg5_17_cif.got.tgz:32280.got - 2010.03.31 09:47:26.
