data_PCOD8050225
_publ_section_title
;
Structure prediction by ZEFSAII (Michael W. Deem and Ramdas Pophale) SiO2 
 PCOD8050225
Probable space group: C 2
;
_chemical_formula_sum "Si O2"
_cell_formula_units_Z 28
_cell_length_a 8.530753
_cell_length_b 15.312573
_cell_length_c 11.787351
_cell_angle_alpha 90.000000
_cell_angle_beta 61.294641
_cell_angle_gamma 90.000000
_cell_volume 1350.521438
_symmetry_space_group_name_H-M "C 2"
_symmetry_group_IT_number 5
_symmetry_cell_setting 'monoclinic'
loop_
_space_group_symop_operation_xyz
x,y,z
-x,y,-z
1/2+x,1/2+y,z
1/2-x,1/2+y,-z
loop_
_atom_site_type_symbol
_atom_site_label
_atom_site_fract_x
_atom_site_fract_y
_atom_site_fract_z
Si Si1 0.789687 0.285380 0.087892
Si Si2 0.202545 0.638246 0.947101
Si Si3 0.134288 0.949814 0.612585
Si Si4 0.078254 0.960060 0.097496
Si Si5 0.536305 0.279960 0.363942
Si Si6 0.000000 0.089472 0.500000
Si Si7 0.000000 0.365944 0.500000
Si Si8 0.721878 0.727803 0.309072
O O1 0.699184 0.373570 0.070937
O O2 0.735283 0.270173 0.240815
O O3 0.724942 0.196123 0.051430
O O4 0.000000 0.296346 0.000000
O O5 0.315247 0.549188 0.912950
O O6 0.257082 0.705656 0.829338
O O7 0.000000 0.607609 0.000000
O O8 0.339391 0.926349 0.512785
O O9 0.094596 0.955453 0.760772
O O10 0.000299 0.881549 0.600397
O O11 0.091689 0.040758 0.571402
O O12 0.000000 0.962289 0.000000
O O13 0.500000 0.232433 0.500000
O O14 0.404488 0.253944 0.307361
O O15 0.163450 0.142415 0.394332
O O16 0.073752 0.304646 0.372317
#
# Coordination Sequence:
#
# PCOD8050225 Si02
#       8
#     4   4   4   4   4   2   2   4
#     4  11  25  42  69 102 132 181 226 280 342 404
#     4  12  23  45  69  95 136 178 229 280 337 399
#     4  10  21  42  65  92 128 167 215 271 328 389
#     4  11  25  46  67  96 135 178 230 282 335 407
#     4  10  21  42  66  94 131 173 221 268 328 405
#     4  11  20  42  64  95 128 164 214 273 330 398
#     4   9  22  40  64  97 124 172 214 261 334 400
#     4  10  22  41  67  94 128 176 214 270 339 400
#
# _framework density 20.732733
#
# number of rings (size 3 to 8) (size 9 to 14) (size 15 to 20)
#    0.000    1.429    3.571    1.286    4.000    3.429 
#    6.429    0.000    0.000    0.000    0.000    0.000 
#    0.000    0.000    0.000    0.000    0.000    0.000 
#
# Total GULP energy -173490.577041 kJ/mol
# GULP energy per Si atom -12392.184074 kJ/mol
# Density = 2.068554 g / cm^3
# Si number density = 20.732733 Si / 1000 Ang^3
#
#
#
# Elastic Constant Matrix: (Units=GPa)
#
#
# Indices 1 2 3 4 5 6 
#
# 1 90.9238 31.5024 61.3485 0.0000 -15.1823 0.0000
# 2 31.5024 97.4980 21.1666 0.0000 -5.7710 0.0000
# 3 61.3485 21.1666 141.0693 0.0000 -8.1680 0.0000
# 4 0.0000 0.0000 0.0000 26.1805 0.0000 -1.3326
# 5 -15.1823 -5.7710 -8.1680 0.0000 40.3918 0.0000
# 6 0.0000 0.0000 0.0000 -1.3326 0.0000 21.1638
#
#
#
# Elastic Compliance Matrix: (Units=1/GPa)
#
#
# Indices 1 2 3 4 5 6 
#
# 1 0.017804 -0.003981 -0.006871 0.000000 0.004734 0.000000
# 2 -0.003981 0.011550 0.000007 0.000000 0.000155 0.000000
# 3 -0.006871 0.000007 0.010044 0.000000 -0.000551 0.000000
# 4 0.000000 0.000000 0.000000 0.038319 0.000000 0.002413
# 5 0.004734 0.000155 -0.000551 0.000000 0.026448 0.000000
# 6 0.000000 0.000000 0.000000 0.002413 0.000000 0.047402
#
#
# Mechanical properties :
#
#
# Convention : Reuss Voigt Hill
#
# Bulk Modulus (GPa) = 56.46953 61.94734 59.20843
# Shear Modulus (GPa) = 27.90792 31.91213 29.91002
#
# Velocity S-wave (km/s) = 3.67288 3.92754 3.80234
# Velocity P-wave (km/s) = 6.72924 7.10713 6.92077
#
# Compressibility (1/GPa) = 0.01770867
#
# Stress axis : x y z
#
# Youngs Moduli (GPa) = 56.16688 86.57645 99.56219
#
# Poissons Ratio (x) = 0.34463 0.68412
# Poissons Ratio (y) = 0.22358 -0.00070
# Poissons Ratio (z) = 0.38594 -0.00061
#
# Static dielectric constant tensor:
#      x y z
#    x 3.671650 0.000000 -0.168000 
#    y 0.000000 3.889980 0.000000 
#    z -0.168000 0.000000 4.083940 
# 
# 
# High freq. dielectric constant tensor:
#      x y z
#    x 1.797390 0.000000 -0.007790 
#    y 0.000000 1.816010 0.000000 
#    z -0.007790 0.000000 1.830190 
# 
# From -- ./inp_files/36053.got.cif
#   From: 2010.03.12/outbox.cif.g09.slc.cpg/sg5_19_cif.got.tgz:36053.got - 2010.03.31 09:47:26.
