data_PCOD8050891
_publ_section_title
;
Structure prediction by ZEFSAII (Michael W. Deem and Ramdas Pophale) SiO2 
 PCOD8050891
Probable space group: C 2
;
_chemical_formula_sum "Si O2"
_cell_formula_units_Z 30
_cell_length_a 21.530192
_cell_length_b 8.825766
_cell_length_c 10.315197
_cell_angle_alpha 90.000000
_cell_angle_beta 133.349765
_cell_angle_gamma 90.000000
_cell_volume 1425.337977
_symmetry_space_group_name_H-M "C 2"
_symmetry_group_IT_number 5
_symmetry_cell_setting 'monoclinic'
loop_
_space_group_symop_operation_xyz
x,y,z
-x,y,-z
1/2+x,1/2+y,z
1/2-x,1/2+y,-z
loop_
_atom_site_type_symbol
_atom_site_label
_atom_site_fract_x
_atom_site_fract_y
_atom_site_fract_z
Si Si1 0.512405 0.071630 0.665783
Si Si2 0.902950 0.831771 0.578909
Si Si3 0.301554 0.992121 0.085242
Si Si4 0.410089 0.589066 0.799358
Si Si5 0.500000 0.512216 0.500000
Si Si6 0.158911 0.171899 0.766538
Si Si7 0.766689 0.595738 0.325201
Si Si8 0.619088 0.833102 0.452622
O O1 0.500000 0.125934 0.500000
O O2 0.469931 0.195016 0.700409
O O3 0.611138 0.062133 0.844752
O O4 0.467014 0.909068 0.615163
O O5 0.936920 0.919772 0.501814
O O6 0.809452 0.758388 0.419869
O O7 0.899285 0.939221 0.697592
O O8 0.283561 0.057796 0.200670
O O9 0.310070 0.810846 0.100290
O O10 0.226438 0.035639 0.879335
O O11 0.334252 0.596014 0.795481
O O12 0.403376 0.743102 0.708629
O O13 0.500000 0.583472 0.000000
O O14 0.564767 0.616144 0.677934
O O15 0.155588 0.215257 0.610434
O O16 0.810755 0.463562 0.475148
#
# Coordination Sequence:
#
# PCOD8050891 Si02
#       8
#     4   4   4   4   2   4   4   4
#     4  11  19  42  69 101 134 163 211 271 349 391
#     4  11  23  40  72  95 126 175 216 269 331 393
#     4  11  24  37  66 105 133 170 211 278 331 398
#     4  12  27  43  64  94 129 178 230 275 310 383
#     4  12  22  40  68  98 128 168 214 274 350 400
#     4  11  24  37  64  97 138 163 215 272 339 391
#     4  10  23  45  64  89 134 176 220 257 325 400
#     4  10  22  45  66  90 128 184 211 269 338 394
#
# _framework density 21.047640999999999
#
# number of rings (size 3 to 8) (size 9 to 14) (size 15 to 20)
#    0.000    1.067    6.000    1.600    5.600    1.067 
#    0.000    2.667    0.000    0.000    0.000    0.000 
#    0.000    0.000    0.000    0.000    0.000    0.000 
#
# Total GULP energy -185993.342258 kJ/mol
# GULP energy per Si atom -12399.556151 kJ/mol
# Density = 2.099974 g / cm^3
# Si number density = 21.047641 Si / 1000 Ang^3
#
#
#
# Elastic Constant Matrix: (Units=GPa)
#
#
# Indices 1 2 3 4 5 6 
#
# 1 101.8445 40.6026 48.9164 0.0000 32.7577 0.0000
# 2 40.6026 109.7123 64.2446 0.0000 12.1023 0.0000
# 3 48.9164 64.2446 127.5735 0.0000 36.8807 0.0000
# 4 0.0000 0.0000 0.0000 38.5386 0.0000 4.2517
# 5 32.7577 12.1023 36.8807 0.0000 41.3673 0.0000
# 6 0.0000 0.0000 0.0000 4.2517 0.0000 33.4122
#
#
#
# Elastic Compliance Matrix: (Units=1/GPa)
#
#
# Indices 1 2 3 4 5 6 
#
# 1 0.015016 -0.003930 -0.000907 0.000000 -0.009932 0.000000
# 2 -0.003930 0.014187 -0.007191 0.000000 0.005373 0.000000
# 3 -0.000907 -0.007191 0.014809 0.000000 -0.010380 0.000000
# 4 0.000000 0.000000 0.000000 0.026317 0.000000 -0.003349
# 5 -0.009932 0.005373 -0.010380 0.000000 0.039722 0.000000
# 6 0.000000 0.000000 0.000000 -0.003349 0.000000 0.030355
#
#
# Mechanical properties :
#
#
# Convention : Reuss Voigt Hill
#
# Bulk Modulus (GPa) = 50.11109 71.85081 60.98095
# Shear Modulus (GPa) = 29.22012 35.02140 32.12076
#
# Velocity S-wave (km/s) = 3.73001 4.08353 3.91077
# Velocity P-wave (km/s) = 6.51235 7.51299 7.03050
#
# Compressibility (1/GPa) = 0.01995566
#
# Stress axis : x y z
#
# Youngs Moduli (GPa) = 66.59465 70.48512 67.52878
#
# Poissons Ratio (x) = 0.27704 0.06125
# Poissons Ratio (y) = 0.26175 0.48558
# Poissons Ratio (z) = 0.06040 0.50684
#
# Static dielectric constant tensor:
#      x y z
#    x 3.716000 0.000000 0.349010 
#    y 0.000000 4.182710 0.000000 
#    z 0.349010 0.000000 3.734340 
# 
# 
# High freq. dielectric constant tensor:
#      x y z
#    x 1.810680 0.000000 0.026850 
#    y 0.000000 1.845680 0.000000 
#    z 0.026850 0.000000 1.810860 
# 
# From -- ./inp_files/47317.got.cif
#   From: 2010.03.12/outbox.cif.g09.slc.cpg/sg5_24_cif.got.tgz:47317.got - 2010.03.31 09:47:26.
