data_PCOD8050083
_publ_section_title
;
Structure prediction by ZEFSAII (Michael W. Deem and Ramdas Pophale) SiO2 
 PCOD8050083
Probable space group: C 2
;
_chemical_formula_sum "Si O2"
_cell_formula_units_Z 22
_cell_length_a 9.451254
_cell_length_b 21.540525
_cell_length_c 5.177061
_cell_angle_alpha 90.000000
_cell_angle_beta 98.329395
_cell_angle_gamma 90.000000
_cell_volume 1042.854106
_symmetry_space_group_name_H-M "C 2"
_symmetry_group_IT_number 5
_symmetry_cell_setting 'monoclinic'
loop_
_space_group_symop_operation_xyz
x,y,z
-x,y,-z
1/2+x,1/2+y,z
1/2-x,1/2+y,-z
loop_
_atom_site_type_symbol
_atom_site_label
_atom_site_fract_x
_atom_site_fract_y
_atom_site_fract_z
Si Si1 0.851149 0.502880 0.580659
Si Si2 0.244549 0.837088 0.982170
Si Si3 0.165962 0.122573 0.534818
Si Si4 0.500000 0.913539 0.000000
Si Si5 0.348676 0.399954 0.563469
Si Si6 0.165572 0.200730 0.029432
O O1 0.762283 0.563438 0.627288
O O2 0.749232 0.459126 0.377323
O O3 0.000000 0.524890 0.500000
O O4 0.890717 0.459042 0.828318
O O5 0.218335 0.860771 0.686803
O O6 0.243381 0.763344 0.946257
O O7 0.395626 0.866289 0.129440
O O8 0.130908 0.857078 0.174841
O O9 0.207455 0.153950 0.272738
O O10 0.000000 0.102605 0.500000
O O11 0.202664 0.170387 0.767745
O O12 0.500000 0.425273 0.500000
O O13 0.000000 0.218513 0.000000
#
# Coordination Sequence:
#
# PCOD8050083 Si02
#       6
#     4   4   4   2   4   4
#     4  11  23  41  63  93 129 163 221 257 329 374
#     4  11  21  40  67  94 127 157 223 263 320 373
#     4  10  23  40  63  92 125 172 209 260 316 374
#     4  10  22  38  66 102 118 168 204 290 308 374
#     4  11  24  40  63  95 128 167 201 270 331 378
#     4  10  21  40  64  92 124 168 218 259 307 382
#
# _framework density 21.095950999999999
#
# number of rings (size 3 to 8) (size 9 to 14) (size 15 to 20)
#    0.000    1.455    2.727    2.182    2.545    0.000 
#    0.000    9.091    0.000    0.000    0.000    0.000 
#    0.000    0.000    0.000    0.000    0.000    0.000 
#
# Total GULP energy -136300.358983 kJ/mol
# GULP energy per Si atom -12390.941726 kJ/mol
# Density = 2.104794 g / cm^3
# Si number density = 21.095951 Si / 1000 Ang^3
#
#
#
# Elastic Constant Matrix: (Units=GPa)
#
#
# Indices 1 2 3 4 5 6 
#
# 1 83.4010 44.4687 9.6896 0.0000 -0.3212 0.0000
# 2 44.4687 99.0816 9.8331 0.0000 12.0785 0.0000
# 3 9.6896 9.8331 79.6341 0.0000 -4.9529 0.0000
# 4 0.0000 0.0000 0.0000 24.5488 0.0000 4.4965
# 5 -0.3212 12.0785 -4.9529 0.0000 26.4497 0.0000
# 6 0.0000 0.0000 0.0000 4.4965 0.0000 24.8644
#
#
#
# Elastic Compliance Matrix: (Units=1/GPa)
#
#
# Indices 1 2 3 4 5 6 
#
# 1 0.016147 -0.007595 -0.000808 0.000000 0.003513 0.000000
# 2 -0.007595 0.014477 -0.001295 0.000000 -0.006946 0.000000
# 3 -0.000808 -0.001295 0.013003 0.000000 0.003017 0.000000
# 4 0.000000 0.000000 0.000000 0.042131 0.000000 -0.007619
# 5 0.003513 -0.006946 0.003017 0.000000 0.041587 0.000000
# 6 0.000000 0.000000 0.000000 -0.007619 0.000000 0.041596
#
#
# Mechanical properties :
#
#
# Convention : Reuss Voigt Hill
#
# Bulk Modulus (GPa) = 41.27189 43.34440 42.30815
# Shear Modulus (GPa) = 25.45624 28.38095 26.91859
#
# Velocity S-wave (km/s) = 3.47751 3.67185 3.57600
# Velocity P-wave (km/s) = 5.97750 6.21028 6.09500
#
# Compressibility (1/GPa) = 0.02422956
#
# Stress axis : x y z
#
# Youngs Moduli (GPa) = 61.92952 69.07634 76.90308
#
# Poissons Ratio (x) = 0.52464 0.06217
# Poissons Ratio (y) = 0.47036 0.09962
# Poissons Ratio (z) = 0.05007 0.08948
#
# Static dielectric constant tensor:
#      x y z
#    x 4.025980 0.000000 0.089680 
#    y 0.000000 3.732960 0.000000 
#    z 0.089680 0.000000 3.949200 
# 
# 
# High freq. dielectric constant tensor:
#      x y z
#    x 1.824900 0.000000 -0.003670 
#    y 0.000000 1.828680 0.000000 
#    z -0.003670 0.000000 1.821700 
# 
# From -- ./inp_files/2958.got.cif
#   From: 2010.03.12/outbox.cif.g09.slc.cpg/sg5_2_cif.got.tgz:2958.got - 2010.03.31 09:47:26.
