data_PCOD8050846
_publ_section_title
;
Structure prediction by ZEFSAII (Michael W. Deem and Ramdas Pophale) SiO2 
 PCOD8050846
Probable space group: C 2
;
_chemical_formula_sum "Si O2"
_cell_formula_units_Z 28
_cell_length_a 16.100216
_cell_length_b 8.314938
_cell_length_c 11.477520
_cell_angle_alpha 90.000000
_cell_angle_beta 123.326255
_cell_angle_gamma 90.000000
_cell_volume 1283.849682
_symmetry_space_group_name_H-M "C 2"
_symmetry_group_IT_number 5
_symmetry_cell_setting 'monoclinic'
loop_
_space_group_symop_operation_xyz
x,y,z
-x,y,-z
1/2+x,1/2+y,z
1/2-x,1/2+y,-z
loop_
_atom_site_type_symbol
_atom_site_label
_atom_site_fract_x
_atom_site_fract_y
_atom_site_fract_z
Si Si1 0.233842 0.953620 0.135569
Si Si2 0.000000 0.438114 0.000000
Si Si3 0.322597 0.377153 0.319692
Si Si4 0.159517 0.461246 0.533464
Si Si5 0.833086 0.098855 0.535707
Si Si6 0.872298 0.177371 0.802270
Si Si7 0.304366 0.085861 0.951976
Si Si8 0.500000 0.170905 0.500000
O O1 0.208535 0.774745 0.076523
O O2 0.296009 0.956989 0.301983
O O3 0.133586 0.059292 0.088599
O O4 0.293580 0.044916 0.079662
O O5 0.047925 0.318801 0.131186
O O6 0.084730 0.544395 0.005222
O O7 0.366794 0.483535 0.458840
O O8 0.237256 0.257471 0.298885
O O9 0.280772 0.487412 0.183013
O O10 0.420358 0.274036 0.361801
O O11 0.148158 0.279382 0.487570
O O12 0.219854 0.556872 0.480740
O O13 0.055238 0.554389 0.451242
O O14 0.895961 0.073110 0.704194
#
# Coordination Sequence:
#
# PCOD8050846 Si02
#       8
#     4   2   4   4   4   4   4   2
#     4  11  23  45  70  94 139 180 220 274 349 388
#     4  10  24  44  68 104 132 176 236 270 336 400
#     4  11  22  42  65  98 135 175 220 277 335 399
#     4  11  23  41  70  99 132 178 222 276 337 402
#     4  11  20  43  68  96 132 177 217 279 344 393
#     4  10  22  44  68  96 136 174 220 287 331 395
#     4  11  24  45  70  96 136 181 223 281 331 404
#     4  12  24  42  62 100 140 170 228 266 332 404
#
# _framework density 21.809405999999999
#
# number of rings (size 3 to 8) (size 9 to 14) (size 15 to 20)
#    0.000    1.143    5.714    1.714    0.000    2.286 
#    5.143    0.000    0.000    0.000    0.000    0.000 
#    0.000    0.000    0.000    0.000    0.000    0.000 
#
# Total GULP energy -173461.773841 kJ/mol
# GULP energy per Si atom -12390.126703 kJ/mol
# Density = 2.175977 g / cm^3
# Si number density = 21.809406 Si / 1000 Ang^3
#
#
#
# Elastic Constant Matrix: (Units=GPa)
#
#
# Indices 1 2 3 4 5 6 
#
# 1 97.4070 62.3991 43.0610 0.0000 -1.7905 0.0000
# 2 62.3991 161.0904 34.5409 0.0000 -2.9866 0.0000
# 3 43.0610 34.5409 78.8941 0.0000 -15.5243 0.0000
# 4 0.0000 0.0000 0.0000 30.1989 0.0000 -14.3444
# 5 -1.7905 -2.9866 -15.5243 0.0000 38.8909 0.0000
# 6 0.0000 0.0000 0.0000 -14.3444 0.0000 32.7354
#
#
#
# Elastic Compliance Matrix: (Units=1/GPa)
#
#
# Indices 1 2 3 4 5 6 
#
# 1 0.016652 -0.004900 -0.007452 0.000000 -0.002584 0.000000
# 2 -0.004900 0.008312 -0.000959 0.000000 0.000030 0.000000
# 3 -0.007452 -0.000959 0.018536 0.000000 0.006983 0.000000
# 4 0.000000 0.000000 0.000000 0.041818 0.000000 0.018324
# 5 -0.002584 0.000030 0.006983 0.000000 0.028384 0.000000
# 6 0.000000 0.000000 0.000000 0.018324 0.000000 0.038578
#
#
# Mechanical properties :
#
#
# Convention : Reuss Voigt Hill
#
# Bulk Modulus (GPa) = 59.24649 68.59927 63.92288
# Shear Modulus (GPa) = 27.09629 33.52442 30.31035
#
# Velocity S-wave (km/s) = 3.52861 3.92491 3.73202
# Velocity P-wave (km/s) = 6.62012 7.21541 6.92417
#
# Compressibility (1/GPa) = 0.01687864
#
# Stress axis : x y z
#
# Youngs Moduli (GPa) = 60.05207 120.30867 53.94849
#
# Poissons Ratio (x) = 0.58956 0.40202
# Poissons Ratio (y) = 0.29428 0.05171
# Poissons Ratio (z) = 0.44751 0.11532
#
# Static dielectric constant tensor:
#      x y z
#    x 4.030010 0.000000 0.003380 
#    y 0.000000 4.328430 0.000000 
#    z 0.003380 0.000000 4.025210 
# 
# 
# High freq. dielectric constant tensor:
#      x y z
#    x 1.841640 0.000000 -0.013130 
#    y 0.000000 1.882200 0.000000 
#    z -0.013130 0.000000 1.847990 
# 
# From -- ./inp_files/41798.got.cif
#   From: 2010.03.12/outbox.cif.g09.slc.cpg/sg5_21_cif.got.tgz:41798.got - 2010.03.31 09:47:26.
