data_PCOD8050047
_publ_section_title
;
Structure prediction by ZEFSAII (Michael W. Deem and Ramdas Pophale) SiO2 
 PCOD8050047
Probable space group: C 2
;
_chemical_formula_sum "Si O2"
_cell_formula_units_Z 16
_cell_length_a 8.911588
_cell_length_b 5.266852
_cell_length_c 18.711208
_cell_angle_alpha 90.000000
_cell_angle_beta 44.014112
_cell_angle_gamma 90.000000
_cell_volume 610.225083
_symmetry_space_group_name_H-M "C 2"
_symmetry_group_IT_number 5
_symmetry_cell_setting 'monoclinic'
loop_
_space_group_symop_operation_xyz
x,y,z
-x,y,-z
1/2+x,1/2+y,z
1/2-x,1/2+y,-z
loop_
_atom_site_type_symbol
_atom_site_label
_atom_site_fract_x
_atom_site_fract_y
_atom_site_fract_z
Si Si1 0.667832 0.723120 0.379444
Si Si2 0.248254 0.783385 0.083860
Si Si3 0.115228 0.722997 0.305569
Si Si4 0.086606 0.283496 0.119571
O O1 0.500000 0.761583 0.500000
O O2 0.629854 0.443714 0.359760
O O3 0.906505 0.755960 0.329100
O O4 0.622074 0.945090 0.338143
O O5 0.105842 0.542417 0.159944
O O6 0.144097 0.043283 0.150863
O O7 0.500000 0.745621 0.000000
O O8 0.224363 0.806967 0.004821
O O9 0.332929 0.755457 0.179943
#
# Coordination Sequence:
#
# PCOD8050047 Si02
#       4
#     4   4   4   4
#     4  12  26  49  73 104 140 181 227 290 356 413
#     4  10  21  40  60  87 131 173 217 274 328 394
#     4  12  26  44  74 106 138 183 232 287 338 423
#     4  10  23  37  60  94 126 174 224 270 332 391
#
# _framework density 26.219832
#
# number of rings (size 3 to 8) (size 9 to 14) (size 15 to 20)
#    0.000    1.000    0.000    6.000    7.000    0.000 
#    0.000    0.000    0.000    0.000    0.000    0.000 
#    0.000    0.000    0.000    0.000    0.000    0.000 
#
# Total GULP energy -99150.750564 kJ/mol
# GULP energy per Si atom -12393.843820 kJ/mol
# Density = 2.616015 g / cm^3
# Si number density = 26.219832 Si / 1000 Ang^3
#
#
#
# Elastic Constant Matrix: (Units=GPa)
#
#
# Indices 1 2 3 4 5 6 
#
# 1 97.2993 46.1422 12.9042 0.0001 -27.9065 0.0004
# 2 46.1422 216.0075 9.0785 0.0002 -28.8443 0.0005
# 3 12.9042 9.0785 128.4800 -0.0001 -6.6169 0.0000
# 4 0.0001 0.0002 -0.0001 23.4364 -0.0001 -7.2869
# 5 -27.9065 -28.8443 -6.6169 -0.0001 33.0654 0.0000
# 6 0.0004 0.0005 0.0000 -7.2869 0.0000 40.4707
#
#
#
# Elastic Compliance Matrix: (Units=1/GPa)
#
#
# Indices 1 2 3 4 5 6 
#
# 1 0.014109 -0.001598 -0.000771 0.000000 0.010359 0.000000
# 2 -0.001598 0.005423 -0.000049 0.000000 0.003372 0.000000
# 3 -0.000771 -0.000049 0.007910 0.000000 0.000890 0.000000
# 4 0.000000 0.000000 0.000000 0.045199 0.000000 0.008138
# 5 0.010359 0.003372 0.000890 0.000000 0.042106 0.000000
# 6 0.000000 0.000000 0.000000 0.008138 0.000000 0.026175
#
#
# Mechanical properties :
#
#
# Convention : Reuss Voigt Hill
#
# Bulk Modulus (GPa) = 44.23512 64.22628 54.23070
# Shear Modulus (GPa) = 32.61737 44.30529 38.46133
#
# Velocity S-wave (km/s) = 3.53086 4.11513 3.83414
# Velocity P-wave (km/s) = 5.79052 6.86495 6.35050
#
# Compressibility (1/GPa) = 0.02260647
#
# Stress axis : x y z
#
# Youngs Moduli (GPa) = 70.87784 184.39195 126.42223
#
# Poissons Ratio (x) = 0.29468 0.09742
# Poissons Ratio (y) = 0.11327 0.00620
# Poissons Ratio (z) = 0.05462 0.00904
#
# Static dielectric constant tensor:
#      x y z
#    x 4.921140 0.000000 0.788490 
#    y 0.000000 6.032770 0.000000 
#    z 0.788490 0.000000 6.513650 
# 
# 
# High freq. dielectric constant tensor:
#      x y z
#    x 2.057560 0.000000 -0.002940 
#    y 0.000000 2.082690 0.000000 
#    z -0.002940 0.000000 2.058160 
# 
# From -- ./inp_files/51769.got.cif
#   From: 2010.03.12/outbox.cif.g09.slc.cpg/sg5_26_cif.got.tgz:51769.got - 2010.03.31 09:47:26.
