data_PCOD8050915
_publ_section_title
;
Structure prediction by ZEFSAII (Michael W. Deem and Ramdas Pophale) SiO2 
 PCOD8050915
Probable space group: C 2
;
_chemical_formula_sum "Si O2"
_cell_formula_units_Z 18
_cell_length_a 12.495485
_cell_length_b 11.443052
_cell_length_c 7.470079
_cell_angle_alpha 90.000000
_cell_angle_beta 40.019339
_cell_angle_gamma 90.000000
_cell_volume 686.850654
_symmetry_space_group_name_H-M "C 2"
_symmetry_group_IT_number 5
_symmetry_cell_setting 'monoclinic'
loop_
_space_group_symop_operation_xyz
x,y,z
-x,y,-z
1/2+x,1/2+y,z
1/2-x,1/2+y,-z
loop_
_atom_site_type_symbol
_atom_site_label
_atom_site_fract_x
_atom_site_fract_y
_atom_site_fract_z
Si Si1 0.075209 0.709700 0.577991
Si Si2 0.304302 0.803805 0.552235
Si Si3 0.500000 0.904314 0.000000
Si Si4 0.170395 0.025082 0.886785
Si Si5 0.734121 0.081981 0.859614
O O1 0.764778 0.634961 0.682863
O O2 0.000000 0.775470 0.500000
O O3 0.135296 0.801833 0.648461
O O4 0.937941 0.625712 0.835636
O O5 0.328536 0.681674 0.625529
O O6 0.282589 0.908524 0.720332
O O7 0.465349 0.823958 0.219044
O O8 0.671342 0.977669 0.810164
O O9 0.145088 0.039472 0.134259
O O10 0.000000 0.013240 0.000000
#
# Coordination Sequence:
#
# PCOD8050915 Si02
#       5
#     4   4   2   4   4
#     4  10  22  45  74 108 158 200 247 323 380 456
#     4  12  24  46  80 109 152 210 252 312 400 443
#     4  12  26  46  80 122 146 204 260 320 382 462
#     4  11  25  45  75 118 153 200 263 314 382 469
#     4  11  23  50  77 112 162 193 257 327 374 461
#
# _framework density 26.206572000000001
#
# number of rings (size 3 to 8) (size 9 to 14) (size 15 to 20)
#    0.000    0.889    4.444    1.333    1.556    5.333 
#    4.000    2.222    0.000    0.000    0.000    0.000 
#    0.000    0.000    0.000    0.000    0.000    0.000 
#
# Total GULP energy -111615.925734 kJ/mol
# GULP energy per Si atom -12401.769526 kJ/mol
# Density = 2.614692 g / cm^3
# Si number density = 26.206572 Si / 1000 Ang^3
#
#
#
# Elastic Constant Matrix: (Units=GPa)
#
#
# Indices 1 2 3 4 5 6 
#
# 1 160.5028 64.6287 33.3310 0.0000 23.6840 0.0000
# 2 64.6287 98.2403 51.1375 0.0000 24.0492 0.0000
# 3 33.3310 51.1375 91.0513 0.0000 22.4189 0.0000
# 4 0.0000 0.0000 0.0000 35.9712 0.0000 19.0397
# 5 23.6840 24.0492 22.4189 0.0000 41.9676 0.0000
# 6 0.0000 0.0000 0.0000 19.0397 0.0000 30.5236
#
#
#
# Elastic Compliance Matrix: (Units=1/GPa)
#
#
# Indices 1 2 3 4 5 6 
#
# 1 0.008608 -0.005360 0.000344 0.000000 -0.001970 0.000000
# 2 -0.005360 0.018508 -0.007560 0.000000 -0.003542 0.000000
# 3 0.000344 -0.007560 0.016217 0.000000 -0.004525 0.000000
# 4 0.000000 0.000000 0.000000 0.041503 0.000000 -0.025888
# 5 -0.001970 -0.003542 -0.004525 0.000000 0.029387 0.000000
# 6 0.000000 0.000000 0.000000 -0.025888 0.000000 0.048910
#
#
# Mechanical properties :
#
#
# Convention : Reuss Voigt Hill
#
# Bulk Modulus (GPa) = 55.00217 71.99876 63.50046
# Shear Modulus (GPa) = 25.72765 35.07230 30.39997
#
# Velocity S-wave (km/s) = 3.13665 3.66225 3.40959
# Velocity P-wave (km/s) = 5.84394 6.73914 6.30744
#
# Compressibility (1/GPa) = 0.01818110
#
# Stress axis : x y z
#
# Youngs Moduli (GPa) = 116.17369 54.03194 61.66329
#
# Poissons Ratio (x) = 0.28959 -0.02123
# Poissons Ratio (y) = 0.62265 0.46619
# Poissons Ratio (z) = -0.03999 0.40850
#
# Static dielectric constant tensor:
#      x y z
#    x 5.195040 0.000000 0.341420 
#    y 0.000000 4.598870 0.000000 
#    z 0.341420 0.000000 4.463700 
# 
# 
# High freq. dielectric constant tensor:
#      x y z
#    x 2.063100 0.000000 0.014210 
#    y 0.000000 2.039880 0.000000 
#    z 0.014210 0.000000 2.042770 
# 
# From -- ./inp_files/18870.got.cif
#   From: 2010.03.12/outbox.cif.g09.slc.cpg/sg5_10_cif.got.tgz:18870.got - 2010.03.31 09:47:26.
