data_PCOD8050882
_publ_section_title
;
Structure prediction by ZEFSAII (Michael W. Deem and Ramdas Pophale) SiO2 
 PCOD8050882
Probable space group: C 2
;
_chemical_formula_sum "Si O2"
_cell_formula_units_Z 28
_cell_length_a 11.517332
_cell_length_b 8.002778
_cell_length_c 16.830241
_cell_angle_alpha 90.000000
_cell_angle_beta 55.609148
_cell_angle_gamma 90.000000
_cell_volume 1280.100752
_symmetry_space_group_name_H-M "C 2"
_symmetry_group_IT_number 5
_symmetry_cell_setting 'monoclinic'
loop_
_space_group_symop_operation_xyz
x,y,z
-x,y,-z
1/2+x,1/2+y,z
1/2-x,1/2+y,-z
loop_
_atom_site_type_symbol
_atom_site_label
_atom_site_fract_x
_atom_site_fract_y
_atom_site_fract_z
Si Si1 0.345828 0.056640 0.586417
Si Si2 0.169428 0.175433 0.381089
Si Si3 0.676245 0.043993 0.818512
Si Si4 0.342042 0.306141 0.040550
Si Si5 0.616535 0.089065 0.120450
Si Si6 0.400598 0.262957 0.713049
Si Si7 0.101795 0.035825 0.568205
O O1 0.500000 0.113643 0.500000
O O2 0.328365 0.132522 0.680306
O O3 0.220596 0.120770 0.577787
O O4 0.324848 0.859109 0.586139
O O5 0.299119 0.142979 0.273411
O O6 0.163572 0.033505 0.453586
O O7 0.028430 0.164065 0.381948
O O8 0.708337 0.160140 0.881194
O O9 0.510693 0.995776 0.877762
O O10 0.775699 0.885530 0.786799
O O11 0.242163 0.463932 0.090400
O O12 0.500000 0.364690 0.000000
O O13 0.328903 0.240847 0.955517
O O14 0.554756 0.162449 0.226371
O O15 0.538924 0.356617 0.622928
#
# Coordination Sequence:
#
# PCOD8050882 Si02
#       7
#     4   4   4   4   4   4   4
#     4  12  26  37  62  91 124 171 225 263 316 369
#     4  10  22  45  62  89 128 179 212 269 320 366
#     4  10  23  41  65  93 129 164 213 259 322 379
#     4  10  23  43  68  98 126 162 208 262 326 393
#     4  11  23  43  70  94 131 164 206 268 324 387
#     4  11  26  40  63  98 126 172 219 261 319 380
#     4  10  24  43  61  88 133 171 221 267 308 374
#
# _framework density 21.873279
#
# number of rings (size 3 to 8) (size 9 to 14) (size 15 to 20)
#    0.000    1.429    1.429    2.571    8.000    5.714 
#    0.000    0.000    0.000    0.000    0.000    0.000 
#    0.000    0.000    0.000    0.000    0.000    0.000 
#
# Total GULP energy -173550.822621 kJ/mol
# GULP energy per Si atom -12396.487330 kJ/mol
# Density = 2.182349 g / cm^3
# Si number density = 21.873279 Si / 1000 Ang^3
#
#
#
# Elastic Constant Matrix: (Units=GPa)
#
#
# Indices 1 2 3 4 5 6 
#
# 1 139.3553 48.5214 43.6446 0.0000 7.4449 0.0000
# 2 48.5214 65.3125 21.1815 0.0000 7.7117 0.0000
# 3 43.6446 21.1815 92.8931 0.0000 20.8976 0.0000
# 4 0.0000 0.0000 0.0000 43.8745 0.0000 1.6060
# 5 7.4449 7.7117 20.8976 0.0000 35.2853 0.0000
# 6 0.0000 0.0000 0.0000 1.6060 0.0000 26.0356
#
#
#
# Elastic Compliance Matrix: (Units=1/GPa)
#
#
# Indices 1 2 3 4 5 6 
#
# 1 0.010677 -0.006881 -0.003783 0.000000 0.001492 0.000000
# 2 -0.006881 0.021047 -0.000990 0.000000 -0.002562 0.000000
# 3 -0.003783 -0.000990 0.014467 0.000000 -0.007554 0.000000
# 4 0.000000 0.000000 0.000000 0.022844 0.000000 -0.001409
# 5 0.001492 -0.002562 -0.007554 0.000000 0.033059 0.000000
# 6 0.000000 0.000000 0.000000 -0.001409 0.000000 0.038496
#
#
# Mechanical properties :
#
#
# Convention : Reuss Voigt Hill
#
# Bulk Modulus (GPa) = 43.70008 58.25066 50.97537
# Shear Modulus (GPa) = 29.15018 33.31996 31.23507
#
# Velocity S-wave (km/s) = 3.65456 3.90720 3.78299
# Velocity P-wave (km/s) = 6.15060 6.85885 6.51435
#
# Compressibility (1/GPa) = 0.02288325
#
# Stress axis : x y z
#
# Youngs Moduli (GPa) = 93.65981 47.51356 69.12094
#
# Poissons Ratio (x) = 0.32695 0.26148
# Poissons Ratio (y) = 0.64450 0.06841
# Poissons Ratio (z) = 0.35431 0.04702
#
# Static dielectric constant tensor:
#      x y z
#    x 3.934310 0.000000 -0.030900 
#    y 0.000000 3.622150 0.000000 
#    z -0.030900 0.000000 4.124980 
# 
# 
# High freq. dielectric constant tensor:
#      x y z
#    x 1.874220 0.000000 0.000930 
#    y 0.000000 1.839100 0.000000 
#    z 0.000930 0.000000 1.866960 
# 
# From -- ./inp_files/52369.got.cif
#   From: 2010.03.12/outbox.cif.g09.slc.cpg/sg5_27_cif.got.tgz:52369.got - 2010.03.31 09:47:26.
