data_PCOD8050854
_publ_section_title
;
Structure prediction by ZEFSAII (Michael W. Deem and Ramdas Pophale) SiO2 
 PCOD8050854
Probable space group: C 2
;
_chemical_formula_sum "Si O2"
_cell_formula_units_Z 32
_cell_length_a 30.517999
_cell_length_b 8.795542
_cell_length_c 5.339435
_cell_angle_alpha 90.000000
_cell_angle_beta 98.018269
_cell_angle_gamma 90.000000
_cell_volume 1419.211941
_symmetry_space_group_name_H-M "C 2"
_symmetry_group_IT_number 5
_symmetry_cell_setting 'monoclinic'
loop_
_space_group_symop_operation_xyz
x,y,z
-x,y,-z
1/2+x,1/2+y,z
1/2-x,1/2+y,-z
loop_
_atom_site_type_symbol
_atom_site_label
_atom_site_fract_x
_atom_site_fract_y
_atom_site_fract_z
Si Si1 0.026903 0.280100 0.770528
Si Si2 0.257537 0.959599 0.783002
Si Si3 0.672422 0.479420 0.460404
Si Si4 0.619019 0.929412 0.779793
Si Si5 0.472735 0.427872 0.227239
Si Si6 0.706861 0.273716 0.107623
Si Si7 0.618826 0.284602 0.754968
Si Si8 0.662769 0.806812 0.319527
O O1 0.069061 0.386958 0.802020
O O2 0.000000 0.319606 0.500000
O O3 0.041112 0.103941 0.781743
O O4 0.000000 0.319859 0.000000
O O5 0.286714 0.865761 0.600575
O O6 0.210033 0.038391 0.684085
O O7 0.289977 0.093454 0.898023
O O8 0.248873 0.841021 0.997427
O O9 0.704874 0.347312 0.378539
O O10 0.628194 0.394084 0.522300
O O11 0.659510 0.623329 0.278643
O O12 0.635066 0.839031 0.547987
O O13 0.621148 0.105721 0.701718
O O14 0.645626 0.886820 0.052231
O O15 0.500000 0.385401 0.500000
O O16 0.428702 0.326944 0.172661
O O17 0.500000 0.387154 0.000000
O O18 0.658762 0.327121 0.969944
#
# Coordination Sequence:
#
# PCOD8050854 Si02
#       8
#     4   4   4   4   4   4   4   4
#     4  10  22  44  70 100 136 179 230 286 351 429
#     4  11  24  42  67  97 141 188 242 290 363 412
#     4  11  26  41  71  97 139 190 243 296 349 432
#     4  12  27  45  70 104 142 184 228 297 355 429
#     4  10  24  43  72 102 138 183 232 287 348 429
#     4  11  24  43  67 100 140 185 239 297 350 426
#     4  11  26  44  69 105 142 185 236 298 359 422
#     4  12  27  44  70 101 140 186 238 289 355 421
#
# _framework density 22.547723999999999
#
# number of rings (size 3 to 8) (size 9 to 14) (size 15 to 20)
#    0.000    1.000    1.250    3.750   10.500    4.000 
#    0.000    0.000    0.000    0.000    0.000    0.000 
#    0.000    0.000    0.000    0.000    0.000    0.000 
#
# Total GULP energy -198282.622930 kJ/mol
# GULP energy per Si atom -12392.663933 kJ/mol
# Density = 2.249640 g / cm^3
# Si number density = 22.547724 Si / 1000 Ang^3
#
#
#
# Elastic Constant Matrix: (Units=GPa)
#
#
# Indices 1 2 3 4 5 6 
#
# 1 130.4891 60.3287 41.7895 0.0000 -18.5179 0.0000
# 2 60.3287 147.3686 36.0610 0.0000 -12.0237 0.0000
# 3 41.7895 36.0610 110.6855 0.0000 -19.7609 0.0000
# 4 0.0000 0.0000 0.0000 39.8577 0.0000 -8.8984
# 5 -18.5179 -12.0237 -19.7609 0.0000 35.3002 0.0000
# 6 0.0000 0.0000 0.0000 -8.8984 0.0000 45.3105
#
#
#
# Elastic Compliance Matrix: (Units=1/GPa)
#
#
# Indices 1 2 3 4 5 6 
#
# 1 0.010419 -0.003465 -0.002266 0.000000 0.003017 0.000000
# 2 -0.003465 0.008579 -0.001433 0.000000 0.000303 0.000000
# 3 -0.002266 -0.001433 0.011175 0.000000 0.004578 0.000000
# 4 0.000000 0.000000 0.000000 0.026240 0.000000 0.005153
# 5 0.003017 0.000303 0.004578 0.000000 0.032577 0.000000
# 6 0.000000 0.000000 0.000000 0.005153 0.000000 0.023082
#
#
# Mechanical properties :
#
#
# Convention : Reuss Voigt Hill
#
# Bulk Modulus (GPa) = 63.11127 73.87794 68.49461
# Shear Modulus (GPa) = 37.97032 40.78461 39.37746
#
# Velocity S-wave (km/s) = 4.10811 4.25763 4.18354
# Velocity P-wave (km/s) = 7.11006 7.55024 7.33345
#
# Compressibility (1/GPa) = 0.01584503
#
# Stress axis : x y z
#
# Youngs Moduli (GPa) = 95.97644 116.55859 89.48883
#
# Poissons Ratio (x) = 0.40383 0.20282
# Poissons Ratio (y) = 0.33252 0.12824
# Poissons Ratio (z) = 0.21752 0.16703
#
# Static dielectric constant tensor:
#      x y z
#    x 3.982740 0.000000 -0.178820 
#    y 0.000000 3.996150 0.000000 
#    z -0.178820 0.000000 3.876820 
# 
# 
# High freq. dielectric constant tensor:
#      x y z
#    x 1.901450 0.000000 -0.007360 
#    y 0.000000 1.896130 0.000000 
#    z -0.007360 0.000000 1.883610 
# 
# From -- ./inp_files/11234.got.cif
#   From: 2010.03.12/outbox.cif.g09.slc.cpg/sg5_6_cif.got.tgz:11234.got - 2010.03.31 09:47:26.
