data_PCOD8050774
_publ_section_title
;
Structure prediction by ZEFSAII (Michael W. Deem and Ramdas Pophale) SiO2 
 PCOD8050774
Probable space group: C 2
;
_chemical_formula_sum "Si O2"
_cell_formula_units_Z 16
_cell_length_a 9.552307
_cell_length_b 12.799279
_cell_length_c 9.185474
_cell_angle_alpha 90.000000
_cell_angle_beta 134.198030
_cell_angle_gamma 90.000000
_cell_volume 805.146440
_symmetry_space_group_name_H-M "C 2"
_symmetry_group_IT_number 5
_symmetry_cell_setting 'monoclinic'
loop_
_space_group_symop_operation_xyz
x,y,z
-x,y,-z
1/2+x,1/2+y,z
1/2-x,1/2+y,-z
loop_
_atom_site_type_symbol
_atom_site_label
_atom_site_fract_x
_atom_site_fract_y
_atom_site_fract_z
Si Si1 0.140685 0.989570 0.965900
Si Si2 0.539416 0.138301 0.859060
Si Si3 0.032309 0.443742 0.354568
Si Si4 0.571370 0.342831 0.390440
O O1 0.233477 0.103988 0.000262
O O2 0.320904 0.909693 0.134746
O O3 0.000000 0.000099 0.000000
O O4 0.025523 0.948786 0.741245
O O5 0.402685 0.052220 0.677997
O O6 0.494400 0.250846 0.762511
O O7 0.500000 0.139920 0.000000
O O8 0.193698 0.355103 0.441784
O O9 0.000000 0.467071 0.500000
O O10 0.500000 0.318831 0.500000
#
# Coordination Sequence:
#
# PCOD8050774 Si02
#       4
#     4   4   4   4
#     4  10  22  44  66  92 129 163 210 266 309 371
#     4  10  23  42  62  95 129 162 212 256 314 373
#     4  10  22  43  66  91 128 168 209 259 313 372
#     4  12  23  41  66  94 129 168 211 256 315 376
#
# _framework density 19.872160999999998
#
# number of rings (size 3 to 8) (size 9 to 14) (size 15 to 20)
#    1.500    0.000    2.500    3.000    0.000    0.000 
#    9.000    1.250    0.000    0.000    0.000    0.000 
#    0.000    0.000    0.000    0.000    0.000    0.000 
#
# Total GULP energy -99133.518173 kJ/mol
# GULP energy per Si atom -12391.689772 kJ/mol
# Density = 1.982693 g / cm^3
# Si number density = 19.872161 Si / 1000 Ang^3
#
#
#
# Elastic Constant Matrix: (Units=GPa)
#
#
# Indices 1 2 3 4 5 6 
#
# 1 163.9377 52.2334 70.4368 0.0000 -7.8894 0.0000
# 2 52.2334 72.3216 13.7778 0.0000 1.3312 0.0000
# 3 70.4368 13.7778 78.8036 0.0000 -3.5040 0.0000
# 4 0.0000 0.0000 0.0000 30.3397 0.0000 15.0876
# 5 -7.8894 1.3312 -3.5040 0.0000 51.7636 0.0000
# 6 0.0000 0.0000 0.0000 15.0876 0.0000 7.1463
#
#
#
# Elastic Compliance Matrix: (Units=1/GPa)
#
#
# Indices 1 2 3 4 5 6 
#
# 1 0.012900 -0.007406 -0.010170 0.000000 0.001468 0.000000
# 2 -0.007406 0.018571 0.003312 0.000000 -0.001382 0.000000
# 3 -0.010170 0.003312 0.021192 0.000000 -0.000201 0.000000
# 4 0.000000 0.000000 0.000000 -0.660531 0.000000 1.394548
# 5 0.001468 -0.001382 -0.000201 0.000000 0.019564 0.000000
# 6 0.000000 0.000000 0.000000 1.394548 0.000000 -2.804308
#
#
# Mechanical properties :
#
#
# Convention : Reuss Voigt Hill
#
# Bulk Modulus (GPa) = 41.43643 65.32876 53.38259
# Shear Modulus (GPa) = -1.48985 29.75758 14.13386
#
# Velocity S-wave (km/s) = -0.86680 3.87389 2.66980
# Velocity P-wave (km/s) = 4.46038 7.27703 6.03532
#
# Compressibility (1/GPa) = 0.02413335
#
# Stress axis : x y z
#
# Youngs Moduli (GPa) = 77.51912 53.84776 47.18708
#
# Poissons Ratio (x) = 0.39882 0.47990
# Poissons Ratio (y) = 0.57414 -0.15627
# Poissons Ratio (z) = 0.78839 -0.17833
#
# Static dielectric constant tensor:
#      x y z
#    x 3.601000 0.000000 0.056050 
#    y 0.000000 3.332750 0.000000 
#    z 0.056050 0.000000 3.822660 
# 
# 
# High freq. dielectric constant tensor:
#      x y z
#    x 1.783770 0.000000 -0.007900 
#    y 0.000000 1.745350 0.000000 
#    z -0.007900 0.000000 1.786180 
# 
# From -- ./inp_files/13756.got.cif
#   From: 2010.03.12/outbox.cif.g09.slc.cpg/sg5_7_cif.got.tgz:13756.got - 2010.03.31 09:47:26.
