data_PCOD8050955
_publ_section_title
;
Structure prediction by ZEFSAII (Michael W. Deem and Ramdas Pophale) SiO2 
 PCOD8050955
Probable space group: C 2
;
_chemical_formula_sum "Si O2"
_cell_formula_units_Z 22
_cell_length_a 12.933260
_cell_length_b 9.369144
_cell_length_c 19.788846
_cell_angle_alpha 90.000000
_cell_angle_beta 22.050254
_cell_angle_gamma 90.000000
_cell_volume 900.213303
_symmetry_space_group_name_H-M "C 2"
_symmetry_group_IT_number 5
_symmetry_cell_setting 'monoclinic'
loop_
_space_group_symop_operation_xyz
x,y,z
-x,y,-z
1/2+x,1/2+y,z
1/2-x,1/2+y,-z
loop_
_atom_site_type_symbol
_atom_site_label
_atom_site_fract_x
_atom_site_fract_y
_atom_site_fract_z
Si Si1 0.694308 0.272160 0.825324
Si Si2 0.812822 0.355672 0.171331
Si Si3 0.937940 0.574449 0.206610
Si Si4 0.500000 0.976768 0.500000
Si Si5 0.759618 0.746858 0.438910
Si Si6 0.045806 0.061408 0.866047
O O1 0.574483 0.225776 0.824719
O O2 0.671875 0.444619 0.841553
O O3 0.007280 0.210104 0.643854
O O4 0.500000 0.203610 0.000000
O O5 0.519406 0.297842 0.324031
O O6 0.994106 0.216210 0.077830
O O7 0.770527 0.458810 0.262118
O O8 0.000000 0.433405 0.000000
O O9 0.814704 0.609881 0.356071
O O10 0.244016 0.511081 0.025612
O O11 0.637432 0.880678 0.473664
O O12 0.259794 0.077446 0.674575
#
# Coordination Sequence:
#
# PCOD8050955 Si02
#       6
#     4   4   4   2   4   4
#     4  11  25  46  70 103 146 199 243 309 380 446
#     4  12  25  42  73 115 148 193 254 316 370 455
#     4  12  23  46  74 101 150 199 245 311 374 448
#     4  10  22  48  68 100 150 204 234 316 372 442
#     4  11  23  48  72 102 153 192 249 306 380 440
#     4  11  23  44  71 105 151 191 247 309 384 432
#
# _framework density 24.438654
#
# number of rings (size 3 to 8) (size 9 to 14) (size 15 to 20)
#    0.000    0.727    5.455    3.273    0.000    4.364 
#    6.545    0.000    0.000    0.000    0.000    0.000 
#    0.000    0.000    0.000    0.000    0.000    0.000 
#
# Total GULP energy -136320.002586 kJ/mol
# GULP energy per Si atom -12392.727508 kJ/mol
# Density = 2.438303 g / cm^3
# Si number density = 24.438654 Si / 1000 Ang^3
#
#
#
# Elastic Constant Matrix: (Units=GPa)
#
#
# Indices 1 2 3 4 5 6 
#
# 1 98.0556 31.5590 68.9102 0.0136 -9.9774 -0.0003
# 2 31.5590 107.0212 21.7454 -0.0513 0.9061 -0.0066
# 3 68.9102 21.7454 219.9988 0.0415 12.4398 -0.0509
# 4 0.0136 -0.0513 0.0415 29.0603 -0.0650 -2.2802
# 5 -9.9774 0.9061 12.4398 -0.0650 41.6469 0.0172
# 6 -0.0003 -0.0066 -0.0509 -2.2802 0.0172 36.9547
#
#
#
# Elastic Compliance Matrix: (Units=1/GPa)
#
#
# Indices 1 2 3 4 5 6 
#
# 1 0.015156 -0.003561 -0.004684 0.000004 0.005108 -0.000009
# 2 -0.003561 0.010372 0.000154 0.000018 -0.001125 0.000004
# 3 -0.004684 0.000154 0.006165 -0.000012 -0.002967 0.000009
# 4 0.000004 0.000018 -0.000012 0.034579 0.000057 0.002134
# 5 0.005108 -0.001125 -0.002967 0.000057 0.026146 -0.000013
# 6 -0.000009 0.000004 0.000009 0.002134 -0.000013 0.027192
#
#
# Mechanical properties :
#
#
# Convention : Reuss Voigt Hill
#
# Bulk Modulus (GPa) = 64.47014 74.38943 69.42979
# Shear Modulus (GPa) = 35.47043 41.72312 38.59677
#
# Velocity S-wave (km/s) = 3.81387 4.13638 3.97839
# Velocity P-wave (km/s) = 6.76992 7.30193 7.04095
#
# Compressibility (1/GPa) = 0.01551106
#
# Stress axis : x y z
#
# Youngs Moduli (GPa) = 65.98116 96.41111 162.19892
#
# Poissons Ratio (x) = 0.34329 0.75976
# Poissons Ratio (y) = 0.23494 -0.02493
# Poissons Ratio (z) = 0.30906 -0.01482
#
# Static dielectric constant tensor:
#      x y z
#    x 4.270110 -0.000070 0.152610 
#    y -0.000070 4.118000 0.000300 
#    z 0.152610 0.000300 5.208030 
# 
# 
# High freq. dielectric constant tensor:
#      x y z
#    x 1.954040 0.000000 0.002460 
#    y 0.000000 1.961120 0.000020 
#    z 0.002460 0.000020 1.991900 
# 
# From -- ./inp_files/68682.got.cif
#   From: 2010.03.12/outbox.cif.g09.slc.cpg/sg5_35_cif.got.tgz:68682.got - 2010.03.31 09:47:26.
