data_PCOD8050507
_publ_section_title
;
Structure prediction by ZEFSAII (Michael W. Deem and Ramdas Pophale) SiO2 
 PCOD8050507
Probable space group: C 2
;
_chemical_formula_sum "Si O2"
_cell_formula_units_Z 28
_cell_length_a 14.444986
_cell_length_b 8.254644
_cell_length_c 11.773463
_cell_angle_alpha 90.000000
_cell_angle_beta 122.782714
_cell_angle_gamma 90.000000
_cell_volume 1180.256063
_symmetry_space_group_name_H-M "C 2"
_symmetry_group_IT_number 5
_symmetry_cell_setting 'monoclinic'
loop_
_space_group_symop_operation_xyz
x,y,z
-x,y,-z
1/2+x,1/2+y,z
1/2-x,1/2+y,-z
loop_
_atom_site_type_symbol
_atom_site_label
_atom_site_fract_x
_atom_site_fract_y
_atom_site_fract_z
Si Si1 0.000000 0.207170 0.000000
Si Si2 0.465956 0.472382 0.770913
Si Si3 0.492449 0.120242 0.749313
Si Si4 0.168736 0.078551 0.814496
Si Si5 0.740724 0.065269 0.677814
Si Si6 0.283660 0.945871 0.099085
Si Si7 0.000000 0.585891 0.500000
Si Si8 0.678187 0.903741 0.241298
O O1 0.896745 0.327921 0.909476
O O2 0.011885 0.092262 0.898865
O O3 0.480890 0.284008 0.814132
O O4 0.539333 0.530817 0.711015
O O5 0.335172 0.491906 0.659009
O O6 0.605683 0.039573 0.860749
O O7 0.496168 0.177687 0.618537
O O8 0.394859 0.991359 0.709926
O O9 0.185199 0.262653 0.856816
O O10 0.240059 0.040502 0.751253
O O11 0.202336 0.957473 0.939354
O O12 0.775983 0.024999 0.830854
O O13 0.617718 0.989006 0.577222
O O14 0.744582 0.259337 0.657895
#
# Coordination Sequence:
#
# PCOD8050507 Si02
#       8
#     2   4   4   4   4   4   2   4
#     4  10  22  40  62  94 136 168 196 246 304 370
#     4  11  22  38  62  94 128 165 203 248 306 375
#     4  11  24  42  63  90 123 165 214 259 303 357
#     4  12  21  35  59  93 132 167 198 243 307 375
#     4  10  22  42  63  88 119 158 208 259 306 361
#     4  11  22  36  58  90 128 170 206 245 299 369
#     4  10  24  46  68  84 116 160 212 272 314 346
#     4  11  22  38  62  94 128 164 203 248 306 375
#
# _framework density 23.723665
#
# number of rings (size 3 to 8) (size 9 to 14) (size 15 to 20)
#    0.000    1.143    0.000    9.429    0.000    2.857 
#    0.000    0.000    0.000   21.429    0.000    0.000 
#    0.000    0.000    0.000    0.000    0.000    0.000 
#
# Total GULP energy -173448.654394 kJ/mol
# GULP energy per Si atom -12389.189600 kJ/mol
# Density = 2.366967 g / cm^3
# Si number density = 23.723665 Si / 1000 Ang^3
#
#
#
# Elastic Constant Matrix: (Units=GPa)
#
#
# Indices 1 2 3 4 5 6 
#
# 1 181.2146 53.1433 32.7023 0.0000 23.9471 0.0000
# 2 53.1433 148.4700 -0.8984 0.0000 5.9886 0.0000
# 3 32.7023 -0.8984 44.6513 0.0000 5.9047 0.0000
# 4 0.0000 0.0000 0.0000 8.7168 0.0000 -0.3543
# 5 23.9471 5.9886 5.9047 0.0000 28.5283 0.0000
# 6 0.0000 0.0000 0.0000 -0.3543 0.0000 43.8931
#
#
#
# Elastic Compliance Matrix: (Units=1/GPa)
#
#
# Indices 1 2 3 4 5 6 
#
# 1 0.007890 -0.002654 -0.005171 0.000000 -0.004996 0.000000
# 2 -0.002654 0.007690 0.002074 0.000000 0.000184 0.000000
# 3 -0.005171 0.002074 0.026432 0.000000 -0.001565 0.000000
# 4 0.000000 0.000000 0.000000 0.114759 0.000000 0.000926
# 5 -0.004996 0.000184 -0.001565 0.000000 0.039532 0.000000
# 6 0.000000 0.000000 0.000000 0.000926 0.000000 0.022790
#
#
# Mechanical properties :
#
#
# Convention : Reuss Voigt Hill
#
# Bulk Modulus (GPa) = 32.77614 60.47003 46.62308
# Shear Modulus (GPa) = 20.76709 35.52022 28.14365
#
# Velocity S-wave (km/s) = 2.96188 3.87363 3.44802
# Velocity P-wave (km/s) = 5.05399 6.74917 5.96213
#
# Compressibility (1/GPa) = 0.03051000
#
# Stress axis : x y z
#
# Youngs Moduli (GPa) = 126.74281 130.03148 37.83303
#
# Poissons Ratio (x) = 0.34510 0.19565
# Poissons Ratio (y) = 0.33637 -0.07847
# Poissons Ratio (z) = 0.65543 -0.26970
#
# Static dielectric constant tensor:
#      x y z
#    x 4.782950 0.000000 0.188000 
#    y 0.000000 4.191520 0.000000 
#    z 0.188000 0.000000 3.939400 
# 
# 
# High freq. dielectric constant tensor:
#      x y z
#    x 1.975960 0.000000 0.014320 
#    y 0.000000 1.934090 0.000000 
#    z 0.014320 0.000000 1.888910 
# 
# From -- ./inp_files/41839.got.cif
#   From: 2010.03.12/outbox.cif.g09.slc.cpg/sg5_21_cif.got.tgz:41839.got - 2010.03.31 09:47:26.
