data_PCOD8050945
_publ_section_title
;
Structure prediction by ZEFSAII (Michael W. Deem and Ramdas Pophale) SiO2 
 PCOD8050945
Probable space group: C 2
;
_chemical_formula_sum "Si O2"
_cell_formula_units_Z 28
_cell_length_a 15.833898
_cell_length_b 7.776148
_cell_length_c 11.110484
_cell_angle_alpha 90.000000
_cell_angle_beta 116.339955
_cell_angle_gamma 90.000000
_cell_volume 1225.968321
_symmetry_space_group_name_H-M "C 2"
_symmetry_group_IT_number 5
_symmetry_cell_setting 'monoclinic'
loop_
_space_group_symop_operation_xyz
x,y,z
-x,y,-z
1/2+x,1/2+y,z
1/2-x,1/2+y,-z
loop_
_atom_site_type_symbol
_atom_site_label
_atom_site_fract_x
_atom_site_fract_y
_atom_site_fract_z
Si Si1 0.000000 0.847060 0.000000
Si Si2 0.015762 0.071102 0.640113
Si Si3 0.638292 0.115694 0.398160
Si Si4 0.822003 0.001644 0.627575
Si Si5 0.164257 0.270990 0.889423
Si Si6 0.000000 0.741596 0.500000
Si Si7 0.489083 0.020537 0.125055
Si Si8 0.308427 0.520119 0.878431
O O1 0.975442 0.726545 0.099737
O O2 0.083815 0.975204 0.077666
O O3 0.105053 0.143286 0.768021
O O4 0.000000 0.164286 0.500000
O O5 0.918703 0.098494 0.652250
O O6 0.040112 0.868657 0.630691
O O7 0.655422 0.300147 0.348852
O O8 0.581241 0.126447 0.489534
O O9 0.579524 0.994571 0.268654
O O10 0.739839 0.027244 0.477559
O O11 0.778527 0.077561 0.724969
O O12 0.255689 0.344230 0.881267
O O13 0.103031 0.440308 0.874913
O O14 0.200489 0.172976 0.031168
O O15 0.500000 0.931868 0.000000
#
# Coordination Sequence:
#
# PCOD8050945 Si02
#       8
#     2   4   4   4   4   2   4   4
#     4  10  22  46  74  92 142 170 242 296 348 422
#     4   9  23  45  69  98 140 185 234 290 353 412
#     4  11  24  43  71 101 137 182 230 291 361 414
#     4  11  25  43  71 103 139 181 238 293 353 434
#     4  12  28  44  73 101 148 189 238 296 355 428
#     4   8  22  44  64 102 132 182 228 282 344 424
#     4  10  25  45  71  99 139 182 237 294 352 417
#     4  12  27  45  70 108 138 191 237 293 361 422
#
# _framework density 22.839089999999999
#
# number of rings (size 3 to 8) (size 9 to 14) (size 15 to 20)
#    0.857    0.571    1.429    1.714   11.000    1.143 
#    0.000    0.000    0.000    0.000    0.000    0.000 
#    0.000    0.000    0.000    0.000    0.000    0.000 
#
# Total GULP energy -173501.843485 kJ/mol
# GULP energy per Si atom -12392.988820 kJ/mol
# Density = 2.278711 g / cm^3
# Si number density = 22.839090 Si / 1000 Ang^3
#
#
#
# Elastic Constant Matrix: (Units=GPa)
#
#
# Indices 1 2 3 4 5 6 
#
# 1 111.6720 34.0826 57.5147 0.0000 -3.9266 0.0000
# 2 34.0826 51.4718 24.9630 0.0000 1.8946 0.0000
# 3 57.5147 24.9630 138.2611 0.0000 -6.7058 0.0000
# 4 0.0000 0.0000 0.0000 27.5489 0.0000 7.8762
# 5 -3.9266 1.8946 -6.7058 0.0000 43.4694 0.0000
# 6 0.0000 0.0000 0.0000 7.8762 0.0000 37.5775
#
#
#
# Elastic Compliance Matrix: (Units=1/GPa)
#
#
# Indices 1 2 3 4 5 6 
#
# 1 0.013224 -0.006728 -0.004246 0.000000 0.000833 0.000000
# 2 -0.006728 0.024817 -0.001777 0.000000 -0.001964 0.000000
# 3 -0.004246 -0.001777 0.009375 0.000000 0.001140 0.000000
# 4 0.000000 0.000000 0.000000 0.038613 0.000000 -0.008093
# 5 0.000833 -0.001964 0.001140 0.000000 0.023341 0.000000
# 6 0.000000 0.000000 0.000000 -0.008093 0.000000 0.028308
#
#
# Mechanical properties :
#
#
# Convention : Reuss Voigt Hill
#
# Bulk Modulus (GPa) = 45.63230 59.39173 52.51202
# Shear Modulus (GPa) = 29.32782 34.04213 31.68497
#
# Velocity S-wave (km/s) = 3.58733 3.86491 3.72871
# Velocity P-wave (km/s) = 6.09769 6.78068 6.44824
#
# Compressibility (1/GPa) = 0.02191430
#
# Stress axis : x y z
#
# Youngs Moduli (GPa) = 75.61820 40.29431 106.66495
#
# Poissons Ratio (x) = 0.27110 0.45290
# Poissons Ratio (y) = 0.50876 0.18957
# Poissons Ratio (z) = 0.32107 0.07161
#
# Static dielectric constant tensor:
#      x y z
#    x 4.033290 0.000000 -0.139980 
#    y 0.000000 3.703750 0.000000 
#    z -0.139980 0.000000 4.271390 
# 
# 
# High freq. dielectric constant tensor:
#      x y z
#    x 1.901600 0.000000 -0.003450 
#    y 0.000000 1.878590 0.000000 
#    z -0.003450 0.000000 1.908860 
# 
# From -- ./inp_files/42059.got.cif
#   From: 2010.03.12/outbox.cif.g09.slc.cpg/sg5_22_cif.got.tgz:42059.got - 2010.03.31 09:47:26.
