data_PCOD8050012
_publ_section_title
;
Structure prediction by ZEFSAII (Michael W. Deem and Ramdas Pophale) SiO2 
 PCOD8050012
Probable space group: C 2
;
_chemical_formula_sum "Si O2"
_cell_formula_units_Z 32
_cell_length_a 16.945781
_cell_length_b 11.380367
_cell_length_c 13.954924
_cell_angle_alpha 90.000000
_cell_angle_beta 148.339814
_cell_angle_gamma 90.000000
_cell_volume 1412.555799
_symmetry_space_group_name_H-M "C 2"
_symmetry_group_IT_number 5
_symmetry_cell_setting 'monoclinic'
loop_
_space_group_symop_operation_xyz
x,y,z
-x,y,-z
1/2+x,1/2+y,z
1/2-x,1/2+y,-z
loop_
_atom_site_type_symbol
_atom_site_label
_atom_site_fract_x
_atom_site_fract_y
_atom_site_fract_z
Si Si1 0.638602 0.395390 0.578728
Si Si2 0.333646 0.184488 0.529207
Si Si3 0.444096 0.987117 0.195216
Si Si4 0.616415 0.521136 0.200523
Si Si5 0.389102 0.811132 0.972127
Si Si6 0.112082 0.372076 0.538539
Si Si7 0.378958 0.580865 0.092117
Si Si8 0.880136 0.135818 0.522689
O O1 0.500000 0.432417 0.500000
O O2 0.609933 0.305844 0.460336
O O3 0.700541 0.516124 0.595495
O O4 0.737317 0.341466 0.763613
O O5 0.475742 0.114522 0.720481
O O6 0.246117 0.117609 0.353140
O O7 0.213786 0.200710 0.489922
O O8 0.445217 0.923029 0.093099
O O9 0.541941 0.902696 0.363329
O O10 0.273859 0.007098 0.056622
O O11 0.713002 0.408497 0.268264
O O12 0.511588 0.497446 0.184839
O O13 0.500000 0.563695 0.000000
O O14 0.361192 0.697716 0.009655
O O15 0.500000 0.782220 0.000000
O O16 0.114003 0.231561 0.555504
O O17 0.000000 0.431083 0.500000
O O18 0.446513 0.612989 0.265765
#
# Coordination Sequence:
#
# PCOD8050012 Si02
#       8
#     4   4   4   4   4   4   4   4
#     4  12  25  42  69 102 134 176 235 286 338 409
#     4  10  24  40  71  96 137 175 230 283 347 411
#     4  11  24  44  68 106 137 179 229 300 350 414
#     4  10  21  39  65  99 127 174 225 285 341 416
#     4  12  24  43  72 102 138 181 233 284 350 418
#     4  11  24  43  67  96 140 185 229 283 356 423
#     4  11  22  41  70  98 137 176 234 286 353 414
#     4  11  24  44  66  95 137 185 225 277 355 419
#
# _framework density 22.653974000000002
#
# number of rings (size 3 to 8) (size 9 to 14) (size 15 to 20)
#    0.000    1.000    1.250    6.000    5.250    3.000 
#    0.000    1.875    0.000    0.000    0.000    0.000 
#    0.000    0.000    0.000    0.000    0.000    0.000 
#
# Total GULP energy -198267.534800 kJ/mol
# GULP energy per Si atom -12391.720925 kJ/mol
# Density = 2.260241 g / cm^3
# Si number density = 22.653974 Si / 1000 Ang^3
#
#
#
# Elastic Constant Matrix: (Units=GPa)
#
#
# Indices 1 2 3 4 5 6 
#
# 1 77.5903 41.1334 35.5677 0.0000 0.6279 0.0000
# 2 41.1334 112.6978 22.4124 0.0000 3.5901 0.0000
# 3 35.5677 22.4124 80.0130 0.0000 16.4327 0.0000
# 4 0.0000 0.0000 0.0000 24.1623 0.0000 -3.3496
# 5 0.6279 3.5901 16.4327 0.0000 34.0259 0.0000
# 6 0.0000 0.0000 0.0000 -3.3496 0.0000 33.0588
#
#
#
# Elastic Compliance Matrix: (Units=1/GPa)
#
#
# Indices 1 2 3 4 5 6 
#
# 1 0.019485 -0.005669 -0.007907 0.000000 0.004057 0.000000
# 2 -0.005669 0.011049 -0.000396 0.000000 -0.000870 0.000000
# 3 -0.007907 -0.000396 0.017856 0.000000 -0.008436 0.000000
# 4 0.000000 0.000000 0.000000 0.041976 0.000000 0.004253
# 5 0.004057 -0.000870 -0.008436 0.000000 0.033480 0.000000
# 6 0.000000 0.000000 0.000000 0.004253 0.000000 0.030680
#
#
# Mechanical properties :
#
#
# Convention : Reuss Voigt Hill
#
# Bulk Modulus (GPa) = 48.90878 52.05868 50.48373
# Shear Modulus (GPa) = 26.41495 29.66189 28.03842
#
# Velocity S-wave (km/s) = 3.41841 3.62241 3.52189
# Velocity P-wave (km/s) = 6.10058 6.36598 6.23469
#
# Compressibility (1/GPa) = 0.02044623
#
# Stress axis : x y z
#
# Youngs Moduli (GPa) = 51.32122 90.50744 56.00232
#
# Poissons Ratio (x) = 0.51305 0.44281
# Poissons Ratio (y) = 0.29092 0.02220
# Poissons Ratio (z) = 0.40580 0.03588
#
# Static dielectric constant tensor:
#      x y z
#    x 4.058820 0.000000 -0.076350 
#    y 0.000000 4.033290 0.000000 
#    z -0.076350 0.000000 4.117300 
# 
# 
# High freq. dielectric constant tensor:
#      x y z
#    x 1.896130 0.000000 0.001540 
#    y 0.000000 1.888790 0.000000 
#    z 0.001540 0.000000 1.894130 
# 
# From -- ./inp_files/56026.got.cif
#   From: 2010.03.12/outbox.cif.g09.slc.cpg/sg5_29_cif.got.tgz:56026.got - 2010.03.31 09:47:26.
