data_PCOD8050201
_publ_section_title
;
Structure prediction by ZEFSAII (Michael W. Deem and Ramdas Pophale) SiO2 
 PCOD8050201
Probable space group: C 2
;
_chemical_formula_sum "Si O2"
_cell_formula_units_Z 30
_cell_length_a 18.763866
_cell_length_b 10.591588
_cell_length_c 7.013996
_cell_angle_alpha 90.000000
_cell_angle_beta 103.139283
_cell_angle_gamma 90.000000
_cell_volume 1357.462240
_symmetry_space_group_name_H-M "C 2"
_symmetry_group_IT_number 5
_symmetry_cell_setting 'monoclinic'
loop_
_space_group_symop_operation_xyz
x,y,z
-x,y,-z
1/2+x,1/2+y,z
1/2-x,1/2+y,-z
loop_
_atom_site_type_symbol
_atom_site_label
_atom_site_fract_x
_atom_site_fract_y
_atom_site_fract_z
Si Si1 0.100252 0.145540 0.362780
Si Si2 0.876601 0.732420 0.917054
Si Si3 0.565377 0.973226 0.902606
Si Si4 0.810430 0.851565 0.223398
Si Si5 0.000000 0.351200 0.500000
Si Si6 0.836372 0.250099 0.956104
Si Si7 0.778057 0.128021 0.274761
Si Si8 0.433393 0.363492 0.592102
O O1 0.110232 0.167486 0.143578
O O2 0.182326 0.140536 0.498012
O O3 0.055710 0.262470 0.420252
O O4 0.058314 0.013566 0.367781
O O5 0.801425 0.691611 0.767173
O O6 0.932106 0.787562 0.791359
O O7 0.914605 0.619434 0.056101
O O8 0.859687 0.841153 0.061789
O O9 0.542919 0.944057 0.670509
O O10 0.500000 0.933016 0.000000
O O11 0.635405 0.892545 0.006677
O O12 0.746245 0.747519 0.177904
O O13 0.858269 0.830681 0.439969
O O14 0.769611 0.984618 0.204139
O O15 0.835681 0.191281 0.164899
O O16 0.500000 0.317137 0.500000
#
# Coordination Sequence:
#
# PCOD8050201 Si02
#       8
#     4   4   4   4   2   4   4   4
#     4  11  22  41  68 101 135 173 231 289 339 404
#     4  11  25  45  66  99 139 183 227 276 349 423
#     4  12  26  43  67  98 139 181 229 284 347 418
#     4  10  23  43  66  99 131 181 229 283 343 406
#     4  12  24  44  66 106 136 182 238 292 348 406
#     4  11  21  41  66  98 132 176 226 285 343 409
#     4  10  21  41  71  96 135 171 232 284 340 410
#     4  11  25  43  67  99 138 180 229 283 344 414
#
# _framework density 22.100062999999999
#
# number of rings (size 3 to 8) (size 9 to 14) (size 15 to 20)
#    0.000    1.067    4.667    1.600    1.867    1.067 
#    0.000    1.333    0.000    0.000    0.000    0.000 
#    0.000    0.000    0.000    0.000    0.000    0.000 
#
# Total GULP energy -186016.669246 kJ/mol
# GULP energy per Si atom -12401.111283 kJ/mol
# Density = 2.204976 g / cm^3
# Si number density = 22.100063 Si / 1000 Ang^3
#
#
#
# Elastic Constant Matrix: (Units=GPa)
#
#
# Indices 1 2 3 4 5 6 
#
# 1 71.6785 14.3356 35.4541 0.0000 -6.5486 0.0000
# 2 14.3356 61.0767 47.4799 0.0000 8.9709 0.0000
# 3 35.4541 47.4799 98.0053 0.0000 -16.6860 0.0000
# 4 0.0000 0.0000 0.0000 30.9594 0.0000 -3.6959
# 5 -6.5486 8.9709 -16.6860 0.0000 37.5893 0.0000
# 6 0.0000 0.0000 0.0000 -3.6959 0.0000 28.0449
#
#
#
# Elastic Compliance Matrix: (Units=1/GPa)
#
#
# Indices 1 2 3 4 5 6 
#
# 1 0.017059 0.001487 -0.006973 0.000000 -0.000478 0.000000
# 2 0.001487 0.033795 -0.019731 0.000000 -0.016565 0.000000
# 3 -0.006973 -0.019731 0.024750 0.000000 0.014481 0.000000
# 4 0.000000 0.000000 0.000000 0.032817 0.000000 0.004325
# 5 -0.000478 -0.016565 0.014481 0.000000 0.036901 0.000000
# 6 0.000000 0.000000 0.000000 0.004325 0.000000 0.036227
#
#
# Mechanical properties :
#
#
# Convention : Reuss Voigt Hill
#
# Bulk Modulus (GPa) = 39.72823 47.25553 43.49188
# Shear Modulus (GPa) = 20.80098 28.21812 24.50955
#
# Velocity S-wave (km/s) = 3.07126 3.57716 3.33382
# Velocity P-wave (km/s) = 5.53104 6.20406 5.87719
#
# Compressibility (1/GPa) = 0.02517102
#
# Stress axis : x y z
#
# Youngs Moduli (GPa) = 58.61948 29.59009 40.40360
#
# Poissons Ratio (x) = -0.04400 0.28174
# Poissons Ratio (y) = -0.08716 0.79719
# Poissons Ratio (z) = 0.40876 0.58383
#
# Static dielectric constant tensor:
#      x y z
#    x 3.907540 0.000000 -0.010270 
#    y 0.000000 3.818010 0.000000 
#    z -0.010270 0.000000 3.928840 
# 
# 
# High freq. dielectric constant tensor:
#      x y z
#    x 1.874790 0.000000 0.001160 
#    y 0.000000 1.863100 0.000000 
#    z 0.001160 0.000000 1.872520 
# 
# From -- ./inp_files/9587.got.cif
#   From: 2010.03.12/outbox.cif.g09.slc.cpg/sg5_5_cif.got.tgz:9587.got - 2010.03.31 09:47:26.
