data_PCOD8050662
_publ_section_title
;
Structure prediction by ZEFSAII (Michael W. Deem and Ramdas Pophale) SiO2 
 PCOD8050662
Probable space group: C 2
;
_chemical_formula_sum "Si O2"
_cell_formula_units_Z 32
_cell_length_a 30.238331
_cell_length_b 9.269714
_cell_length_c 5.398646
_cell_angle_alpha 90.000000
_cell_angle_beta 94.335889
_cell_angle_gamma 90.000000
_cell_volume 1508.913200
_symmetry_space_group_name_H-M "C 2"
_symmetry_group_IT_number 5
_symmetry_cell_setting 'monoclinic'
loop_
_space_group_symop_operation_xyz
x,y,z
-x,y,-z
1/2+x,1/2+y,z
1/2-x,1/2+y,-z
loop_
_atom_site_type_symbol
_atom_site_label
_atom_site_fract_x
_atom_site_fract_y
_atom_site_fract_z
Si Si1 0.472815 0.625000 0.238208
Si Si2 0.114830 0.623654 0.849842
Si Si3 0.815592 0.363912 0.549812
Si Si4 0.264625 0.352923 0.805622
Si Si5 0.704634 0.656142 0.068325
Si Si6 0.663987 0.162620 0.348845
Si Si7 0.526288 0.291182 0.761366
Si Si8 0.618101 0.798437 0.796096
O O1 0.500000 0.663374 0.500000
O O2 0.459173 0.457930 0.230368
O O3 0.427526 0.713329 0.220234
O O4 0.500000 0.664598 0.000000
O O5 0.143638 0.653805 0.615003
O O6 0.067353 0.685815 0.767170
O O7 0.111074 0.454332 0.919473
O O8 0.132345 0.706657 0.103898
O O9 0.780842 0.414427 0.326128
O O10 0.797120 0.215198 0.653122
O O11 0.817892 0.503838 0.727454
O O12 0.865433 0.330848 0.475515
O O13 0.290549 0.484393 0.948098
O O14 0.297521 0.282115 0.618483
O O15 0.249659 0.226741 0.983767
O O16 0.657919 0.705033 0.931203
O O17 0.500000 0.256426 0.500000
O O18 0.500000 0.253788 0.000000
#
# Coordination Sequence:
#
# PCOD8050662 Si02
#       8
#     4   4   4   4   4   4   4   4
#     4  10  24  42  67  95 134 169 216 270 327 399
#     4  11  24  42  67  94 133 166 217 274 324 394
#     4  10  22  42  62  90 134 168 227 273 325 383
#     4  11  25  38  65  92 128 183 219 275 328 391
#     4  11  23  42  64  93 133 171 228 274 328 396
#     4  11  24  42  62  96 128 171 215 270 326 382
#     4  10  22  43  66  95 128 168 213 269 329 396
#     4  10  24  41  63  99 128 174 215 279 325 391
#
# _framework density 21.207318000000001
#
# number of rings (size 3 to 8) (size 9 to 14) (size 15 to 20)
#    0.000    1.500    1.250    2.250    8.750    3.000 
#    0.000    0.000    0.000    0.000    0.000    0.000 
#    0.000    0.000    0.000    0.000    0.000    0.000 
#
# Total GULP energy -198259.201256 kJ/mol
# GULP energy per Si atom -12391.200079 kJ/mol
# Density = 2.115905 g / cm^3
# Si number density = 21.207318 Si / 1000 Ang^3
#
#
#
# Elastic Constant Matrix: (Units=GPa)
#
#
# Indices 1 2 3 4 5 6 
#
# 1 135.1330 75.4644 41.2537 0.0000 -3.3211 0.0000
# 2 75.4644 117.7671 31.3358 0.0000 -9.6085 0.0000
# 3 41.2537 31.3358 109.0193 0.0000 0.1596 0.0000
# 4 0.0000 0.0000 0.0000 33.8546 0.0000 1.5343
# 5 -3.3211 -9.6085 0.1596 0.0000 25.5768 0.0000
# 6 0.0000 0.0000 0.0000 1.5343 0.0000 43.9364
#
#
#
# Elastic Compliance Matrix: (Units=1/GPa)
#
#
# Indices 1 2 3 4 5 6 
#
# 1 0.012178 -0.007221 -0.002531 0.000000 -0.001116 0.000000
# 2 -0.007221 0.013795 -0.001239 0.000000 0.004253 0.000000
# 3 -0.002531 -0.001239 0.010488 0.000000 -0.000859 0.000000
# 4 0.000000 0.000000 0.000000 0.029585 0.000000 -0.001033
# 5 -0.001116 0.004253 -0.000859 0.000000 0.040556 0.000000
# 6 0.000000 0.000000 0.000000 -0.001033 0.000000 0.022796
#
#
# Mechanical properties :
#
#
# Convention : Reuss Voigt Hill
#
# Bulk Modulus (GPa) = 69.06605 73.11415 71.09010
# Shear Modulus (GPa) = 32.00889 34.93126 33.47007
#
# Velocity S-wave (km/s) = 3.88923 4.06289 3.97701
# Velocity P-wave (km/s) = 7.26677 7.52065 7.39480
#
# Compressibility (1/GPa) = 0.01447889
#
# Stress axis : x y z
#
# Youngs Moduli (GPa) = 82.11538 72.48889 95.34894
#
# Poissons Ratio (x) = 0.52345 0.24133
# Poissons Ratio (y) = 0.59297 0.11813
# Poissons Ratio (z) = 0.20783 0.08981
#
# Static dielectric constant tensor:
#      x y z
#    x 3.715690 0.000000 -0.073380 
#    y 0.000000 3.804340 0.000000 
#    z -0.073380 0.000000 3.857950 
# 
# 
# High freq. dielectric constant tensor:
#      x y z
#    x 1.832320 0.000000 -0.001910 
#    y 0.000000 1.832220 0.000000 
#    z -0.001910 0.000000 1.836970 
# 
# From -- ./inp_files/11239.got.cif
#   From: 2010.03.12/outbox.cif.g09.slc.cpg/sg5_6_cif.got.tgz:11239.got - 2010.03.31 09:47:26.
