data_PCOD8050937
_publ_section_title
;
Structure prediction by ZEFSAII (Michael W. Deem and Ramdas Pophale) SiO2 
 PCOD8050937
Probable space group: C 2
;
_chemical_formula_sum "Si O2"
_cell_formula_units_Z 22
_cell_length_a 12.019370
_cell_length_b 8.508743
_cell_length_c 12.072045
_cell_angle_alpha 90.000000
_cell_angle_beta 126.156125
_cell_angle_gamma 90.000000
_cell_volume 996.835140
_symmetry_space_group_name_H-M "C 2"
_symmetry_group_IT_number 5
_symmetry_cell_setting 'monoclinic'
loop_
_space_group_symop_operation_xyz
x,y,z
-x,y,-z
1/2+x,1/2+y,z
1/2-x,1/2+y,-z
loop_
_atom_site_type_symbol
_atom_site_label
_atom_site_fract_x
_atom_site_fract_y
_atom_site_fract_z
Si Si1 0.480440 0.072200 0.660784
Si Si2 0.312836 0.214619 0.376791
Si Si3 0.000000 0.997091 0.500000
Si Si4 0.601995 0.731307 0.735542
Si Si5 0.085997 0.748200 0.156300
Si Si6 0.523287 0.607618 0.139588
O O1 0.354411 0.097608 0.501239
O O2 0.612738 0.167882 0.694433
O O3 0.440587 0.128945 0.759668
O O4 0.515976 0.890350 0.682361
O O5 0.362647 0.390766 0.437051
O O6 0.151039 0.206319 0.263374
O O7 0.015258 0.104792 0.615988
O O8 0.753700 0.755116 0.778537
O O9 0.607724 0.664680 0.864966
O O10 0.040143 0.922002 0.163723
O O11 0.000000 0.688072 0.000000
O O12 0.500000 0.656807 0.000000
#
# Coordination Sequence:
#
# PCOD8050937 Si02
#       6
#     4   4   2   4   4   4
#     4  10  23  45  71 100 140 181 234 288 346 408
#     4  10  22  46  72 100 140 187 228 298 341 405
#     4  10  24  44  70 106 138 180 240 286 346 410
#     4  12  26  43  72 106 135 186 238 283 350 423
#     4  11  27  47  72 102 144 186 227 291 350 419
#     4  11  26  46  70 103 144 185 231 288 347 422
#
# _framework density 22.069848
#
# number of rings (size 3 to 8) (size 9 to 14) (size 15 to 20)
#    0.000    1.455    1.818    3.273    7.636    0.727 
#    0.000    0.000    0.000    0.000    0.000    0.000 
#    0.000    0.000    0.000    0.000    0.000    0.000 
#
# Total GULP energy -136428.209934 kJ/mol
# GULP energy per Si atom -12402.564539 kJ/mol
# Density = 2.201962 g / cm^3
# Si number density = 22.069848 Si / 1000 Ang^3
#
#
#
# Elastic Constant Matrix: (Units=GPa)
#
#
# Indices 1 2 3 4 5 6 
#
# 1 86.6511 48.7115 55.1041 0.0000 -19.1831 0.0000
# 2 48.7115 144.4828 66.2988 0.0000 -11.1857 0.0000
# 3 55.1041 66.2988 137.4351 0.0000 -18.1572 0.0000
# 4 0.0000 0.0000 0.0000 27.6881 0.0000 -10.3488
# 5 -19.1831 -11.1857 -18.1572 0.0000 38.9105 0.0000
# 6 0.0000 0.0000 0.0000 -10.3488 0.0000 32.8714
#
#
#
# Elastic Compliance Matrix: (Units=1/GPa)
#
#
# Indices 1 2 3 4 5 6 
#
# 1 0.017660 -0.003354 -0.004731 0.000000 0.005534 0.000000
# 2 -0.003354 0.009539 -0.003317 0.000000 -0.000460 0.000000
# 3 -0.004731 -0.003317 0.011019 0.000000 0.001855 0.000000
# 4 0.000000 0.000000 0.000000 0.040933 0.000000 0.012887
# 5 0.005534 -0.000460 0.001855 0.000000 0.029162 0.000000
# 6 0.000000 0.000000 0.000000 0.012887 0.000000 0.034479
#
#
# Mechanical properties :
#
#
# Convention : Reuss Voigt Hill
#
# Bulk Modulus (GPa) = 64.88733 78.75533 71.82133
# Shear Modulus (GPa) = 29.28504 33.12429 31.20466
#
# Velocity S-wave (km/s) = 3.64665 3.87833 3.76427
# Velocity P-wave (km/s) = 6.86990 7.47110 7.17679
#
# Compressibility (1/GPa) = 0.01541133
#
# Stress axis : x y z
#
# Youngs Moduli (GPa) = 56.62381 104.83496 90.75541
#
# Poissons Ratio (x) = 0.35167 0.42941
# Poissons Ratio (y) = 0.18994 0.30106
# Poissons Ratio (z) = 0.26791 0.34777
#
# Static dielectric constant tensor:
#      x y z
#    x 3.995170 0.000000 -0.160920 
#    y 0.000000 4.027040 0.000000 
#    z -0.160920 0.000000 4.044810 
# 
# 
# High freq. dielectric constant tensor:
#      x y z
#    x 1.872210 0.000000 -0.013430 
#    y 0.000000 1.877570 0.000000 
#    z -0.013430 0.000000 1.868450 
# 
# From -- ./inp_files/38133.got.cif
#   From: 2010.03.12/outbox.cif.g09.slc.cpg/sg5_20_cif.got.tgz:38133.got - 2010.03.31 09:47:26.
