data_PCOD8050805
_publ_section_title
;
Structure prediction by ZEFSAII (Michael W. Deem and Ramdas Pophale) SiO2 
 PCOD8050805
Probable space group: C 2
;
_chemical_formula_sum "Si O2"
_cell_formula_units_Z 26
_cell_length_a 13.588163
_cell_length_b 14.630406
_cell_length_c 7.938004
_cell_angle_alpha 90.000000
_cell_angle_beta 137.008623
_cell_angle_gamma 90.000000
_cell_volume 1076.072835
_symmetry_space_group_name_H-M "C 2"
_symmetry_group_IT_number 5
_symmetry_cell_setting 'monoclinic'
loop_
_space_group_symop_operation_xyz
x,y,z
-x,y,-z
1/2+x,1/2+y,z
1/2-x,1/2+y,-z
loop_
_atom_site_type_symbol
_atom_site_label
_atom_site_fract_x
_atom_site_fract_y
_atom_site_fract_z
Si Si1 0.500000 0.940310 0.500000
Si Si2 0.222321 0.147109 0.959462
Si Si3 0.812328 0.697164 0.439646
Si Si4 0.521348 0.058238 0.836251
Si Si5 0.211251 0.834224 0.123032
Si Si6 0.435021 0.580263 0.738719
Si Si7 0.598175 0.379986 0.346228
O O1 0.358245 0.886875 0.265894
O O2 0.448649 0.994188 0.603702
O O3 0.245596 0.231580 0.866396
O O4 0.055369 0.119754 0.763977
O O5 0.296865 0.158900 0.233704
O O6 0.306770 0.063132 0.978726
O O7 0.952832 0.659063 0.714973
O O8 0.676174 0.663279 0.379765
O O9 0.823953 0.807594 0.430842
O O10 0.500000 0.022664 0.000000
O O11 0.160493 0.841635 0.250255
O O12 0.075438 0.872637 0.846185
O O13 0.361323 0.487057 0.572707
O O14 0.500000 0.549484 0.000000
#
# Coordination Sequence:
#
# PCOD8050805 Si02
#       7
#     2   4   4   4   4   4   4
#     4  12  26  48  74 104 148 188 244 324 370 422
#     4  11  23  45  72 105 149 192 246 309 372 437
#     4  11  23  43  75 106 147 198 244 306 374 437
#     4  12  24  45  75 106 141 192 250 299 372 452
#     4  11  24  42  72 102 141 191 244 299 375 436
#     4  10  22  43  72 103 141 198 250 306 366 442
#     4  11  22  43  73 100 146 199 250 299 375 451
#
# _framework density 24.161933999999999
#
# number of rings (size 3 to 8) (size 9 to 14) (size 15 to 20)
#    0.000    0.923    4.615    2.769    2.154    0.000 
#    5.538    0.000   13.538    0.000    0.000    0.000 
#    0.000    0.000    0.000    0.000    0.000    0.000 
#
# Total GULP energy -161125.959252 kJ/mol
# GULP energy per Si atom -12394.304558 kJ/mol
# Density = 2.410694 g / cm^3
# Si number density = 24.161934 Si / 1000 Ang^3
#
#
#
# Elastic Constant Matrix: (Units=GPa)
#
#
# Indices 1 2 3 4 5 6 
#
# 1 144.2097 31.5775 50.3961 0.0000 20.1867 0.0000
# 2 31.5775 96.8416 43.7558 0.0000 14.0730 0.0000
# 3 50.3961 43.7558 63.7703 0.0000 5.1501 0.0000
# 4 0.0000 0.0000 0.0000 33.7546 0.0000 5.0945
# 5 20.1867 14.0730 5.1501 0.0000 43.0272 0.0000
# 6 0.0000 0.0000 0.0000 5.0945 0.0000 34.8400
#
#
#
# Elastic Compliance Matrix: (Units=1/GPa)
#
#
# Indices 1 2 3 4 5 6 
#
# 1 0.010254 0.001116 -0.008533 0.000000 -0.004154 0.000000
# 2 0.001116 0.015695 -0.011303 0.000000 -0.004304 0.000000
# 3 -0.008533 -0.011303 0.029847 0.000000 0.004128 0.000000
# 4 0.000000 0.000000 0.000000 0.030294 0.000000 -0.004430
# 5 -0.004154 -0.004304 0.004128 0.000000 0.026104 0.000000
# 6 0.000000 0.000000 0.000000 -0.004430 0.000000 0.029350
#
#
# Mechanical properties :
#
#
# Convention : Reuss Voigt Hill
#
# Bulk Modulus (GPa) = 54.48305 61.80893 58.14599
# Shear Modulus (GPa) = 27.01192 34.26384 30.63788
#
# Velocity S-wave (km/s) = 3.34721 3.76984 3.56479
# Velocity P-wave (km/s) = 6.12670 6.67724 6.40789
#
# Compressibility (1/GPa) = 0.01835433
#
# Stress axis : x y z
#
# Youngs Moduli (GPa) = 97.52663 63.71511 33.50392
#
# Poissons Ratio (x) = -0.07110 0.28590
# Poissons Ratio (y) = -0.10882 0.37870
# Poissons Ratio (z) = 0.83223 0.72019
#
# Static dielectric constant tensor:
#      x y z
#    x 4.474560 0.000000 0.219560 
#    y 0.000000 4.325840 0.000000 
#    z 0.219560 0.000000 4.144140 
# 
# 
# High freq. dielectric constant tensor:
#      x y z
#    x 1.974170 0.000000 0.014600 
#    y 0.000000 1.951960 0.000000 
#    z 0.014600 0.000000 1.939080 
# 
# From -- ./inp_files/24840.got.cif
#   From: 2010.03.12/outbox.cif.g09.slc.cpg/sg5_13_cif.got.tgz:24840.got - 2010.03.31 09:47:26.
