data_PCOD8050777
_publ_section_title
;
Structure prediction by ZEFSAII (Michael W. Deem and Ramdas Pophale) SiO2 
 PCOD8050777
Probable space group: C 2
;
_chemical_formula_sum "Si O2"
_cell_formula_units_Z 32
_cell_length_a 13.266630
_cell_length_b 13.789614
_cell_length_c 18.865034
_cell_angle_alpha 90.000000
_cell_angle_beta 152.681500
_cell_angle_gamma 90.000000
_cell_volume 1583.882182
_symmetry_space_group_name_H-M "C 2"
_symmetry_group_IT_number 5
_symmetry_cell_setting 'monoclinic'
loop_
_space_group_symop_operation_xyz
x,y,z
-x,y,-z
1/2+x,1/2+y,z
1/2-x,1/2+y,-z
loop_
_atom_site_type_symbol
_atom_site_label
_atom_site_fract_x
_atom_site_fract_y
_atom_site_fract_z
Si Si1 0.798902 0.325950 0.822333
Si Si2 0.455900 0.524877 0.199503
Si Si3 0.259068 0.668180 0.333928
Si Si4 0.650547 0.341318 0.374409
Si Si5 0.250003 0.173289 0.831348
Si Si6 0.552662 0.827180 0.307582
Si Si7 0.002616 0.475755 0.844937
Si Si8 0.259892 0.182734 0.335646
O O1 0.582015 0.339005 0.732162
O O2 0.767431 0.228317 0.758495
O O3 0.842503 0.419268 0.799249
O O4 0.000000 0.309825 0.000000
O O5 0.639360 0.442181 0.325129
O O6 0.387459 0.577354 0.231116
O O7 0.571817 0.602273 0.221295
O O8 0.244899 0.480414 0.028748
O O9 0.500000 0.625909 0.500000
O O10 0.186027 0.751943 0.342820
O O11 0.280122 0.707850 0.267732
O O12 0.082324 0.582912 0.224475
O O13 0.850955 0.348492 0.554573
O O14 0.171447 0.264727 0.828605
O O15 0.500000 0.146095 0.000000
O O16 0.490067 0.924141 0.226788
O O17 0.735195 0.766116 0.379583
O O18 0.500000 0.137198 0.500000
#
# Coordination Sequence:
#
# PCOD8050777 Si02
#       8
#     4   4   4   4   4   4   4   4
#     4  11  23  41  68  94 129 167 216 266 328 385
#     4  11  25  41  68  97 131 169 220 264 327 389
#     4  12  27  42  65  96 135 173 226 267 327 389
#     4  12  25  42  64  96 132 173 219 269 320 389
#     4  11  23  45  69  94 132 177 212 273 330 392
#     4  10  24  43  67  96 131 167 221 269 328 387
#     4  11  25  41  68 101 127 169 219 275 325 392
#     4  10  22  43  66  95 129 172 209 266 328 391
#
# _framework density 20.203523000000001
#
# number of rings (size 3 to 8) (size 9 to 14) (size 15 to 20)
#    0.000    1.000    5.000    0.750    7.000    0.500 
#    0.000    0.000    0.000    0.000    0.000    0.000 
#    0.000    0.000    0.000    0.000    0.000    0.000 
#
# Total GULP energy -198381.160015 kJ/mol
# GULP energy per Si atom -12398.822501 kJ/mol
# Density = 2.015754 g / cm^3
# Si number density = 20.203523 Si / 1000 Ang^3
#
#
#
# Elastic Constant Matrix: (Units=GPa)
#
#
# Indices 1 2 3 4 5 6 
#
# 1 77.5600 39.9442 26.8835 -0.0162 -14.8347 -0.0716
# 2 39.9442 96.7968 36.8384 -0.0463 -5.9233 -0.3302
# 3 26.8835 36.8384 81.4068 -0.0232 -10.8188 -0.1566
# 4 -0.0162 -0.0463 -0.0232 84.6309 0.0150 -41.3223
# 5 -14.8347 -5.9233 -10.8188 0.0150 35.9012 -0.0099
# 6 -0.0716 -0.3302 -0.1566 -41.3223 -0.0099 -148.7107
#
#
#
# Elastic Compliance Matrix: (Units=1/GPa)
#
#
# Indices 1 2 3 4 5 6 
#
# 1 0.017986 -0.006162 -0.002394 0.000002 0.005694 0.000007
# 2 -0.006162 0.014596 -0.004780 -0.000005 -0.001579 -0.000023
# 3 -0.002394 -0.004780 0.015627 -0.000001 0.002931 -0.000004
# 4 0.000002 -0.000005 -0.000001 0.010404 -0.000006 -0.002891
# 5 0.005694 -0.001579 0.002931 -0.000006 0.030830 -0.000003
# 6 0.000007 -0.000023 -0.000004 -0.002891 -0.000003 -0.005921
#
#
# Mechanical properties :
#
#
# Convention : Reuss Voigt Hill
#
# Bulk Modulus (GPa) = 46.43346 51.45510 48.94428
# Shear Modulus (GPa) = 42.59863 4.50410 23.55136
#
# Velocity S-wave (km/s) = 4.59680 1.49473 3.41795
# Velocity P-wave (km/s) = 7.15589 5.33878 6.31306
#
# Compressibility (1/GPa) = 0.02153619
#
# Stress axis : x y z
#
# Youngs Moduli (GPa) = 55.59921 68.51023 63.99079
#
# Poissons Ratio (x) = 0.42219 0.15321
# Poissons Ratio (y) = 0.34263 0.30587
# Poissons Ratio (z) = 0.13312 0.32748
#
# Static dielectric constant tensor:
#      x y z
#    x 4.759120 -0.000140 -1.522320 
#    y -0.000140 3.676850 0.000020 
#    z -1.522320 0.000020 4.497000 
# 
# 
# High freq. dielectric constant tensor:
#      x y z
#    x 1.792630 0.000000 -0.001140 
#    y 0.000000 1.785830 0.000000 
#    z -0.001140 0.000000 1.796160 
# 
# From -- ./inp_files/60718.got.cif
#   From: 2010.03.12/outbox.cif.g09.slc.cpg/sg5_31_cif.got.tgz:60718.got - 2010.03.31 09:47:26.
