data_PCOD8050607
_publ_section_title
;
Structure prediction by ZEFSAII (Michael W. Deem and Ramdas Pophale) SiO2 
 PCOD8050607
Probable space group: C 2
;
_chemical_formula_sum "Si O2"
_cell_formula_units_Z 20
_cell_length_a 25.015927
_cell_length_b 5.011434
_cell_length_c 15.833699
_cell_angle_alpha 90.000000
_cell_angle_beta 154.497939
_cell_angle_gamma 90.000000
_cell_volume 854.629937
_symmetry_space_group_name_H-M "C 2"
_symmetry_group_IT_number 5
_symmetry_cell_setting 'monoclinic'
loop_
_space_group_symop_operation_xyz
x,y,z
-x,y,-z
1/2+x,1/2+y,z
1/2-x,1/2+y,-z
loop_
_atom_site_type_symbol
_atom_site_label
_atom_site_fract_x
_atom_site_fract_y
_atom_site_fract_z
Si Si1 0.500000 0.737330 0.000000
Si Si2 0.735243 0.974578 0.422940
Si Si3 0.671878 0.504859 0.114254
Si Si4 0.000000 0.837811 0.500000
Si Si5 0.237448 0.641920 0.926154
Si Si6 0.320005 0.505139 0.372462
O O1 0.545294 0.550593 0.986638
O O2 0.607641 0.924449 0.190618
O O3 0.715221 0.215151 0.458597
O O4 0.838121 0.058469 0.498690
O O5 0.656982 0.566111 0.992693
O O6 0.715534 0.200391 0.185669
O O7 0.775590 0.699409 0.301279
O O8 0.894471 0.650147 0.309742
O O9 0.946361 0.030214 0.498133
O O10 0.229941 0.430427 0.990457
#
# Coordination Sequence:
#
# PCOD8050607 Si02
#       6
#     2   4   4   2   4   4
#     4  10  24  44  68  90 134 176 202 270 328 358
#     4  11  24  41  65  98 129 166 219 261 312 388
#     4  10  22  41  65  94 127 167 215 259 314 385
#     4  10  24  44  68  90 134 176 202 270 328 358
#     4  11  24  41  65  98 129 166 219 261 312 388
#     4  10  22  41  65  94 127 167 215 259 314 385
#
# _framework density 23.401941000000001
#
# number of rings (size 3 to 8) (size 9 to 14) (size 15 to 20)
#    0.000    1.600    0.000    4.800    0.000   17.600 
#    0.000    0.000    0.000    0.000    0.000    0.000 
#    0.000    0.000    0.000    0.000    0.000    0.000 
#
# Total GULP energy -123981.625236 kJ/mol
# GULP energy per Si atom -12398.162524 kJ/mol
# Density = 2.334868 g / cm^3
# Si number density = 23.401941 Si / 1000 Ang^3
#
#
#
# Elastic Constant Matrix: (Units=GPa)
#
#
# Indices 1 2 3 4 5 6 
#
# 1 201.0119 42.2385 59.5906 -0.0005 3.9051 0.0000
# 2 42.2385 89.5197 20.5572 0.0008 -5.0591 0.0001
# 3 59.5906 20.5572 71.6754 0.0003 -11.5436 0.0001
# 4 -0.0005 0.0008 0.0003 30.9995 0.0000 -18.6995
# 5 3.9051 -5.0591 -11.5436 0.0000 36.1252 -0.0001
# 6 0.0000 0.0001 0.0001 -18.6995 -0.0001 32.8921
#
#
#
# Elastic Compliance Matrix: (Units=1/GPa)
#
#
# Indices 1 2 3 4 5 6 
#
# 1 0.007238 -0.002239 -0.005853 0.000000 -0.002966 0.000000
# 2 -0.002239 0.012663 -0.001525 -0.000001 0.001528 0.000000
# 3 -0.005853 -0.001525 0.020372 0.000000 0.006929 0.000000
# 4 0.000000 -0.000001 0.000000 0.049095 0.000000 0.027911
# 5 -0.002966 0.001528 0.006929 0.000000 0.030430 0.000000
# 6 0.000000 0.000000 0.000000 0.027911 0.000000 0.046270
#
#
# Mechanical properties :
#
#
# Convention : Reuss Voigt Hill
#
# Bulk Modulus (GPa) = 47.52941 67.44218 57.48579
# Shear Modulus (GPa) = 25.99899 35.99142 30.99520
#
# Velocity S-wave (km/s) = 3.33675 3.92595 3.64328
# Velocity P-wave (km/s) = 5.93290 7.03082 6.50506
#
# Compressibility (1/GPa) = 0.02103960
#
# Stress axis : x y z
#
# Youngs Moduli (GPa) = 138.15723 78.96718 49.08815
#
# Poissons Ratio (x) = 0.17678 0.28733
# Poissons Ratio (y) = 0.30929 0.07484
# Poissons Ratio (z) = 0.80869 0.12040
#
# Static dielectric constant tensor:
#      x y z
#    x 5.288750 0.000000 -0.057700 
#    y 0.000000 4.211710 0.000000 
#    z -0.057700 0.000000 3.783980 
# 
# 
# High freq. dielectric constant tensor:
#      x y z
#    x 1.962860 0.000000 -0.011620 
#    y 0.000000 1.923380 0.000000 
#    z -0.011620 0.000000 1.886090 
# 
# From -- ./inp_files/57367.got.cif
#   From: 2010.03.12/outbox.cif.g09.slc.cpg/sg5_29_cif.got.tgz:57367.got - 2010.03.31 09:47:26.
