data_PCOD8050519
_publ_section_title
;
Structure prediction by ZEFSAII (Michael W. Deem and Ramdas Pophale) SiO2 
 PCOD8050519
Probable space group: C 2
;
_chemical_formula_sum "Si O2"
_cell_formula_units_Z 24
_cell_length_a 14.726445
_cell_length_b 15.197106
_cell_length_c 8.456857
_cell_angle_alpha 90.000000
_cell_angle_beta 37.860560
_cell_angle_gamma 90.000000
_cell_volume 1161.591861
_symmetry_space_group_name_H-M "C 2"
_symmetry_group_IT_number 5
_symmetry_cell_setting 'monoclinic'
loop_
_space_group_symop_operation_xyz
x,y,z
-x,y,-z
1/2+x,1/2+y,z
1/2-x,1/2+y,-z
loop_
_atom_site_type_symbol
_atom_site_label
_atom_site_fract_x
_atom_site_fract_y
_atom_site_fract_z
Si Si1 0.548872 0.482070 0.609488
Si Si2 0.935046 0.802163 0.258532
Si Si3 0.932822 0.155703 0.919721
Si Si4 0.113852 0.648893 0.465320
Si Si5 0.909941 0.318592 0.285366
Si Si6 0.130039 0.508850 0.705726
O O1 0.500000 0.458768 0.500000
O O2 0.503660 0.398423 0.779752
O O3 0.458139 0.567972 0.783962
O O4 0.725557 0.494193 0.383685
O O5 0.977811 0.730510 0.332555
O O6 0.759185 0.792765 0.497677
O O7 0.000000 0.775378 0.000000
O O8 0.010359 0.240455 0.723404
O O9 0.759550 0.177396 0.169443
O O10 0.000000 0.138383 0.000000
O O11 0.165928 0.581879 0.528406
O O12 0.000000 0.603428 0.500000
O O13 0.917941 0.420631 0.327291
O O14 0.000000 0.312809 0.000000
O O15 0.000000 0.540439 0.000000
#
# Coordination Sequence:
#
# PCOD8050519 Si02
#       6
#     4   4   4   4   4   4
#     4  11  24  40  67  98 127 173 221 269 323 392
#     4  11  22  40  68  98 129 165 222 273 328 384
#     4  11  20  43  67  88 129 177 219 258 332 391
#     4  12  25  41  64  97 134 171 217 276 324 382
#     4   9  18  39  68  87 118 175 213 256 324 386
#     4  10  22  40  64  92 130 167 216 269 326 382
#
# _framework density 20.661300000000001
#
# number of rings (size 3 to 8) (size 9 to 14) (size 15 to 20)
#    0.000    1.333    5.000    1.500    4.667    0.000 
#    0.000    0.833    0.000    0.000    0.000    0.000 
#    0.000    0.000    0.000    0.000    0.000    0.000 
#
# Total GULP energy -148707.558903 kJ/mol
# GULP energy per Si atom -12392.296575 kJ/mol
# Density = 2.061427 g / cm^3
# Si number density = 20.661300 Si / 1000 Ang^3
#
#
#
# Elastic Constant Matrix: (Units=GPa)
#
#
# Indices 1 2 3 4 5 6 
#
# 1 91.9523 20.5686 35.7906 0.0000 -13.0294 0.0000
# 2 20.5686 138.9290 34.6781 0.0000 0.2290 0.0000
# 3 35.7906 34.6781 102.7794 0.0001 -9.1164 0.0000
# 4 0.0000 0.0000 0.0001 36.7231 0.0000 1.1198
# 5 -13.0294 0.2290 -9.1164 0.0000 18.6167 0.0000
# 6 0.0000 0.0000 0.0000 1.1198 0.0000 17.0578
#
#
#
# Elastic Compliance Matrix: (Units=1/GPa)
#
#
# Indices 1 2 3 4 5 6 
#
# 1 0.013662 -0.001114 -0.003693 0.000000 0.007767 0.000000
# 2 -0.001114 0.007989 -0.002494 0.000000 -0.002099 0.000000
# 3 -0.003693 -0.002494 0.012159 0.000000 0.003400 0.000000
# 4 0.000000 0.000000 0.000000 0.027285 0.000000 -0.001791
# 5 0.007767 -0.002099 0.003400 0.000000 0.060842 0.000000
# 6 0.000000 0.000000 0.000000 -0.001791 0.000000 0.058742
#
#
# Mechanical properties :
#
#
# Convention : Reuss Voigt Hill
#
# Bulk Modulus (GPa) = 52.05939 57.30393 54.68166
# Shear Modulus (GPa) = 24.79143 30.65442 27.72292
#
# Velocity S-wave (km/s) = 3.46771 3.85601 3.66701
# Velocity P-wave (km/s) = 6.42531 6.90074 6.66727
#
# Compressibility (1/GPa) = 0.01920883
#
# Stress axis : x y z
#
# Youngs Moduli (GPa) = 73.19405 125.17622 82.24693
#
# Poissons Ratio (x) = 0.13942 0.30373
# Poissons Ratio (y) = 0.08152 0.20510
# Poissons Ratio (z) = 0.27030 0.31216
#
# Static dielectric constant tensor:
#      x y z
#    x 3.364240 0.000000 -0.149250 
#    y 0.000000 4.727260 0.000000 
#    z -0.149250 0.000000 3.623790 
# 
# 
# High freq. dielectric constant tensor:
#      x y z
#    x 1.769990 0.000000 -0.018450 
#    y 0.000000 1.831880 0.000000 
#    z -0.018450 0.000000 1.809840 
# 
# From -- ./inp_files/24498.got.cif
#   From: 2010.03.12/outbox.cif.g09.slc.cpg/sg5_13_cif.got.tgz:24498.got - 2010.03.31 09:47:26.
