data_PCOD8050870
_publ_section_title
;
Structure prediction by ZEFSAII (Michael W. Deem and Ramdas Pophale) SiO2 
 PCOD8050870
Probable space group: C 2
;
_chemical_formula_sum "Si O2"
_cell_formula_units_Z 28
_cell_length_a 19.126857
_cell_length_b 8.649599
_cell_length_c 14.936753
_cell_angle_alpha 90.000000
_cell_angle_beta 30.364658
_cell_angle_gamma 90.000000
_cell_volume 1249.160817
_symmetry_space_group_name_H-M "C 2"
_symmetry_group_IT_number 5
_symmetry_cell_setting 'monoclinic'
loop_
_space_group_symop_operation_xyz
x,y,z
-x,y,-z
1/2+x,1/2+y,z
1/2-x,1/2+y,-z
loop_
_atom_site_type_symbol
_atom_site_label
_atom_site_fract_x
_atom_site_fract_y
_atom_site_fract_z
Si Si1 0.681443 0.074200 0.143613
Si Si2 0.000000 0.056154 0.000000
Si Si3 0.340788 0.313860 0.268932
Si Si4 0.895008 0.281224 0.975530
Si Si5 0.028213 0.335826 0.634274
Si Si6 0.798328 0.573189 0.178507
Si Si7 0.620649 0.294761 0.054216
Si Si8 0.500000 0.612257 0.500000
O O1 0.739765 0.208092 0.144344
O O2 0.637654 0.149394 0.099305
O O3 0.541273 0.990347 0.331963
O O4 0.804665 0.948457 0.991625
O O5 0.989785 0.159928 0.922968
O O6 0.869130 0.942925 0.160458
O O7 0.190627 0.353744 0.475450
O O8 0.344597 0.136197 0.225815
O O9 0.457669 0.328493 0.216695
O O10 0.895867 0.439480 0.031707
O O11 0.950301 0.300284 0.813733
O O12 0.999452 0.206674 0.592868
O O13 0.639878 0.510822 0.350130
O O14 0.805982 0.735318 0.116822
#
# Coordination Sequence:
#
# PCOD8050870 Si02
#       8
#     4   2   4   4   4   4   4   2
#     4  12  22  42  71 101 139 184 234 291 360 421
#     4  12  26  46  70 102 146 188 232 298 362 430
#     4  11  25  46  74  99 141 193 240 288 366 431
#     4  12  26  44  72 106 144 184 243 298 358 427
#     4  11  25  43  73 106 140 187 241 296 349 431
#     4  11  21  43  72  99 136 190 234 292 355 430
#     4  12  21  42  71  99 134 189 233 286 358 429
#     4  10  22  44  72 104 142 184 242 292 358 424
#
# _framework density 22.415047000000001
#
# number of rings (size 3 to 8) (size 9 to 14) (size 15 to 20)
#    0.000    0.571    7.143    0.000    4.000    1.143 
#    2.571    0.000    0.000    0.000    0.000    0.000 
#    0.000    0.000    0.000    0.000    0.000    0.000 
#
# Total GULP energy -173447.184689 kJ/mol
# GULP energy per Si atom -12389.084621 kJ/mol
# Density = 2.236403 g / cm^3
# Si number density = 22.415047 Si / 1000 Ang^3
#
#
#
# Elastic Constant Matrix: (Units=GPa)
#
#
# Indices 1 2 3 4 5 6 
#
# 1 88.9110 37.1967 42.6361 0.0000 -16.0280 0.0000
# 2 37.1967 103.8959 46.0517 0.0001 -4.2422 -0.0001
# 3 42.6361 46.0517 97.3716 0.0001 -17.9295 0.0000
# 4 0.0000 0.0001 0.0001 21.8995 0.0000 -3.2091
# 5 -16.0280 -4.2422 -17.9295 0.0000 37.7620 0.0000
# 6 0.0000 -0.0001 0.0000 -3.2091 0.0000 47.0791
#
#
#
# Elastic Compliance Matrix: (Units=1/GPa)
#
#
# Indices 1 2 3 4 5 6 
#
# 1 0.015549 -0.003437 -0.004425 0.000000 0.004112 0.000000
# 2 -0.003437 0.013016 -0.005095 0.000000 -0.002416 0.000000
# 3 -0.004425 -0.005095 0.015524 0.000000 0.004920 0.000000
# 4 0.000000 0.000000 0.000000 0.046124 0.000000 0.003144
# 5 0.004112 -0.002416 0.004920 0.000000 0.030292 0.000000
# 6 0.000000 0.000000 0.000000 0.003144 0.000000 0.021455
#
#
# Mechanical properties :
#
#
# Convention : Reuss Voigt Hill
#
# Bulk Modulus (GPa) = 55.03167 60.21637 57.62402
# Shear Modulus (GPa) = 28.74691 32.30106 30.52399
#
# Velocity S-wave (km/s) = 3.58506 3.80023 3.69421
# Velocity P-wave (km/s) = 6.46076 6.79546 6.63022
#
# Compressibility (1/GPa) = 0.01817135
#
# Stress axis : x y z
#
# Youngs Moduli (GPa) = 64.31412 76.83129 64.41837
#
# Poissons Ratio (x) = 0.26409 0.28508
# Poissons Ratio (y) = 0.22106 0.32824
# Poissons Ratio (z) = 0.28462 0.39149
#
# Static dielectric constant tensor:
#      x y z
#    x 4.300740 0.000000 -0.228730 
#    y 0.000000 4.059080 0.000000 
#    z -0.228730 0.000000 3.952830 
# 
# 
# High freq. dielectric constant tensor:
#      x y z
#    x 1.901430 0.000000 -0.015880 
#    y 0.000000 1.881790 0.000000 
#    z -0.015880 0.000000 1.853800 
# 
# From -- ./inp_files/56904.got.cif
#   From: 2010.03.12/outbox.cif.g09.slc.cpg/sg5_29_cif.got.tgz:56904.got - 2010.03.31 09:47:26.
