data_PCOD8050645
_publ_section_title
;
Structure prediction by ZEFSAII (Michael W. Deem and Ramdas Pophale) SiO2 
 PCOD8050645
Probable space group: C 2
;
_chemical_formula_sum "Si O2"
_cell_formula_units_Z 32
_cell_length_a 28.230287
_cell_length_b 8.750062
_cell_length_c 10.803646
_cell_angle_alpha 90.000000
_cell_angle_beta 146.294671
_cell_angle_gamma 90.000000
_cell_volume 1480.909634
_symmetry_space_group_name_H-M "C 2"
_symmetry_group_IT_number 5
_symmetry_cell_setting 'monoclinic'
loop_
_space_group_symop_operation_xyz
x,y,z
-x,y,-z
1/2+x,1/2+y,z
1/2-x,1/2+y,-z
loop_
_atom_site_type_symbol
_atom_site_label
_atom_site_fract_x
_atom_site_fract_y
_atom_site_fract_z
Si Si1 0.600166 0.977600 0.204025
Si Si2 0.781731 0.925270 0.213959
Si Si3 0.152713 0.293518 0.093022
Si Si4 0.251731 0.471074 0.697867
Si Si5 0.947627 0.926124 0.701177
Si Si6 0.015642 0.204376 0.395102
Si Si7 0.888559 0.822519 0.836510
Si Si8 0.200349 0.277186 0.807964
O O1 0.629674 0.836703 0.182835
O O2 0.651348 0.971800 0.444472
O O3 0.623239 0.143876 0.204818
O O4 0.500000 0.959555 0.000000
O O5 0.717038 0.926076 0.188753
O O6 0.873693 0.853992 0.454019
O O7 0.790753 0.096861 0.188910
O O8 0.741282 0.810887 0.028318
O O9 0.203187 0.134139 0.189666
O O10 0.068311 0.298779 0.824163
O O11 0.299638 0.383878 0.692356
O O12 0.256077 0.376117 0.833741
O O13 0.912323 0.922722 0.766177
O O14 0.969017 0.089710 0.686936
O O15 0.036946 0.836304 0.897229
O O16 0.098860 0.314761 0.583656
O O17 0.000000 0.131630 0.500000
#
# Coordination Sequence:
#
# PCOD8050645 Si02
#       8
#     4   4   4   4   4   4   4   4
#     4  12  25  42  67 101 140 178 222 291 353 408
#     4  11  23  43  67  99 132 178 233 280 352 405
#     4  12  25  42  69  98 137 182 230 283 351 414
#     4  12  25  43  69 100 138 183 233 281 353 417
#     4  10  22  41  71  95 136 184 227 283 345 413
#     4  11  23  46  69 100 139 181 235 289 340 417
#     4  11  23  45  66 101 141 179 234 288 344 420
#     4  11  25  44  71  98 137 180 231 292 345 419
#
# _framework density 21.608343000000001
#
# number of rings (size 3 to 8) (size 9 to 14) (size 15 to 20)
#    0.000    0.750    3.750    4.500    1.750    4.000 
#    2.250    0.000    0.000    0.000    0.000    0.000 
#    0.000    0.000    0.000    0.000    0.000    0.000 
#
# Total GULP energy -198265.415946 kJ/mol
# GULP energy per Si atom -12391.588497 kJ/mol
# Density = 2.155916 g / cm^3
# Si number density = 21.608343 Si / 1000 Ang^3
#
#
#
# Elastic Constant Matrix: (Units=GPa)
#
#
# Indices 1 2 3 4 5 6 
#
# 1 84.7441 33.0550 16.8704 0.0000 5.1285 0.0000
# 2 33.0550 72.2314 30.5905 0.0000 -4.1440 0.0000
# 3 16.8704 30.5905 155.7967 0.0000 7.6207 0.0000
# 4 0.0000 0.0000 0.0000 32.7640 0.0000 -1.0984
# 5 5.1285 -4.1440 7.6207 0.0000 33.5676 0.0000
# 6 0.0000 0.0000 0.0000 -1.0984 0.0000 36.4663
#
#
#
# Elastic Compliance Matrix: (Units=1/GPa)
#
#
# Indices 1 2 3 4 5 6 
#
# 1 0.014678 -0.006853 -0.000094 0.000000 -0.003067 0.000000
# 2 -0.006853 0.018522 -0.003092 0.000000 0.004036 0.000000
# 3 -0.000094 -0.003092 0.007133 0.000000 -0.001987 0.000000
# 4 0.000000 0.000000 0.000000 0.030552 0.000000 0.000920
# 5 -0.003067 0.004036 -0.001987 0.000000 0.031208 0.000000
# 6 0.000000 0.000000 0.000000 0.000920 0.000000 0.027450
#
#
# Mechanical properties :
#
#
# Convention : Reuss Voigt Hill
#
# Bulk Modulus (GPa) = 49.37168 52.64491 51.00830
# Shear Modulus (GPa) = 31.97493 36.04332 34.00913
#
# Velocity S-wave (km/s) = 3.85092 4.08858 3.97153
# Velocity P-wave (km/s) = 6.53229 6.83409 6.68489
#
# Compressibility (1/GPa) = 0.02025453
#
# Stress axis : x y z
#
# Youngs Moduli (GPa) = 68.13087 53.99107 140.19224
#
# Poissons Ratio (x) = 0.37001 0.01314
# Poissons Ratio (y) = 0.46691 0.43347
# Poissons Ratio (z) = 0.00639 0.16694
#
# Static dielectric constant tensor:
#      x y z
#    x 4.045770 0.000000 0.156700 
#    y 0.000000 3.664600 0.000000 
#    z 0.156700 0.000000 4.503850 
# 
# 
# High freq. dielectric constant tensor:
#      x y z
#    x 1.851540 0.000000 0.007270 
#    y 0.000000 1.825210 0.000000 
#    z 0.007270 0.000000 1.880240 
# 
# From -- ./inp_files/48421.got.cif
#   From: 2010.03.12/outbox.cif.g09.slc.cpg/sg5_25_cif.got.tgz:48421.got - 2010.03.31 09:47:26.
