data_PCOD8050622
_publ_section_title
;
Structure prediction by ZEFSAII (Michael W. Deem and Ramdas Pophale) SiO2 
 PCOD8050622
Probable space group: C 2
;
_chemical_formula_sum "Si O2"
_cell_formula_units_Z 32
_cell_length_a 25.039495
_cell_length_b 13.868632
_cell_length_c 9.363027
_cell_angle_alpha 90.000000
_cell_angle_beta 27.176028
_cell_angle_gamma 90.000000
_cell_volume 1485.015466
_symmetry_space_group_name_H-M "C 2"
_symmetry_group_IT_number 5
_symmetry_cell_setting 'monoclinic'
loop_
_space_group_symop_operation_xyz
x,y,z
-x,y,-z
1/2+x,1/2+y,z
1/2-x,1/2+y,-z
loop_
_atom_site_type_symbol
_atom_site_label
_atom_site_fract_x
_atom_site_fract_y
_atom_site_fract_z
Si Si1 0.015597 0.872640 0.299472
Si Si2 0.736657 0.595684 0.961354
Si Si3 0.206154 0.962164 0.287989
Si Si4 0.009211 0.649460 0.643129
Si Si5 0.651154 0.017913 0.803012
Si Si6 0.241747 0.440054 0.301276
Si Si7 0.385261 0.788302 0.848015
Si Si8 0.010271 0.340314 0.814805
O O1 0.000000 0.907785 0.500000
O O2 0.928680 0.934714 0.407579
O O3 0.980701 0.762664 0.373810
O O4 0.144832 0.879462 0.920953
O O5 0.867076 0.612942 0.593688
O O6 0.695033 0.505181 0.967873
O O7 0.734241 0.559057 0.130183
O O8 0.655476 0.688639 0.127687
O O9 0.231044 0.992315 0.391382
O O10 0.286214 0.868825 0.062026
O O11 0.000000 0.613715 0.500000
O O12 0.905510 0.615771 0.998116
O O13 0.685890 0.011200 0.553956
O O14 0.549301 0.942203 0.071483
O O15 0.148115 0.362771 0.458928
O O16 0.500000 0.830909 0.500000
O O17 0.436686 0.768076 0.886805
O O18 0.000000 0.299977 0.000000
#
# Coordination Sequence:
#
# PCOD8050622 Si02
#       8
#     4   4   4   4   4   4   4   4
#     4  11  24  41  66  97 136 178 223 276 344 399
#     4  12  23  40  65  95 133 172 220 278 333 394
#     4  11  23  43  66  95 135 173 221 276 335 400
#     4  11  22  40  67 101 128 171 234 280 325 405
#     4  10  22  41  67  99 125 172 225 272 334 399
#     4  11  23  42  67  93 134 178 213 274 345 402
#     4  11  25  39  65 101 127 171 230 275 332 403
#     4   9  20  42  68  89 126 169 216 272 333 401
#
# _framework density 21.548597999999998
#
# number of rings (size 3 to 8) (size 9 to 14) (size 15 to 20)
#    0.000    1.250    5.000    0.750    3.500    0.500 
#    6.750    1.250    0.000    0.000    0.000    0.000 
#    0.000    0.000    0.000    0.000    0.000    0.000 
#
# Total GULP energy -198212.645797 kJ/mol
# GULP energy per Si atom -12388.290362 kJ/mol
# Density = 2.149955 g / cm^3
# Si number density = 21.548598 Si / 1000 Ang^3
#
#
#
# Elastic Constant Matrix: (Units=GPa)
#
#
# Indices 1 2 3 4 5 6 
#
# 1 109.9753 27.0338 22.6902 0.0000 -17.6081 0.0000
# 2 27.0338 56.5276 12.7849 0.0000 -9.2789 0.0000
# 3 22.6902 12.7849 81.3325 0.0000 -22.4052 0.0000
# 4 0.0000 0.0000 0.0000 20.6042 0.0000 -6.0158
# 5 -17.6081 -9.2789 -22.4052 0.0000 40.4002 0.0000
# 6 0.0000 0.0000 0.0000 -6.0158 0.0000 25.9330
#
#
#
# Elastic Compliance Matrix: (Units=1/GPa)
#
#
# Indices 1 2 3 4 5 6 
#
# 1 0.010965 -0.004414 -0.001567 0.000000 0.002896 0.000000
# 2 -0.004414 0.020451 -0.001439 0.000000 0.001975 0.000000
# 3 -0.001567 -0.001439 0.014966 0.000000 0.007286 0.000000
# 4 0.000000 0.000000 0.000000 0.052060 0.000000 0.012077
# 5 0.002896 0.001975 0.007286 0.000000 0.030509 0.000000
# 6 0.000000 0.000000 0.000000 0.012077 0.000000 0.041362
#
#
# Mechanical properties :
#
#
# Convention : Reuss Voigt Hill
#
# Bulk Modulus (GPa) = 31.70510 41.42812 36.56661
# Shear Modulus (GPa) = 25.55346 29.74260 27.64803
#
# Velocity S-wave (km/s) = 3.44736 3.71921 3.58586
# Velocity P-wave (km/s) = 5.53091 6.14089 5.84386
#
# Compressibility (1/GPa) = 0.03154067
#
# Stress axis : x y z
#
# Youngs Moduli (GPa) = 91.19865 48.89693 66.81877
#
# Poissons Ratio (x) = 0.21583 0.10473
# Poissons Ratio (y) = 0.40256 0.09617
# Poissons Ratio (z) = 0.14294 0.07037
#
# Static dielectric constant tensor:
#      x y z
#    x 4.407600 0.000000 -0.121390 
#    y 0.000000 3.568380 0.000000 
#    z -0.121390 0.000000 3.662860 
# 
# 
# High freq. dielectric constant tensor:
#      x y z
#    x 1.859190 0.000000 -0.019590 
#    y 0.000000 1.824000 0.000000 
#    z -0.019590 0.000000 1.836250 
# 
# From -- ./inp_files/31035.got.cif
#   From: 2010.03.12/outbox.cif.g09.slc.cpg/sg5_16_cif.got.tgz:31035.got - 2010.03.31 09:47:26.
