data_PCOD8050410
_publ_section_title
;
Structure prediction by ZEFSAII (Michael W. Deem and Ramdas Pophale) SiO2 
 PCOD8050410
Probable space group: C 2
;
_chemical_formula_sum "Si O2"
_cell_formula_units_Z 26
_cell_length_a 5.078836
_cell_length_b 13.202512
_cell_length_c 21.266607
_cell_angle_alpha 90.000000
_cell_angle_beta 58.178230
_cell_angle_gamma 90.000000
_cell_volume 1211.659816
_symmetry_space_group_name_H-M "C 2"
_symmetry_group_IT_number 5
_symmetry_cell_setting 'monoclinic'
loop_
_space_group_symop_operation_xyz
x,y,z
-x,y,-z
1/2+x,1/2+y,z
1/2-x,1/2+y,-z
loop_
_atom_site_type_symbol
_atom_site_label
_atom_site_fract_x
_atom_site_fract_y
_atom_site_fract_z
Si Si1 0.785731 0.447260 0.919565
Si Si2 0.449349 0.539646 0.853738
Si Si3 0.500000 0.522273 0.500000
Si Si4 0.647436 0.721665 0.049767
Si Si5 0.189969 0.069036 0.684690
Si Si6 0.140321 0.161640 0.380851
Si Si7 0.951502 0.395385 0.579917
O O1 0.655758 0.456289 0.864799
O O2 0.890570 0.332842 0.916985
O O3 0.083616 0.515567 0.897581
O O4 0.500000 0.481628 0.000000
O O5 0.515882 0.644729 0.881653
O O6 0.580155 0.545376 0.767905
O O7 0.398126 0.599718 0.456376
O O8 0.736040 0.447515 0.433926
O O9 0.500000 0.716281 0.000000
O O10 0.000000 0.689292 0.000000
O O11 0.512395 0.130094 0.644132
O O12 0.936627 0.139913 0.682237
O O13 0.185941 0.963375 0.645901
O O14 0.094673 0.280341 0.396520
O O15 0.000000 0.412068 0.500000
#
# Coordination Sequence:
#
# PCOD8050410 Si02
#       7
#     4   4   2   4   4   4   4
#     4  11  23  41  68  98 126 167 222 266 314 382
#     4  12  24  42  66  92 138 177 207 266 330 384
#     4  10  22  38  64  94 122 154 220 276 322 386
#     4  11  23  39  64  97 127 164 218 265 310 376
#     4  11  27  43  61  98 133 170 220 263 323 405
#     4  11  24  41  64  91 127 164 217 270 331 379
#     4  11  23  40  68  91 125 169 219 275 329 372
#
# _framework density 21.458169000000002
#
# number of rings (size 3 to 8) (size 9 to 14) (size 15 to 20)
#    0.000    0.923    2.308    5.538    2.154    2.462 
#    0.000    0.000    0.000    0.000    0.000    0.000 
#    0.000    0.000    0.000    0.000    0.000    0.000 
#
# Total GULP energy -161122.517363 kJ/mol
# GULP energy per Si atom -12394.039797 kJ/mol
# Density = 2.140933 g / cm^3
# Si number density = 21.458169 Si / 1000 Ang^3
#
#
#
# Elastic Constant Matrix: (Units=GPa)
#
#
# Indices 1 2 3 4 5 6 
#
# 1 120.8491 51.1193 41.0139 -0.0003 22.2036 0.0008
# 2 51.1193 163.2846 81.8738 0.0001 7.1024 0.0000
# 3 41.0139 81.8738 146.1187 -0.0002 32.1672 0.0005
# 4 -0.0003 0.0001 -0.0002 24.7341 0.0002 6.2522
# 5 22.2036 7.1024 32.1672 0.0002 38.2251 -0.0005
# 6 0.0008 0.0000 0.0005 6.2522 -0.0005 29.2903
#
#
#
# Elastic Compliance Matrix: (Units=1/GPa)
#
#
# Indices 1 2 3 4 5 6 
#
# 1 0.010603 -0.003058 -0.000039 0.000000 -0.005558 0.000000
# 2 -0.003058 0.009686 -0.005602 0.000000 0.004691 0.000000
# 3 -0.000039 -0.005602 0.011979 0.000000 -0.009017 0.000000
# 4 0.000000 0.000000 0.000000 0.042736 -0.000001 -0.009122
# 5 -0.005558 0.004691 -0.009017 -0.000001 0.036105 0.000001
# 6 0.000000 0.000000 0.000000 -0.009122 0.000001 0.036088
#
#
# Mechanical properties :
#
#
# Convention : Reuss Voigt Hill
#
# Bulk Modulus (GPa) = 67.25024 86.47402 76.86213
# Shear Modulus (GPa) = 29.48959 35.53294 32.51127
#
# Velocity S-wave (km/s) = 3.71115 4.07371 3.89665
# Velocity P-wave (km/s) = 7.05491 7.90653 7.49283
#
# Compressibility (1/GPa) = 0.01486984
#
# Stress axis : x y z
#
# Youngs Moduli (GPa) = 94.31547 103.23675 83.48290
#
# Poissons Ratio (x) = 0.31570 0.00326
# Poissons Ratio (y) = 0.28842 0.46765
# Poissons Ratio (z) = 0.00369 0.57831
#
# Static dielectric constant tensor:
#      x y z
#    x 4.049250 0.000000 0.087180 
#    y 0.000000 3.903690 0.000000 
#    z 0.087180 0.000000 3.820200 
# 
# 
# High freq. dielectric constant tensor:
#      x y z
#    x 1.848440 0.000000 0.014180 
#    y 0.000000 1.853900 0.000000 
#    z 0.014180 0.000000 1.834990 
# 
# From -- ./inp_files/63980.got.cif
#   From: 2010.03.12/outbox.cif.g09.slc.cpg/sg5_32_cif.got.tgz:63980.got - 2010.03.31 09:47:26.
