data_PCOD8050177
_publ_section_title
;
Structure prediction by ZEFSAII (Michael W. Deem and Ramdas Pophale) SiO2 
 PCOD8050177
Probable space group: C 2
;
_chemical_formula_sum "Si O2"
_cell_formula_units_Z 32
_cell_length_a 23.612996
_cell_length_b 9.295508
_cell_length_c 18.602408
_cell_angle_alpha 90.000000
_cell_angle_beta 21.307418
_cell_angle_gamma 90.000000
_cell_volume 1483.695127
_symmetry_space_group_name_H-M "C 2"
_symmetry_group_IT_number 5
_symmetry_cell_setting 'monoclinic'
loop_
_space_group_symop_operation_xyz
x,y,z
-x,y,-z
1/2+x,1/2+y,z
1/2-x,1/2+y,-z
loop_
_atom_site_type_symbol
_atom_site_label
_atom_site_fract_x
_atom_site_fract_y
_atom_site_fract_z
Si Si1 0.730244 0.753760 0.403124
Si Si2 0.084680 0.328754 0.153593
Si Si3 0.585065 0.936615 0.004238
Si Si4 0.557702 0.259633 0.085758
Si Si5 0.824809 0.403389 0.681092
Si Si6 0.062830 0.701149 0.499401
Si Si7 0.739642 0.934044 0.678063
Si Si8 0.645517 0.144105 0.126751
O O1 0.596041 0.818441 0.611909
O O2 0.723965 0.813082 0.330488
O O3 0.708608 0.581790 0.421157
O O4 0.889927 0.806270 0.252323
O O5 0.111239 0.322197 0.036573
O O6 0.155768 0.480403 0.091689
O O7 0.176829 0.199406 0.081432
O O8 0.422407 0.885905 0.163389
O O9 0.586646 0.099988 0.025704
O O10 0.723755 0.935516 0.783337
O O11 0.555021 0.247490 0.176061
O O12 0.695154 0.366982 0.895493
O O13 0.821993 0.571808 0.662019
O O14 0.000000 0.361406 0.500000
O O15 0.133389 0.808195 0.476682
O O16 0.000000 0.775254 0.500000
O O17 0.921399 0.638810 0.713454
#
# Coordination Sequence:
#
# PCOD8050177 Si02
#       8
#     4   4   4   4   4   4   4   4
#     4  11  22  42  70  98 128 174 231 271 327 402
#     4  11  24  43  66  98 133 176 221 281 330 396
#     4   9  20  42  66  92 131 163 223 273 324 395
#     4  10  22  42  72  95 129 174 225 276 324 396
#     4  11  22  42  68  98 135 172 219 275 330 395
#     4  11  25  42  63  95 141 169 218 278 333 397
#     4  10  21  41  66  93 125 174 215 270 334 397
#     4  11  25  44  64  97 137 173 223 278 331 399
#
# _framework density 21.567772999999999
#
# number of rings (size 3 to 8) (size 9 to 14) (size 15 to 20)
#    0.000    1.500    2.500    1.875    5.250    0.500 
#    4.500    0.000    0.000    0.000    0.000    0.000 
#    0.000    0.000    0.000    0.000    0.000    0.000 
#
# Total GULP energy -198258.527310 kJ/mol
# GULP energy per Si atom -12391.157957 kJ/mol
# Density = 2.151868 g / cm^3
# Si number density = 21.567773 Si / 1000 Ang^3
#
#
#
# Elastic Constant Matrix: (Units=GPa)
#
#
# Indices 1 2 3 4 5 6 
#
# 1 99.5018 26.8612 38.6358 0.0001 1.1736 0.0000
# 2 26.8612 76.8547 43.3396 -0.0009 -16.9015 -0.0006
# 3 38.6358 43.3396 101.0920 -0.0007 -5.3302 -0.0008
# 4 0.0001 -0.0009 -0.0007 34.0169 -0.0001 -4.5792
# 5 1.1736 -16.9015 -5.3302 -0.0001 42.9712 0.0001
# 6 0.0000 -0.0006 -0.0008 -4.5792 0.0001 24.2376
#
#
#
# Elastic Compliance Matrix: (Units=1/GPa)
#
#
# Indices 1 2 3 4 5 6 
#
# 1 0.012187 -0.002607 -0.003635 0.000000 -0.001809 0.000000
# 2 -0.002607 0.019330 -0.006931 0.000000 0.006814 0.000000
# 3 -0.003635 -0.006931 0.014207 0.000000 -0.000865 0.000000
# 4 0.000000 0.000000 0.000000 0.030164 0.000000 0.005699
# 5 -0.001809 0.006814 -0.000865 0.000000 0.025894 0.000000
# 6 0.000000 0.000000 0.000000 0.005699 0.000000 0.042335
#
#
# Mechanical properties :
#
#
# Convention : Reuss Voigt Hill
#
# Bulk Modulus (GPa) = 51.60891 55.01351 53.31121
# Shear Modulus (GPa) = 28.26076 31.48592 29.87334
#
# Velocity S-wave (km/s) = 3.62377 3.82496 3.72572
# Velocity P-wave (km/s) = 6.44124 6.71340 6.57873
#
# Compressibility (1/GPa) = 0.01937650
#
# Stress axis : x y z
#
# Youngs Moduli (GPa) = 82.05605 51.73282 70.38645
#
# Poissons Ratio (x) = 0.13488 0.25587
# Poissons Ratio (y) = 0.21394 0.48787
# Poissons Ratio (z) = 0.29829 0.35858
#
# Static dielectric constant tensor:
#      x y z
#    x 4.338970 0.000000 0.094010 
#    y 0.000000 3.764710 0.000000 
#    z 0.094010 0.000000 3.894060 
# 
# 
# High freq. dielectric constant tensor:
#      x y z
#    x 1.865600 0.000000 0.005510 
#    y 0.000000 1.834500 0.000000 
#    z 0.005510 0.000000 1.841800 
# 
# From -- ./inp_files/67553.got.cif
#   From: 2010.03.12/outbox.cif.g09.slc.cpg/sg5_34_cif.got.tgz:67553.got - 2010.03.31 09:47:26.
