data_PCOD8050093
_publ_section_title
;
Structure prediction by ZEFSAII (Michael W. Deem and Ramdas Pophale) SiO2 
 PCOD8050093
Probable space group: C 2
;
_chemical_formula_sum "Si O2"
_cell_formula_units_Z 32
_cell_length_a 13.023265
_cell_length_b 26.107399
_cell_length_c 9.616908
_cell_angle_alpha 90.000000
_cell_angle_beta 27.912487
_cell_angle_gamma 90.000000
_cell_volume 1530.658749
_symmetry_space_group_name_H-M "C 2"
_symmetry_group_IT_number 5
_symmetry_cell_setting 'monoclinic'
loop_
_space_group_symop_operation_xyz
x,y,z
-x,y,-z
1/2+x,1/2+y,z
1/2-x,1/2+y,-z
loop_
_atom_site_type_symbol
_atom_site_label
_atom_site_fract_x
_atom_site_fract_y
_atom_site_fract_z
Si Si1 0.422533 0.022510 0.749898
Si Si2 0.545040 0.492591 0.604154
Si Si3 0.652844 0.262260 0.700690
Si Si4 0.960407 0.172125 0.390210
Si Si5 0.343889 0.085381 0.307063
Si Si6 0.024414 0.321135 0.127843
Si Si7 0.353182 0.235587 0.809169
Si Si8 0.082082 0.436859 0.753903
O O1 0.500000 0.028373 0.500000
O O2 0.514787 0.071942 0.723735
O O3 0.508075 0.969637 0.711055
O O4 0.159101 0.017923 0.071313
O O5 0.500000 0.476674 0.500000
O O6 0.737626 0.534125 0.374589
O O7 0.649371 0.441986 0.556951
O O8 0.799156 0.219736 0.600329
O O9 0.801161 0.308301 0.472319
O O10 0.516490 0.236343 0.741855
O O11 0.500000 0.287288 0.000000
O O12 0.844829 0.127567 0.437088
O O13 0.000000 0.151613 0.500000
O O14 0.177017 0.190272 0.046887
O O15 0.500000 0.108367 0.000000
O O16 0.035362 0.382184 0.126818
O O17 0.000000 0.301980 0.000000
O O18 0.235046 0.291401 0.937599
O O19 0.500000 0.222135 0.500000
O O20 0.000000 0.459304 0.000000
#
# Coordination Sequence:
#
# PCOD8050093 Si02
#       8
#     4   4   4   4   4   4   4   4
#     4  11  24  43  64  96 137 167 206 273 338 379
#     4  11  19  40  69  91 122 170 212 266 322 379
#     4  11  22  42  63  94 129 170 215 269 328 387
#     4  11  24  40  69  97 125 169 225 273 321 387
#     4  11  23  40  70  95 125 168 226 265 315 401
#     4  10  22  40  64  95 130 170 224 268 323 391
#     4  11  23  43  67  92 136 179 211 273 336 386
#     4  10  21  40  64  99 124 167 229 262 311 402
#
# _framework density 20.906030999999999
#
# number of rings (size 3 to 8) (size 9 to 14) (size 15 to 20)
#    0.000    1.250    5.000    1.500    0.000    3.000 
#    4.500    3.750    0.000    0.000    0.000    0.000 
#    0.000    0.000    0.000    0.000    0.000    0.000 
#
# Total GULP energy -198330.928765 kJ/mol
# GULP energy per Si atom -12395.683048 kJ/mol
# Density = 2.085845 g / cm^3
# Si number density = 20.906031 Si / 1000 Ang^3
#
#
#
# Elastic Constant Matrix: (Units=GPa)
#
#
# Indices 1 2 3 4 5 6 
#
# 1 88.6386 19.1177 50.4014 0.0143 8.7726 -0.0137
# 2 19.1177 73.0294 33.6924 0.0050 -0.3387 -0.0050
# 3 50.4014 33.6924 149.2957 0.0176 10.4389 -0.0173
# 4 0.0143 0.0050 0.0176 -67.4345 -0.0119 90.1112
# 5 8.7726 -0.3387 10.4389 -0.0119 42.0671 0.0115
# 6 -0.0137 -0.0050 -0.0173 90.1112 0.0115 -69.1498
#
#
#
# Elastic Compliance Matrix: (Units=1/GPa)
#
#
# Indices 1 2 3 4 5 6 
#
# 1 0.014295 -0.001771 -0.004291 0.000001 -0.001930 -0.000001
# 2 -0.001771 0.015545 -0.002997 0.000000 0.001238 0.000000
# 3 -0.004291 -0.002997 0.008917 0.000001 -0.001342 -0.000001
# 4 0.000001 0.000000 0.000001 0.020003 -0.000002 0.026067
# 5 -0.001930 0.001238 -0.001342 -0.000002 0.024517 0.000002
# 6 -0.000001 0.000000 -0.000001 0.026067 0.000002 0.019507
#
#
# Mechanical properties :
#
#
# Convention : Reuss Voigt Hill
#
# Bulk Modulus (GPa) = 48.45323 57.48741 52.97032
# Shear Modulus (GPa) = 39.12916 -5.05328 17.03794
#
# Velocity S-wave (km/s) = 4.33097 -1.55640 2.85788
# Velocity P-wave (km/s) = 6.94527 4.93233 6.02348
#
# Compressibility (1/GPa) = 0.02063846
#
# Stress axis : x y z
#
# Youngs Moduli (GPa) = 69.95509 64.32886 112.14654
#
# Poissons Ratio (x) = 0.11395 0.48124
# Poissons Ratio (y) = 0.12391 0.33607
# Poissons Ratio (z) = 0.30019 0.19278
#
# Static dielectric constant tensor:
#      x y z
#    x 3.951820 0.000000 -0.213530 
#    y 0.000000 3.590250 0.000000 
#    z -0.213530 0.000000 4.565290 
# 
# 
# High freq. dielectric constant tensor:
#      x y z
#    x 1.819430 0.000000 -0.016530 
#    y 0.000000 1.804680 0.000000 
#    z -0.016530 0.000000 1.826280 
# 
# From -- ./inp_files/22216.got.cif
#   From: 2010.03.12/outbox.cif.g09.slc.cpg/sg5_12_cif.got.tgz:22216.got - 2010.03.31 09:47:26.
