data_PCOD8050422
_publ_section_title
;
Structure prediction by ZEFSAII (Michael W. Deem and Ramdas Pophale) SiO2 
 PCOD8050422
Probable space group: C 2
;
_chemical_formula_sum "Si O2"
_cell_formula_units_Z 30
_cell_length_a 14.236047
_cell_length_b 17.346978
_cell_length_c 11.579802
_cell_angle_alpha 90.000000
_cell_angle_beta 28.453048
_cell_angle_gamma 90.000000
_cell_volume 1362.451863
_symmetry_space_group_name_H-M "C 2"
_symmetry_group_IT_number 5
_symmetry_cell_setting 'monoclinic'
loop_
_space_group_symop_operation_xyz
x,y,z
-x,y,-z
1/2+x,1/2+y,z
1/2-x,1/2+y,-z
loop_
_atom_site_type_symbol
_atom_site_label
_atom_site_fract_x
_atom_site_fract_y
_atom_site_fract_z
Si Si1 0.500000 0.472260 0.500000
Si Si2 0.884239 0.734631 0.370115
Si Si3 0.771368 0.339233 0.258457
Si Si4 0.135642 0.999685 0.120745
Si Si5 0.826417 0.964821 0.277186
Si Si6 0.245060 0.827207 0.029165
Si Si7 0.505738 0.088262 0.367802
Si Si8 0.882306 0.301975 0.508798
O O1 0.652588 0.418579 0.407984
O O2 0.605417 0.524582 0.288167
O O3 0.765556 0.778743 0.599884
O O4 0.921831 0.646533 0.363510
O O5 0.763809 0.734259 0.378609
O O6 0.088623 0.778974 0.123438
O O7 0.698357 0.306536 0.213126
O O8 0.000000 0.360284 0.000000
O O9 0.240760 0.917201 0.004354
O O10 0.919802 0.989213 0.298200
O O11 0.274088 0.061843 0.907137
O O12 0.633507 0.014953 0.465861
O O13 0.753351 0.877640 0.341472
O O14 0.000000 0.982274 0.000000
O O15 0.463684 0.803280 0.761573
O O16 0.500000 0.129242 0.500000
O O17 0.000000 0.285091 0.500000
#
# Coordination Sequence:
#
# PCOD8050422 Si02
#       8
#     2   4   4   4   4   4   4   4
#     4  10  22  38  68 100 134 184 228 292 330 418
#     4  12  25  43  68 105 140 181 229 294 358 408
#     4  11  19  35  63 104 135 169 224 286 352 398
#     4  11  22  41  69 103 138 183 234 280 352 417
#     4  12  23  42  72 105 140 180 233 291 354 413
#     4  11  21  40  69  99 136 178 232 288 337 416
#     4  12  26  44  69 106 145 181 228 297 357 420
#     4  12  25  41  71 105 136 187 242 284 339 421
#
# _framework density 22.019126
#
# number of rings (size 3 to 8) (size 9 to 14) (size 15 to 20)
#    0.000    0.533    8.000    2.000    0.000    1.600 
#    0.000    0.000    8.800    0.000    0.000    0.000 
#    0.000    0.000    0.000    0.000    0.000    0.000 
#
# Total GULP energy -185921.766594 kJ/mol
# GULP energy per Si atom -12394.784440 kJ/mol
# Density = 2.196901 g / cm^3
# Si number density = 22.019126 Si / 1000 Ang^3
#
#
#
# Elastic Constant Matrix: (Units=GPa)
#
#
# Indices 1 2 3 4 5 6 
#
# 1 135.3364 38.5042 25.0224 -0.0735 -8.7456 0.0637
# 2 38.5042 62.9724 16.5147 0.0598 2.8570 -0.0213
# 3 25.0224 16.5147 90.6037 0.0517 -0.0925 0.0018
# 4 -0.0735 0.0598 0.0517 17.0412 -0.0466 -2.2888
# 5 -8.7456 2.8570 -0.0925 -0.0466 38.7551 0.0406
# 6 0.0637 -0.0213 0.0018 -2.2888 0.0406 30.2900
#
#
#
# Elastic Compliance Matrix: (Units=1/GPa)
#
#
# Indices 1 2 3 4 5 6 
#
# 1 0.009395 -0.005439 -0.001601 0.000068 0.002517 -0.000022
# 2 -0.005439 0.019886 -0.002125 -0.000091 -0.002699 0.000022
# 3 -0.001601 -0.002125 0.011866 -0.000036 -0.000176 -0.000001
# 4 0.000068 -0.000091 -0.000036 0.059284 0.000089 0.004479
# 5 0.002517 -0.002699 -0.000176 0.000089 0.026570 -0.000036
# 6 -0.000022 0.000022 -0.000001 0.004479 -0.000036 0.033353
#
#
# Mechanical properties :
#
#
# Convention : Reuss Voigt Hill
#
# Bulk Modulus (GPa) = 43.82699 49.88832 46.85766
# Shear Modulus (GPa) = 26.83998 31.14201 28.99100
#
# Velocity S-wave (km/s) = 3.49512 3.76482 3.63247
# Velocity P-wave (km/s) = 6.01956 6.45015 6.23857
#
# Compressibility (1/GPa) = 0.02281699
#
# Stress axis : x y z
#
# Youngs Moduli (GPa) = 106.43794 50.28777 84.27174
#
# Poissons Ratio (x) = 0.27352 0.13490
# Poissons Ratio (y) = 0.57893 0.17909
# Poissons Ratio (z) = 0.17038 0.10687
#
# Static dielectric constant tensor:
#      x y z
#    x 4.321970 -0.000130 -0.052140 
#    y -0.000130 3.493210 0.000320 
#    z -0.052140 0.000320 4.179220 
# 
# 
# High freq. dielectric constant tensor:
#      x y z
#    x 1.879380 -0.000010 -0.007270 
#    y -0.000010 1.818730 0.000010 
#    z -0.007270 0.000010 1.883750 
# 
# From -- ./inp_files/43297.got.cif
#   From: 2010.03.12/outbox.cif.g09.slc.cpg/sg5_22_cif.got.tgz:43297.got - 2010.03.31 09:47:26.
