data_PCOD8050200
_publ_section_title
;
Structure prediction by ZEFSAII (Michael W. Deem and Ramdas Pophale) SiO2 
 PCOD8050200
Probable space group: C 2
;
_chemical_formula_sum "Si O2"
_cell_formula_units_Z 28
_cell_length_a 20.332825
_cell_length_b 9.228880
_cell_length_c 8.587521
_cell_angle_alpha 90.000000
_cell_angle_beta 122.590493
_cell_angle_gamma 90.000000
_cell_volume 1357.706763
_symmetry_space_group_name_H-M "C 2"
_symmetry_group_IT_number 5
_symmetry_cell_setting 'monoclinic'
loop_
_space_group_symop_operation_xyz
x,y,z
-x,y,-z
1/2+x,1/2+y,z
1/2-x,1/2+y,-z
loop_
_atom_site_type_symbol
_atom_site_label
_atom_site_fract_x
_atom_site_fract_y
_atom_site_fract_z
Si Si1 0.247076 0.467930 0.427320
Si Si2 0.118811 0.495773 0.843911
Si Si3 0.660036 0.205486 0.161007
Si Si4 0.500000 0.167746 0.500000
Si Si5 0.580217 0.342840 0.327976
Si Si6 0.742482 0.492148 0.206392
Si Si7 0.000000 0.052003 0.000000
Si Si8 0.640867 0.752836 0.097939
O O1 0.236553 0.619282 0.320747
O O2 0.336973 0.419495 0.524122
O O3 0.222610 0.498502 0.574569
O O4 0.184904 0.352654 0.280802
O O5 0.196150 0.458653 0.848056
O O6 0.054693 0.548391 0.644900
O O7 0.122822 0.625942 0.969731
O O8 0.099615 0.348050 0.911443
O O9 0.597190 0.218819 0.220836
O O10 0.678794 0.365382 0.123842
O O11 0.545545 0.271203 0.438599
O O12 0.515966 0.453585 0.173998
O O13 0.704880 0.644640 0.108252
O O14 0.924758 0.153649 0.909972
#
# Coordination Sequence:
#
# PCOD8050200 Si02
#       8
#     4   4   4   2   4   4   2   4
#     4  10  21  41  70 102 123 186 230 279 329 410
#     4  11  25  41  63  98 132 177 222 285 332 405
#     4  10  21  41  71  91 127 176 230 270 335 400
#     4  12  26  44  64  98 138 182 228 278 352 406
#     4  11  24  43  70  98 138 179 227 279 340 415
#     4  11  20  40  68  95 132 168 232 277 328 404
#     4  12  24  44  66 102 144 176 220 280 356 402
#     4  11  24  42  67  99 136 174 228 283 345 399
#
# _framework density 20.623010000000001
#
# number of rings (size 3 to 8) (size 9 to 14) (size 15 to 20)
#    0.000    1.143    2.857    5.143    0.000    4.571 
#    2.571    0.000    0.000    0.000    0.000    0.000 
#    0.000    0.000    0.000    0.000    0.000    0.000 
#
# Total GULP energy -173534.168846 kJ/mol
# GULP energy per Si atom -12395.297775 kJ/mol
# Density = 2.057607 g / cm^3
# Si number density = 20.623010 Si / 1000 Ang^3
#
#
#
# Elastic Constant Matrix: (Units=GPa)
#
#
# Indices 1 2 3 4 5 6 
#
# 1 93.2981 30.4363 44.3728 0.0000 -14.7191 0.0000
# 2 30.4363 130.0732 64.0423 0.0000 -8.8657 0.0000
# 3 44.3728 64.0423 98.7007 0.0000 -2.7814 0.0000
# 4 0.0000 0.0000 0.0000 27.2460 0.0000 22.3370
# 5 -14.7191 -8.8657 -2.7814 0.0000 29.3195 0.0000
# 6 0.0000 0.0000 0.0000 22.3370 0.0000 -18.6142
#
#
#
# Elastic Compliance Matrix: (Units=1/GPa)
#
#
# Indices 1 2 3 4 5 6 
#
# 1 0.014900 0.000276 -0.006682 0.000000 0.006930 0.000000
# 2 0.000276 0.011524 -0.007519 0.000000 0.002910 0.000000
# 3 -0.006682 -0.007519 0.017904 0.000000 -0.003930 0.000000
# 4 0.000000 0.000000 0.000000 0.018501 0.000000 0.022201
# 5 0.006930 0.002910 -0.003930 0.000000 0.038093 0.000000
# 6 0.000000 0.000000 0.000000 0.022201 0.000000 -0.027081
#
#
# Mechanical properties :
#
#
# Convention : Reuss Voigt Hill
#
# Bulk Modulus (GPa) = 60.69344 66.64165 63.66754
# Shear Modulus (GPa) = 46.64854 19.80496 33.22675
#
# Velocity S-wave (km/s) = 4.76117 3.10229 4.01827
# Velocity P-wave (km/s) = 7.72780 6.72433 7.24346
#
# Compressibility (1/GPa) = 0.01647625
#
# Stress axis : x y z
#
# Youngs Moduli (GPa) = 67.11584 86.77551 55.85347
#
# Poissons Ratio (x) = -0.02394 0.37322
# Poissons Ratio (y) = -0.01852 0.41999
# Poissons Ratio (z) = 0.44848 0.65250
#
# Static dielectric constant tensor:
#      x y z
#    x 3.704400 0.000000 0.016670 
#    y 0.000000 4.019800 0.000000 
#    z 0.016670 0.000000 4.070250 
# 
# 
# High freq. dielectric constant tensor:
#      x y z
#    x 1.793120 0.000000 -0.001550 
#    y 0.000000 1.825010 0.000000 
#    z -0.001550 0.000000 1.816080 
# 
# From -- ./inp_files/29125.got.cif
#   From: 2010.03.12/outbox.cif.g09.slc.cpg/sg5_15_cif.got.tgz:29125.got - 2010.03.31 09:47:26.
