data_PCOD8050072
_publ_section_title
;
Structure prediction by ZEFSAII (Michael W. Deem and Ramdas Pophale) SiO2 
 PCOD8050072
Probable space group: C 2
;
_chemical_formula_sum "Si O2"
_cell_formula_units_Z 30
_cell_length_a 6.129381
_cell_length_b 22.155960
_cell_length_c 11.908255
_cell_angle_alpha 90.000000
_cell_angle_beta 115.622060
_cell_angle_gamma 90.000000
_cell_volume 1458.146155
_symmetry_space_group_name_H-M "C 2"
_symmetry_group_IT_number 5
_symmetry_cell_setting 'monoclinic'
loop_
_space_group_symop_operation_xyz
x,y,z
-x,y,-z
1/2+x,1/2+y,z
1/2-x,1/2+y,-z
loop_
_atom_site_type_symbol
_atom_site_label
_atom_site_fract_x
_atom_site_fract_y
_atom_site_fract_z
Si Si1 0.035349 0.604670 0.202950
Si Si2 0.209007 0.652242 0.626322
Si Si3 0.811280 0.497508 0.045904
Si Si4 0.604382 0.453033 0.199926
Si Si5 0.167577 0.214559 0.809374
Si Si6 0.992428 0.037487 0.623431
Si Si7 0.500000 0.761860 0.000000
Si Si8 0.511764 0.322455 0.871181
O O1 0.152243 0.658770 0.159757
O O2 0.238793 0.555921 0.281285
O O3 0.893899 0.632053 0.277040
O O4 0.852380 0.568640 0.081404
O O5 0.417545 0.703059 0.686632
O O6 0.317400 0.595202 0.584995
O O7 0.000000 0.680050 0.500000
O O8 0.839863 0.458977 0.170235
O O9 0.565558 0.492125 0.920536
O O10 0.000000 0.469577 0.000000
O O11 0.623040 0.485981 0.323114
O O12 0.536881 0.383742 0.207899
O O13 0.114157 0.220372 0.929345
O O14 0.305426 0.273753 0.792484
O O15 0.000000 0.010612 0.500000
O O16 0.282270 0.801455 0.898780
O O17 0.500000 0.338011 0.000000
#
# Coordination Sequence:
#
# PCOD8050072 Si02
#       8
#     4   4   4   4   4   4   2   4
#     4  11  22  38  60  92 129 162 206 267 325 389
#     4  11  22  40  65  88 124 173 216 266 326 385
#     4  11  22  35  58  96 128 166 200 258 334 386
#     4  11  23  39  61  97 131 166 216 263 316 396
#     4  10  24  39  60  98 125 167 218 266 317 386
#     4  11  22  39  61  96 125 168 218 262 321 386
#     4  10  22  42  62  94 130 176 206 252 328 388
#     4  10  21  40  63  91 129 174 214 258 322 391
#
# _framework density 20.574069000000001
#
# number of rings (size 3 to 8) (size 9 to 14) (size 15 to 20)
#    0.000    1.333    5.333    0.800    0.933    2.667 
#    0.000    0.000    0.000    4.800    3.467    0.000 
#    0.000    0.000    0.000    0.000    0.000    0.000 
#
# Total GULP energy -185941.507452 kJ/mol
# GULP energy per Si atom -12396.100497 kJ/mol
# Density = 2.052724 g / cm^3
# Si number density = 20.574069 Si / 1000 Ang^3
#
#
#
# Elastic Constant Matrix: (Units=GPa)
#
#
# Indices 1 2 3 4 5 6 
#
# 1 114.2827 50.4449 43.2316 0.0000 -11.0665 0.0000
# 2 50.4449 126.4161 61.0790 0.0000 8.0888 0.0000
# 3 43.2316 61.0790 85.7169 0.0000 -12.1247 0.0000
# 4 0.0000 0.0000 0.0000 18.2572 0.0000 -4.2093
# 5 -11.0665 8.0888 -12.1247 0.0000 43.7645 0.0000
# 6 0.0000 0.0000 0.0000 -4.2093 0.0000 17.8808
#
#
#
# Elastic Compliance Matrix: (Units=1/GPa)
#
#
# Indices 1 2 3 4 5 6 
#
# 1 0.011659 -0.003305 -0.003145 0.000000 0.002688 0.000000
# 2 -0.003305 0.014053 -0.009193 0.000000 -0.005980 0.000000
# 3 -0.003145 -0.009193 0.020744 0.000000 0.006651 0.000000
# 4 0.000000 0.000000 0.000000 0.057916 0.000000 0.013634
# 5 0.002688 -0.005980 0.006651 0.000000 0.026477 0.000000
# 6 0.000000 0.000000 0.000000 0.013634 0.000000 0.059135
#
#
# Mechanical properties :
#
#
# Convention : Reuss Voigt Hill
#
# Bulk Modulus (GPa) = 65.91813 70.65852 68.28833
# Shear Modulus (GPa) = 22.09181 27.42453 24.75817
#
# Velocity S-wave (km/s) = 3.28040 3.65494 3.47272
# Velocity P-wave (km/s) = 6.81594 7.22700 7.02447
#
# Compressibility (1/GPa) = 0.01517033
#
# Stress axis : x y z
#
# Youngs Moduli (GPa) = 85.77061 71.15677 48.20624
#
# Poissons Ratio (x) = 0.23515 0.15162
# Poissons Ratio (y) = 0.28344 0.44317
# Poissons Ratio (z) = 0.26977 0.65416
#
# Static dielectric constant tensor:
#      x y z
#    x 4.941040 0.000000 -0.149020 
#    y 0.000000 3.538150 0.000000 
#    z -0.149020 0.000000 3.516270 
# 
# 
# High freq. dielectric constant tensor:
#      x y z
#    x 1.831890 0.000000 -0.010000 
#    y 0.000000 1.783390 0.000000 
#    z -0.010000 0.000000 1.777270 
# 
# From -- ./inp_files/34253.got.cif
#   From: 2010.03.12/outbox.cif.g09.slc.cpg/sg5_18_cif.got.tgz:34253.got - 2010.03.31 09:47:26.
