data_PCOD8050628
_publ_section_title
;
Structure prediction by ZEFSAII (Michael W. Deem and Ramdas Pophale) SiO2 
 PCOD8050628
Probable space group: C 2
;
_chemical_formula_sum "Si O2"
_cell_formula_units_Z 24
_cell_length_a 23.808394
_cell_length_b 5.211634
_cell_length_c 9.248580
_cell_angle_alpha 90.000000
_cell_angle_beta 96.055130
_cell_angle_gamma 90.000000
_cell_volume 1141.167231
_symmetry_space_group_name_H-M "C 2"
_symmetry_group_IT_number 5
_symmetry_cell_setting 'monoclinic'
loop_
_space_group_symop_operation_xyz
x,y,z
-x,y,-z
1/2+x,1/2+y,z
1/2-x,1/2+y,-z
loop_
_atom_site_type_symbol
_atom_site_label
_atom_site_fract_x
_atom_site_fract_y
_atom_site_fract_z
Si Si1 0.015593 0.199340 0.171870
Si Si2 0.378876 0.415612 0.752968
Si Si3 0.297493 0.769005 0.150114
Si Si4 0.675863 0.266736 0.976644
Si Si5 0.740032 0.421633 0.415948
Si Si6 0.015512 0.706085 0.336119
O O1 0.084009 0.170920 0.203729
O O2 0.993916 0.447788 0.252780
O O3 0.987571 0.948184 0.242411
O O4 0.000000 0.217061 0.000000
O O5 0.320934 0.497722 0.662545
O O6 0.416036 0.225768 0.661651
O O7 0.366443 0.273232 0.900318
O O8 0.333139 0.510514 0.131646
O O9 0.282760 0.795579 0.313692
O O10 0.337029 0.006781 0.113766
O O11 0.240784 0.766571 0.041646
O O12 0.766840 0.693659 0.469729
O O13 0.000000 0.706368 0.500000
#
# Coordination Sequence:
#
# PCOD8050628 Si02
#       6
#     4   4   4   4   4   4
#     4  10  22  41  68  94 124 164 220 271 328 387
#     4   9  24  38  68  86 127 167 211 254 332 374
#     4   9  18  32  52  81 114 152 192 246 286 348
#     4   9  17  32  56  81 110 149 197 240 302 352
#     4  11  23  38  60  88 130 170 207 247 302 388
#     4  10  22  41  68  94 131 172 211 272 338 390
#
# _framework density 21.031099000000001
#
# number of rings (size 3 to 8) (size 9 to 14) (size 15 to 20)
#    1.000    1.333    0.000    2.000    4.667    2.667 
#    0.000    5.000    0.000    0.000    0.000    0.000 
#    0.000    0.000    0.000    0.000    0.000    0.000 
#
# Total GULP energy -148700.848865 kJ/mol
# GULP energy per Si atom -12391.737405 kJ/mol
# Density = 2.098323 g / cm^3
# Si number density = 21.031099 Si / 1000 Ang^3
#
#
#
# Elastic Constant Matrix: (Units=GPa)
#
#
# Indices 1 2 3 4 5 6 
#
# 1 52.0231 5.6002 41.6303 0.0000 -22.2252 0.0000
# 2 5.6002 116.3113 53.0937 0.0000 -19.7754 0.0000
# 3 41.6303 53.0937 140.5995 0.0000 -15.9696 0.0000
# 4 0.0000 0.0000 0.0000 38.2397 0.0000 -5.5443
# 5 -22.2252 -19.7754 -15.9696 0.0000 30.0854 0.0000
# 6 0.0000 0.0000 0.0000 -5.5443 0.0000 12.7966
#
#
#
# Elastic Compliance Matrix: (Units=1/GPa)
#
#
# Indices 1 2 3 4 5 6 
#
# 1 0.040008 0.008319 -0.011716 0.000000 0.028805 0.000000
# 2 0.008319 0.012893 -0.006035 0.000000 0.011417 0.000000
# 3 -0.011716 -0.006035 0.012160 0.000000 -0.006167 0.000000
# 4 0.000000 0.000000 0.000000 0.027904 0.000000 0.012090
# 5 0.028805 0.011417 -0.006167 0.000000 0.058748 0.000000
# 6 0.000000 0.000000 0.000000 0.012090 0.000000 0.083384
#
#
# Mechanical properties :
#
#
# Convention : Reuss Voigt Hill
#
# Bulk Modulus (GPa) = 21.64642 56.62026 39.13334
# Shear Modulus (GPa) = 18.56257 30.13167 24.34712
#
# Velocity S-wave (km/s) = 2.97412 3.78923 3.40615
# Velocity P-wave (km/s) = 4.70200 6.79154 5.84097
#
# Compressibility (1/GPa) = 0.04619702
#
# Stress axis : x y z
#
# Youngs Moduli (GPa) = 24.99512 77.56080 82.23765
#
# Poissons Ratio (x) = -0.64523 0.96348
# Poissons Ratio (y) = -0.20794 0.49632
# Poissons Ratio (z) = 0.29284 0.46810
#
# Static dielectric constant tensor:
#      x y z
#    x 3.391310 0.000000 -0.179030 
#    y 0.000000 3.972300 0.000000 
#    z -0.179030 0.000000 3.663170 
# 
# 
# High freq. dielectric constant tensor:
#      x y z
#    x 1.788220 0.000000 -0.021130 
#    y 0.000000 1.834450 0.000000 
#    z -0.021130 0.000000 1.819670 
# 
# From -- ./inp_files/30289.got.cif
#   From: 2010.03.12/outbox.cif.g09.slc.cpg/sg5_16_cif.got.tgz:30289.got - 2010.03.31 09:47:26.
