data_PCOD8050574
_publ_section_title
;
Structure prediction by ZEFSAII (Michael W. Deem and Ramdas Pophale) SiO2 
 PCOD8050574
Probable space group: C 2
;
_chemical_formula_sum "Si O2"
_cell_formula_units_Z 18
_cell_length_a 6.929488
_cell_length_b 18.511071
_cell_length_c 6.029341
_cell_angle_alpha 90.000000
_cell_angle_beta 89.999135
_cell_angle_gamma 90.000000
_cell_volume 773.397102
_symmetry_space_group_name_H-M "C 2"
_symmetry_group_IT_number 5
_symmetry_cell_setting 'monoclinic'
loop_
_space_group_symop_operation_xyz
x,y,z
-x,y,-z
1/2+x,1/2+y,z
1/2-x,1/2+y,-z
loop_
_atom_site_type_symbol
_atom_site_label
_atom_site_fract_x
_atom_site_fract_y
_atom_site_fract_z
Si Si1 0.500000 0.118990 0.500000
Si Si2 0.750003 0.368989 0.355952
Si Si3 0.301263 0.731239 0.628760
Si Si4 0.500000 0.801777 0.000000
Si Si5 0.198736 0.006740 0.628754
Si Si6 0.500000 0.436196 0.000000
O O1 0.643632 0.167959 0.646158
O O2 0.356358 0.070022 0.646153
O O3 0.705055 0.299351 0.504249
O O4 0.794950 0.438631 0.504230
O O5 0.931635 0.353097 0.199255
O O6 0.568380 0.384875 0.199243
O O7 0.500000 0.708342 0.500000
O O8 0.339707 0.750513 0.887181
O O9 0.000000 0.029636 0.500000
O O10 0.160289 0.987461 0.887171
#
# Coordination Sequence:
#
# PCOD8050574 Si02
#       6
#     2   4   4   2   4   2
#     4  12  26  44  78 102 148 200 234 302 368 418
#     4  10  22  40  74 104 146 186 242 304 350 424
#     4  10  24  45  68 106 149 188 242 302 354 431
#     4  10  22  42  73 105 146 188 242 296 362 423
#     4  10  24  45  68 106 149 188 242 302 354 431
#     4  10  22  42  73 105 146 188 242 296 362 423
#
# _framework density 23.273942000000002
#
# number of rings (size 3 to 8) (size 9 to 14) (size 15 to 20)
#    0.000    1.778    0.000    2.000   15.556    0.000 
#    0.000   26.667    0.000    0.000    0.000    0.000 
#    0.000    0.000    0.000    0.000    0.000    0.000 
#
# Total GULP energy -111540.285661 kJ/mol
# GULP energy per Si atom -12393.365073 kJ/mol
# Density = 2.322097 g / cm^3
# Si number density = 23.273942 Si / 1000 Ang^3
#
#
#
# Elastic Constant Matrix: (Units=GPa)
#
#
# Indices 1 2 3 4 5 6 
#
# 1 133.3870 85.5173 48.0057 0.0000 0.0064 0.0000
# 2 85.5173 158.0219 68.6497 0.0000 0.0080 0.0000
# 3 48.0057 68.6497 134.6682 0.0000 0.0048 0.0000
# 4 0.0000 0.0000 0.0000 3.7555 0.0000 0.0021
# 5 0.0064 0.0080 0.0048 0.0000 27.4899 0.0000
# 6 0.0000 0.0000 0.0000 0.0021 0.0000 54.8210
#
#
#
# Elastic Compliance Matrix: (Units=1/GPa)
#
#
# Indices 1 2 3 4 5 6 
#
# 1 0.011630 -0.005771 -0.001204 0.000000 -0.000001 0.000000
# 2 -0.005771 0.010992 -0.003546 0.000000 -0.000001 0.000000
# 3 -0.001204 -0.003546 0.009663 0.000000 0.000000 0.000000
# 4 0.000000 0.000000 0.000000 0.266277 0.000000 -0.000010
# 5 -0.000001 -0.000001 0.000000 0.000000 0.036377 0.000000
# 6 0.000000 0.000000 0.000000 -0.000010 0.000000 0.018241
#
#
# Mechanical properties :
#
#
# Convention : Reuss Voigt Hill
#
# Bulk Modulus (GPa) = 88.94830 92.26917 90.60873
# Shear Modulus (GPa) = 13.22861 32.14025 22.68443
#
# Velocity S-wave (km/s) = 2.38667 3.72015 3.12536
# Velocity P-wave (km/s) = 6.77465 7.62782 7.21386
#
# Compressibility (1/GPa) = 0.01124249
#
# Stress axis : x y z
#
# Youngs Moduli (GPa) = 85.98361 90.97671 103.49210
#
# Poissons Ratio (x) = 0.52501 0.12461
# Poissons Ratio (y) = 0.49620 0.36700
# Poissons Ratio (z) = 0.10353 0.32262
#
# Static dielectric constant tensor:
#      x y z
#    x 4.424280 0.000000 0.000010 
#    y 0.000000 4.265720 0.000000 
#    z 0.000010 0.000000 4.192610 
# 
# 
# High freq. dielectric constant tensor:
#      x y z
#    x 1.928360 0.000000 0.000000 
#    y 0.000000 1.911960 0.000000 
#    z 0.000000 0.000000 1.910830 
# 
# From -- ./inp_files/2432.got.cif
#   From: 2010.03.12/outbox.cif.g09.slc.cpg/sg5_2_cif.got.tgz:2432.got - 2010.03.31 09:47:26.
