data_PCOD8050946
_publ_section_title
;
Structure prediction by ZEFSAII (Michael W. Deem and Ramdas Pophale) SiO2 
 PCOD8050946
Probable space group: C 2
;
_chemical_formula_sum "Si O2"
_cell_formula_units_Z 18
_cell_length_a 8.457882
_cell_length_b 18.877049
_cell_length_c 5.266641
_cell_angle_alpha 90.000000
_cell_angle_beta 121.570060
_cell_angle_gamma 90.000000
_cell_volume 716.422728
_symmetry_space_group_name_H-M "C 2"
_symmetry_group_IT_number 5
_symmetry_cell_setting 'monoclinic'
loop_
_space_group_symop_operation_xyz
x,y,z
-x,y,-z
1/2+x,1/2+y,z
1/2-x,1/2+y,-z
loop_
_atom_site_type_symbol
_atom_site_label
_atom_site_fract_x
_atom_site_fract_y
_atom_site_fract_z
Si Si1 0.205264 0.147600 0.785215
Si Si2 0.500000 0.566566 0.000000
Si Si3 0.794698 0.889224 0.352432
Si Si4 0.209634 0.305931 0.767178
Si Si5 0.835776 0.526416 0.565067
O O1 0.289030 0.226219 0.870621
O O2 0.346447 0.096976 0.747651
O O3 0.000000 0.147719 0.500000
O O4 0.168324 0.114949 0.031008
O O5 0.376268 0.517279 0.716073
O O6 0.817219 0.841814 0.625989
O O7 0.000000 0.920248 0.500000
O O8 0.647895 0.954109 0.258089
O O9 0.726233 0.845449 0.049847
O O10 0.000000 0.303689 0.500000
O O11 0.000000 0.528687 0.500000
#
# Coordination Sequence:
#
# PCOD8050946 Si02
#       5
#     4   2   4   4   4
#     4   9  22  44  74 106 143 195 247 309 375 441
#     4  10  22  46  76 102 150 188 252 314 372 444
#     4  12  27  48  72 109 157 200 250 311 380 447
#     4  11  26  47  77 108 150 197 255 308 377 454
#     4  11  26  47  75 110 148 196 254 313 376 454
#
# _framework density 25.124831
#
# number of rings (size 3 to 8) (size 9 to 14) (size 15 to 20)
#    0.000    1.333    0.000    4.000   15.556    1.778 
#    4.000    0.000    0.000    1.333    0.000    0.000 
#    0.000    0.000    0.000    0.000    0.000    0.000 
#
# Total GULP energy -111526.463317 kJ/mol
# GULP energy per Si atom -12391.829257 kJ/mol
# Density = 2.506765 g / cm^3
# Si number density = 25.124831 Si / 1000 Ang^3
#
#
#
# Elastic Constant Matrix: (Units=GPa)
#
#
# Indices 1 2 3 4 5 6 
#
# 1 173.9250 90.5512 36.8407 0.0000 -34.7763 0.0000
# 2 90.5512 221.3218 59.8227 0.0000 -34.6369 0.0000
# 3 36.8407 59.8227 105.4489 0.0000 -28.8332 0.0000
# 4 0.0000 0.0000 0.0000 29.2714 0.0000 -8.7967
# 5 -34.7763 -34.6369 -28.8332 0.0000 48.6494 0.0000
# 6 0.0000 0.0000 0.0000 -8.7967 0.0000 -22.6326
#
#
#
# Elastic Compliance Matrix: (Units=1/GPa)
#
#
# Indices 1 2 3 4 5 6 
#
# 1 0.007878 -0.002575 -0.000302 0.000000 0.003619 0.000000
# 2 -0.002575 0.006423 -0.002383 0.000000 0.001319 0.000000
# 3 -0.000302 -0.002383 0.012433 0.000000 0.005456 0.000000
# 4 0.000000 0.000000 0.000000 0.030590 0.000000 -0.011890
# 5 0.003619 0.001319 0.005456 0.000000 0.027315 0.000000
# 6 0.000000 0.000000 0.000000 -0.011890 0.000000 -0.039563
#
#
# Mechanical properties :
#
#
# Convention : Reuss Voigt Hill
#
# Bulk Modulus (GPa) = 61.67983 97.23610 79.45796
# Shear Modulus (GPa) = 81.96745 31.95639 56.96192
#
# Velocity S-wave (km/s) = 5.71795 3.57025 4.76663
# Velocity P-wave (km/s) = 8.25808 7.46865 7.87327
#
# Compressibility (1/GPa) = 0.01621276
#
# Stress axis : x y z
#
# Youngs Moduli (GPa) = 126.93740 155.70110 80.43414
#
# Poissons Ratio (x) = 0.40096 0.02427
# Poissons Ratio (y) = 0.32689 0.19169
# Poissons Ratio (z) = 0.03831 0.37106
#
# Static dielectric constant tensor:
#      x y z
#    x 6.016300 0.000000 -2.731850 
#    y 0.000000 4.770160 0.000000 
#    z -2.731850 0.000000 8.815910 
# 
# 
# High freq. dielectric constant tensor:
#      x y z
#    x 2.012780 0.000000 -0.002600 
#    y 0.000000 2.008260 0.000000 
#    z -0.002600 0.000000 2.006470 
# 
# From -- ./inp_files/2295.got.cif
#   From: 2010.03.12/outbox.cif.g09.slc.cpg/sg5_2_cif.got.tgz:2295.got - 2010.03.31 09:47:26.
