data_PCOD8050656
_publ_section_title
;
Structure prediction by ZEFSAII (Michael W. Deem and Ramdas Pophale) SiO2 
 PCOD8050656
Probable space group: C 2
;
_chemical_formula_sum "Si O2"
_cell_formula_units_Z 26
_cell_length_a 10.408061
_cell_length_b 8.930594
_cell_length_c 21.462086
_cell_angle_alpha 90.000000
_cell_angle_beta 143.852588
_cell_angle_gamma 90.000000
_cell_volume 1176.723860
_symmetry_space_group_name_H-M "C 2"
_symmetry_group_IT_number 5
_symmetry_cell_setting 'monoclinic'
loop_
_space_group_symop_operation_xyz
x,y,z
-x,y,-z
1/2+x,1/2+y,z
1/2-x,1/2+y,-z
loop_
_atom_site_type_symbol
_atom_site_label
_atom_site_fract_x
_atom_site_fract_y
_atom_site_fract_z
Si Si1 0.584182 0.107760 0.235223
Si Si2 0.000000 0.615700 0.000000
Si Si3 0.552954 0.058685 0.451888
Si Si4 0.462707 0.713357 0.553337
Si Si5 0.403601 0.327562 0.070687
Si Si6 0.727261 0.077765 0.777385
Si Si7 0.422988 0.897010 0.874207
O O1 0.807734 0.199565 0.322815
O O2 0.417162 0.217206 0.134914
O O3 0.488461 0.058268 0.264534
O O4 0.633035 0.956545 0.216226
O O5 0.124647 0.726931 0.002157
O O6 0.832037 0.509575 0.893087
O O7 0.500000 0.123867 0.500000
O O8 0.353645 0.089220 0.325852
O O9 0.775586 0.131126 0.517156
O O10 0.606268 0.884690 0.478848
O O11 0.500000 0.640885 0.500000
O O12 0.607751 0.441179 0.147147
O O13 0.180511 0.417537 0.988769
O O14 0.840485 0.228922 0.845975
#
# Coordination Sequence:
#
# PCOD8050656 Si02
#       7
#     4   2   4   4   4   4   4
#     4  11  24  42  70  97 134 183 227 287 346 419
#     4  10  22  42  60  92 130 176 214 276 326 388
#     4  11  27  46  72 103 140 180 234 301 347 422
#     4  11  24  48  70 100 138 179 234 295 355 414
#     4  11  23  44  63  97 140 179 227 278 336 408
#     4  12  24  44  71 103 137 186 233 281 354 412
#     4  11  25  40  66 100 136 180 226 279 336 413
#
# _framework density 22.095241999999999
#
# number of rings (size 3 to 8) (size 9 to 14) (size 15 to 20)
#    0.000    0.923    3.077    3.692    2.154    3.692 
#   11.077    0.000    0.000    0.000    0.000    0.000 
#    0.000    0.000    0.000    0.000    0.000    0.000 
#
# Total GULP energy -161167.181791 kJ/mol
# GULP energy per Si atom -12397.475522 kJ/mol
# Density = 2.204495 g / cm^3
# Si number density = 22.095242 Si / 1000 Ang^3
#
#
#
# Elastic Constant Matrix: (Units=GPa)
#
#
# Indices 1 2 3 4 5 6 
#
# 1 141.8332 46.0279 58.1858 0.0000 -14.9742 0.0000
# 2 46.0279 93.7159 24.4252 0.0000 -6.8090 0.0000
# 3 58.1858 24.4252 97.6152 0.0000 -8.9764 0.0000
# 4 0.0000 0.0000 0.0000 35.7296 0.0000 -1.3614
# 5 -14.9742 -6.8090 -8.9764 0.0000 40.4773 0.0000
# 6 0.0000 0.0000 0.0000 -1.3614 0.0000 28.4399
#
#
#
# Elastic Compliance Matrix: (Units=1/GPa)
#
#
# Indices 1 2 3 4 5 6 
#
# 1 0.010612 -0.003700 -0.005202 0.000000 0.002150 0.000000
# 2 -0.003700 0.012774 -0.000938 0.000000 0.000572 0.000000
# 3 -0.005202 -0.000938 0.013667 0.000000 0.000949 0.000000
# 4 0.000000 0.000000 0.000000 0.028039 0.000000 0.001342
# 5 0.002150 0.000572 0.000949 0.000000 0.025807 0.000000
# 6 0.000000 0.000000 0.000000 0.001342 0.000000 0.035226
#
#
# Mechanical properties :
#
#
# Convention : Reuss Voigt Hill
#
# Bulk Modulus (GPa) = 57.56225 65.60466 61.58346
# Shear Modulus (GPa) = 32.98201 34.56441 33.77321
#
# Velocity S-wave (km/s) = 3.86777 3.95946 3.91388
# Velocity P-wave (km/s) = 6.78635 7.11754 6.95392
#
# Compressibility (1/GPa) = 0.01737250
#
# Stress axis : x y z
#
# Youngs Moduli (GPa) = 94.22881 78.28451 73.16797
#
# Poissons Ratio (x) = 0.28967 0.38064
# Poissons Ratio (y) = 0.34866 0.06864
# Poissons Ratio (z) = 0.49020 0.07344
#
# Static dielectric constant tensor:
#      x y z
#    x 4.122370 0.000000 -0.278110 
#    y 0.000000 3.968040 0.000000 
#    z -0.278110 0.000000 3.914340 
# 
# 
# High freq. dielectric constant tensor:
#      x y z
#    x 1.878260 0.000000 -0.017040 
#    y 0.000000 1.879460 0.000000 
#    z -0.017040 0.000000 1.862470 
# 
# From -- ./inp_files/68321.got.cif
#   From: 2010.03.12/outbox.cif.g09.slc.cpg/sg5_35_cif.got.tgz:68321.got - 2010.03.31 09:47:26.
