data_PCOD8050840
_publ_section_title
;
Structure prediction by ZEFSAII (Michael W. Deem and Ramdas Pophale) SiO2 
 PCOD8050840
Probable space group: C 2
;
_chemical_formula_sum "Si O2"
_cell_formula_units_Z 28
_cell_length_a 18.133997
_cell_length_b 8.745695
_cell_length_c 13.503090
_cell_angle_alpha 90.000000
_cell_angle_beta 143.150767
_cell_angle_gamma 90.000000
_cell_volume 1284.290749
_symmetry_space_group_name_H-M "C 2"
_symmetry_group_IT_number 5
_symmetry_cell_setting 'monoclinic'
loop_
_space_group_symop_operation_xyz
x,y,z
-x,y,-z
1/2+x,1/2+y,z
1/2-x,1/2+y,-z
loop_
_atom_site_type_symbol
_atom_site_label
_atom_site_fract_x
_atom_site_fract_y
_atom_site_fract_z
Si Si1 0.665056 0.932110 0.276998
Si Si2 0.500000 0.446485 0.500000
Si Si3 0.544738 0.788699 0.830794
Si Si4 0.000000 0.660713 0.000000
Si Si5 0.092254 0.778913 0.892826
Si Si6 0.815694 0.498353 0.138840
Si Si7 0.268300 0.247364 0.219785
Si Si8 0.080365 0.000305 0.382800
O O1 0.545632 0.904718 0.213152
O O2 0.709061 0.779618 0.263785
O O3 0.622510 0.061659 0.154420
O O4 0.771786 0.991335 0.465019
O O5 0.387882 0.350232 0.333727
O O6 0.549953 0.547740 0.463535
O O7 0.473407 0.629631 0.746102
O O8 0.581710 0.865120 0.764696
O O9 0.669350 0.777142 0.027275
O O10 0.955927 0.760388 0.046366
O O11 0.156098 0.627818 0.915507
O O12 0.972882 0.832799 0.701549
O O13 0.182351 0.924262 0.981136
O O14 0.816280 0.573610 0.250053
#
# Coordination Sequence:
#
# PCOD8050840 Si02
#       8
#     4   2   4   2   4   4   4   4
#     4  11  25  44  69 100 142 186 231 284 361 414
#     4  10  22  44  68 104 136 184 222 294 356 410
#     4  12  23  43  74 102 135 189 236 288 347 426
#     4  12  26  44  68 100 142 182 232 284 354 416
#     4  12  24  44  71 107 136 184 233 297 345 419
#     4  12  22  40  72 103 135 175 236 283 345 416
#     4  11  21  41  70  99 136 181 225 281 350 421
#     4  11  25  43  73  99 141 181 238 292 351 415
#
# _framework density 21.801915999999999
#
# number of rings (size 3 to 8) (size 9 to 14) (size 15 to 20)
#    0.000    0.571    7.143    0.000    2.000    3.429 
#    0.000    2.143    0.000    0.000    0.000    0.000 
#    0.000    0.000    0.000    0.000    0.000    0.000 
#
# Total GULP energy -173472.977940 kJ/mol
# GULP energy per Si atom -12390.926996 kJ/mol
# Density = 2.175229 g / cm^3
# Si number density = 21.801916 Si / 1000 Ang^3
#
#
#
# Elastic Constant Matrix: (Units=GPa)
#
#
# Indices 1 2 3 4 5 6 
#
# 1 103.9261 27.3064 36.5297 0.0000 8.5206 0.0000
# 2 27.3064 74.0734 40.4121 0.0000 -0.4294 0.0000
# 3 36.5297 40.4121 128.4696 0.0000 12.1144 0.0000
# 4 0.0000 0.0000 0.0000 16.9355 0.0000 -4.5901
# 5 8.5206 -0.4294 12.1144 0.0000 23.1883 0.0000
# 6 0.0000 0.0000 0.0000 -4.5901 0.0000 39.9388
#
#
#
# Elastic Compliance Matrix: (Units=1/GPa)
#
#
# Indices 1 2 3 4 5 6 
#
# 1 0.011401 -0.003162 -0.001942 0.000000 -0.003233 0.000000
# 2 -0.003162 0.017393 -0.004956 0.000000 0.004073 0.000000
# 3 -0.001942 -0.004956 0.010346 0.000000 -0.004783 0.000000
# 4 0.000000 0.000000 0.000000 0.060946 0.000000 0.007004
# 5 -0.003233 0.004073 -0.004783 0.000000 0.046888 0.000000
# 6 0.000000 0.000000 0.000000 0.007004 0.000000 0.025843
#
#
# Mechanical properties :
#
#
# Convention : Reuss Voigt Hill
#
# Bulk Modulus (GPa) = 52.57771 57.21838 54.89805
# Shear Modulus (GPa) = 25.09052 29.49391 27.29222
#
# Velocity S-wave (km/s) = 3.39608 3.68205 3.54195
# Velocity P-wave (km/s) = 6.28858 6.66170 6.47783
#
# Compressibility (1/GPa) = 0.01901947
#
# Stress axis : x y z
#
# Youngs Moduli (GPa) = 87.71338 57.49310 96.65208
#
# Poissons Ratio (x) = 0.18179 0.18772
# Poissons Ratio (y) = 0.27734 0.47905
# Poissons Ratio (z) = 0.17036 0.28496
#
# Static dielectric constant tensor:
#      x y z
#    x 4.090600 0.000000 0.178540 
#    y 0.000000 3.968640 0.000000 
#    z 0.178540 0.000000 3.952750 
# 
# 
# High freq. dielectric constant tensor:
#      x y z
#    x 1.867990 0.000000 0.021550 
#    y 0.000000 1.841010 0.000000 
#    z 0.021550 0.000000 1.851740 
# 
# From -- ./inp_files/55740.got.cif
#   From: 2010.03.12/outbox.cif.g09.slc.cpg/sg5_28_cif.got.tgz:55740.got - 2010.03.31 09:47:26.
