data_PCOD8050228
_publ_section_title
;
Structure prediction by ZEFSAII (Michael W. Deem and Ramdas Pophale) SiO2 
 PCOD8050228
Probable space group: C 2
;
_chemical_formula_sum "Si O2"
_cell_formula_units_Z 26
_cell_length_a 12.348227
_cell_length_b 21.027057
_cell_length_c 5.237919
_cell_angle_alpha 90.000000
_cell_angle_beta 64.218612
_cell_angle_gamma 90.000000
_cell_volume 1224.634107
_symmetry_space_group_name_H-M "C 2"
_symmetry_group_IT_number 5
_symmetry_cell_setting 'monoclinic'
loop_
_space_group_symop_operation_xyz
x,y,z
-x,y,-z
1/2+x,1/2+y,z
1/2-x,1/2+y,-z
loop_
_atom_site_type_symbol
_atom_site_label
_atom_site_fract_x
_atom_site_fract_y
_atom_site_fract_z
Si Si1 0.073430 0.994080 0.163390
Si Si2 0.500000 0.100101 0.000000
Si Si3 0.870615 0.676490 0.508743
Si Si4 0.000000 0.452885 0.500000
Si Si5 0.627038 0.352060 0.941426
Si Si6 0.821561 0.549361 0.809996
Si Si7 0.751051 0.807163 0.675439
Si Si8 0.000000 0.367636 0.000000
O O1 0.000000 0.999562 0.500000
O O2 0.103306 0.922357 0.064084
O O3 0.000000 0.024385 0.000000
O O4 0.198460 0.030589 0.074447
O O5 0.396122 0.146888 0.207004
O O6 0.562146 0.051969 0.128257
O O7 0.801178 0.619743 0.723165
O O8 0.779848 0.734803 0.567605
O O9 0.000000 0.694653 0.500000
O O10 0.875713 0.493815 0.570477
O O11 0.023131 0.409605 0.227303
O O12 0.704092 0.352825 0.600851
O O13 0.500000 0.318562 0.000000
O O14 0.686364 0.315482 0.114733
O O15 0.610835 0.819714 0.847566
#
# Coordination Sequence:
#
# PCOD8050228 Si02
#       8
#     4   2   4   2   4   4   4   2
#     4  11  25  42  63  96 138 171 219 260 328 414
#     4  10  21  42  66 100 126 161 232 272 346 364
#     4  10  23  41  65  99 126 172 225 280 328 381
#     4  12  24  44  74  96 136 166 232 286 322 390
#     4  11  23  42  67  97 126 175 217 277 327 371
#     4  11  23  41  68 100 128 173 221 283 334 377
#     4  12  25  43  67  96 138 171 221 264 329 408
#     4  12  27  44  64 104 134 189 208 262 348 398
#
# _framework density 21.230831999999999
#
# number of rings (size 3 to 8) (size 9 to 14) (size 15 to 20)
#    0.000    0.923    2.308    6.462    7.538    0.000 
#    1.385    0.000    0.000    0.000    0.000    0.000 
#    0.000    0.000    0.000    0.000    0.000    0.000 
#
# Total GULP energy -161108.217496 kJ/mol
# GULP energy per Si atom -12392.939807 kJ/mol
# Density = 2.118251 g / cm^3
# Si number density = 21.230832 Si / 1000 Ang^3
#
#
#
# Elastic Constant Matrix: (Units=GPa)
#
#
# Indices 1 2 3 4 5 6 
#
# 1 88.9209 47.7623 67.7871 0.0000 -17.0615 0.0000
# 2 47.7623 85.6373 41.4835 0.0000 -26.2196 0.0000
# 3 67.7871 41.4835 162.3037 0.0000 -19.3658 0.0000
# 4 0.0000 0.0000 0.0000 19.6425 0.0000 -11.9028
# 5 -17.0615 -26.2196 -19.3658 0.0000 46.6073 0.0000
# 6 0.0000 0.0000 0.0000 -11.9028 0.0000 22.2720
#
#
#
# Elastic Compliance Matrix: (Units=1/GPa)
#
#
# Indices 1 2 3 4 5 6 
#
# 1 0.020721 -0.008352 -0.006497 0.000000 0.000187 0.000000
# 2 -0.008352 0.018794 -0.000440 0.000000 0.007332 0.000000
# 3 -0.006497 -0.000440 0.009127 0.000000 0.001166 0.000000
# 4 0.000000 0.000000 0.000000 0.075294 0.000000 0.040239
# 5 0.000187 0.007332 0.001166 0.000000 0.026134 0.000000
# 6 0.000000 0.000000 0.000000 0.040239 0.000000 0.066404
#
#
# Mechanical properties :
#
#
# Convention : Reuss Voigt Hill
#
# Bulk Modulus (GPa) = 55.36528 72.32531 63.84530
# Shear Modulus (GPa) = 19.75720 29.69299 24.72509
#
# Velocity S-wave (km/s) = 3.05387 3.74381 3.41630
# Velocity P-wave (km/s) = 6.21041 7.26831 6.76009
#
# Compressibility (1/GPa) = 0.01806186
#
# Stress axis : x y z
#
# Youngs Moduli (GPa) = 48.26006 53.20981 109.57034
#
# Poissons Ratio (x) = 0.44442 0.71190
# Poissons Ratio (y) = 0.40307 0.04824
# Poissons Ratio (z) = 0.31356 0.02343
#
# Static dielectric constant tensor:
#      x y z
#    x 3.975850 0.000000 0.113790 
#    y 0.000000 3.694410 0.000000 
#    z 0.113790 0.000000 4.115520 
# 
# 
# High freq. dielectric constant tensor:
#      x y z
#    x 1.819180 0.000000 0.002660 
#    y 0.000000 1.825940 0.000000 
#    z 0.002660 0.000000 1.850500 
# 
# From -- ./inp_files/5422.got.cif
#   From: 2010.03.12/outbox.cif.g09.slc.cpg/sg5_3_cif.got.tgz:5422.got - 2010.03.31 09:47:26.
