data_PCOD8050038
_publ_section_title
;
Structure prediction by ZEFSAII (Michael W. Deem and Ramdas Pophale) SiO2 
 PCOD8050038
Probable space group: C 2
;
_chemical_formula_sum "Si O2"
_cell_formula_units_Z 28
_cell_length_a 9.377957
_cell_length_b 10.342311
_cell_length_c 14.988204
_cell_angle_alpha 90.000000
_cell_angle_beta 112.811276
_cell_angle_gamma 90.000000
_cell_volume 1340.003532
_symmetry_space_group_name_H-M "C 2"
_symmetry_group_IT_number 5
_symmetry_cell_setting 'monoclinic'
loop_
_space_group_symop_operation_xyz
x,y,z
-x,y,-z
1/2+x,1/2+y,z
1/2-x,1/2+y,-z
loop_
_atom_site_type_symbol
_atom_site_label
_atom_site_fract_x
_atom_site_fract_y
_atom_site_fract_z
Si Si1 0.561050 0.294350 0.613159
Si Si2 0.135354 0.395407 0.094836
Si Si3 0.322638 0.299858 0.707742
Si Si4 0.047156 0.868344 0.907254
Si Si5 0.081433 0.122567 0.113744
Si Si6 0.793430 0.517085 0.712954
Si Si7 0.633603 0.036198 0.726170
O O1 0.500000 0.271774 0.500000
O O2 0.419551 0.331912 0.642914
O O3 0.682156 0.412034 0.641704
O O4 0.640996 0.161081 0.663744
O O5 0.271523 0.339476 0.063556
O O6 0.073059 0.273198 0.139931
O O7 0.198380 0.501364 0.177856
O O8 0.000000 0.453752 0.000000
O O9 0.440629 0.276885 0.820018
O O10 0.233818 0.162107 0.676934
O O11 0.198950 0.412610 0.689572
O O12 0.017057 0.013634 0.857421
O O13 0.000000 0.852961 0.000000
O O14 0.259332 0.070861 0.161700
O O15 0.000000 0.115076 0.000000
O O16 0.963534 0.498930 0.714222
#
# Coordination Sequence:
#
# PCOD8050038 Si02
#       7
#     4   4   4   4   4   4   4
#     4  11  24  46  69  91 126 165 209 272 329 377
#     4  11  22  36  60  92 128 168 217 254 306 375
#     4  10  23  42  64  95 130 163 210 259 314 380
#     4  10  21  40  58  88 132 172 208 254 309 365
#     4   9  19  37  61  85 128 168 209 251 301 366
#     4  11  23  41  63  98 127 164 213 266 314 379
#     4  10  22  42  68  92 127 169 210 258 320 379
#
# _framework density 20.895465999999999
#
# number of rings (size 3 to 8) (size 9 to 14) (size 15 to 20)
#    0.000    1.714    2.857    0.857    6.000    5.143 
#    5.143    0.714    0.000    0.000    0.000    0.000 
#    0.000    0.000    0.000    0.000    0.000    0.000 
#
# Total GULP energy -173439.095879 kJ/mol
# GULP energy per Si atom -12388.506848 kJ/mol
# Density = 2.084791 g / cm^3
# Si number density = 20.895466 Si / 1000 Ang^3
#
#
#
# Elastic Constant Matrix: (Units=GPa)
#
#
# Indices 1 2 3 4 5 6 
#
# 1 86.5239 60.1394 40.0102 0.0000 -4.1070 0.0000
# 2 60.1394 123.9895 35.3966 0.0000 6.5341 0.0000
# 3 40.0102 35.3966 97.2320 0.0000 -5.3385 0.0000
# 4 0.0000 0.0000 0.0000 14.5486 0.0000 1.8547
# 5 -4.1070 6.5341 -5.3385 0.0000 25.2779 0.0000
# 6 0.0000 0.0000 0.0000 1.8547 0.0000 21.9228
#
#
#
# Elastic Compliance Matrix: (Units=1/GPa)
#
#
# Indices 1 2 3 4 5 6 
#
# 1 0.019931 -0.008512 -0.004860 0.000000 0.004412 0.000000
# 2 -0.008512 0.012875 -0.001460 0.000000 -0.005019 0.000000
# 3 -0.004860 -0.001460 0.012944 0.000000 0.002321 0.000000
# 4 0.000000 0.000000 0.000000 0.069485 0.000000 -0.005878
# 5 0.004412 -0.005019 0.002321 0.000000 0.042065 0.000000
# 6 0.000000 0.000000 0.000000 -0.005878 0.000000 0.046112
#
#
# Mechanical properties :
#
#
# Convention : Reuss Voigt Hill
#
# Bulk Modulus (GPa) = 62.17112 64.31530 63.24321
# Shear Modulus (GPa) = 20.96982 23.82981 22.39981
#
# Velocity S-wave (km/s) = 3.17134 3.38069 3.27768
# Velocity P-wave (km/s) = 6.57479 6.78860 6.68255
#
# Compressibility (1/GPa) = 0.01608464
#
# Stress axis : x y z
#
# Youngs Moduli (GPa) = 50.17329 77.66843 77.25794
#
# Poissons Ratio (x) = 0.66113 0.37550
# Poissons Ratio (y) = 0.42708 0.11280
# Poissons Ratio (z) = 0.24386 0.11340
#
# Static dielectric constant tensor:
#      x y z
#    x 3.717440 0.000000 0.090920 
#    y 0.000000 5.100290 0.000000 
#    z 0.090920 0.000000 3.599380 
# 
# 
# High freq. dielectric constant tensor:
#      x y z
#    x 1.807800 0.000000 0.012890 
#    y 0.000000 1.835010 0.000000 
#    z 0.012890 0.000000 1.793950 
# 
# From -- ./inp_files/50275.got.cif
#   From: 2010.03.12/outbox.cif.g09.slc.cpg/sg5_26_cif.got.tgz:50275.got - 2010.03.31 09:47:26.
