data_PCOD8050180
_publ_section_title
;
Structure prediction by ZEFSAII (Michael W. Deem and Ramdas Pophale) SiO2 
 PCOD8050180
Probable space group: C 2
;
_chemical_formula_sum "Si O2"
_cell_formula_units_Z 24
_cell_length_a 11.720595
_cell_length_b 7.803770
_cell_length_c 11.914775
_cell_angle_alpha 90.000000
_cell_angle_beta 84.753923
_cell_angle_gamma 90.000000
_cell_volume 1085.217949
_symmetry_space_group_name_H-M "C 2"
_symmetry_group_IT_number 5
_symmetry_cell_setting 'monoclinic'
loop_
_space_group_symop_operation_xyz
x,y,z
-x,y,-z
1/2+x,1/2+y,z
1/2-x,1/2+y,-z
loop_
_atom_site_type_symbol
_atom_site_label
_atom_site_fract_x
_atom_site_fract_y
_atom_site_fract_z
Si Si1 0.277552 0.299080 0.870774
Si Si2 0.751201 0.396963 0.882149
Si Si3 0.627398 0.134553 0.473320
Si Si4 0.449880 0.906849 0.715769
Si Si5 0.480076 0.198999 0.126375
Si Si6 0.812655 0.379858 0.350523
O O1 0.413992 0.328654 0.862064
O O2 0.228942 0.410807 0.773082
O O3 0.247548 0.098771 0.854935
O O4 0.220925 0.370893 0.989278
O O5 0.857196 0.312161 0.803101
O O6 0.635482 0.307373 0.853474
O O7 0.500000 0.217615 0.500000
O O8 0.719629 0.270228 0.424737
O O9 0.618395 0.981220 0.384280
O O10 0.673383 0.060508 0.586861
O O11 0.558739 0.791311 0.665030
O O12 0.516465 0.053771 0.780396
O O13 0.500000 0.119214 0.000000
#
# Coordination Sequence:
#
# PCOD8050180 Si02
#       6
#     4   4   4   4   4   4
#     4  10  22  42  64 100 133 169 218 259 323 392
#     4  10  21  41  66  98 138 169 208 261 326 394
#     4  10  23  47  65  89 129 171 220 273 320 375
#     4  10  22  41  68  92 132 167 214 266 327 381
#     4   9  19  38  64  90 132 174 202 252 319 384
#     4  11  23  44  68  93 126 170 223 270 320 379
#
# _framework density 22.115373000000002
#
# number of rings (size 3 to 8) (size 9 to 14) (size 15 to 20)
#    0.000    2.000    3.333    0.000    7.000    2.667 
#    9.000    7.500    0.000    0.000    0.000    0.000 
#    0.000    0.000    0.000    0.000    0.000    0.000 
#
# Total GULP energy -148711.098714 kJ/mol
# GULP energy per Si atom -12392.591559 kJ/mol
# Density = 2.206504 g / cm^3
# Si number density = 22.115373 Si / 1000 Ang^3
#
#
#
# Elastic Constant Matrix: (Units=GPa)
#
#
# Indices 1 2 3 4 5 6 
#
# 1 174.0402 43.6872 38.0710 0.0000 -35.4619 0.0000
# 2 43.6872 32.3866 14.9849 0.0000 -1.6372 0.0000
# 3 38.0710 14.9849 76.9252 0.0000 -7.1363 0.0000
# 4 0.0000 0.0000 0.0000 30.4058 0.0000 -5.1260
# 5 -35.4619 -1.6372 -7.1363 0.0000 50.8208 0.0000
# 6 0.0000 0.0000 0.0000 -5.1260 0.0000 34.3504
#
#
#
# Elastic Compliance Matrix: (Units=1/GPa)
#
#
# Indices 1 2 3 4 5 6 
#
# 1 0.011036 -0.013526 -0.002182 0.000000 0.006959 0.000000
# 2 -0.013526 0.050514 -0.003922 0.000000 -0.008361 0.000000
# 3 -0.002182 -0.003922 0.014884 0.000000 0.000442 0.000000
# 4 0.000000 0.000000 0.000000 0.033737 0.000000 0.005034
# 5 0.006959 -0.008361 0.000442 0.000000 0.024325 0.000000
# 6 0.000000 0.000000 0.000000 0.005034 0.000000 0.029863
#
#
# Mechanical properties :
#
#
# Convention : Reuss Voigt Hill
#
# Bulk Modulus (GPa) = 26.89878 52.98202 39.94040
# Shear Modulus (GPa) = 23.14706 35.55600 29.35153
#
# Velocity S-wave (km/s) = 3.23871 4.01403 3.64703
# Velocity P-wave (km/s) = 5.11615 6.74480 5.98612
#
# Compressibility (1/GPa) = 0.03717641
#
# Stress axis : x y z
#
# Youngs Moduli (GPa) = 90.61171 19.79644 67.18532
#
# Poissons Ratio (x) = 0.26776 0.14657
# Poissons Ratio (y) = 1.22559 0.26348
# Poissons Ratio (z) = 0.19767 0.07764
#
# Static dielectric constant tensor:
#      x y z
#    x 4.460970 0.000000 -0.156000 
#    y 0.000000 3.321070 0.000000 
#    z -0.156000 0.000000 4.392100 
# 
# 
# High freq. dielectric constant tensor:
#      x y z
#    x 1.897500 0.000000 -0.009200 
#    y 0.000000 1.805290 0.000000 
#    z -0.009200 0.000000 1.897170 
# 
# From -- ./inp_files/38347.got.cif
#   From: 2010.03.12/outbox.cif.g09.slc.cpg/sg5_20_cif.got.tgz:38347.got - 2010.03.31 09:47:26.
