data_PCOD8050842
_publ_section_title
;
Structure prediction by ZEFSAII (Michael W. Deem and Ramdas Pophale) SiO2 
 PCOD8050842
Probable space group: C 2
;
_chemical_formula_sum "Si O2"
_cell_formula_units_Z 20
_cell_length_a 12.406486
_cell_length_b 11.738495
_cell_length_c 9.480493
_cell_angle_alpha 90.000000
_cell_angle_beta 135.740016
_cell_angle_gamma 90.000000
_cell_volume 963.595648
_symmetry_space_group_name_H-M "C 2"
_symmetry_group_IT_number 5
_symmetry_cell_setting 'monoclinic'
loop_
_space_group_symop_operation_xyz
x,y,z
-x,y,-z
1/2+x,1/2+y,z
1/2-x,1/2+y,-z
loop_
_atom_site_type_symbol
_atom_site_label
_atom_site_fract_x
_atom_site_fract_y
_atom_site_fract_z
Si Si1 0.500000 0.870710 0.500000
Si Si2 0.500000 0.078382 0.000000
Si Si3 0.136503 0.411375 0.898648
Si Si4 0.967049 0.183401 0.805630
Si Si5 0.216664 0.749381 0.377344
Si Si6 0.520924 0.434878 0.852154
O O1 0.556355 0.955544 0.678395
O O2 0.355610 0.790452 0.407061
O O3 0.615961 0.155572 0.199505
O O4 0.401859 0.995727 0.009809
O O5 0.072732 0.283951 0.849529
O O6 0.316342 0.389243 0.048175
O O7 0.788921 0.202096 0.591698
O O8 0.010505 0.061740 0.779285
O O9 0.000000 0.175366 0.000000
O O10 0.111569 0.853573 0.333412
O O11 0.500000 0.430932 0.000000
#
# Coordination Sequence:
#
# PCOD8050842 Si02
#       6
#     2   2   4   4   4   4
#     4  10  22  44  68  92 138 186 222 270 332 420
#     4  12  26  42  70 104 136 174 230 292 332 402
#     4  11  24  42  70  98 141 172 234 278 341 392
#     4  10  25  44  66  98 138 178 227 280 333 404
#     4  11  24  43  70  99 134 182 231 272 346 400
#     4  11  23  43  69  93 135 185 225 273 337 409
#
# _framework density 20.755593999999999
#
# number of rings (size 3 to 8) (size 9 to 14) (size 15 to 20)
#    0.000    1.200    4.000    0.000   14.000    0.000 
#    0.000    3.000    0.000    0.000    0.000    0.000 
#    0.000    0.000    0.000    0.000    0.000    0.000 
#
# Total GULP energy -123917.961663 kJ/mol
# GULP energy per Si atom -12391.796166 kJ/mol
# Density = 2.070835 g / cm^3
# Si number density = 20.755594 Si / 1000 Ang^3
#
#
#
# Elastic Constant Matrix: (Units=GPa)
#
#
# Indices 1 2 3 4 5 6 
#
# 1 116.9357 49.4560 51.6259 0.0000 27.1967 0.0000
# 2 49.4560 135.2218 71.8858 0.0000 19.0264 0.0000
# 3 51.6259 71.8858 163.9406 0.0000 15.1523 0.0000
# 4 0.0000 0.0000 0.0000 14.6515 0.0000 8.1874
# 5 27.1967 19.0264 15.1523 0.0000 38.4310 0.0000
# 6 0.0000 0.0000 0.0000 8.1874 0.0000 10.2344
#
#
#
# Elastic Compliance Matrix: (Units=1/GPa)
#
#
# Indices 1 2 3 4 5 6 
#
# 1 0.011998 -0.002328 -0.002158 0.000000 -0.006487 0.000000
# 2 -0.002328 0.010496 -0.003675 0.000000 -0.002100 0.000000
# 3 -0.002158 -0.003675 0.008387 0.000000 0.000040 0.000000
# 4 0.000000 0.000000 0.000000 0.123432 0.000000 -0.098745
# 5 -0.006487 -0.002100 0.000040 0.000000 0.031635 0.000000
# 6 0.000000 0.000000 0.000000 -0.098745 0.000000 0.176705
#
#
# Mechanical properties :
#
#
# Convention : Reuss Voigt Hill
#
# Bulk Modulus (GPa) = 68.68723 84.67040 76.67882
# Shear Modulus (GPa) = 13.02668 28.87205 20.94936
#
# Velocity S-wave (km/s) = 2.50796 3.73372 3.18045
# Velocity P-wave (km/s) = 6.44606 7.71169 7.10710
#
# Compressibility (1/GPa) = 0.01455875
#
# Stress axis : x y z
#
# Youngs Moduli (GPa) = 83.34886 95.27476 119.23126
#
# Poissons Ratio (x) = 0.22182 0.25726
# Poissons Ratio (y) = 0.19406 0.43819
# Poissons Ratio (z) = 0.17984 0.35014
#
# Static dielectric constant tensor:
#      x y z
#    x 3.695600 0.000000 -0.132580 
#    y 0.000000 4.199240 0.000000 
#    z -0.132580 0.000000 4.586010 
# 
# 
# High freq. dielectric constant tensor:
#      x y z
#    x 1.802610 0.000000 0.010000 
#    y 0.000000 1.816190 0.000000 
#    z 0.010000 0.000000 1.829710 
# 
# From -- ./inp_files/18967.got.cif
#   From: 2010.03.12/outbox.cif.g09.slc.cpg/sg5_10_cif.got.tgz:18967.got - 2010.03.31 09:47:26.
