data_PCOD8050074
_publ_section_title
;
Structure prediction by ZEFSAII (Michael W. Deem and Ramdas Pophale) SiO2 
 PCOD8050074
Probable space group: C 2
;
_chemical_formula_sum "Si O2"
_cell_formula_units_Z 24
_cell_length_a 24.507648
_cell_length_b 11.712547
_cell_length_c 11.195270
_cell_angle_alpha 90.000000
_cell_angle_beta 22.243480
_cell_angle_gamma 90.000000
_cell_volume 1216.474776
_symmetry_space_group_name_H-M "C 2"
_symmetry_group_IT_number 5
_symmetry_cell_setting 'monoclinic'
loop_
_space_group_symop_operation_xyz
x,y,z
-x,y,-z
1/2+x,1/2+y,z
1/2-x,1/2+y,-z
loop_
_atom_site_type_symbol
_atom_site_label
_atom_site_fract_x
_atom_site_fract_y
_atom_site_fract_z
Si Si1 0.670406 0.660550 0.668839
Si Si2 0.616525 0.318035 0.661807
Si Si3 0.808593 0.607606 0.616315
Si Si4 0.027750 0.457557 0.304545
Si Si5 0.537435 0.691662 0.288780
Si Si6 0.304322 0.547958 0.619406
O O1 0.730688 0.786500 0.582190
O O2 0.715741 0.573890 0.685354
O O3 0.748456 0.616112 0.391022
O O4 0.500000 0.664856 0.000000
O O5 0.582651 0.212058 0.640146
O O6 0.623713 0.430557 0.568454
O O7 0.500000 0.334261 0.000000
O O8 0.896842 0.502012 0.488692
O O9 0.698428 0.647360 0.941976
O O10 0.036178 0.324605 0.257423
O O11 0.000000 0.481505 0.500000
O O12 0.173182 0.523362 0.974263
O O13 0.500000 0.669087 0.500000
O O14 0.422777 0.624964 0.442471
#
# Coordination Sequence:
#
# PCOD8050074 Si02
#       6
#     4   4   4   4   4   4
#     4  10  21  40  63  96 130 168 206 263 324 380
#     4  10  22  39  62  97 137 158 214 264 320 390
#     4  10  22  45  63  96 132 165 214 265 318 382
#     4  11  24  44  68  94 129 174 216 264 316 379
#     4  11  24  45  66  94 130 170 221 266 313 378
#     4  12  22  42  67  94 130 171 213 264 324 383
#
# _framework density 19.729139
#
# number of rings (size 3 to 8) (size 9 to 14) (size 15 to 20)
#    1.000    0.333    3.333    2.500    0.000    1.333 
#    3.000    0.833    0.000    0.000    0.000    0.000 
#    0.000    0.000    0.000    0.000    0.000    0.000 
#
# Total GULP energy -148720.000071 kJ/mol
# GULP energy per Si atom -12393.333339 kJ/mol
# Density = 1.968423 g / cm^3
# Si number density = 19.729139 Si / 1000 Ang^3
#
#
#
# Elastic Constant Matrix: (Units=GPa)
#
#
# Indices 1 2 3 4 5 6 
#
# 1 87.6947 26.9968 27.1289 0.0000 0.6338 0.0000
# 2 26.9968 56.4430 16.0768 0.0000 2.8058 0.0000
# 3 27.1289 16.0768 118.0152 0.0000 16.2834 0.0000
# 4 0.0000 0.0000 0.0000 28.2967 0.0000 -6.4947
# 5 0.6338 2.8058 16.2834 0.0000 36.6172 0.0000
# 6 0.0000 0.0000 0.0000 -6.4947 0.0000 33.8194
#
#
#
# Elastic Compliance Matrix: (Units=1/GPa)
#
#
# Indices 1 2 3 4 5 6 
#
# 1 0.014060 -0.006054 -0.002597 0.000000 0.001375 0.000000
# 2 -0.006054 0.021042 -0.001350 0.000000 -0.000907 0.000000
# 3 -0.002597 -0.001350 0.009838 0.000000 -0.004226 0.000000
# 4 0.000000 0.000000 0.000000 0.036969 0.000000 0.007100
# 5 0.001375 -0.000907 -0.004226 0.000000 0.029235 0.000000
# 6 0.000000 0.000000 0.000000 0.007100 0.000000 0.030932
#
#
# Mechanical properties :
#
#
# Convention : Reuss Voigt Hill
#
# Bulk Modulus (GPa) = 40.09841 44.72866 42.41353
# Shear Modulus (GPa) = 29.34438 32.54334 30.94386
#
# Velocity S-wave (km/s) = 3.86082 4.06582 3.96464
# Velocity P-wave (km/s) = 6.34375 6.69042 6.51939
#
# Compressibility (1/GPa) = 0.02493865
#
# Stress axis : x y z
#
# Youngs Moduli (GPa) = 71.12189 47.52389 101.65161
#
# Poissons Ratio (x) = 0.28770 0.26401
# Poissons Ratio (y) = 0.43055 0.13720
# Poissons Ratio (z) = 0.18472 0.06414
#
# Static dielectric constant tensor:
#      x y z
#    x 3.639030 0.000000 0.333570 
#    y 0.000000 3.523820 0.000000 
#    z 0.333570 0.000000 3.711090 
# 
# 
# High freq. dielectric constant tensor:
#      x y z
#    x 1.767130 0.000000 0.018970 
#    y 0.000000 1.762580 0.000000 
#    z 0.018970 0.000000 1.782140 
# 
# From -- ./inp_files/47999.got.cif
#   From: 2010.03.12/outbox.cif.g09.slc.cpg/sg5_24_cif.got.tgz:47999.got - 2010.03.31 09:47:26.
