data_PCOD8050361
_publ_section_title
;
Structure prediction by ZEFSAII (Michael W. Deem and Ramdas Pophale) SiO2 
 PCOD8050361
Probable space group: C 2
;
_chemical_formula_sum "Si O2"
_cell_formula_units_Z 26
_cell_length_a 5.373195
_cell_length_b 26.853202
_cell_length_c 8.836401
_cell_angle_alpha 90.000000
_cell_angle_beta 80.502388
_cell_angle_gamma 90.000000
_cell_volume 1257.505284
_symmetry_space_group_name_H-M "C 2"
_symmetry_group_IT_number 5
_symmetry_cell_setting 'monoclinic'
loop_
_space_group_symop_operation_xyz
x,y,z
-x,y,-z
1/2+x,1/2+y,z
1/2-x,1/2+y,-z
loop_
_atom_site_type_symbol
_atom_site_label
_atom_site_fract_x
_atom_site_fract_y
_atom_site_fract_z
Si Si1 0.182341 0.930980 0.293234
Si Si2 0.051171 0.042442 0.325017
Si Si3 0.312762 0.349187 0.201784
Si Si4 0.276751 0.166206 0.923990
Si Si5 0.000000 0.381840 0.500000
Si Si6 0.500000 0.261817 0.000000
Si Si7 0.000000 0.403287 0.000000
Si Si8 0.059173 0.593167 0.317960
O O1 0.284454 0.918213 0.451999
O O2 0.021394 0.884899 0.250509
O O3 0.041025 0.982928 0.310973
O O4 0.406905 0.937380 0.148248
O O5 0.320287 0.067781 0.254162
O O6 0.000000 0.059040 0.500000
O O7 0.809422 0.060584 0.253528
O O8 0.095263 0.346930 0.352614
O O9 0.405909 0.293792 0.153829
O O10 0.219505 0.368677 0.047610
O O11 0.284464 0.226218 0.947700
O O12 0.360054 0.148402 0.747739
O O13 0.500000 0.140601 0.000000
O O14 0.000000 0.146789 0.000000
O O15 0.000000 0.597193 0.500000
#
# Coordination Sequence:
#
# PCOD8050361 Si02
#       8
#     4   4   4   4   2   2   2   4
#     4  11  22  39  59  95 134 174 214 260 308 385
#     4  10  22  37  66  92 130 171 211 252 323 377
#     4  11  21  42  60  96 126 174 212 264 314 386
#     4  10  23  43  68  94 121 165 208 271 334 383
#     4  10  24  34  68  88 140 162 220 262 306 372
#     4  10  24  40  71  82 130 167 210 260 342 382
#     4  10  22  36  61  84 136 171 214 258 314 364
#     4  10  22  43  65  94 124 166 212 268 317 383
#
# _framework density 20.675857000000001
#
# number of rings (size 3 to 8) (size 9 to 14) (size 15 to 20)
#    0.462    1.231    1.538    2.308    8.615    0.000 
#    4.154    3.077    0.000    0.000    0.000    0.000 
#    0.000    0.000    0.000    0.000    0.000    0.000 
#
# Total GULP energy -161049.885373 kJ/mol
# GULP energy per Si atom -12388.452721 kJ/mol
# Density = 2.062880 g / cm^3
# Si number density = 20.675857 Si / 1000 Ang^3
#
#
#
# Elastic Constant Matrix: (Units=GPa)
#
#
# Indices 1 2 3 4 5 6 
#
# 1 144.9895 53.1236 31.6885 0.0000 10.5307 0.0000
# 2 53.1236 120.6781 45.3487 0.0000 -7.1355 0.0000
# 3 31.6885 45.3487 87.4630 0.0000 -0.7028 0.0000
# 4 0.0000 0.0000 0.0000 30.0060 0.0000 -7.8311
# 5 10.5307 -7.1355 -0.7028 0.0000 32.9498 0.0000
# 6 0.0000 0.0000 0.0000 -7.8311 0.0000 14.7559
#
#
#
# Elastic Compliance Matrix: (Units=1/GPa)
#
#
# Indices 1 2 3 4 5 6 
#
# 1 0.008759 -0.003558 -0.001357 0.000000 -0.003599 0.000000
# 2 -0.003558 0.011887 -0.004845 0.000000 0.003608 0.000000
# 3 -0.001357 -0.004845 0.014435 0.000000 -0.000308 0.000000
# 4 0.000000 0.000000 0.000000 0.038685 0.000000 0.020530
# 5 -0.003599 0.003608 -0.000308 0.000000 0.032274 0.000000
# 6 0.000000 0.000000 0.000000 0.020530 0.000000 0.078665
#
#
# Mechanical properties :
#
#
# Convention : Reuss Voigt Hill
#
# Bulk Modulus (GPa) = 64.27122 68.16136 66.21629
# Shear Modulus (GPa) = 23.87626 30.40699 27.14162
#
# Velocity S-wave (km/s) = 3.40191 3.83907 3.62708
# Velocity P-wave (km/s) = 6.82519 7.25875 7.04531
#
# Compressibility (1/GPa) = 0.01555906
#
# Stress axis : x y z
#
# Youngs Moduli (GPa) = 114.16948 84.12549 69.27710
#
# Poissons Ratio (x) = 0.29936 0.09403
# Poissons Ratio (y) = 0.40627 0.33565
# Poissons Ratio (z) = 0.15496 0.40759
#
# Static dielectric constant tensor:
#      x y z
#    x 4.109810 0.000000 -0.136400 
#    y 0.000000 3.379530 0.000000 
#    z -0.136400 0.000000 3.832900 
# 
# 
# High freq. dielectric constant tensor:
#      x y z
#    x 1.828240 0.000000 -0.007970 
#    y 0.000000 1.778580 0.000000 
#    z -0.007970 0.000000 1.805240 
# 
# From -- ./inp_files/13059.got.cif
#   From: 2010.03.12/outbox.cif.g09.slc.cpg/sg5_7_cif.got.tgz:13059.got - 2010.03.31 09:47:26.
