data_PCOD8050565
_publ_section_title
;
Structure prediction by ZEFSAII (Michael W. Deem and Ramdas Pophale) SiO2 
 PCOD8050565
Probable space group: C 2
;
_chemical_formula_sum "Si O2"
_cell_formula_units_Z 22
_cell_length_a 8.736271
_cell_length_b 11.922203
_cell_length_c 9.735224
_cell_angle_alpha 90.000000
_cell_angle_beta 78.230376
_cell_angle_gamma 90.000000
_cell_volume 992.659849
_symmetry_space_group_name_H-M "C 2"
_symmetry_group_IT_number 5
_symmetry_cell_setting 'monoclinic'
loop_
_space_group_symop_operation_xyz
x,y,z
-x,y,-z
1/2+x,1/2+y,z
1/2-x,1/2+y,-z
loop_
_atom_site_type_symbol
_atom_site_label
_atom_site_fract_x
_atom_site_fract_y
_atom_site_fract_z
Si Si1 0.500000 0.369130 0.500000
Si Si2 0.004521 0.255542 0.649096
Si Si3 0.716739 0.564961 0.709566
Si Si4 0.153809 0.818267 0.738831
Si Si5 0.498060 0.113008 0.152645
Si Si6 0.301422 0.982941 0.399790
O O1 0.598999 0.294216 0.589914
O O2 0.623025 0.448836 0.397435
O O3 0.094310 0.167504 0.729575
O O4 0.091127 0.373681 0.620675
O O5 0.000000 0.198393 0.500000
O O6 0.831234 0.280244 0.735285
O O7 0.630634 0.450385 0.771244
O O8 0.807447 0.542532 0.548854
O O9 0.837830 0.595534 0.805403
O O10 0.039722 0.745762 0.856006
O O11 0.355936 0.064856 0.269513
O O12 0.500000 0.058800 0.000000
#
# Coordination Sequence:
#
# PCOD8050565 Si02
#       6
#     2   4   4   4   4   4
#     4  10  22  40  70 112 136 174 238 296 350 400
#     4  12  21  42  71 107 142 172 234 296 358 409
#     4  11  25  45  73 104 139 186 236 297 350 414
#     4  11  25  43  67 107 138 181 237 296 345 423
#     4  12  27  49  69 100 150 192 233 290 355 425
#     4  11  23  43  74 107 142 182 234 300 351 417
#
# _framework density 22.162678
#
# number of rings (size 3 to 8) (size 9 to 14) (size 15 to 20)
#    0.000    0.727    5.455    2.727   12.727    0.000 
#    6.545    0.909    0.000    0.000    0.000    0.000 
#    0.000    0.000    0.000    0.000    0.000    0.000 
#
# Total GULP energy -136368.166606 kJ/mol
# GULP energy per Si atom -12397.106055 kJ/mol
# Density = 2.211223 g / cm^3
# Si number density = 22.162678 Si / 1000 Ang^3
#
#
#
# Elastic Constant Matrix: (Units=GPa)
#
#
# Indices 1 2 3 4 5 6 
#
# 1 122.4672 43.8314 44.5131 0.0000 33.8064 0.0000
# 2 43.8314 112.1486 38.4366 0.0000 13.3732 0.0000
# 3 44.5131 38.4366 100.9599 0.0000 15.8633 0.0000
# 4 0.0000 0.0000 0.0000 17.5354 0.0000 -6.0340
# 5 33.8064 13.3732 15.8633 0.0000 18.3040 0.0000
# 6 0.0000 0.0000 0.0000 -6.0340 0.0000 47.9604
#
#
#
# Elastic Compliance Matrix: (Units=1/GPa)
#
#
# Indices 1 2 3 4 5 6 
#
# 1 0.018130 -0.002783 -0.002306 0.000000 -0.029453 0.000000
# 2 -0.002783 0.011053 -0.002917 0.000000 -0.000407 0.000000
# 3 -0.002306 -0.002917 0.012767 0.000000 -0.004674 0.000000
# 4 0.000000 0.000000 0.000000 0.059608 0.000000 0.007499
# 5 -0.029453 -0.000407 -0.004674 0.000000 0.113379 0.000000
# 6 0.000000 0.000000 0.000000 0.007499 0.000000 0.021794
#
#
# Mechanical properties :
#
#
# Convention : Reuss Voigt Hill
#
# Bulk Modulus (GPa) = 38.55500 65.45976 52.00738
# Shear Modulus (GPa) = 19.12858 30.67960 24.90409
#
# Velocity S-wave (km/s) = 2.94104 3.72464 3.35579
# Velocity P-wave (km/s) = 5.38211 6.93523 6.20744
#
# Compressibility (1/GPa) = 0.02593697
#
# Stress axis : x y z
#
# Youngs Moduli (GPa) = 55.15646 90.47528 78.32979
#
# Poissons Ratio (x) = 0.25183 0.18064
# Poissons Ratio (y) = 0.15352 0.22847
# Poissons Ratio (z) = 0.12720 0.26390
#
# Static dielectric constant tensor:
#      x y z
#    x 4.239960 0.000000 0.149040 
#    y 0.000000 4.208320 0.000000 
#    z 0.149040 0.000000 3.537780 
# 
# 
# High freq. dielectric constant tensor:
#      x y z
#    x 1.891140 0.000000 0.016560 
#    y 0.000000 1.886290 0.000000 
#    z 0.016560 0.000000 1.816370 
# 
# From -- ./inp_files/15018.got.cif
#   From: 2010.03.12/outbox.cif.g09.slc.cpg/sg5_8_cif.got.tgz:15018.got - 2010.03.31 09:47:26.
