data_PCOD8050613
_publ_section_title
;
Structure prediction by ZEFSAII (Michael W. Deem and Ramdas Pophale) SiO2 
 PCOD8050613
Probable space group: C 2
;
_chemical_formula_sum "Si O2"
_cell_formula_units_Z 24
_cell_length_a 7.695445
_cell_length_b 15.207659
_cell_length_c 12.874530
_cell_angle_alpha 90.000000
_cell_angle_beta 133.018210
_cell_angle_gamma 90.000000
_cell_volume 1101.605756
_symmetry_space_group_name_H-M "C 2"
_symmetry_group_IT_number 5
_symmetry_cell_setting 'monoclinic'
loop_
_space_group_symop_operation_xyz
x,y,z
-x,y,-z
1/2+x,1/2+y,z
1/2-x,1/2+y,-z
loop_
_atom_site_type_symbol
_atom_site_label
_atom_site_fract_x
_atom_site_fract_y
_atom_site_fract_z
Si Si1 0.731780 0.139720 0.046191
Si Si2 0.320685 0.401755 0.752401
Si Si3 0.500000 0.513542 0.000000
Si Si4 0.217532 0.778983 0.877801
Si Si5 0.380567 0.169881 0.614008
Si Si6 0.500000 0.024206 0.500000
Si Si7 0.576049 0.716352 0.675733
O O1 0.852774 0.074019 0.016772
O O2 0.916651 0.171237 0.208800
O O3 0.500000 0.093076 0.000000
O O4 0.633840 0.225000 0.945043
O O5 0.589863 0.373898 0.830022
O O6 0.222381 0.462031 0.619144
O O7 0.164171 0.315939 0.706975
O O8 0.320431 0.454205 0.860596
O O9 0.123069 0.725045 0.737427
O O10 0.500000 0.789598 0.000000
O O11 0.443199 0.079733 0.580652
O O12 0.232708 0.155481 0.660937
O O13 0.202347 0.223413 0.466418
#
# Coordination Sequence:
#
# PCOD8050613 Si02
#       7
#     4   4   2   4   4   2   4
#     4  12  22  42  72 101 137 188 237 289 338 426
#     4  11  23  43  67 102 141 181 221 301 356 395
#     4  12  26  40  68 106 144 176 236 294 360 398
#     4  11  23  43  73 101 134 186 245 278 340 431
#     4  10  22  41  67 105 128 181 236 280 339 425
#     4  12  24  40  72 102 142 172 228 300 350 402
#     4  10  22  44  73  90 135 189 235 273 348 430
#
# _framework density 21.786377999999999
#
# number of rings (size 3 to 8) (size 9 to 14) (size 15 to 20)
#    0.000    1.000    4.167    5.000    2.333    0.667 
#    0.000    0.000    7.333    2.000    0.000    0.000 
#    0.000    0.000    0.000    0.000    0.000    0.000 
#
# Total GULP energy -148748.229941 kJ/mol
# GULP energy per Si atom -12395.685828 kJ/mol
# Density = 2.173679 g / cm^3
# Si number density = 21.786378 Si / 1000 Ang^3
#
#
#
# Elastic Constant Matrix: (Units=GPa)
#
#
# Indices 1 2 3 4 5 6 
#
# 1 111.9952 73.1686 67.2662 0.0000 2.3960 0.0000
# 2 73.1686 128.1835 75.9072 0.0000 -4.0099 0.0000
# 3 67.2662 75.9072 197.3626 0.0000 6.5783 -0.0001
# 4 0.0000 0.0000 0.0000 43.8984 0.0000 -1.2691
# 5 2.3960 -4.0099 6.5783 0.0000 47.4023 -0.0001
# 6 0.0000 0.0000 -0.0001 -1.2691 -0.0001 5.8701
#
#
#
# Elastic Compliance Matrix: (Units=1/GPa)
#
#
# Indices 1 2 3 4 5 6 
#
# 1 0.015097 -0.007283 -0.002309 0.000000 -0.001059 0.000000
# 2 -0.007283 0.013709 -0.002854 0.000000 0.001924 0.000000
# 3 -0.002309 -0.002854 0.006988 0.000000 -0.001095 0.000000
# 4 0.000000 0.000000 0.000000 0.022923 0.000000 0.004956
# 5 -0.001059 0.001924 -0.001095 0.000000 0.021464 0.000000
# 6 0.000000 0.000000 0.000000 0.004956 0.000000 0.171426
#
#
# Mechanical properties :
#
#
# Convention : Reuss Voigt Hill
#
# Bulk Modulus (GPa) = 91.73633 96.69169 94.21401
# Shear Modulus (GPa) = 17.84863 34.18079 26.01471
#
# Velocity S-wave (km/s) = 2.86537 3.96524 3.45930
# Velocity P-wave (km/s) = 7.29011 8.08964 7.70026
#
# Compressibility (1/GPa) = 0.01090081
#
# Stress axis : x y z
#
# Youngs Moduli (GPa) = 66.24026 72.94386 143.10099
#
# Poissons Ratio (x) = 0.53126 0.33040
# Poissons Ratio (y) = 0.48244 0.40848
# Poissons Ratio (z) = 0.15294 0.20822
#
# Static dielectric constant tensor:
#      x y z
#    x 3.903940 0.000000 -0.130180 
#    y 0.000000 3.922780 0.000000 
#    z -0.130180 0.000000 4.581280 
# 
# 
# High freq. dielectric constant tensor:
#      x y z
#    x 1.837930 0.000000 -0.001370 
#    y 0.000000 1.839220 0.000000 
#    z -0.001370 0.000000 1.895140 
# 
# From -- ./inp_files/51048.got.cif
#   From: 2010.03.12/outbox.cif.g09.slc.cpg/sg5_26_cif.got.tgz:51048.got - 2010.03.31 09:47:26.
