data_PCOD8050599
_publ_section_title
;
Structure prediction by ZEFSAII (Michael W. Deem and Ramdas Pophale) SiO2 
 PCOD8050599
Probable space group: C 2
;
_chemical_formula_sum "Si O2"
_cell_formula_units_Z 22
_cell_length_a 12.892355
_cell_length_b 8.105598
_cell_length_c 9.217900
_cell_angle_alpha 90.000000
_cell_angle_beta 75.492299
_cell_angle_gamma 90.000000
_cell_volume 932.557888
_symmetry_space_group_name_H-M "C 2"
_symmetry_group_IT_number 5
_symmetry_cell_setting 'monoclinic'
loop_
_space_group_symop_operation_xyz
x,y,z
-x,y,-z
1/2+x,1/2+y,z
1/2-x,1/2+y,-z
loop_
_atom_site_type_symbol
_atom_site_label
_atom_site_fract_x
_atom_site_fract_y
_atom_site_fract_z
Si Si1 0.523995 0.883880 0.210319
Si Si2 0.673659 0.082183 0.842180
Si Si3 0.690200 0.285301 0.563372
Si Si4 0.729444 0.775666 0.955345
Si Si5 0.847846 0.142788 0.299392
Si Si6 0.000000 0.579635 0.500000
O O1 0.630499 0.845265 0.085132
O O2 0.469582 0.705573 0.253881
O O3 0.443513 0.004992 0.147899
O O4 0.551488 0.967197 0.355152
O O5 0.724119 0.181438 0.692035
O O6 0.672585 0.208077 0.981528
O O7 0.760708 0.938240 0.850529
O O8 0.787178 0.284574 0.415062
O O9 0.661466 0.469598 0.618438
O O10 0.590367 0.198545 0.525802
O O11 0.696313 0.633830 0.850677
#
# Coordination Sequence:
#
# PCOD8050599 Si02
#       6
#     4   4   4   4   4   2
#     4  10  24  45  69 100 141 182 231 295 347 419
#     4  10  22  41  65 101 133 180 233 279 347 414
#     4  11  24  44  68  99 139 182 232 287 347 424
#     4  11  23  43  71 101 138 185 228 291 354 410
#     4  11  23  44  68  98 138 179 232 289 347 418
#     4  10  24  44  68 102 136 182 230 288 354 416
#
# _framework density 23.59103
#
# number of rings (size 3 to 8) (size 9 to 14) (size 15 to 20)
#    0.000    1.455    0.000    6.545    7.636    0.727 
#    6.545    7.273    0.000    0.000    0.000    0.000 
#    0.000    0.000    0.000    0.000    0.000    0.000 
#
# Total GULP energy -136339.447094 kJ/mol
# GULP energy per Si atom -12394.495190 kJ/mol
# Density = 2.353734 g / cm^3
# Si number density = 23.591030 Si / 1000 Ang^3
#
#
#
# Elastic Constant Matrix: (Units=GPa)
#
#
# Indices 1 2 3 4 5 6 
#
# 1 47.8033 39.0630 39.3677 0.0000 8.6706 0.0000
# 2 39.0630 135.4970 60.7479 0.0000 11.7499 0.0000
# 3 39.3677 60.7479 142.6812 0.0000 21.1930 0.0000
# 4 0.0000 0.0000 0.0000 50.9525 0.0000 5.1216
# 5 8.6706 11.7499 21.1930 0.0000 43.0715 0.0000
# 6 0.0000 0.0000 0.0000 5.1216 0.0000 22.6302
#
#
#
# Elastic Compliance Matrix: (Units=1/GPa)
#
#
# Indices 1 2 3 4 5 6 
#
# 1 0.030983 -0.006259 -0.005622 0.000000 -0.001763 0.000000
# 2 -0.006259 0.010401 -0.002662 0.000000 -0.000268 0.000000
# 3 -0.005622 -0.002662 0.010160 0.000000 -0.003141 0.000000
# 4 0.000000 0.000000 0.000000 0.020083 0.000000 -0.004545
# 5 -0.001763 -0.000268 -0.003141 0.000000 0.025191 0.000000
# 6 0.000000 0.000000 0.000000 -0.004545 0.000000 0.045217
#
#
# Mechanical properties :
#
#
# Convention : Reuss Voigt Hill
#
# Bulk Modulus (GPa) = 44.52566 67.14873 55.83720
# Shear Modulus (GPa) = 27.99447 35.78438 31.88942
#
# Velocity S-wave (km/s) = 3.44853 3.89892 3.68062
# Velocity P-wave (km/s) = 5.89673 6.98529 6.46396
#
# Compressibility (1/GPa) = 0.02245896
#
# Stress axis : x y z
#
# Youngs Moduli (GPa) = 32.27547 96.14285 98.42867
#
# Poissons Ratio (x) = 0.60174 0.55337
# Poissons Ratio (y) = 0.20201 0.26199
# Poissons Ratio (z) = 0.18145 0.25591
#
# Static dielectric constant tensor:
#      x y z
#    x 3.969590 0.000000 0.346270 
#    y 0.000000 4.457520 0.000000 
#    z 0.346270 0.000000 4.923260 
# 
# 
# High freq. dielectric constant tensor:
#      x y z
#    x 1.901530 0.000000 0.018990 
#    y 0.000000 1.941920 0.000000 
#    z 0.018990 0.000000 1.966220 
# 
# From -- ./inp_files/22657.got.cif
#   From: 2010.03.12/outbox.cif.g09.slc.cpg/sg5_12_cif.got.tgz:22657.got - 2010.03.31 09:47:26.
