data_PCOD8050604
_publ_section_title
;
Structure prediction by ZEFSAII (Michael W. Deem and Ramdas Pophale) SiO2 
 PCOD8050604
Probable space group: C 2
;
_chemical_formula_sum "Si O2"
_cell_formula_units_Z 28
_cell_length_a 23.130023
_cell_length_b 11.335110
_cell_length_c 5.083625
_cell_angle_alpha 90.000000
_cell_angle_beta 91.040749
_cell_angle_gamma 90.000000
_cell_volume 1332.611814
_symmetry_space_group_name_H-M "C 2"
_symmetry_group_IT_number 5
_symmetry_cell_setting 'monoclinic'
loop_
_space_group_symop_operation_xyz
x,y,z
-x,y,-z
1/2+x,1/2+y,z
1/2-x,1/2+y,-z
loop_
_atom_site_type_symbol
_atom_site_label
_atom_site_fract_x
_atom_site_fract_y
_atom_site_fract_z
Si Si1 0.371252 0.413250 0.978278
Si Si2 0.156574 0.178978 0.076502
Si Si3 0.558308 0.814580 0.879256
Si Si4 0.108945 0.380340 0.378511
Si Si5 0.214545 0.711031 0.059627
Si Si6 0.842315 0.617791 0.434940
Si Si7 0.931216 0.816743 0.476347
O O1 0.348075 0.539801 0.882275
O O2 0.411560 0.362253 0.756092
O O3 0.313224 0.337047 0.015796
O O4 0.409536 0.408224 0.248980
O O5 0.145117 0.257483 0.340790
O O6 0.216924 0.218000 0.956819
O O7 0.105549 0.210285 0.866839
O O8 0.556252 0.865746 0.585056
O O9 0.500000 0.761216 0.000000
O O10 0.579567 0.914157 0.094804
O O11 0.150501 0.482543 0.481843
O O12 0.189171 0.616145 0.849939
O O13 0.199707 0.678018 0.356761
O O14 0.903347 0.687422 0.421759
O O15 0.000000 0.804383 0.500000
#
# Coordination Sequence:
#
# PCOD8050604 Si02
#       7
#     4   4   4   4   4   4   4
#     4  10  23  41  61  94 126 157 213 258 306 375
#     4  10  26  39  66  93 123 172 207 255 320 372
#     4  10  23  40  60  92 129 160 212 253 312 376
#     4  10  23  40  63  93 126 165 209 256 320 372
#     4  10  23  40  64  93 125 165 204 261 318 375
#     4  10  22  42  63  94 129 156 210 264 312 377
#     4  10  22  41  65  92 121 167 207 255 314 369
#
# _framework density 21.011371
#
# number of rings (size 3 to 8) (size 9 to 14) (size 15 to 20)
#    0.857    1.143    0.000    1.714    6.000    2.286 
#    2.571    0.000    0.000    0.000    0.000    0.000 
#    0.000    0.000    0.000    0.000    0.000    0.000 
#
# Total GULP energy -173463.348314 kJ/mol
# GULP energy per Si atom -12390.239165 kJ/mol
# Density = 2.096355 g / cm^3
# Si number density = 21.011371 Si / 1000 Ang^3
#
#
#
# Elastic Constant Matrix: (Units=GPa)
#
#
# Indices 1 2 3 4 5 6 
#
# 1 131.1246 30.7952 22.6600 0.0000 -31.7136 0.0000
# 2 30.7952 105.4166 17.0043 0.0000 -4.1802 0.0000
# 3 22.6600 17.0043 95.4488 0.0000 -12.5176 0.0000
# 4 0.0000 0.0000 0.0000 26.0349 0.0000 4.6672
# 5 -31.7136 -4.1802 -12.5176 0.0000 32.2396 0.0000
# 6 0.0000 0.0000 0.0000 4.6672 0.0000 17.7343
#
#
#
# Elastic Compliance Matrix: (Units=1/GPa)
#
#
# Indices 1 2 3 4 5 6 
#
# 1 0.010791 -0.002630 -0.000786 0.000000 0.009969 0.000000
# 2 -0.002630 0.010420 -0.001469 0.000000 -0.001807 0.000000
# 3 -0.000786 -0.001469 0.011378 0.000000 0.003454 0.000000
# 4 0.000000 0.000000 0.000000 0.040312 0.000000 -0.010609
# 5 0.009969 -0.001807 0.003454 0.000000 0.041931 0.000000
# 6 0.000000 0.000000 0.000000 -0.010609 0.000000 0.059180
#
#
# Mechanical properties :
#
#
# Convention : Reuss Voigt Hill
#
# Bulk Modulus (GPa) = 43.82327 52.54544 48.18435
# Shear Modulus (GPa) = 26.12501 32.63712 29.38106
#
# Velocity S-wave (km/s) = 3.52998 3.94548 3.74350
# Velocity P-wave (km/s) = 6.12507 6.76891 6.45502
#
# Compressibility (1/GPa) = 0.02281893
#
# Stress axis : x y z
#
# Youngs Moduli (GPa) = 92.67078 95.97090 87.88838
#
# Poissons Ratio (x) = 0.25243 0.06907
# Poissons Ratio (y) = 0.24375 0.12909
# Poissons Ratio (z) = 0.07283 0.14096
#
# Static dielectric constant tensor:
#      x y z
#    x 3.681060 0.000000 -0.001920 
#    y 0.000000 3.551750 0.000000 
#    z -0.001920 0.000000 3.927860 
# 
# 
# High freq. dielectric constant tensor:
#      x y z
#    x 1.818650 0.000000 -0.004900 
#    y 0.000000 1.799060 0.000000 
#    z -0.004900 0.000000 1.840520 
# 
# From -- ./inp_files/9557.got.cif
#   From: 2010.03.12/outbox.cif.g09.slc.cpg/sg5_5_cif.got.tgz:9557.got - 2010.03.31 09:47:26.
