data_PCOD8050981
_publ_section_title
;
Structure prediction by ZEFSAII (Michael W. Deem and Ramdas Pophale) SiO2 
 PCOD8050981
Probable space group: C 2
;
_chemical_formula_sum "Si O2"
_cell_formula_units_Z 32
_cell_length_a 13.616254
_cell_length_b 13.362073
_cell_length_c 16.964816
_cell_angle_alpha 90.000000
_cell_angle_beta 31.770852
_cell_angle_gamma 90.000000
_cell_volume 1625.168082
_symmetry_space_group_name_H-M "C 2"
_symmetry_group_IT_number 5
_symmetry_cell_setting 'monoclinic'
loop_
_space_group_symop_operation_xyz
x,y,z
-x,y,-z
1/2+x,1/2+y,z
1/2-x,1/2+y,-z
loop_
_atom_site_type_symbol
_atom_site_label
_atom_site_fract_x
_atom_site_fract_y
_atom_site_fract_z
Si Si1 0.181500 0.922290 0.833189
Si Si2 0.492959 0.263047 0.350369
Si Si3 0.027365 0.550703 0.280410
Si Si4 0.153769 0.108419 0.058525
Si Si5 0.889579 0.266349 0.151315
Si Si6 0.206512 0.281050 0.123088
Si Si7 0.335993 0.867873 0.342478
Si Si8 0.962653 0.896813 0.835013
O O1 0.200574 0.810825 0.857903
O O2 0.147197 0.898668 0.764843
O O3 0.365166 0.990340 0.722556
O O4 0.000000 0.974398 0.000000
O O5 0.417942 0.150884 0.382622
O O6 0.687338 0.235259 0.258711
O O7 0.365491 0.324388 0.497549
O O8 0.507502 0.330471 0.262235
O O9 0.867695 0.481772 0.349456
O O10 0.184399 0.580602 0.111293
O O11 0.248475 0.169652 0.065671
O O12 0.992664 0.171962 0.122891
O O13 0.069779 0.013306 0.161216
O O14 0.865121 0.358731 0.228390
O O15 0.000000 0.306447 0.000000
O O16 0.985738 0.297009 0.283141
O O17 0.281574 0.357433 0.004782
#
# Coordination Sequence:
#
# PCOD8050981 Si02
#       8
#     4   4   4   4   4   4   4   4
#     4   9  17  32  60  87 119 151 200 262 312 342
#     4  12  24  38  62  93 128 165 207 255 315 385
#     4  11  20  38  64  88 123 167 203 259 316 367
#     4  11  19  34  64  92 118 151 208 267 306 355
#     4  11  22  39  67  96 118 158 213 261 311 363
#     4   9  18  35  55  83 118 157 200 252 305 359
#     4  10  23  40  57  88 134 164 195 256 321 379
#     4  11  20  34  60  92 117 158 210 258 304 364
#
# _framework density 19.690272
#
# number of rings (size 3 to 8) (size 9 to 14) (size 15 to 20)
#    0.000    1.500    6.250    1.875    0.000    2.000 
#    0.000    5.000    0.000    3.000    0.000    0.000 
#    0.000    0.000    0.000    0.000    0.000    0.000 
#
# Total GULP energy -198233.454410 kJ/mol
# GULP energy per Si atom -12389.590901 kJ/mol
# Density = 1.964546 g / cm^3
# Si number density = 19.690272 Si / 1000 Ang^3
#
#
#
# Elastic Constant Matrix: (Units=GPa)
#
#
# Indices 1 2 3 4 5 6 
#
# 1 59.6562 71.1573 21.0964 -0.0013 5.6577 -0.0007
# 2 71.1573 143.4334 35.8851 -0.0005 4.6074 -0.0017
# 3 21.0964 35.8851 70.4610 -0.0023 -8.1274 -0.0026
# 4 -0.0013 -0.0005 -0.0023 21.2930 0.0007 -5.0818
# 5 5.6577 4.6074 -8.1274 0.0007 14.5717 0.0018
# 6 -0.0007 -0.0017 -0.0026 -5.0818 0.0018 30.7222
#
#
#
# Elastic Compliance Matrix: (Units=1/GPa)
#
#
# Indices 1 2 3 4 5 6 
#
# 1 0.043423 -0.020059 -0.004274 0.000002 -0.012901 0.000001
# 2 -0.020059 0.017631 -0.002905 -0.000001 0.000593 0.000000
# 3 -0.004274 -0.002905 0.018435 0.000001 0.012860 0.000001
# 4 0.000002 -0.000001 0.000001 0.048894 -0.000003 0.008088
# 5 -0.012901 0.000593 0.012860 -0.000003 0.080621 -0.000004
# 6 0.000001 0.000000 0.000001 0.008088 -0.000004 0.033888
#
#
# Mechanical properties :
#
#
# Convention : Reuss Voigt Hill
#
# Bulk Modulus (GPa) = 39.97751 58.86979 49.42365
# Shear Modulus (GPa) = 16.35571 23.01149 19.68360
#
# Velocity S-wave (km/s) = 2.88523 3.42229 3.16517
# Velocity P-wave (km/s) = 5.60773 6.75122 6.20587
#
# Compressibility (1/GPa) = 0.02501407
#
# Stress axis : x y z
#
# Youngs Moduli (GPa) = 23.02906 56.71903 54.24569
#
# Poissons Ratio (x) = 1.13771 0.23182
# Poissons Ratio (y) = 0.46193 0.15759
# Poissons Ratio (z) = 0.09842 0.16477
#
# Static dielectric constant tensor:
#      x y z
#    x 3.792650 0.000000 -0.073400 
#    y 0.000000 3.882100 0.000000 
#    z -0.073400 0.000000 3.403620 
# 
# 
# High freq. dielectric constant tensor:
#      x y z
#    x 1.763590 0.000000 -0.006060 
#    y 0.000000 1.763840 0.000000 
#    z -0.006060 0.000000 1.742130 
# 
# From -- ./inp_files/61692.got.cif
#   From: 2010.03.12/outbox.cif.g09.slc.cpg/sg5_31_cif.got.tgz:61692.got - 2010.03.31 09:47:26.
