data_PCOD8050007
_publ_section_title
;
Structure prediction by ZEFSAII (Michael W. Deem and Ramdas Pophale) SiO2 
 PCOD8050007
Probable space group: C 2
;
_chemical_formula_sum "Si O2"
_cell_formula_units_Z 28
_cell_length_a 11.953759
_cell_length_b 7.896850
_cell_length_c 13.950341
_cell_angle_alpha 90.000000
_cell_angle_beta 64.005137
_cell_angle_gamma 90.000000
_cell_volume 1183.647497
_symmetry_space_group_name_H-M "C 2"
_symmetry_group_IT_number 5
_symmetry_cell_setting 'monoclinic'
loop_
_space_group_symop_operation_xyz
x,y,z
-x,y,-z
1/2+x,1/2+y,z
1/2-x,1/2+y,-z
loop_
_atom_site_type_symbol
_atom_site_label
_atom_site_fract_x
_atom_site_fract_y
_atom_site_fract_z
Si Si1 0.363738 0.904320 0.964920
Si Si2 0.368945 0.007627 0.165830
Si Si3 0.222510 0.192976 0.366023
Si Si4 0.760719 0.683804 0.724871
Si Si5 0.364655 0.536540 0.060857
Si Si6 0.740703 0.862596 0.552092
Si Si7 0.528057 0.957282 0.383361
O O1 0.491803 0.942389 0.858688
O O2 0.243740 0.920910 0.942743
O O3 0.369028 0.716017 0.004891
O O4 0.358756 0.038978 0.055306
O O5 0.329938 0.170303 0.244231
O O6 0.258737 0.873481 0.230423
O O7 0.274432 0.319419 0.429860
O O8 0.104543 0.280591 0.360374
O O9 0.177884 0.018718 0.435855
O O10 0.660145 0.563944 0.816267
O O11 0.752091 0.690685 0.611869
O O12 0.895642 0.605014 0.700131
O O13 0.500000 0.446960 0.000000
O O14 0.599280 0.925635 0.624520
O O15 0.500000 0.024799 0.500000
#
# Coordination Sequence:
#
# PCOD8050007 Si02
#       7
#     4   4   4   4   4   4   4
#     4  10  21  44  67  91 136 167 214 275 322 378
#     4   9  20  43  66  93 132 174 211 270 326 381
#     4  10  21  39  65  93 124 169 216 253 322 378
#     4  10  21  39  66  92 126 170 213 255 325 376
#     4  11  23  43  67  95 129 170 215 268 323 389
#     4  10  21  40  62  88 134 166 205 274 308 373
#     4  10  22  40  62  91 126 171 215 259 315 381
#
# _framework density 23.65569
#
# number of rings (size 3 to 8) (size 9 to 14) (size 15 to 20)
#    0.000    2.000    2.857    1.714    4.000    2.286 
#    5.143   20.000    0.000    0.000    0.000    0.000 
#    0.000    0.000    0.000    0.000    0.000    0.000 
#
# Total GULP energy -173447.741665 kJ/mol
# GULP energy per Si atom -12389.124405 kJ/mol
# Density = 2.360185 g / cm^3
# Si number density = 23.655690 Si / 1000 Ang^3
#
#
#
# Elastic Constant Matrix: (Units=GPa)
#
#
# Indices 1 2 3 4 5 6 
#
# 1 114.7779 37.1663 15.8920 0.0000 -17.7866 0.0000
# 2 37.1663 76.6638 34.3479 0.0000 -11.3032 0.0000
# 3 15.8920 34.3479 69.8411 0.0000 -28.5845 0.0000
# 4 0.0000 0.0000 0.0000 22.2324 0.0000 -10.9881
# 5 -17.7866 -11.3032 -28.5845 0.0000 30.4737 0.0000
# 6 0.0000 0.0000 0.0000 -10.9881 0.0000 29.7107
#
#
#
# Elastic Compliance Matrix: (Units=1/GPa)
#
#
# Indices 1 2 3 4 5 6 
#
# 1 0.011339 -0.005922 0.003477 0.000000 0.007683 0.000000
# 2 -0.005922 0.019937 -0.011112 0.000000 -0.006484 0.000000
# 3 0.003477 -0.011112 0.029436 0.000000 0.025519 0.000000
# 4 0.000000 0.000000 0.000000 0.055040 0.000000 0.020356
# 5 0.007683 -0.006484 0.025519 0.000000 0.058832 0.000000
# 6 0.000000 0.000000 0.000000 0.020356 0.000000 0.041186
#
#
# Mechanical properties :
#
#
# Convention : Reuss Voigt Hill
#
# Bulk Modulus (GPa) = 29.76247 48.45503 39.10875
# Shear Modulus (GPa) = 19.67847 28.07513 23.87680
#
# Velocity S-wave (km/s) = 2.88735 3.44877 3.18047
# Velocity P-wave (km/s) = 4.87078 6.03213 5.48229
#
# Compressibility (1/GPa) = 0.03359936
#
# Stress axis : x y z
#
# Youngs Moduli (GPa) = 88.18804 50.15711 33.97168
#
# Poissons Ratio (x) = 0.29704 -0.11812
# Poissons Ratio (y) = 0.52228 0.37748
# Poissons Ratio (z) = -0.30663 0.55732
#
# Static dielectric constant tensor:
#      x y z
#    x 4.162670 0.000000 -0.015540 
#    y 0.000000 4.136570 0.000000 
#    z -0.015540 0.000000 4.673650 
# 
# 
# High freq. dielectric constant tensor:
#      x y z
#    x 1.910300 0.000000 0.001760 
#    y 0.000000 1.919380 0.000000 
#    z 0.001760 0.000000 1.956340 
# 
# From -- ./inp_files/52198.got.cif
#   From: 2010.03.12/outbox.cif.g09.slc.cpg/sg5_27_cif.got.tgz:52198.got - 2010.03.31 09:47:26.
