data_PCOD8050448
_publ_section_title
;
Structure prediction by ZEFSAII (Michael W. Deem and Ramdas Pophale) SiO2 
 PCOD8050448
Probable space group: C 2
;
_chemical_formula_sum "Si O2"
_cell_formula_units_Z 32
_cell_length_a 13.979794
_cell_length_b 9.426047
_cell_length_c 24.363376
_cell_angle_alpha 90.000000
_cell_angle_beta 30.611730
_cell_angle_gamma 90.000000
_cell_volume 1634.824981
_symmetry_space_group_name_H-M "C 2"
_symmetry_group_IT_number 5
_symmetry_cell_setting 'monoclinic'
loop_
_space_group_symop_operation_xyz
x,y,z
-x,y,-z
1/2+x,1/2+y,z
1/2-x,1/2+y,-z
loop_
_atom_site_type_symbol
_atom_site_label
_atom_site_fract_x
_atom_site_fract_y
_atom_site_fract_z
Si Si1 0.970577 0.625000 0.688781
Si Si2 0.000862 0.111138 0.334186
Si Si3 0.615836 0.727526 0.496578
Si Si4 0.751000 0.383126 0.171540
Si Si5 0.842074 0.474523 0.005195
Si Si6 0.091596 0.561170 0.512144
Si Si7 0.226205 0.354146 0.174793
Si Si8 0.635882 0.313082 0.011048
O O1 0.171683 0.671131 0.613995
O O2 0.973142 0.627406 0.621004
O O3 0.799470 0.717104 0.798469
O O4 0.926511 0.466456 0.729664
O O5 0.997713 0.150186 0.399409
O O6 0.795814 0.130758 0.409950
O O7 0.145490 0.200355 0.227074
O O8 0.078352 0.952004 0.290341
O O9 0.500000 0.688641 0.500000
O O10 0.613508 0.893933 0.509808
O O11 0.948143 0.413483 0.103501
O O12 0.755415 0.437820 0.107056
O O13 0.845458 0.642942 0.992744
O O14 0.714816 0.393024 0.024630
O O15 0.000000 0.603091 0.500000
O O16 0.421502 0.363550 0.111133
O O17 0.251680 0.367936 0.097231
#
# Coordination Sequence:
#
# PCOD8050448 Si02
#       8
#     4   4   4   4   4   4   4   4
#     4  11  24  39  64  98 120 167 212 253 306 366
#     4  11  20  41  64  84 122 169 196 253 308 374
#     4  10  22  39  62  92 124 159 208 260 308 365
#     4  11  23  43  64  86 130 166 206 249 313 370
#     4  11  25  42  64  94 125 163 207 258 310 367
#     4  10  22  39  62  92 124 159 208 260 308 365
#     4  11  23  43  64  86 130 166 206 249 313 370
#     4  11  25  42  64  94 125 163 207 258 310 367
#
# _framework density 19.57396
#
# number of rings (size 3 to 8) (size 9 to 14) (size 15 to 20)
#    0.000    1.250    5.000    0.750    3.500    5.000 
#    0.000    1.250    0.000    0.000    0.000    0.000 
#    0.000    0.000    0.000    0.000    0.000    0.000 
#
# Total GULP energy -198432.832195 kJ/mol
# GULP energy per Si atom -12402.052012 kJ/mol
# Density = 1.952941 g / cm^3
# Si number density = 19.573960 Si / 1000 Ang^3
#
#
#
# Elastic Constant Matrix: (Units=GPa)
#
#
# Indices 1 2 3 4 5 6 
#
# 1 138.9267 39.0470 47.3533 -0.0001 3.5642 0.0000
# 2 39.0470 60.5676 23.5466 -0.0001 0.6855 0.0001
# 3 47.3533 23.5466 102.1132 -0.0017 -1.7015 0.0001
# 4 -0.0001 -0.0001 -0.0017 38.0475 0.0001 -1.3208
# 5 3.5642 0.6855 -1.7015 0.0001 15.5276 0.0001
# 6 0.0000 0.0001 0.0001 -1.3208 0.0001 31.9541
#
#
#
# Elastic Compliance Matrix: (Units=1/GPa)
#
#
# Indices 1 2 3 4 5 6 
#
# 1 0.009834 -0.004970 -0.003455 0.000000 -0.002417 0.000000
# 2 -0.004970 0.020672 -0.002463 0.000000 -0.000042 0.000000
# 3 -0.003455 -0.002463 0.012000 0.000001 0.002217 0.000000
# 4 0.000000 0.000000 0.000001 0.026321 0.000000 0.001088
# 5 -0.002417 -0.000042 0.002217 0.000000 0.065201 0.000000
# 6 0.000000 0.000000 0.000000 0.001088 0.000000 0.031340
#
#
# Mechanical properties :
#
#
# Convention : Reuss Voigt Hill
#
# Bulk Modulus (GPa) = 48.23498 57.94458 53.08978
# Shear Modulus (GPa) = 25.76606 29.88323 27.82464
#
# Velocity S-wave (km/s) = 3.63208 3.91152 3.77439
# Velocity P-wave (km/s) = 6.50271 7.07581 6.79531
#
# Compressibility (1/GPa) = 0.02073184
#
# Stress axis : x y z
#
# Youngs Moduli (GPa) = 101.68396 48.37387 83.33290
#
# Poissons Ratio (x) = 0.24040 0.28790
# Poissons Ratio (y) = 0.50533 0.20525
# Poissons Ratio (z) = 0.35130 0.11915
#
# Static dielectric constant tensor:
#      x y z
#    x 3.503020 0.000000 -0.003140 
#    y 0.000000 3.584680 0.000000 
#    z -0.003140 0.000000 3.589750 
# 
# 
# High freq. dielectric constant tensor:
#      x y z
#    x 1.758770 0.000000 -0.001040 
#    y 0.000000 1.770480 0.000000 
#    z -0.001040 0.000000 1.776140 
# 
# From -- ./inp_files/54182.got.cif
#   From: 2010.03.12/outbox.cif.g09.slc.cpg/sg5_28_cif.got.tgz:54182.got - 2010.03.31 09:47:26.
