data_PCOD8050421
_publ_section_title
;
Structure prediction by ZEFSAII (Michael W. Deem and Ramdas Pophale) SiO2 
 PCOD8050421
Probable space group: C 2
;
_chemical_formula_sum "Si O2"
_cell_formula_units_Z 26
_cell_length_a 15.804694
_cell_length_b 9.199603
_cell_length_c 13.235920
_cell_angle_alpha 90.000000
_cell_angle_beta 41.191549
_cell_angle_gamma 90.000000
_cell_volume 1267.409163
_symmetry_space_group_name_H-M "C 2"
_symmetry_group_IT_number 5
_symmetry_cell_setting 'monoclinic'
loop_
_space_group_symop_operation_xyz
x,y,z
-x,y,-z
1/2+x,1/2+y,z
1/2-x,1/2+y,-z
loop_
_atom_site_type_symbol
_atom_site_label
_atom_site_fract_x
_atom_site_fract_y
_atom_site_fract_z
Si Si1 0.500000 0.887440 0.500000
Si Si2 0.831511 0.163318 0.961463
Si Si3 0.933737 0.997930 0.162364
Si Si4 0.341218 0.972214 0.332486
Si Si5 0.102413 0.452353 0.194605
Si Si6 0.349058 0.768889 0.153411
Si Si7 0.232218 0.281176 0.417131
O O1 0.556806 0.980766 0.352837
O O2 0.618566 0.792141 0.436321
O O3 0.786940 0.259395 0.098993
O O4 0.716020 0.052118 0.049933
O O5 0.856079 0.281074 0.850394
O O6 0.960442 0.066666 0.857341
O O7 0.822858 0.119642 0.240251
O O8 0.865707 0.854489 0.264627
O O9 0.000000 0.945880 0.000000
O O10 0.492496 0.996770 0.213061
O O11 0.306985 0.911325 0.251786
O O12 0.306455 0.850583 0.443596
O O13 0.256531 0.114164 0.420724
O O14 0.500000 0.767954 0.000000
#
# Coordination Sequence:
#
# PCOD8050421 Si02
#       7
#     2   4   4   4   4   4   4
#     4  10  24  44  58  94 130 166 210 268 322 372
#     4  10  22  38  67  92 132 162 212 264 324 369
#     4   9  18  37  62  90 119 165 206 253 311 381
#     4  11  23  40  63  91 124 166 218 257 323 375
#     4  11  23  42  64  95 130 169 210 269 316 391
#     4   9  17  38  60  84 118 162 198 256 304 373
#     4  11  24  39  65  89 125 169 211 267 316 384
#
# _framework density 20.514289000000002
#
# number of rings (size 3 to 8) (size 9 to 14) (size 15 to 20)
#    0.000    2.154    3.077    2.769    4.308    3.077 
#    0.000    1.538    0.000    0.923    0.000    0.000 
#    0.000    0.000    0.000    0.000    0.000    0.000 
#
# Total GULP energy -161064.701608 kJ/mol
# GULP energy per Si atom -12389.592431 kJ/mol
# Density = 2.046760 g / cm^3
# Si number density = 20.514289 Si / 1000 Ang^3
#
#
#
# Elastic Constant Matrix: (Units=GPa)
#
#
# Indices 1 2 3 4 5 6 
#
# 1 73.0743 33.9568 29.6924 0.0000 -1.1521 0.0000
# 2 33.9568 82.7060 19.8605 0.0000 -8.0863 0.0000
# 3 29.6924 19.8605 53.3817 0.0000 -9.0049 0.0000
# 4 0.0000 0.0000 0.0000 36.6850 0.0000 5.5186
# 5 -1.1521 -8.0863 -9.0049 0.0000 27.9185 0.0000
# 6 0.0000 0.0000 0.0000 5.5186 0.0000 23.2765
#
#
#
# Elastic Compliance Matrix: (Units=1/GPa)
#
#
# Indices 1 2 3 4 5 6 
#
# 1 0.020612 -0.006533 -0.009740 0.000000 -0.004183 0.000000
# 2 -0.006533 0.015499 -0.001503 0.000000 0.003735 0.000000
# 3 -0.009740 -0.001503 0.025982 0.000000 0.007543 0.000000
# 4 0.000000 0.000000 0.000000 0.028267 0.000000 -0.006702
# 5 -0.004183 0.003735 0.007543 0.000000 0.039161 0.000000
# 6 0.000000 0.000000 0.000000 -0.006702 0.000000 0.044551
#
#
# Mechanical properties :
#
#
# Convention : Reuss Voigt Hill
#
# Bulk Modulus (GPa) = 37.67568 41.79795 39.73681
# Shear Modulus (GPa) = 22.88627 25.95281 24.41954
#
# Velocity S-wave (km/s) = 3.34372 3.56070 3.45391
# Velocity P-wave (km/s) = 5.77172 6.10934 5.94293
#
# Compressibility (1/GPa) = 0.02654232
#
# Stress axis : x y z
#
# Youngs Moduli (GPa) = 48.51476 64.51932 38.48764
#
# Poissons Ratio (x) = 0.42150 0.37488
# Poissons Ratio (y) = 0.31694 0.05783
# Poissons Ratio (z) = 0.47255 0.09695
#
# Static dielectric constant tensor:
#      x y z
#    x 3.960110 0.000000 0.039890 
#    y 0.000000 3.645870 0.000000 
#    z 0.039890 0.000000 3.785580 
# 
# 
# High freq. dielectric constant tensor:
#      x y z
#    x 1.792960 0.000000 0.006510 
#    y 0.000000 1.785810 0.000000 
#    z 0.006510 0.000000 1.800540 
# 
# From -- ./inp_files/46166.got.cif
#   From: 2010.03.12/outbox.cif.g09.slc.cpg/sg5_24_cif.got.tgz:46166.got - 2010.03.31 09:47:26.
