data_PCOD8050957
_publ_section_title
;
Structure prediction by ZEFSAII (Michael W. Deem and Ramdas Pophale) SiO2 
 PCOD8050957
Probable space group: C 2
;
_chemical_formula_sum "Si O2"
_cell_formula_units_Z 24
_cell_length_a 10.917204
_cell_length_b 10.034786
_cell_length_c 11.685050
_cell_angle_alpha 90.000000
_cell_angle_beta 129.304459
_cell_angle_gamma 90.000000
_cell_volume 990.543933
_symmetry_space_group_name_H-M "C 2"
_symmetry_group_IT_number 5
_symmetry_cell_setting 'monoclinic'
loop_
_space_group_symop_operation_xyz
x,y,z
-x,y,-z
1/2+x,1/2+y,z
1/2-x,1/2+y,-z
loop_
_atom_site_type_symbol
_atom_site_label
_atom_site_fract_x
_atom_site_fract_y
_atom_site_fract_z
Si Si1 0.500000 0.478050 0.000000
Si Si2 0.500000 0.999292 0.500000
Si Si3 0.675174 0.326759 0.907845
Si Si4 0.887001 0.397204 0.653383
Si Si5 0.460549 0.442453 0.605309
Si Si6 0.836990 0.123572 0.715582
Si Si7 0.075575 0.553790 0.927001
O O1 0.436460 0.383540 0.060536
O O2 0.632384 0.570968 0.137844
O O3 0.652564 0.096077 0.578350
O O4 0.507408 0.902152 0.615796
O O5 0.590889 0.338598 0.732532
O O6 0.693943 0.168662 0.947545
O O7 0.836285 0.411576 0.005032
O O8 0.714465 0.383450 0.495818
O O9 0.894110 0.275378 0.745690
O O10 0.928933 0.528672 0.752879
O O11 0.500000 0.488389 0.500000
O O12 0.456759 0.565329 0.690494
O O13 0.000000 0.603789 0.000000
#
# Coordination Sequence:
#
# PCOD8050957 Si02
#       7
#     2   2   4   4   4   4   4
#     4  10  22  48  70 102 148 182 236 300 352 420
#     4  10  24  48  66 104 142 184 234 298 342 430
#     4  11  26  48  75 105 145 191 233 298 357 417
#     4  11  26  44  73 103 139 191 234 292 361 416
#     4  10  24  44  68 104 140 186 235 294 348 426
#     4  10  24  43  73 101 140 188 233 292 359 415
#     4  12  28  49  74 107 144 187 241 295 355 423
#
# _framework density 24.229111
#
# number of rings (size 3 to 8) (size 9 to 14) (size 15 to 20)
#    0.000    1.333    0.833    2.000   12.833    2.667 
#    0.000    0.000    0.000    0.000    0.000    0.000 
#    0.000    0.000    0.000    0.000    0.000    0.000 
#
# Total GULP energy -148709.499096 kJ/mol
# GULP energy per Si atom -12392.458258 kJ/mol
# Density = 2.417396 g / cm^3
# Si number density = 24.229111 Si / 1000 Ang^3
#
#
#
# Elastic Constant Matrix: (Units=GPa)
#
#
# Indices 1 2 3 4 5 6 
#
# 1 95.7221 22.0855 26.5368 0.0000 -13.3887 0.0000
# 2 22.0855 121.3873 37.0903 0.0000 4.9040 0.0000
# 3 26.5368 37.0903 134.5048 0.0000 -11.4863 0.0000
# 4 0.0000 0.0000 0.0000 23.7913 0.0000 8.4148
# 5 -13.3887 4.9040 -11.4863 0.0000 36.0838 0.0000
# 6 0.0000 0.0000 0.0000 8.4148 0.0000 22.1242
#
#
#
# Elastic Compliance Matrix: (Units=1/GPa)
#
#
# Indices 1 2 3 4 5 6 
#
# 1 0.011874 -0.001882 -0.001465 0.000000 0.004195 0.000000
# 2 -0.001882 0.009447 -0.002470 0.000000 -0.002769 0.000000
# 3 -0.001465 -0.002470 0.008622 0.000000 0.002536 0.000000
# 4 0.000000 0.000000 0.000000 0.048565 0.000000 -0.018472
# 5 0.004195 -0.002769 0.002536 0.000000 0.030454 0.000000
# 6 0.000000 0.000000 0.000000 -0.018472 0.000000 0.052225
#
#
# Mechanical properties :
#
#
# Convention : Reuss Voigt Hill
#
# Bulk Modulus (GPa) = 54.62272 58.11551 56.36911
# Shear Modulus (GPa) = 27.94470 34.12662 31.03566
#
# Velocity S-wave (km/s) = 3.39979 3.75707 3.58288
# Velocity P-wave (km/s) = 6.16479 6.54665 6.35859
#
# Compressibility (1/GPa) = 0.01830740
#
# Stress axis : x y z
#
# Youngs Moduli (GPa) = 84.21618 105.85186 115.98819
#
# Poissons Ratio (x) = 0.19923 0.16997
# Poissons Ratio (y) = 0.15851 0.28651
# Poissons Ratio (z) = 0.12341 0.26148
#
# Static dielectric constant tensor:
#      x y z
#    x 4.344160 0.000000 -0.214750 
#    y 0.000000 4.280070 0.000000 
#    z -0.214750 0.000000 4.644200 
# 
# 
# High freq. dielectric constant tensor:
#      x y z
#    x 1.965180 0.000000 -0.015750 
#    y 0.000000 1.943920 0.000000 
#    z -0.015750 0.000000 1.975880 
# 
# From -- ./inp_files/39307.got.cif
#   From: 2010.03.12/outbox.cif.g09.slc.cpg/sg5_20_cif.got.tgz:39307.got - 2010.03.31 09:47:26.
