data_PCOD8050759
_publ_section_title
;
Structure prediction by ZEFSAII (Michael W. Deem and Ramdas Pophale) SiO2 
 PCOD8050759
Probable space group: C 2
;
_chemical_formula_sum "Si O2"
_cell_formula_units_Z 28
_cell_length_a 26.664719
_cell_length_b 8.553310
_cell_length_c 11.061577
_cell_angle_alpha 90.000000
_cell_angle_beta 148.932016
_cell_angle_gamma 90.000000
_cell_volume 1301.919330
_symmetry_space_group_name_H-M "C 2"
_symmetry_group_IT_number 5
_symmetry_cell_setting 'monoclinic'
loop_
_space_group_symop_operation_xyz
x,y,z
-x,y,-z
1/2+x,1/2+y,z
1/2-x,1/2+y,-z
loop_
_atom_site_type_symbol
_atom_site_label
_atom_site_fract_x
_atom_site_fract_y
_atom_site_fract_z
Si Si1 0.751790 0.211460 0.835660
Si Si2 0.025727 0.356640 0.426154
Si Si3 0.410765 0.738260 0.974596
Si Si4 0.254263 0.878565 0.076121
Si Si5 0.500000 0.485227 0.000000
Si Si6 0.559259 0.241203 0.300323
Si Si7 0.500000 0.983836 0.000000
Si Si8 0.436995 0.202111 0.258166
O O1 0.639965 0.216162 0.568680
O O2 0.784909 0.051445 0.971834
O O3 0.806488 0.235987 0.822147
O O4 0.771625 0.355723 0.968057
O O5 0.141136 0.369726 0.643213
O O6 0.000000 0.270734 0.500000
O O7 0.992019 0.249281 0.246350
O O8 0.963122 0.517931 0.300047
O O9 0.416958 0.880688 0.892823
O O10 0.427145 0.581742 0.932818
O O11 0.177129 0.743145 0.956843
O O12 0.428163 0.381459 0.768406
O O13 0.553430 0.081919 0.213127
O O14 0.463524 0.277548 0.183277
O O15 0.500000 0.272253 0.500000
#
# Coordination Sequence:
#
# PCOD8050759 Si02
#       8
#     4   4   4   4   2   4   2   4
#     4  12  25  41  68 101 142 177 239 289 361 436
#     4  11  21  43  70 100 142 182 225 295 359 426
#     4  11  23  44  64 101 137 179 238 295 348 425
#     4  12  24  42  70 110 141 189 226 286 373 438
#     4  10  26  44  62  92 136 186 236 294 346 408
#     4  11  22  46  67  95 135 187 236 292 354 422
#     4  10  22  42  74  84 132 198 236 288 354 406
#     4  11  21  41  73 101 141 180 230 290 361 424
#
# _framework density 21.506709000000001
#
# number of rings (size 3 to 8) (size 9 to 14) (size 15 to 20)
#    0.000    0.857    5.714    1.714    0.000    2.286 
#    2.571    5.714    0.000    0.000    0.000    0.000 
#    0.000    0.000    0.000    0.000    0.000    0.000 
#
# Total GULP energy -173528.498131 kJ/mol
# GULP energy per Si atom -12394.892724 kJ/mol
# Density = 2.145776 g / cm^3
# Si number density = 21.506709 Si / 1000 Ang^3
#
#
#
# Elastic Constant Matrix: (Units=GPa)
#
#
# Indices 1 2 3 4 5 6 
#
# 1 160.6774 56.0804 23.4928 0.0000 3.1880 0.0000
# 2 56.0804 101.9862 32.1979 0.0000 -5.3892 0.0000
# 3 23.4928 32.1979 81.8023 0.0000 5.5434 0.0000
# 4 0.0000 0.0000 0.0000 20.8288 0.0000 9.5303
# 5 3.1880 -5.3892 5.5434 0.0000 43.5352 0.0000
# 6 0.0000 0.0000 0.0000 9.5303 0.0000 5.4919
#
#
#
# Elastic Compliance Matrix: (Units=1/GPa)
#
#
# Indices 1 2 3 4 5 6 
#
# 1 0.007773 -0.004162 -0.000525 0.000000 -0.001018 0.000000
# 2 -0.004162 0.013594 -0.004327 0.000000 0.002539 0.000000
# 3 -0.000525 -0.004327 0.014235 0.000000 -0.002310 0.000000
# 4 0.000000 0.000000 0.000000 0.233077 0.000000 -0.404470
# 5 -0.001018 0.002539 -0.002310 0.000000 0.023653 0.000000
# 6 0.000000 0.000000 0.000000 -0.404470 0.000000 0.883985
#
#
# Mechanical properties :
#
#
# Convention : Reuss Voigt Hill
#
# Bulk Modulus (GPa) = 56.90539 63.11200 60.00870
# Shear Modulus (GPa) = 4.16595 29.48417 16.82506
#
# Velocity S-wave (km/s) = 1.39329 3.70662 2.80003
# Velocity P-wave (km/s) = 5.39492 6.90852 6.19810
#
# Compressibility (1/GPa) = 0.01757303
#
# Stress axis : x y z
#
# Youngs Moduli (GPa) = 128.64362 73.55927 70.24811
#
# Poissons Ratio (x) = 0.30619 0.03689
# Poissons Ratio (y) = 0.53547 0.30400
# Poissons Ratio (z) = 0.06755 0.31833
#
# Static dielectric constant tensor:
#      x y z
#    x 4.382610 0.000000 -0.156530 
#    y 0.000000 3.826320 0.000000 
#    z -0.156530 0.000000 3.723900 
# 
# 
# High freq. dielectric constant tensor:
#      x y z
#    x 1.870830 0.000000 -0.007170 
#    y 0.000000 1.834160 0.000000 
#    z -0.007170 0.000000 1.823420 
# 
# From -- ./inp_files/47929.got.cif
#   From: 2010.03.12/outbox.cif.g09.slc.cpg/sg5_24_cif.got.tgz:47929.got - 2010.03.31 09:47:26.
