data_PCOD8050237
_publ_section_title
;
Structure prediction by ZEFSAII (Michael W. Deem and Ramdas Pophale) SiO2 
 PCOD8050237
Probable space group: C 2
;
_chemical_formula_sum "Si O2"
_cell_formula_units_Z 32
_cell_length_a 31.335259
_cell_length_b 11.844769
_cell_length_c 9.180157
_cell_angle_alpha 90.000000
_cell_angle_beta 154.641530
_cell_angle_gamma 90.000000
_cell_volume 1459.278022
_symmetry_space_group_name_H-M "C 2"
_symmetry_group_IT_number 5
_symmetry_cell_setting 'monoclinic'
loop_
_space_group_symop_operation_xyz
x,y,z
-x,y,-z
1/2+x,1/2+y,z
1/2-x,1/2+y,-z
loop_
_atom_site_type_symbol
_atom_site_label
_atom_site_fract_x
_atom_site_fract_y
_atom_site_fract_z
Si Si1 0.387359 0.240700 0.030465
Si Si2 0.936071 0.026456 0.655797
Si Si3 0.690156 0.002709 0.246690
Si Si4 0.200795 0.230809 0.801617
Si Si5 0.884935 0.300452 0.162912
Si Si6 0.317541 0.830396 0.555306
Si Si7 0.909320 0.797448 0.427057
Si Si8 0.385220 0.631890 0.921322
O O1 0.408480 0.301302 0.249357
O O2 0.475824 0.261431 0.184723
O O3 0.379466 0.105133 0.019925
O O4 0.281364 0.292182 0.655045
O O5 0.844932 0.113831 0.399005
O O6 0.886930 0.913039 0.442881
O O7 0.000000 0.008885 0.000000
O O8 0.008734 0.069528 0.751143
O O9 0.803541 0.043433 0.613081
O O10 0.654270 0.953862 0.294988
O O11 0.682594 0.902898 0.104903
O O12 0.139322 0.280761 0.744446
O O13 0.196411 0.327114 0.661143
O O14 0.319387 0.213876 0.202260
O O15 0.000000 0.334748 0.500000
O O16 0.861690 0.182262 0.008384
O O17 0.399668 0.737554 0.854327
#
# Coordination Sequence:
#
# PCOD8050237 Si02
#       8
#     4   4   4   4   4   4   4   4
#     4   9  20  43  68  93 134 169 224 273 318 400
#     4  12  24  42  70  93 131 183 219 276 338 383
#     4  10  22  40  71  93 131 185 215 267 339 390
#     4  11  24  42  65  99 139 162 224 284 321 391
#     4  11  24  40  66 100 131 171 227 274 326 398
#     4   9  19  40  66 101 129 177 220 268 324 397
#     4  10  24  41  66  98 129 173 220 272 333 389
#     4  10  21  42  67  94 129 174 233 264 318 405
#
# _framework density 21.928654000000002
#
# number of rings (size 3 to 8) (size 9 to 14) (size 15 to 20)
#    0.000    1.750    2.500    0.750    3.500    4.000 
#    0.000    0.000    2.750    0.000    0.000    0.000 
#    0.000    0.000    0.000    0.000    0.000    0.000 
#
# Total GULP energy -198254.030267 kJ/mol
# GULP energy per Si atom -12390.876892 kJ/mol
# Density = 2.187874 g / cm^3
# Si number density = 21.928654 Si / 1000 Ang^3
#
#
#
# Elastic Constant Matrix: (Units=GPa)
#
#
# Indices 1 2 3 4 5 6 
#
# 1 110.5882 36.8054 37.7131 0.0000 -0.5599 0.0000
# 2 36.8054 109.4302 46.9812 0.0000 -9.1449 0.0000
# 3 37.7131 46.9812 96.4783 0.0000 8.5220 0.0000
# 4 0.0000 0.0000 0.0000 40.1425 0.0000 -4.1985
# 5 -0.5599 -9.1449 8.5220 0.0000 37.1677 0.0000
# 6 0.0000 0.0000 0.0000 -4.1985 0.0000 24.3302
#
#
#
# Elastic Compliance Matrix: (Units=1/GPa)
#
#
# Indices 1 2 3 4 5 6 
#
# 1 0.010883 -0.002267 -0.003180 0.000000 0.000335 0.000000
# 2 -0.002267 0.012712 -0.005693 0.000000 0.004399 0.000000
# 3 -0.003180 -0.005693 0.014808 0.000000 -0.004844 0.000000
# 4 0.000000 0.000000 0.000000 0.025369 0.000000 0.004378
# 5 0.000335 0.004399 -0.004844 0.000000 0.029103 0.000000
# 6 0.000000 0.000000 0.000000 0.004378 0.000000 0.041857
#
#
# Mechanical properties :
#
#
# Convention : Reuss Voigt Hill
#
# Bulk Modulus (GPa) = 62.01896 62.16622 62.09259
# Shear Modulus (GPa) = 30.79067 33.32788 32.05928
#
# Velocity S-wave (km/s) = 3.75124 3.90273 3.82773
# Velocity P-wave (km/s) = 6.86338 6.97992 6.92189
#
# Compressibility (1/GPa) = 0.01612410
#
# Stress axis : x y z
#
# Youngs Moduli (GPa) = 91.88475 78.66288 67.53109
#
# Poissons Ratio (x) = 0.17835 0.21473
# Poissons Ratio (y) = 0.20833 0.38444
# Poissons Ratio (z) = 0.29217 0.44781
#
# Static dielectric constant tensor:
#      x y z
#    x 3.846540 0.000000 0.252560 
#    y 0.000000 3.938430 0.000000 
#    z 0.252560 0.000000 4.393950 
# 
# 
# High freq. dielectric constant tensor:
#      x y z
#    x 1.843740 0.000000 0.004950 
#    y 0.000000 1.847960 0.000000 
#    z 0.004950 0.000000 1.873520 
# 
# From -- ./inp_files/32653.got.cif
#   From: 2010.03.12/outbox.cif.g09.slc.cpg/sg5_17_cif.got.tgz:32653.got - 2010.03.31 09:47:26.
