data_PCOD8050516
_publ_section_title
;
Structure prediction by ZEFSAII (Michael W. Deem and Ramdas Pophale) SiO2 
 PCOD8050516
Probable space group: C 2
;
_chemical_formula_sum "Si O2"
_cell_formula_units_Z 14
_cell_length_a 17.589633
_cell_length_b 4.909906
_cell_length_c 10.546722
_cell_angle_alpha 90.000000
_cell_angle_beta 140.171211
_cell_angle_gamma 90.000000
_cell_volume 583.396260
_symmetry_space_group_name_H-M "C 2"
_symmetry_group_IT_number 5
_symmetry_cell_setting 'monoclinic'
loop_
_space_group_symop_operation_xyz
x,y,z
-x,y,-z
1/2+x,1/2+y,z
1/2-x,1/2+y,-z
loop_
_atom_site_type_symbol
_atom_site_label
_atom_site_fract_x
_atom_site_fract_y
_atom_site_fract_z
Si Si1 0.000000 0.477670 0.000000
Si Si2 0.287805 0.708261 0.202509
Si Si3 0.634593 0.710474 0.959206
Si Si4 0.235020 0.754333 0.397729
O O1 0.110326 0.665437 0.177905
O O2 0.976512 0.289040 0.094280
O O3 0.388440 0.758615 0.222806
O O4 0.330230 0.761247 0.402454
O O5 0.246996 0.395329 0.141918
O O6 0.172113 0.898933 0.029466
O O7 0.280493 0.555733 0.566316
#
# Coordination Sequence:
#
# PCOD8050516 Si02
#       4
#     2   4   4   4
#     4  10  22  40  64  88 116 154 198 242 288 346
#     4   9  18  35  56  85 117 151 190 237 290 343
#     4   9  18  33  60  85 112 153 193 234 291 343
#     4  11  23  38  61  89 119 154 195 241 290 345
#
# _framework density 23.997409999999999
#
# number of rings (size 3 to 8) (size 9 to 14) (size 15 to 20)
#    0.000    2.286    0.000    3.429    0.000   10.286 
#    0.000    1.429    0.000   17.143    0.000    0.000 
#    0.000    0.000    0.000    0.000    0.000    0.000 
#
# Total GULP energy -86720.044932 kJ/mol
# GULP energy per Si atom -12388.577847 kJ/mol
# Density = 2.394279 g / cm^3
# Si number density = 23.997410 Si / 1000 Ang^3
#
#
#
# Elastic Constant Matrix: (Units=GPa)
#
#
# Indices 1 2 3 4 5 6 
#
# 1 185.6458 9.3486 43.1718 0.0001 -66.0762 0.0000
# 2 9.3486 66.1701 1.0211 0.0002 -3.1480 0.0002
# 3 43.1718 1.0211 53.2430 0.0000 -31.4308 0.0000
# 4 0.0001 0.0002 0.0000 33.5368 0.0000 -12.8183
# 5 -66.0762 -3.1480 -31.4308 0.0000 61.8831 0.0000
# 6 0.0000 0.0002 0.0000 -12.8183 0.0000 30.7877
#
#
#
# Elastic Compliance Matrix: (Units=1/GPa)
#
#
# Indices 1 2 3 4 5 6 
#
# 1 0.008925 -0.000830 -0.002314 0.000000 0.008312 0.000000
# 2 -0.000830 0.015228 0.000450 0.000000 0.000117 0.000000
# 3 -0.002314 0.000450 0.027428 0.000000 0.011483 0.000000
# 4 0.000000 0.000000 0.000000 0.035461 0.000000 0.014764
# 5 0.008312 0.000117 0.011483 0.000000 0.030873 0.000000
# 6 0.000000 0.000000 0.000000 0.014764 0.000000 0.038627
#
#
# Mechanical properties :
#
#
# Convention : Reuss Voigt Hill
#
# Bulk Modulus (GPa) = 21.64769 45.79354 33.72061
# Shear Modulus (GPa) = 28.19612 42.00933 35.10272
#
# Velocity S-wave (km/s) = 3.43149 4.18853 3.82877
# Velocity P-wave (km/s) = 4.97400 6.52042 5.79899
#
# Compressibility (1/GPa) = 0.04619430
#
# Stress axis : x y z
#
# Youngs Moduli (GPa) = 112.04381 65.66666 36.45874
#
# Poissons Ratio (x) = 0.05449 0.08436
# Poissons Ratio (y) = 0.09297 -0.01640
# Poissons Ratio (z) = 0.25926 -0.02955
#
# Static dielectric constant tensor:
#      x y z
#    x 5.030680 0.000000 -0.917590 
#    y 0.000000 4.228360 0.000000 
#    z -0.917590 0.000000 3.812450 
# 
# 
# High freq. dielectric constant tensor:
#      x y z
#    x 1.967950 0.000000 -0.060630 
#    y 0.000000 1.962180 0.000000 
#    z -0.060630 0.000000 1.898630 
# 
# From -- ./inp_files/17753.got.cif
#   From: 2010.03.12/outbox.cif.g09.slc.cpg/sg5_9_cif.got.tgz:17753.got - 2010.03.31 09:47:26.
