data_PCOD8050685
_publ_section_title
;
Structure prediction by ZEFSAII (Michael W. Deem and Ramdas Pophale) SiO2 
 PCOD8050685
Probable space group: C 2
;
_chemical_formula_sum "Si O2"
_cell_formula_units_Z 22
_cell_length_a 22.972971
_cell_length_b 8.977616
_cell_length_c 14.147128
_cell_angle_alpha 90.000000
_cell_angle_beta 159.687739
_cell_angle_gamma 90.000000
_cell_volume 1012.853333
_symmetry_space_group_name_H-M "C 2"
_symmetry_group_IT_number 5
_symmetry_cell_setting 'monoclinic'
loop_
_space_group_symop_operation_xyz
x,y,z
-x,y,-z
1/2+x,1/2+y,z
1/2-x,1/2+y,-z
loop_
_atom_site_type_symbol
_atom_site_label
_atom_site_fract_x
_atom_site_fract_y
_atom_site_fract_z
Si Si1 0.000000 0.694640 0.500000
Si Si2 0.444312 0.917149 0.213363
Si Si3 0.422616 0.534929 0.787449
Si Si4 0.786940 0.727882 0.020127
Si Si5 0.748095 0.964712 0.807043
Si Si6 0.582083 0.875997 0.220695
O O1 0.163455 0.589470 0.743253
O O2 0.046312 0.786497 0.665651
O O3 0.373718 0.769258 0.158449
O O4 0.633240 0.946401 0.538702
O O5 0.457272 0.896629 0.120019
O O6 0.315851 0.053136 0.040444
O O7 0.374176 0.705006 0.731153
O O8 0.258074 0.453445 0.503541
O O9 0.500000 0.461711 0.000000
O O10 0.566129 0.522252 0.928036
O O11 0.765572 0.809259 0.888231
O O12 0.500000 0.943319 0.000000
#
# Coordination Sequence:
#
# PCOD8050685 Si02
#       6
#     2   4   4   4   4   4
#     4  10  22  42  64  98 140 176 230 282 354 420
#     4  11  24  45  70 104 143 181 242 284 354 426
#     4  11  25  45  71  97 141 190 232 289 357 413
#     4  11  22  41  70 100 137 182 225 293 350 403
#     4  11  21  42  71  95 137 186 227 286 354 416
#     4  11  27  46  72 108 140 186 243 293 349 422
#
# _framework density 21.720815000000002
#
# number of rings (size 3 to 8) (size 9 to 14) (size 15 to 20)
#    0.000    1.091    5.455    1.091    2.545    5.091 
#    3.273    1.818    0.000    0.000    0.000    0.000 
#    0.000    0.000    0.000    0.000    0.000    0.000 
#
# Total GULP energy -136309.038280 kJ/mol
# GULP energy per Si atom -12391.730753 kJ/mol
# Density = 2.167138 g / cm^3
# Si number density = 21.720815 Si / 1000 Ang^3
#
#
#
# Elastic Constant Matrix: (Units=GPa)
#
#
# Indices 1 2 3 4 5 6 
#
# 1 126.8893 36.3905 56.3060 0.0000 -6.2486 0.0000
# 2 36.3905 66.5162 61.6244 0.0000 0.2240 0.0000
# 3 56.3060 61.6244 137.1579 0.0000 -5.1696 0.0000
# 4 0.0000 0.0000 0.0000 22.8377 0.0000 -13.4805
# 5 -6.2486 0.2240 -5.1696 0.0000 51.0343 0.0000
# 6 0.0000 0.0000 0.0000 -13.4805 0.0000 19.7785
#
#
#
# Elastic Compliance Matrix: (Units=1/GPa)
#
#
# Indices 1 2 3 4 5 6 
#
# 1 0.009986 -0.002916 -0.002753 0.000000 0.000957 0.000000
# 2 -0.002916 0.026690 -0.010854 0.000000 -0.001574 0.000000
# 3 -0.002753 -0.010854 0.013338 0.000000 0.001062 0.000000
# 4 0.000000 0.000000 0.000000 0.073261 0.000000 0.049933
# 5 0.000957 -0.001574 0.001062 0.000000 0.019826 0.000000
# 6 0.000000 0.000000 0.000000 0.049933 0.000000 0.084593
#
#
# Mechanical properties :
#
#
# Convention : Reuss Voigt Hill
#
# Bulk Modulus (GPa) = 58.93520 71.02280 64.97900
# Shear Modulus (GPa) = 18.76895 30.47959 24.62427
#
# Velocity S-wave (km/s) = 2.94275 3.75005 3.37066
# Velocity P-wave (km/s) = 6.22401 7.17771 6.71781
#
# Compressibility (1/GPa) = 0.01696779
#
# Stress axis : x y z
#
# Youngs Moduli (GPa) = 100.14078 37.46683 74.97378
#
# Poissons Ratio (x) = 0.10923 0.20644
# Poissons Ratio (y) = 0.29196 0.81378
# Poissons Ratio (z) = 0.27573 0.40667
#
# Static dielectric constant tensor:
#      x y z
#    x 4.253130 0.000000 -0.225850 
#    y 0.000000 3.765030 0.000000 
#    z -0.225850 0.000000 4.007700 
# 
# 
# High freq. dielectric constant tensor:
#      x y z
#    x 1.866330 0.000000 -0.013030 
#    y 0.000000 1.834530 0.000000 
#    z -0.013030 0.000000 1.859490 
# 
# From -- ./inp_files/57571.got.cif
#   From: 2010.03.12/outbox.cif.g09.slc.cpg/sg5_29_cif.got.tgz:57571.got - 2010.03.31 09:47:26.
