data_PCOD8050971
_publ_section_title
;
Structure prediction by ZEFSAII (Michael W. Deem and Ramdas Pophale) SiO2 
 PCOD8050971
Probable space group: C 2
;
_chemical_formula_sum "Si O2"
_cell_formula_units_Z 18
_cell_length_a 7.384028
_cell_length_b 7.119458
_cell_length_c 13.946057
_cell_angle_alpha 90.000000
_cell_angle_beta 95.693119
_cell_angle_gamma 90.000000
_cell_volume 729.531823
_symmetry_space_group_name_H-M "C 2"
_symmetry_group_IT_number 5
_symmetry_cell_setting 'monoclinic'
loop_
_space_group_symop_operation_xyz
x,y,z
-x,y,-z
1/2+x,1/2+y,z
1/2-x,1/2+y,-z
loop_
_atom_site_type_symbol
_atom_site_label
_atom_site_fract_x
_atom_site_fract_y
_atom_site_fract_z
Si Si1 0.836526 0.711230 0.434389
Si Si2 0.533372 0.972604 0.706906
Si Si3 0.378753 0.063440 0.077827
Si Si4 0.500000 0.420949 0.000000
Si Si5 0.159892 0.123346 0.610207
O O1 0.799920 0.580188 0.338954
O O2 0.915019 0.913175 0.405334
O O3 0.671520 0.713927 0.502562
O O4 0.000000 0.608383 0.500000
O O5 0.571634 0.961447 0.821141
O O6 0.351731 0.093183 0.676204
O O7 0.525380 0.757281 0.666109
O O8 0.164082 0.048857 0.045676
O O9 0.428612 0.285772 0.083061
O O10 0.500000 0.966104 0.000000
#
# Coordination Sequence:
#
# PCOD8050971 Si02
#       5
#     4   4   4   2   4
#     4  10  23  38  62  98 143 185 234 290 354 427
#     4  11  24  44  66 103 141 186 243 294 367 427
#     4  10  25  47  72 109 144 190 242 307 364 444
#     4  10  24  46  80  98 154 180 248 300 376 426
#     4  11  23  40  69  98 141 188 235 295 353 430
#
# _framework density 24.673358
#
# number of rings (size 3 to 8) (size 9 to 14) (size 15 to 20)
#    0.667    0.889    2.222    1.333    4.667    1.778 
#    0.000    0.000    0.000    0.000    0.000    0.000 
#    0.000    0.000    0.000    0.000    0.000    0.000 
#
# Total GULP energy -111501.256364 kJ/mol
# GULP energy per Si atom -12389.028485 kJ/mol
# Density = 2.461720 g / cm^3
# Si number density = 24.673358 Si / 1000 Ang^3
#
#
#
# Elastic Constant Matrix: (Units=GPa)
#
#
# Indices 1 2 3 4 5 6 
#
# 1 79.7956 19.7638 36.2179 0.0000 -1.5788 0.0000
# 2 19.7638 109.1358 32.5567 0.0000 -12.0984 0.0000
# 3 36.2179 32.5567 180.6178 0.0000 -3.6481 0.0000
# 4 0.0000 0.0000 0.0000 20.8072 0.0000 4.9705
# 5 -1.5788 -12.0984 -3.6481 0.0000 26.0785 0.0000
# 6 0.0000 0.0000 0.0000 4.9705 0.0000 37.4701
#
#
#
# Elastic Compliance Matrix: (Units=1/GPa)
#
#
# Indices 1 2 3 4 5 6 
#
# 1 0.014120 -0.001849 -0.002505 0.000000 -0.000353 0.000000
# 2 -0.001849 0.010422 -0.001416 0.000000 0.004525 0.000000
# 3 -0.002505 -0.001416 0.006296 0.000000 0.000072 0.000000
# 4 0.000000 0.000000 0.000000 0.049633 0.000000 -0.006584
# 5 -0.000353 0.004525 0.000072 0.000000 0.040434 0.000000
# 6 0.000000 0.000000 0.000000 -0.006584 0.000000 0.027561
#
#
# Mechanical properties :
#
#
# Convention : Reuss Voigt Hill
#
# Bulk Modulus (GPa) = 51.82290 60.73621 56.27956
# Shear Modulus (GPa) = 30.04107 35.60522 32.82315
#
# Velocity S-wave (km/s) = 3.49313 3.80289 3.65129
# Velocity P-wave (km/s) = 6.10888 6.62964 6.37458
#
# Compressibility (1/GPa) = 0.01929649
#
# Stress axis : x y z
#
# Youngs Moduli (GPa) = 70.82128 95.95219 158.83909
#
# Poissons Ratio (x) = 0.17740 0.39793
# Poissons Ratio (y) = 0.13094 0.22498
# Poissons Ratio (z) = 0.17743 0.13591
#
# Static dielectric constant tensor:
#      x y z
#    x 4.436410 0.000000 -0.066560 
#    y 0.000000 4.216200 0.000000 
#    z -0.066560 0.000000 4.251520 
# 
# 
# High freq. dielectric constant tensor:
#      x y z
#    x 1.987200 0.000000 0.006520 
#    y 0.000000 1.978920 0.000000 
#    z 0.006520 0.000000 1.961510 
# 
# From -- ./inp_files/34653.got.cif
#   From: 2010.03.12/outbox.cif.g09.slc.cpg/sg5_18_cif.got.tgz:34653.got - 2010.03.31 09:47:26.
