data_PCOD8050648
_publ_section_title
;
Structure prediction by ZEFSAII (Michael W. Deem and Ramdas Pophale) SiO2 
 PCOD8050648
Probable space group: C 2
;
_chemical_formula_sum "Si O2"
_cell_formula_units_Z 28
_cell_length_a 19.360073
_cell_length_b 8.532638
_cell_length_c 13.917278
_cell_angle_alpha 90.000000
_cell_angle_beta 35.447279
_cell_angle_gamma 90.000000
_cell_volume 1333.330644
_symmetry_space_group_name_H-M "C 2"
_symmetry_group_IT_number 5
_symmetry_cell_setting 'monoclinic'
loop_
_space_group_symop_operation_xyz
x,y,z
-x,y,-z
1/2+x,1/2+y,z
1/2-x,1/2+y,-z
loop_
_atom_site_type_symbol
_atom_site_label
_atom_site_fract_x
_atom_site_fract_y
_atom_site_fract_z
Si Si1 0.140343 0.569760 0.046668
Si Si2 0.254728 0.206229 0.607872
Si Si3 0.559081 0.453415 0.533877
Si Si4 0.856521 0.931500 0.909901
Si Si5 0.631280 0.485439 0.888333
Si Si6 0.122603 0.493472 0.680537
Si Si7 0.779980 0.651969 0.249873
O O1 0.131205 0.746051 0.094533
O O2 0.012529 0.488256 0.201633
O O3 0.227363 0.470196 0.014782
O O4 0.183483 0.561656 0.888156
O O5 0.369359 0.300807 0.513340
O O6 0.165398 0.317317 0.650521
O O7 0.292211 0.064063 0.497529
O O8 0.184540 0.139843 0.779217
O O9 0.500000 0.411533 0.500000
O O10 0.458581 0.497996 0.724748
O O11 0.645153 0.603835 0.428891
O O12 0.872681 0.016685 0.993638
O O13 0.715831 0.338077 0.768342
O O14 0.500000 0.446434 0.000000
O O15 0.130184 0.599263 0.767932
#
# Coordination Sequence:
#
# PCOD8050648 Si02
#       7
#     4   4   4   4   4   4   4
#     4  11  23  44  66 101 136 183 225 280 340 405
#     4  11  26  42  70 102 132 182 227 284 342 406
#     4  11  23  45  71 100 141 178 228 279 338 405
#     4  11  25  44  69  99 142 183 225 282 343 404
#     4  11  26  45  66 101 139 175 228 286 343 405
#     4  11  23  42  70  98 135 176 230 283 341 399
#     4  10  22  41  72  94 134 179 227 274 342 401
#
# _framework density 21.000043999999999
#
# number of rings (size 3 to 8) (size 9 to 14) (size 15 to 20)
#    0.000    1.143    2.857    3.000    6.000    3.429 
#    2.571    0.714    0.000    0.000    0.000    0.000 
#    0.000    0.000    0.000    0.000    0.000    0.000 
#
# Total GULP energy -173710.742300 kJ/mol
# GULP energy per Si atom -12407.910164 kJ/mol
# Density = 2.095225 g / cm^3
# Si number density = 21.000044 Si / 1000 Ang^3
#
#
#
# Elastic Constant Matrix: (Units=GPa)
#
#
# Indices 1 2 3 4 5 6 
#
# 1 152.0506 42.1752 74.6048 0.0000 -4.9507 0.0000
# 2 42.1752 81.6842 59.6985 0.0000 -1.8780 0.0000
# 3 74.6048 59.6985 148.6863 0.0000 2.8234 0.0000
# 4 0.0000 0.0000 0.0000 32.4047 0.0000 3.0775
# 5 -4.9507 -1.8780 2.8234 0.0000 42.3831 0.0000
# 6 0.0000 0.0000 0.0000 3.0775 0.0000 33.7172
#
#
#
# Elastic Compliance Matrix: (Units=1/GPa)
#
#
# Indices 1 2 3 4 5 6 
#
# 1 0.008989 -0.001840 -0.003795 0.000000 0.001221 0.000000
# 2 -0.001840 0.017768 -0.006230 0.000000 0.000987 0.000000
# 3 -0.003795 -0.006230 0.011159 0.000000 -0.001463 0.000000
# 4 0.000000 0.000000 0.000000 0.031130 0.000000 -0.002841
# 5 0.001221 0.000987 -0.001463 0.000000 0.023878 0.000000
# 6 0.000000 0.000000 0.000000 -0.002841 0.000000 0.029918
#
#
# Mechanical properties :
#
#
# Convention : Reuss Voigt Hill
#
# Bulk Modulus (GPa) = 70.48625 81.70867 76.09746
# Shear Modulus (GPa) = 33.04754 35.43051 34.23902
#
# Velocity S-wave (km/s) = 3.97128 4.11197 4.04223
# Velocity P-wave (km/s) = 7.39363 7.84459 7.62245
#
# Compressibility (1/GPa) = 0.01418716
#
# Stress axis : x y z
#
# Youngs Moduli (GPa) = 111.25078 56.28219 89.61710
#
# Poissons Ratio (x) = 0.10354 0.34007
# Poissons Ratio (y) = 0.20466 0.55827
# Poissons Ratio (z) = 0.42217 0.35061
#
# Static dielectric constant tensor:
#      x y z
#    x 3.976780 0.000000 0.082260 
#    y 0.000000 3.569420 0.000000 
#    z 0.082260 0.000000 3.867230 
# 
# 
# High freq. dielectric constant tensor:
#      x y z
#    x 1.836430 0.000000 0.004120 
#    y 0.000000 1.814600 0.000000 
#    z 0.004120 0.000000 1.834020 
# 
# From -- ./inp_files/41866.got.cif
#   From: 2010.03.12/outbox.cif.g09.slc.cpg/sg5_21_cif.got.tgz:41866.got - 2010.03.31 09:47:26.
