data_PCOD8050552
_publ_section_title
;
Structure prediction by ZEFSAII (Michael W. Deem and Ramdas Pophale) SiO2 
 PCOD8050552
Probable space group: C 2
;
_chemical_formula_sum "Si O2"
_cell_formula_units_Z 18
_cell_length_a 8.696218
_cell_length_b 11.299629
_cell_length_c 8.963705
_cell_angle_alpha 90.000000
_cell_angle_beta 83.853942
_cell_angle_gamma 90.000000
_cell_volume 875.747123
_symmetry_space_group_name_H-M "C 2"
_symmetry_group_IT_number 5
_symmetry_cell_setting 'monoclinic'
loop_
_space_group_symop_operation_xyz
x,y,z
-x,y,-z
1/2+x,1/2+y,z
1/2-x,1/2+y,-z
loop_
_atom_site_type_symbol
_atom_site_label
_atom_site_fract_x
_atom_site_fract_y
_atom_site_fract_z
Si Si1 0.511862 0.741260 0.829271
Si Si2 0.986394 0.470794 0.325903
Si Si3 0.000000 0.863839 0.000000
Si Si4 0.331941 0.172156 0.166541
Si Si5 0.237984 0.043413 0.895808
O O1 0.586205 0.845951 0.721694
O O2 0.343734 0.709353 0.780600
O O3 0.619595 0.625413 0.814884
O O4 0.500000 0.788835 0.000000
O O5 0.881037 0.580873 0.288748
O O6 0.000000 0.471979 0.500000
O O7 0.155921 0.478007 0.234858
O O8 0.048505 0.783831 0.850782
O O9 0.147747 0.949078 0.010996
O O10 0.342831 0.118995 0.997506
#
# Coordination Sequence:
#
# PCOD8050552 Si02
#       5
#     4   4   2   4   4
#     4  10  22  40  68  91 117 155 210 262 301 346
#     4  12  26  40  58  90 133 169 196 237 305 377
#     4  12  20  36  70  94 116 144 208 266 302 338
#     4  11  22  38  67  91 120 155 207 259 301 348
#     4  11  22  40  66  95 115 155 209 260 303 347
#
# _framework density 20.553879999999999
#
# number of rings (size 3 to 8) (size 9 to 14) (size 15 to 20)
#    0.000    0.889    7.778    1.333    3.111    1.778 
#    0.000    0.000    0.000    0.000    0.000    0.000 
#    0.000    0.000    0.000    0.000    0.000    0.000 
#
# Total GULP energy -111566.172684 kJ/mol
# GULP energy per Si atom -12396.241409 kJ/mol
# Density = 2.050710 g / cm^3
# Si number density = 20.553880 Si / 1000 Ang^3
#
#
#
# Elastic Constant Matrix: (Units=GPa)
#
#
# Indices 1 2 3 4 5 6 
#
# 1 93.2939 44.8234 26.7160 0.0000 5.2963 0.0000
# 2 44.8234 125.1722 28.2803 0.0000 12.9910 0.0000
# 3 26.7160 28.2803 80.8424 0.0000 11.5729 0.0000
# 4 0.0000 0.0000 0.0000 20.6148 0.0000 2.3310
# 5 5.2963 12.9910 11.5729 0.0000 20.1306 0.0000
# 6 0.0000 0.0000 0.0000 2.3310 0.0000 21.1630
#
#
#
# Elastic Compliance Matrix: (Units=1/GPa)
#
#
# Indices 1 2 3 4 5 6 
#
# 1 0.013614 -0.004266 -0.003147 0.000000 0.000980 0.000000
# 2 -0.004266 0.010350 -0.001542 0.000000 -0.004670 0.000000
# 3 -0.003147 -0.001542 0.014916 0.000000 -0.006752 0.000000
# 4 0.000000 0.000000 0.000000 0.049121 0.000000 -0.005410
# 5 0.000980 -0.004670 -0.006752 0.000000 0.056313 0.000000
# 6 0.000000 0.000000 0.000000 -0.005410 0.000000 0.047848
#
#
# Mechanical properties :
#
#
# Convention : Reuss Voigt Hill
#
# Bulk Modulus (GPa) = 47.68912 55.43864 51.56388
# Shear Modulus (GPa) = 23.03500 25.68094 24.35797
#
# Velocity S-wave (km/s) = 3.35134 3.53858 3.44623
# Velocity P-wave (km/s) = 6.18285 6.61259 6.40133
#
# Compressibility (1/GPa) = 0.02096914
#
# Stress axis : x y z
#
# Youngs Moduli (GPa) = 73.45453 96.62154 67.04298
#
# Poissons Ratio (x) = 0.41216 0.21099
# Poissons Ratio (y) = 0.31334 0.10340
# Poissons Ratio (z) = 0.23117 0.14902
#
# Static dielectric constant tensor:
#      x y z
#    x 3.798230 0.000000 -0.103660 
#    y 0.000000 4.076130 0.000000 
#    z -0.103660 0.000000 3.163640 
# 
# 
# High freq. dielectric constant tensor:
#      x y z
#    x 1.812410 0.000000 -0.011880 
#    y 0.000000 1.832720 0.000000 
#    z -0.011880 0.000000 1.740530 
# 
# From -- ./inp_files/13947.got.cif
#   From: 2010.03.12/outbox.cif.g09.slc.cpg/sg5_7_cif.got.tgz:13947.got - 2010.03.31 09:47:26.
