data_PCOD8050482
_publ_section_title
;
Structure prediction by ZEFSAII (Michael W. Deem and Ramdas Pophale) SiO2 
 PCOD8050482
Probable space group: C 2
;
_chemical_formula_sum "Si O2"
_cell_formula_units_Z 28
_cell_length_a 17.698061
_cell_length_b 8.592694
_cell_length_c 16.744174
_cell_angle_alpha 90.000000
_cell_angle_beta 148.926819
_cell_angle_gamma 90.000000
_cell_volume 1314.255928
_symmetry_space_group_name_H-M "C 2"
_symmetry_group_IT_number 5
_symmetry_cell_setting 'monoclinic'
loop_
_space_group_symop_operation_xyz
x,y,z
-x,y,-z
1/2+x,1/2+y,z
1/2-x,1/2+y,-z
loop_
_atom_site_type_symbol
_atom_site_label
_atom_site_fract_x
_atom_site_fract_y
_atom_site_fract_z
Si Si1 0.495649 0.674710 0.677825
Si Si2 0.071652 0.886203 0.644530
Si Si3 0.935853 0.658663 0.631084
Si Si4 0.737952 0.368499 0.412686
Si Si5 0.610769 0.824185 0.034737
Si Si6 0.982059 0.036658 0.140008
Si Si7 0.164971 0.444317 0.906296
O O1 0.573032 0.529133 0.707186
O O2 0.358116 0.736257 0.498612
O O3 0.439296 0.630228 0.715743
O O4 0.615156 0.810034 0.799636
O O5 0.236227 0.827989 0.780883
O O6 0.000000 0.951916 0.500000
O O7 0.981508 0.732617 0.588171
O O8 0.829797 0.513698 0.527505
O O9 0.861075 0.803864 0.606004
O O10 0.083901 0.606059 0.811531
O O11 0.615269 0.417400 0.234369
O O12 0.500000 0.899326 0.000000
O O13 0.558855 0.646648 0.970913
O O14 0.623487 0.910989 0.961089
O O15 0.838195 0.958418 0.048479
#
# Coordination Sequence:
#
# PCOD8050482 Si02
#       7
#     4   4   4   4   4   4   4
#     4  10  22  40  60 100 128 172 235 266 325 404
#     4  12  25  42  65  91 139 179 216 276 347 403
#     4  11  21  40  62 102 124 175 226 271 330 397
#     4  11  21  35  66  94 130 156 227 282 311 387
#     4  11  25  42  65 105 132 170 224 285 338 390
#     4  11  20  40  68  96 133 176 225 273 330 401
#     4  10  22  41  73  94 131 177 227 278 326 406
#
# _framework density 21.304832000000001
#
# number of rings (size 3 to 8) (size 9 to 14) (size 15 to 20)
#    0.000    1.143    5.714    0.000    4.000    1.143 
#    0.000    4.286    0.000    0.857    0.000    0.000 
#    0.000    0.000    0.000    0.000    0.000    0.000 
#
# Total GULP energy -173441.967325 kJ/mol
# GULP energy per Si atom -12388.711952 kJ/mol
# Density = 2.125634 g / cm^3
# Si number density = 21.304832 Si / 1000 Ang^3
#
#
#
# Elastic Constant Matrix: (Units=GPa)
#
#
# Indices 1 2 3 4 5 6 
#
# 1 40.7413 26.0102 36.1731 0.0000 -7.5932 0.0000
# 2 26.0102 84.7286 43.7646 0.0000 9.1267 0.0000
# 3 36.1731 43.7646 142.2911 0.0000 19.6597 0.0000
# 4 0.0000 0.0000 0.0000 39.6891 0.0000 2.7986
# 5 -7.5932 9.1267 19.6597 0.0000 28.9272 0.0000
# 6 0.0000 0.0000 0.0000 2.7986 0.0000 20.6766
#
#
#
# Elastic Compliance Matrix: (Units=1/GPa)
#
#
# Indices 1 2 3 4 5 6 
#
# 1 0.046040 -0.010625 -0.011664 0.000000 0.023365 0.000000
# 2 -0.010625 0.016555 -0.001417 0.000000 -0.007049 0.000000
# 3 -0.011664 -0.001417 0.011908 0.000000 -0.010708 0.000000
# 4 0.000000 0.000000 0.000000 0.025439 0.000000 -0.003443
# 5 0.023365 -0.007049 -0.010708 0.000000 0.050204 0.000000
# 6 0.000000 0.000000 0.000000 -0.003443 0.000000 0.048830
#
#
# Mechanical properties :
#
#
# Convention : Reuss Voigt Hill
#
# Bulk Modulus (GPa) = 36.91322 53.29520 45.10421
# Shear Modulus (GPa) = 19.57570 28.64612 24.11091
#
# Velocity S-wave (km/s) = 3.03452 3.67083 3.36774
# Velocity P-wave (km/s) = 5.44441 6.56022 6.02819
#
# Compressibility (1/GPa) = 0.02709056
#
# Stress axis : x y z
#
# Youngs Moduli (GPa) = 21.72047 60.40364 83.97434
#
# Poissons Ratio (x) = 0.64180 0.97951
# Poissons Ratio (y) = 0.23078 0.11898
# Poissons Ratio (z) = 0.25335 0.08558
#
# Static dielectric constant tensor:
#      x y z
#    x 3.407930 0.000000 0.251160 
#    y 0.000000 4.070060 0.000000 
#    z 0.251160 0.000000 4.189250 
# 
# 
# High freq. dielectric constant tensor:
#      x y z
#    x 1.793030 0.000000 0.026070 
#    y 0.000000 1.840930 0.000000 
#    z 0.026070 0.000000 1.856630 
# 
# From -- ./inp_files/62252.got.cif
#   From: 2010.03.12/outbox.cif.g09.slc.cpg/sg5_32_cif.got.tgz:62252.got - 2010.03.31 09:47:26.
