data_PCOD8050608
_publ_section_title
;
Structure prediction by ZEFSAII (Michael W. Deem and Ramdas Pophale) SiO2 
 PCOD8050608
Probable space group: C 2
;
_chemical_formula_sum "Si O2"
_cell_formula_units_Z 32
_cell_length_a 12.190369
_cell_length_b 14.631162
_cell_length_c 8.361544
_cell_angle_alpha 90.000000
_cell_angle_beta 82.045057
_cell_angle_gamma 90.000000
_cell_volume 1477.007794
_symmetry_space_group_name_H-M "C 2"
_symmetry_group_IT_number 5
_symmetry_cell_setting 'monoclinic'
loop_
_space_group_symop_operation_xyz
x,y,z
-x,y,-z
1/2+x,1/2+y,z
1/2-x,1/2+y,-z
loop_
_atom_site_type_symbol
_atom_site_label
_atom_site_fract_x
_atom_site_fract_y
_atom_site_fract_z
Si Si1 0.572280 0.896350 0.731842
Si Si2 0.171536 0.733679 0.594077
Si Si3 0.147267 0.365579 0.363089
Si Si4 0.693959 0.158308 0.235825
Si Si5 0.284005 0.348128 0.871371
Si Si6 0.967649 0.598146 0.183306
Si Si7 0.494563 0.402182 0.332839
Si Si8 0.185852 0.980399 0.833969
O O1 0.600808 0.895720 0.541447
O O2 0.446855 0.855063 0.757245
O O3 0.662663 0.841794 0.815234
O O4 0.573121 0.994972 0.812788
O O5 0.284762 0.771444 0.648055
O O6 0.207761 0.699362 0.410891
O O7 0.132846 0.653376 0.718204
O O8 0.073887 0.809165 0.617014
O O9 0.229363 0.449760 0.318360
O O10 0.690138 0.240541 0.104357
O O11 0.577604 0.105455 0.267654
O O12 0.790764 0.088917 0.153153
O O13 0.378397 0.383239 0.733250
O O14 0.287482 0.414431 0.022149
O O15 0.000000 0.632905 0.000000
O O16 0.500000 0.457404 0.500000
O O17 0.439533 0.462733 0.202820
#
# Coordination Sequence:
#
# PCOD8050608 Si02
#       8
#     4   4   4   4   4   4   4   4
#     4  11  23  43  65  95 137 179 230 277 347 406
#     4  11  22  41  69 101 130 175 235 280 339 405
#     4  10  22  41  65  94 132 183 221 278 339 407
#     4  12  23  44  67 101 134 184 229 282 341 410
#     4  12  24  43  71  98 142 178 226 287 342 417
#     4  12  25  38  67 105 134 169 233 295 337 404
#     4  11  21  43  70 100 133 179 228 282 345 404
#     4  11  25  41  69 101 141 178 226 288 352 400
#
# _framework density 21.665424999999999
#
# number of rings (size 3 to 8) (size 9 to 14) (size 15 to 20)
#    0.000    0.750    5.000    3.000    5.250    0.000 
#    0.000    2.500    2.750    0.000    0.000    0.000 
#    0.000    0.000    0.000    0.000    0.000    0.000 
#
# Total GULP energy -198252.732753 kJ/mol
# GULP energy per Si atom -12390.795797 kJ/mol
# Density = 2.161611 g / cm^3
# Si number density = 21.665425 Si / 1000 Ang^3
#
#
#
# Elastic Constant Matrix: (Units=GPa)
#
#
# Indices 1 2 3 4 5 6 
#
# 1 99.8581 26.8719 16.0462 0.0000 21.9756 0.0000
# 2 26.8719 100.7330 36.9538 0.0000 -6.9927 0.0000
# 3 16.0462 36.9538 80.2963 0.0000 7.9008 0.0000
# 4 0.0000 0.0000 0.0000 31.3963 0.0000 -4.4246
# 5 21.9756 -6.9927 7.9008 0.0000 31.0461 0.0000
# 6 0.0000 0.0000 0.0000 -4.4246 0.0000 33.7853
#
#
#
# Elastic Compliance Matrix: (Units=1/GPa)
#
#
# Indices 1 2 3 4 5 6 
#
# 1 0.013508 -0.004500 0.000423 0.000000 -0.010683 0.000000
# 2 -0.004500 0.014000 -0.006326 0.000000 0.007949 0.000000
# 3 0.000423 -0.006326 0.015847 0.000000 -0.005757 0.000000
# 4 0.000000 0.000000 0.000000 0.032450 0.000000 0.004250
# 5 -0.010683 0.007949 -0.005757 0.000000 0.043027 0.000000
# 6 0.000000 0.000000 0.000000 0.004250 0.000000 0.030155
#
#
# Mechanical properties :
#
#
# Convention : Reuss Voigt Hill
#
# Bulk Modulus (GPa) = 44.34820 48.95903 46.65362
# Shear Modulus (GPa) = 28.19909 32.64658 30.42283
#
# Velocity S-wave (km/s) = 3.61164 3.88603 3.75135
# Velocity P-wave (km/s) = 6.15678 6.54078 6.35168
#
# Compressibility (1/GPa) = 0.02254883
#
# Stress axis : x y z
#
# Youngs Moduli (GPa) = 74.02899 71.42783 63.10289
#
# Poissons Ratio (x) = 0.32144 -0.02668
# Poissons Ratio (y) = 0.33314 0.39918
# Poissons Ratio (z) = -0.03130 0.45185
#
# Static dielectric constant tensor:
#      x y z
#    x 4.274700 0.000000 -0.016860 
#    y 0.000000 3.851870 0.000000 
#    z -0.016860 0.000000 3.987520 
# 
# 
# High freq. dielectric constant tensor:
#      x y z
#    x 1.861030 0.000000 -0.000050 
#    y 0.000000 1.830400 0.000000 
#    z -0.000050 0.000000 1.852080 
# 
# From -- ./inp_files/20652.got.cif
#   From: 2010.03.12/outbox.cif.g09.slc.cpg/sg5_11_cif.got.tgz:20652.got - 2010.03.31 09:47:26.
