data_PCOD8050930
_publ_section_title
;
Structure prediction by ZEFSAII (Michael W. Deem and Ramdas Pophale) SiO2 
 PCOD8050930
Probable space group: C 2
;
_chemical_formula_sum "Si O2"
_cell_formula_units_Z 24
_cell_length_a 15.381660
_cell_length_b 12.080935
_cell_length_c 8.473647
_cell_angle_alpha 90.000000
_cell_angle_beta 136.130414
_cell_angle_gamma 90.000000
_cell_volume 1091.237841
_symmetry_space_group_name_H-M "C 2"
_symmetry_group_IT_number 5
_symmetry_cell_setting 'monoclinic'
loop_
_space_group_symop_operation_xyz
x,y,z
-x,y,-z
1/2+x,1/2+y,z
1/2-x,1/2+y,-z
loop_
_atom_site_type_symbol
_atom_site_label
_atom_site_fract_x
_atom_site_fract_y
_atom_site_fract_z
Si Si1 0.058741 0.093490 0.733212
Si Si2 0.464855 0.805537 0.134156
Si Si3 0.677866 0.998964 0.910433
Si Si4 0.206444 0.358259 0.644539
Si Si5 0.575161 0.207071 0.942062
Si Si6 0.571242 0.414783 0.255761
O O1 0.100897 0.188994 0.909924
O O2 0.000000 0.147490 0.500000
O O3 0.178352 0.017568 0.856254
O O4 0.947263 0.016898 0.653302
O O5 0.419106 0.810250 0.593682
O O6 0.367723 0.903558 0.032447
O O7 0.500000 0.805284 0.000000
O O8 0.595833 0.109078 0.842041
O O9 0.668562 0.956734 0.717035
O O10 0.281995 0.407462 0.593817
O O11 0.288823 0.261062 0.835271
O O12 0.486724 0.301193 0.746769
O O13 0.500000 0.163609 0.000000
O O14 0.500000 0.438683 0.000000
#
# Coordination Sequence:
#
# PCOD8050930 Si02
#       6
#     4   4   4   4   4   4
#     4  12  25  42  71  98 137 171 223 272 331 392
#     4  12  28  45  65 101 134 177 223 271 333 389
#     4  12  22  41  69  98 132 173 217 276 324 391
#     4  10  22  46  69  93 137 172 223 266 334 386
#     4   9  19  40  68  97 132 171 216 269 329 388
#     4   9  19  43  68  98 127 178 215 270 326 393
#
# _framework density 21.993372999999998
#
# number of rings (size 3 to 8) (size 9 to 14) (size 15 to 20)
#    0.000    1.667    3.333    4.500    2.333    0.000 
#    6.000    5.000    0.000    0.000    0.000    0.000 
#    0.000    0.000    0.000    0.000    0.000    0.000 
#
# Total GULP energy -148750.354085 kJ/mol
# GULP energy per Si atom -12395.862840 kJ/mol
# Density = 2.194331 g / cm^3
# Si number density = 21.993373 Si / 1000 Ang^3
#
#
#
# Elastic Constant Matrix: (Units=GPa)
#
#
# Indices 1 2 3 4 5 6 
#
# 1 127.1512 80.1649 39.1785 0.0000 -13.0139 0.0000
# 2 80.1649 152.5002 33.3258 0.0000 -22.9101 0.0000
# 3 39.1785 33.3258 66.6738 0.0000 -5.1632 0.0000
# 4 0.0000 0.0000 0.0000 15.9662 0.0000 -8.6834
# 5 -13.0139 -22.9101 -5.1632 0.0000 24.3317 0.0000
# 6 0.0000 0.0000 0.0000 -8.6834 0.0000 46.1811
#
#
#
# Elastic Compliance Matrix: (Units=1/GPa)
#
#
# Indices 1 2 3 4 5 6 
#
# 1 0.012975 -0.005702 -0.004730 0.000000 0.000567 0.000000
# 2 -0.005702 0.010939 -0.001582 0.000000 0.006915 0.000000
# 3 -0.004730 -0.001582 0.018563 0.000000 -0.000081 0.000000
# 4 0.000000 0.000000 0.000000 0.069767 0.000000 0.013118
# 5 0.000567 0.006915 -0.000081 0.000000 0.047896 0.000000
# 6 0.000000 0.000000 0.000000 0.013118 0.000000 0.024120
#
#
# Mechanical properties :
#
#
# Convention : Reuss Voigt Hill
#
# Bulk Modulus (GPa) = 54.20462 72.40706 63.30584
# Shear Modulus (GPa) = 23.31686 30.20620 26.76153
#
# Velocity S-wave (km/s) = 3.25957 3.70999 3.49205
# Velocity P-wave (km/s) = 6.23424 7.16559 6.71608
#
# Compressibility (1/GPa) = 0.01844861
#
# Stress axis : x y z
#
# Youngs Moduli (GPa) = 77.07149 91.41601 53.87196
#
# Poissons Ratio (x) = 0.52121 0.25484
# Poissons Ratio (y) = 0.43943 0.08522
# Poissons Ratio (z) = 0.36459 0.14461
#
# Static dielectric constant tensor:
#      x y z
#    x 4.670610 0.000000 -0.030290 
#    y 0.000000 4.047090 0.000000 
#    z -0.030290 0.000000 3.526770 
# 
# 
# High freq. dielectric constant tensor:
#      x y z
#    x 1.892080 0.000000 0.003680 
#    y 0.000000 1.869850 0.000000 
#    z 0.003680 0.000000 1.825280 
# 
# From -- ./inp_files/24238.got.cif
#   From: 2010.03.12/outbox.cif.g09.slc.cpg/sg5_13_cif.got.tgz:24238.got - 2010.03.31 09:47:26.
