data_PCOD8050136
_publ_section_title
;
Structure prediction by ZEFSAII (Michael W. Deem and Ramdas Pophale) SiO2 
 PCOD8050136
Probable space group: C 2
;
_chemical_formula_sum "Si O2"
_cell_formula_units_Z 30
_cell_length_a 11.076208
_cell_length_b 8.599907
_cell_length_c 15.446177
_cell_angle_alpha 90.000000
_cell_angle_beta 68.099744
_cell_angle_gamma 90.000000
_cell_volume 1365.137581
_symmetry_space_group_name_H-M "C 2"
_symmetry_group_IT_number 5
_symmetry_cell_setting 'monoclinic'
loop_
_space_group_symop_operation_xyz
x,y,z
-x,y,-z
1/2+x,1/2+y,z
1/2-x,1/2+y,-z
loop_
_atom_site_type_symbol
_atom_site_label
_atom_site_fract_x
_atom_site_fract_y
_atom_site_fract_z
Si Si1 0.000000 0.674630 0.500000
Si Si2 0.964703 0.201054 0.712759
Si Si3 0.556564 0.372410 0.651415
Si Si4 0.244008 0.309942 0.983143
Si Si5 0.359539 0.155739 0.797375
Si Si6 0.735789 0.084361 0.885481
Si Si7 0.674661 0.952031 0.350442
Si Si8 0.488421 0.899353 0.145311
O O1 0.945941 0.785653 0.439363
O O2 0.881037 0.564337 0.560185
O O3 0.938554 0.331345 0.647069
O O4 0.048831 0.271028 0.770814
O O5 0.824708 0.145892 0.785385
O O6 0.037160 0.058250 0.647467
O O7 0.442571 0.304204 0.742209
O O8 0.700475 0.352800 0.652877
O O9 0.249443 0.204650 0.894939
O O10 0.307701 0.477524 0.940478
O O11 0.094222 0.327069 0.052447
O O12 0.321518 0.230865 0.043783
O O13 0.287456 0.062006 0.740596
O O14 0.462425 0.048322 0.817069
O O15 0.632619 0.961038 0.876692
#
# Coordination Sequence:
#
# PCOD8050136 Si02
#       8
#     2   4   4   4   4   4   4   4
#     4  10  26  44  66  98 130 148 200 254 310 394
#     4  10  23  40  67  96 121 161 220 250 298 381
#     4  11  23  43  69  95 121 164 199 253 317 371
#     4  11  21  35  58  86 128 168 214 259 294 354
#     4  10  21  41  59  91 131 158 215 260 296 373
#     4  11  22  40  59  89 129 171 213 262 302 347
#     4  10  24  45  66  93 127 161 195 256 319 371
#     4  10  22  39  61  86 127 178 207 258 315 339
#
# _framework density 21.975807
#
# number of rings (size 3 to 8) (size 9 to 14) (size 15 to 20)
#    0.000    1.600    2.667    1.200    1.867    2.667 
#    0.000    0.000    2.933    0.000    0.000    0.000 
#    0.000    0.000    0.000    0.000    0.000    0.000 
#
# Total GULP energy -185880.261772 kJ/mol
# GULP energy per Si atom -12392.017451 kJ/mol
# Density = 2.192579 g / cm^3
# Si number density = 21.975807 Si / 1000 Ang^3
#
#
#
# Elastic Constant Matrix: (Units=GPa)
#
#
# Indices 1 2 3 4 5 6 
#
# 1 79.6708 31.7904 29.1520 0.0000 16.9144 0.0000
# 2 31.7904 118.8651 42.5324 0.0000 11.6732 0.0000
# 3 29.1520 42.5324 104.2334 0.0000 11.9453 0.0000
# 4 0.0000 0.0000 0.0000 50.4646 0.0000 6.5421
# 5 16.9144 11.6732 11.9453 0.0000 16.9302 0.0000
# 6 0.0000 0.0000 0.0000 6.5421 0.0000 39.3509
#
#
#
# Elastic Compliance Matrix: (Units=1/GPa)
#
#
# Indices 1 2 3 4 5 6 
#
# 1 0.017331 -0.002456 -0.002236 0.000000 -0.014044 0.000000
# 2 -0.002456 0.010496 -0.003316 0.000000 -0.002444 0.000000
# 3 -0.002236 -0.003316 0.012027 0.000000 -0.003966 0.000000
# 4 0.000000 0.000000 0.000000 0.020252 0.000000 -0.003367
# 5 -0.014044 -0.002444 -0.003966 0.000000 0.077580 0.000000
# 6 0.000000 0.000000 0.000000 -0.003367 0.000000 0.025972
#
#
# Mechanical properties :
#
#
# Convention : Reuss Voigt Hill
#
# Bulk Modulus (GPa) = 41.94808 56.63544 49.29176
# Shear Modulus (GPa) = 26.64952 34.63543 30.64248
#
# Velocity S-wave (km/s) = 3.48613 3.97428 3.73818
# Velocity P-wave (km/s) = 5.94423 6.84745 6.41176
#
# Compressibility (1/GPa) = 0.02383899
#
# Stress axis : x y z
#
# Youngs Moduli (GPa) = 57.69889 95.27161 83.14855
#
# Poissons Ratio (x) = 0.23400 0.18588
# Poissons Ratio (y) = 0.14172 0.27572
# Poissons Ratio (z) = 0.12899 0.31592
#
# Static dielectric constant tensor:
#      x y z
#    x 3.541260 0.000000 0.235250 
#    y 0.000000 4.428540 0.000000 
#    z 0.235250 0.000000 4.059880 
# 
# 
# High freq. dielectric constant tensor:
#      x y z
#    x 1.826160 0.000000 0.011910 
#    y 0.000000 1.890420 0.000000 
#    z 0.011910 0.000000 1.867370 
# 
# From -- ./inp_files/52428.got.cif
#   From: 2010.03.12/outbox.cif.g09.slc.cpg/sg5_27_cif.got.tgz:52428.got - 2010.03.31 09:47:26.
