data_PCOD8050294
_publ_section_title
;
Structure prediction by ZEFSAII (Michael W. Deem and Ramdas Pophale) SiO2 
 PCOD8050294
Probable space group: C 2
;
_chemical_formula_sum "Si O2"
_cell_formula_units_Z 24
_cell_length_a 8.379333
_cell_length_b 17.671377
_cell_length_c 8.329762
_cell_angle_alpha 90.000000
_cell_angle_beta 55.272678
_cell_angle_gamma 90.000000
_cell_volume 1013.717338
_symmetry_space_group_name_H-M "C 2"
_symmetry_group_IT_number 5
_symmetry_cell_setting 'monoclinic'
loop_
_space_group_symop_operation_xyz
x,y,z
-x,y,-z
1/2+x,1/2+y,z
1/2-x,1/2+y,-z
loop_
_atom_site_type_symbol
_atom_site_label
_atom_site_fract_x
_atom_site_fract_y
_atom_site_fract_z
Si Si1 0.939642 0.968420 0.352976
Si Si2 0.297417 0.849806 0.667930
Si Si3 0.645659 0.116493 0.061539
Si Si4 0.460226 0.635286 0.334911
Si Si5 0.830307 0.442258 0.967329
Si Si6 0.904896 0.728436 0.400917
O O1 0.749021 0.919308 0.425583
O O2 0.000000 0.971313 0.500000
O O3 0.890947 0.052278 0.318292
O O4 0.119719 0.930188 0.161662
O O5 0.500000 0.812788 0.500000
O O6 0.324005 0.878682 0.833151
O O7 0.138183 0.783963 0.725552
O O8 0.555644 0.163639 0.259499
O O9 0.657894 0.028182 0.106742
O O10 0.500000 0.121376 0.000000
O O11 0.849294 0.153129 0.883151
O O12 0.500000 0.633102 0.500000
O O13 0.289965 0.694793 0.406270
O O14 0.000000 0.425520 0.000000
O O15 0.000000 0.771931 0.500000
#
# Coordination Sequence:
#
# PCOD8050294 Si02
#       6
#     4   4   4   4   4   4
#     4  10  22  42  73 106 144 186 243 304 355 429
#     4  12  27  45  70 102 153 195 244 294 374 435
#     4  10  22  42  77 108 144 187 246 313 366 425
#     4  10  21  43  74 107 141 192 251 300 357 438
#     4  10  23  44  73 112 138 187 251 301 362 433
#     4  12  28  46  71 107 154 197 246 297 377 438
#
# _framework density 23.675239000000001
#
# number of rings (size 3 to 8) (size 9 to 14) (size 15 to 20)
#    0.000    1.333    1.667    2.500    7.000    2.000 
#    0.000    0.000    3.667    0.000    0.000    0.000 
#    0.000    0.000    0.000    0.000    0.000    0.000 
#
# Total GULP energy -148698.148025 kJ/mol
# GULP energy per Si atom -12391.512335 kJ/mol
# Density = 2.362135 g / cm^3
# Si number density = 23.675239 Si / 1000 Ang^3
#
#
#
# Elastic Constant Matrix: (Units=GPa)
#
#
# Indices 1 2 3 4 5 6 
#
# 1 119.4360 55.1845 42.6648 0.0000 12.3312 0.0000
# 2 55.1845 96.8080 47.2903 0.0000 -0.5920 0.0000
# 3 42.6648 47.2903 115.8476 0.0000 -10.4613 0.0000
# 4 0.0000 0.0000 0.0000 35.4467 0.0000 12.3810
# 5 12.3312 -0.5920 -10.4613 0.0000 37.3495 0.0000
# 6 0.0000 0.0000 0.0000 12.3810 0.0000 43.3400
#
#
#
# Elastic Compliance Matrix: (Units=1/GPa)
#
#
# Indices 1 2 3 4 5 6 
#
# 1 0.012563 -0.005885 -0.002675 0.000000 -0.004990 0.000000
# 2 -0.005885 0.015722 -0.004158 0.000000 0.001028 0.000000
# 3 -0.002675 -0.004158 0.011684 0.000000 0.004090 0.000000
# 4 0.000000 0.000000 0.000000 0.031338 0.000000 -0.008952
# 5 -0.004990 0.001028 0.004090 0.000000 0.029583 0.000000
# 6 0.000000 0.000000 0.000000 -0.008952 0.000000 0.025631
#
#
# Mechanical properties :
#
#
# Convention : Reuss Voigt Hill
#
# Bulk Modulus (GPa) = 68.80954 69.15231 68.98092
# Shear Modulus (GPa) = 31.88783 35.69072 33.78927
#
# Velocity S-wave (km/s) = 3.67397 3.88688 3.78193
# Velocity P-wave (km/s) = 6.86473 7.02965 6.94768
#
# Compressibility (1/GPa) = 0.01453287
#
# Stress axis : x y z
#
# Youngs Moduli (GPa) = 79.60188 63.60649 85.58975
#
# Poissons Ratio (x) = 0.37432 0.22894
# Poissons Ratio (y) = 0.46846 0.35585
# Poissons Ratio (z) = 0.21292 0.26445
#
# Static dielectric constant tensor:
#      x y z
#    x 4.300840 0.000000 -0.359890 
#    y 0.000000 4.391120 0.000000 
#    z -0.359890 0.000000 4.149100 
# 
# 
# High freq. dielectric constant tensor:
#      x y z
#    x 1.950130 0.000000 -0.006250 
#    y 0.000000 1.933580 0.000000 
#    z -0.006250 0.000000 1.931660 
# 
# From -- ./inp_files/16703.got.cif
#   From: 2010.03.12/outbox.cif.g09.slc.cpg/sg5_9_cif.got.tgz:16703.got - 2010.03.31 09:47:26.
