data_PCOD8050700
_publ_section_title
;
Structure prediction by ZEFSAII (Michael W. Deem and Ramdas Pophale) SiO2 
 PCOD8050700
Probable space group: C 2
;
_chemical_formula_sum "Si O2"
_cell_formula_units_Z 22
_cell_length_a 13.332556
_cell_length_b 5.222621
_cell_length_c 13.833857
_cell_angle_alpha 90.000000
_cell_angle_beta 72.711872
_cell_angle_gamma 90.000000
_cell_volume 919.745786
_symmetry_space_group_name_H-M "C 2"
_symmetry_group_IT_number 5
_symmetry_cell_setting 'monoclinic'
loop_
_space_group_symop_operation_xyz
x,y,z
-x,y,-z
1/2+x,1/2+y,z
1/2-x,1/2+y,-z
loop_
_atom_site_type_symbol
_atom_site_label
_atom_site_fract_x
_atom_site_fract_y
_atom_site_fract_z
Si Si1 0.808473 0.535450 0.313609
Si Si2 0.504517 0.940818 0.612806
Si Si3 0.175089 0.039767 0.815001
Si Si4 0.694912 0.119252 0.050102
Si Si5 0.500000 0.316711 0.000000
Si Si6 0.924040 0.940216 0.611690
O O1 0.879236 0.513197 0.388239
O O2 0.820453 0.814999 0.264607
O O3 0.692692 0.499328 0.389279
O O4 0.840862 0.316805 0.228430
O O5 0.500000 0.879717 0.500000
O O6 0.465618 0.670100 0.669151
O O7 0.426463 0.170199 0.668710
O O8 0.285022 0.036485 0.844027
O O9 0.076497 0.994714 0.914636
O O10 0.572798 0.144150 0.051713
O O11 0.752281 0.395804 0.028538
O O12 0.000000 0.881164 0.500000
#
# Coordination Sequence:
#
# PCOD8050700 Si02
#       6
#     4   4   4   4   2   4
#     4  12  25  43  65 100 138 170 222 283 323 382
#     4  10  23  42  68  98 129 177 223 267 334 399
#     4  11  25  42  68  99 134 176 222 275 329 391
#     4  10  22  42  66  95 126 172 226 267 324 396
#     4  10  24  46  70  92 134 184 216 268 340 390
#     4  10  23  42  66  93 126 171 217 269 333 395
#
# _framework density 23.919650000000001
#
# number of rings (size 3 to 8) (size 9 to 14) (size 15 to 20)
#    0.000    1.455    0.000    4.364    0.000   16.727 
#    0.000    5.455    0.000    0.000    0.000    0.000 
#    0.000    0.000    0.000    0.000    0.000    0.000 
#
# Total GULP energy -136311.888814 kJ/mol
# GULP energy per Si atom -12391.989892 kJ/mol
# Density = 2.386521 g / cm^3
# Si number density = 23.919650 Si / 1000 Ang^3
#
#
#
# Elastic Constant Matrix: (Units=GPa)
#
#
# Indices 1 2 3 4 5 6 
#
# 1 150.2704 14.6676 31.2118 0.0002 21.6222 0.0003
# 2 14.6676 151.5324 -1.8800 0.0001 4.0961 0.0001
# 3 31.2118 -1.8800 63.4305 0.0000 4.4116 0.0001
# 4 0.0002 0.0001 0.0000 21.6880 0.0000 3.1367
# 5 21.6222 4.0961 4.4116 0.0000 42.6556 0.0001
# 6 0.0003 0.0001 0.0001 3.1367 0.0001 34.3736
#
#
#
# Elastic Compliance Matrix: (Units=1/GPa)
#
#
# Indices 1 2 3 4 5 6 
#
# 1 0.008016 -0.000724 -0.003715 0.000000 -0.003610 0.000000
# 2 -0.000724 0.006686 0.000578 0.000000 -0.000335 0.000000
# 3 -0.003715 0.000578 0.017610 0.000000 0.000006 0.000000
# 4 0.000000 0.000000 0.000000 0.046725 0.000000 -0.004264
# 5 -0.003610 -0.000335 0.000006 0.000000 0.025305 0.000000
# 6 0.000000 0.000000 0.000000 -0.004264 0.000000 0.029481
#
#
# Mechanical properties :
#
#
# Convention : Reuss Voigt Hill
#
# Bulk Modulus (GPa) = 40.66882 50.35912 45.51397
# Shear Modulus (GPa) = 33.39066 41.15903 37.27485
#
# Velocity S-wave (km/s) = 3.74030 4.15266 3.95186
# Velocity P-wave (km/s) = 5.97430 6.64017 6.31602
#
# Compressibility (1/GPa) = 0.02458886
#
# Stress axis : x y z
#
# Youngs Moduli (GPa) = 124.74421 149.57558 56.78603
#
# Poissons Ratio (x) = 0.10836 0.21096
# Poissons Ratio (y) = 0.09037 -0.03282
# Poissons Ratio (z) = 0.46342 -0.08644
#
# Static dielectric constant tensor:
#      x y z
#    x 4.465870 0.000000 0.197430 
#    y 0.000000 5.082610 0.000000 
#    z 0.197430 0.000000 4.028190 
# 
# 
# High freq. dielectric constant tensor:
#      x y z
#    x 1.956470 0.000000 0.010010 
#    y 0.000000 1.983390 0.000000 
#    z 0.010010 0.000000 1.914510 
# 
# From -- ./inp_files/51897.got.cif
#   From: 2010.03.12/outbox.cif.g09.slc.cpg/sg5_26_cif.got.tgz:51897.got - 2010.03.31 09:47:26.
