data_PCOD8050261
_publ_section_title
;
Structure prediction by ZEFSAII (Michael W. Deem and Ramdas Pophale) SiO2 
 PCOD8050261
Probable space group: C 2
;
_chemical_formula_sum "Si O2"
_cell_formula_units_Z 26
_cell_length_a 21.584652
_cell_length_b 10.341453
_cell_length_c 7.461404
_cell_angle_alpha 90.000000
_cell_angle_beta 130.883395
_cell_angle_gamma 90.000000
_cell_volume 1259.197273
_symmetry_space_group_name_H-M "C 2"
_symmetry_group_IT_number 5
_symmetry_cell_setting 'monoclinic'
loop_
_space_group_symop_operation_xyz
x,y,z
-x,y,-z
1/2+x,1/2+y,z
1/2-x,1/2+y,-z
loop_
_atom_site_type_symbol
_atom_site_label
_atom_site_fract_x
_atom_site_fract_y
_atom_site_fract_z
Si Si1 0.917075 0.151990 0.229228
Si Si2 0.221615 0.473226 0.146158
Si Si3 0.067247 0.628395 0.771314
Si Si4 0.000000 0.541152 0.000000
Si Si5 0.694045 0.727488 0.654737
Si Si6 0.333827 0.387588 0.050469
Si Si7 0.382625 0.816128 0.828850
O O1 0.849298 0.216972 0.232050
O O2 0.000000 0.132333 0.500000
O O3 0.883827 0.015467 0.086522
O O4 0.932427 0.240496 0.080994
O O5 0.253643 0.602639 0.299256
O O6 0.293586 0.417775 0.163331
O O7 0.204965 0.359488 0.257119
O O8 0.135671 0.514543 0.887037
O O9 0.104131 0.769400 0.805665
O O10 0.000000 0.590308 0.500000
O O11 0.018257 0.632839 0.866326
O O12 0.923361 0.446420 0.833260
O O13 0.628563 0.732702 0.370992
O O14 0.758139 0.848361 0.776141
#
# Coordination Sequence:
#
# PCOD8050261 Si02
#       7
#     4   4   4   2   4   4   4
#     4  11  23  40  64  92 127 164 210 258 315 375
#     4   9  21  40  59  95 121 159 215 255 309 376
#     4  10  22  42  65  88 125 166 206 257 317 368
#     4  10  24  40  58  98 120 158 220 252 306 386
#     4  10  22  39  62  89 127 160 210 258 314 372
#     4  10  21  43  62  92 125 166 207 262 314 371
#     4  11  22  38  64  91 125 166 210 256 316 369
#
# _framework density 20.648076
#
# number of rings (size 3 to 8) (size 9 to 14) (size 15 to 20)
#    0.000    1.846    1.538    1.385    4.308    2.462 
#    8.308    2.308    0.000    0.000    0.000    0.000 
#    0.000    0.000    0.000    0.000    0.000    0.000 
#
# Total GULP energy -161089.902441 kJ/mol
# GULP energy per Si atom -12391.530957 kJ/mol
# Density = 2.060108 g / cm^3
# Si number density = 20.648076 Si / 1000 Ang^3
#
#
#
# Elastic Constant Matrix: (Units=GPa)
#
#
# Indices 1 2 3 4 5 6 
#
# 1 77.8675 35.0575 27.4439 0.0000 4.0702 0.0000
# 2 35.0575 94.3683 34.2444 0.0000 -2.4546 0.0000
# 3 27.4439 34.2444 114.9574 0.0000 0.3064 0.0000
# 4 0.0000 0.0000 0.0000 0.5208 0.0000 -7.4080
# 5 4.0702 -2.4546 0.3064 0.0000 23.8199 0.0000
# 6 0.0000 0.0000 0.0000 -7.4080 0.0000 30.2917
#
#
#
# Elastic Compliance Matrix: (Units=1/GPa)
#
#
# Indices 1 2 3 4 5 6 
#
# 1 0.016193 -0.005271 -0.002287 0.000000 -0.003281 0.000000
# 2 -0.005271 0.013635 -0.002810 0.000000 0.002342 0.000000
# 3 -0.002287 -0.002810 0.010082 0.000000 -0.000028 0.000000
# 4 0.000000 0.000000 0.000000 -0.774675 0.000000 -0.189450
# 5 -0.003281 0.002342 -0.000028 0.000000 0.042784 0.000000
# 6 0.000000 0.000000 0.000000 -0.189450 0.000000 -0.013319
#
#
# Mechanical properties :
#
#
# Convention : Reuss Voigt Hill
#
# Bulk Modulus (GPa) = 52.15120 53.40943 52.78032
# Shear Modulus (GPa) = -7.37276 23.62298 8.12511
#
# Velocity S-wave (km/s) = -1.89167 3.38609 1.98585
# Velocity P-wave (km/s) = 4.53219 6.41951 5.55657
#
# Compressibility (1/GPa) = 0.01917501
#
# Stress axis : x y z
#
# Youngs Moduli (GPa) = 61.75529 73.33800 99.18810
#
# Poissons Ratio (x) = 0.38657 0.22682
# Poissons Ratio (y) = 0.32552 0.27869
# Poissons Ratio (z) = 0.14122 0.20606
#
# Static dielectric constant tensor:
#      x y z
#    x 4.200770 0.000000 -0.279890 
#    y 0.000000 3.894240 0.000000 
#    z -0.279890 0.000000 3.871690 
# 
# 
# High freq. dielectric constant tensor:
#      x y z
#    x 1.817730 0.000000 0.005690 
#    y 0.000000 1.811860 0.000000 
#    z 0.005690 0.000000 1.786100 
# 
# From -- ./inp_files/9622.got.cif
#   From: 2010.03.12/outbox.cif.g09.slc.cpg/sg5_5_cif.got.tgz:9622.got - 2010.03.31 09:47:26.
