data_PCOD8050786
_publ_section_title
;
Structure prediction by ZEFSAII (Michael W. Deem and Ramdas Pophale) SiO2 
 PCOD8050786
Probable space group: C 2
;
_chemical_formula_sum "Si O2"
_cell_formula_units_Z 32
_cell_length_a 8.621799
_cell_length_b 10.898244
_cell_length_c 15.096336
_cell_angle_alpha 90.000000
_cell_angle_beta 86.358100
_cell_angle_gamma 90.000000
_cell_volume 1415.624430
_symmetry_space_group_name_H-M "C 2"
_symmetry_group_IT_number 5
_symmetry_cell_setting 'monoclinic'
loop_
_space_group_symop_operation_xyz
x,y,z
-x,y,-z
1/2+x,1/2+y,z
1/2-x,1/2+y,-z
loop_
_atom_site_type_symbol
_atom_site_label
_atom_site_fract_x
_atom_site_fract_y
_atom_site_fract_z
Si Si1 0.663124 0.478880 0.029800
Si Si2 0.177091 0.066764 0.521810
Si Si3 0.917226 0.643982 0.085591
Si Si4 0.091663 0.260947 0.750609
Si Si5 0.634676 0.498240 0.715649
Si Si6 0.922161 0.817237 0.803293
Si Si7 0.633160 0.928035 0.138982
Si Si8 0.145695 0.341800 0.556145
O O1 0.746735 0.603103 0.061351
O O2 0.645073 0.393680 0.113898
O O3 0.500000 0.528137 0.000000
O O4 0.749925 0.401666 0.947713
O O5 0.206702 0.003468 0.615636
O O6 0.233898 0.211796 0.524637
O O7 0.000000 0.074698 0.500000
O O8 0.257149 0.969903 0.451993
O O9 0.931869 0.732623 0.169694
O O10 0.013008 0.523839 0.105444
O O11 0.000000 0.713165 0.000000
O O12 0.038352 0.121993 0.738554
O O13 0.272768 0.247000 0.772260
O O14 0.085169 0.335886 0.659335
O O15 0.972796 0.313497 0.827599
O O16 0.500324 0.395821 0.722983
O O17 0.770576 0.476625 0.781178
O O18 0.000000 0.363310 0.500000
#
# Coordination Sequence:
#
# PCOD8050786 Si02
#       8
#     4   4   4   4   4   4   4   4
#     4  11  23  44  66  93 132 176 226 274 334 394
#     4  10  22  43  67  97 135 171 219 277 334 406
#     4  10  23  41  65  87 130 170 214 279 320 387
#     4  11  24  43  67  95 136 173 214 281 330 390
#     4  11  24  42  64  97 131 168 222 273 329 400
#     4  12  23  43  65  94 131 172 221 272 329 388
#     4  11  22  44  63  95 129 171 222 265 335 388
#     4  10  22  43  68  99 137 174 220 273 335 406
#
# _framework density 22.604866000000001
#
# number of rings (size 3 to 8) (size 9 to 14) (size 15 to 20)
#    0.000    1.250    3.750    1.875    0.000    1.500 
#    4.500    1.250    0.000    0.000    0.000    0.000 
#    0.000    0.000    0.000    0.000    0.000    0.000 
#
# Total GULP energy -198258.070424 kJ/mol
# GULP energy per Si atom -12391.129401 kJ/mol
# Density = 2.255342 g / cm^3
# Si number density = 22.604866 Si / 1000 Ang^3
#
#
#
# Elastic Constant Matrix: (Units=GPa)
#
#
# Indices 1 2 3 4 5 6 
#
# 1 87.1549 15.2389 15.2547 0.0000 0.8293 0.0000
# 2 15.2389 73.3351 0.0908 0.0000 -21.4873 0.0000
# 3 15.2547 0.0908 61.3533 0.0000 8.3170 0.0000
# 4 0.0000 0.0000 0.0000 36.7459 0.0000 -7.6471
# 5 0.8293 -21.4873 8.3170 0.0000 31.9908 0.0000
# 6 0.0000 0.0000 0.0000 -7.6471 0.0000 16.0299
#
#
#
# Elastic Compliance Matrix: (Units=1/GPa)
#
#
# Indices 1 2 3 4 5 6 
#
# 1 0.012534 -0.003083 -0.002889 0.000000 -0.001644 0.000000
# 2 -0.003083 0.017894 -0.000933 0.000000 0.012341 0.000000
# 3 -0.002889 -0.000933 0.017718 0.000000 -0.005158 0.000000
# 4 0.000000 0.000000 0.000000 0.030213 0.000000 0.014413
# 5 -0.001644 0.012341 -0.005158 0.000000 0.040932 0.000000
# 6 0.000000 0.000000 0.000000 0.014413 0.000000 0.069259
#
#
# Mechanical properties :
#
#
# Convention : Reuss Voigt Hill
#
# Bulk Modulus (GPa) = 29.12361 31.44580 30.28470
# Shear Modulus (GPa) = 23.38577 29.70393 26.54485
#
# Velocity S-wave (km/s) = 3.21993 3.62892 3.43052
# Velocity P-wave (km/s) = 5.17065 5.61248 5.39609
#
# Compressibility (1/GPa) = 0.03433641
#
# Stress axis : x y z
#
# Youngs Moduli (GPa) = 79.78203 55.88536 56.43995
#
# Poissons Ratio (x) = 0.17229 0.16305
# Poissons Ratio (y) = 0.24596 0.05265
# Poissons Ratio (z) = 0.23049 0.05214
#
# Static dielectric constant tensor:
#      x y z
#    x 4.121100 0.000000 0.189870 
#    y 0.000000 4.265850 0.000000 
#    z 0.189870 0.000000 5.401180 
# 
# 
# High freq. dielectric constant tensor:
#      x y z
#    x 1.883760 0.000000 0.020240 
#    y 0.000000 1.896930 0.000000 
#    z 0.020240 0.000000 1.895900 
# 
# From -- ./inp_files/50509.got.cif
#   From: 2010.03.12/outbox.cif.g09.slc.cpg/sg5_26_cif.got.tgz:50509.got - 2010.03.31 09:47:26.
