data_PCOD8050219
_publ_section_title
;
Structure prediction by ZEFSAII (Michael W. Deem and Ramdas Pophale) SiO2 
 PCOD8050219
Probable space group: C 2
;
_chemical_formula_sum "Si O2"
_cell_formula_units_Z 32
_cell_length_a 11.219602
_cell_length_b 8.538427
_cell_length_c 24.918699
_cell_angle_alpha 90.000000
_cell_angle_beta 39.879683
_cell_angle_gamma 90.000000
_cell_volume 1530.590441
_symmetry_space_group_name_H-M "C 2"
_symmetry_group_IT_number 5
_symmetry_cell_setting 'monoclinic'
loop_
_space_group_symop_operation_xyz
x,y,z
-x,y,-z
1/2+x,1/2+y,z
1/2-x,1/2+y,-z
loop_
_atom_site_type_symbol
_atom_site_label
_atom_site_fract_x
_atom_site_fract_y
_atom_site_fract_z
Si Si1 0.815311 0.310210 0.205141
Si Si2 0.897795 0.436434 0.480593
Si Si3 0.721634 0.145364 0.345992
Si Si4 0.318324 0.160117 0.211127
Si Si5 0.535677 0.305542 0.045997
Si Si6 0.393070 0.674445 0.391998
Si Si7 0.856118 0.074858 0.917529
Si Si8 0.515305 0.386673 0.223142
O O1 0.749207 0.258385 0.286632
O O2 0.898734 0.484537 0.179904
O O3 0.640665 0.307356 0.225369
O O4 0.972377 0.191634 0.130131
O O5 0.690308 0.505004 0.561796
O O6 0.887229 0.293784 0.443168
O O7 0.000000 0.379235 0.500000
O O8 0.011247 0.583225 0.416715
O O9 0.767784 0.238830 0.385354
O O10 0.849779 0.989909 0.304159
O O11 0.352538 0.252141 0.142915
O O12 0.429373 0.244752 0.219574
O O13 0.100803 0.152102 0.298354
O O14 0.645224 0.436809 0.039572
O O15 0.500000 0.378986 0.000000
O O16 0.660387 0.154392 0.993398
O O17 0.861180 0.002505 0.856155
#
# Coordination Sequence:
#
# PCOD8050219 Si02
#       8
#     4   4   4   4   4   4   4   4
#     4  11  23  39  67  96 128 170 220 265 325 386
#     4  10  24  44  65  93 133 171 212 268 330 387
#     4  10  22  41  66  93 129 168 212 268 325 385
#     4  11  23  41  67  97 127 175 218 265 330 385
#     4  11  24  42  66  93 134 173 219 273 323 384
#     4  11  23  44  68  94 133 168 216 270 324 389
#     4  10  24  41  62  94 128 173 222 265 328 382
#     4  10  21  42  64  93 132 170 216 271 323 383
#
# _framework density 20.906966000000001
#
# number of rings (size 3 to 8) (size 9 to 14) (size 15 to 20)
#    0.000    1.500    2.500    1.500    3.500    4.000 
#    2.250    0.625    0.000    0.000    0.000    0.000 
#    0.000    0.000    0.000    0.000    0.000    0.000 
#
# Total GULP energy -198380.766592 kJ/mol
# GULP energy per Si atom -12398.797912 kJ/mol
# Density = 2.085938 g / cm^3
# Si number density = 20.906966 Si / 1000 Ang^3
#
#
#
# Elastic Constant Matrix: (Units=GPa)
#
#
# Indices 1 2 3 4 5 6 
#
# 1 101.2812 21.1030 23.4983 0.0000 13.9592 0.0000
# 2 21.1030 42.0808 -2.1279 0.0000 5.2464 0.0000
# 3 23.4983 -2.1279 87.0379 0.0000 3.0506 0.0000
# 4 0.0000 0.0000 0.0000 36.3175 0.0000 1.0432
# 5 13.9592 5.2464 3.0506 0.0000 36.2662 0.0000
# 6 0.0000 0.0000 0.0000 1.0432 0.0000 31.7425
#
#
#
# Elastic Compliance Matrix: (Units=1/GPa)
#
#
# Indices 1 2 3 4 5 6 
#
# 1 0.012389 -0.005931 -0.003363 0.000000 -0.003628 0.000000
# 2 -0.005931 0.027084 0.002328 0.000000 -0.001831 0.000000
# 3 -0.003363 0.002328 0.012457 0.000000 -0.000090 0.000000
# 4 0.000000 0.000000 0.000000 0.027561 0.000000 -0.000906
# 5 -0.003628 -0.001831 -0.000090 0.000000 0.029243 0.000000
# 6 0.000000 0.000000 0.000000 -0.000906 0.000000 0.031533
#
#
# Mechanical properties :
#
#
# Convention : Reuss Voigt Hill
#
# Bulk Modulus (GPa) = 26.31680 35.03852 30.67766
# Shear Modulus (GPa) = 29.96413 33.39366 31.67890
#
# Velocity S-wave (km/s) = 3.78989 4.00090 3.89682
# Velocity P-wave (km/s) = 5.63612 6.17564 5.91204
#
# Compressibility (1/GPa) = 0.03799855
#
# Stress axis : x y z
#
# Youngs Moduli (GPa) = 80.71359 36.92207 80.27499
#
# Poissons Ratio (x) = 0.21898 0.26994
# Poissons Ratio (y) = 0.47870 -0.18684
# Poissons Ratio (z) = 0.27142 -0.08594
#
# Static dielectric constant tensor:
#      x y z
#    x 3.853760 0.000000 0.196090 
#    y 0.000000 3.725380 0.000000 
#    z 0.196090 0.000000 4.031830 
# 
# 
# High freq. dielectric constant tensor:
#      x y z
#    x 1.820480 0.000000 0.009360 
#    y 0.000000 1.811340 0.000000 
#    z 0.009360 0.000000 1.836400 
# 
# From -- ./inp_files/70317.got.cif
#   From: 2010.03.12/outbox.cif.g09.slc.cpg/sg5_36_cif.got.tgz:70317.got - 2010.03.31 09:47:26.
