data_PCOD8050827
_publ_section_title
;
Structure prediction by ZEFSAII (Michael W. Deem and Ramdas Pophale) SiO2 
 PCOD8050827
Probable space group: C 2
;
_chemical_formula_sum "Si O2"
_cell_formula_units_Z 26
_cell_length_a 20.068128
_cell_length_b 8.615788
_cell_length_c 9.757564
_cell_angle_alpha 90.000000
_cell_angle_beta 131.968937
_cell_angle_gamma 90.000000
_cell_volume 1254.378556
_symmetry_space_group_name_H-M "C 2"
_symmetry_group_IT_number 5
_symmetry_cell_setting 'monoclinic'
loop_
_space_group_symop_operation_xyz
x,y,z
-x,y,-z
1/2+x,1/2+y,z
1/2-x,1/2+y,-z
loop_
_atom_site_type_symbol
_atom_site_label
_atom_site_fract_x
_atom_site_fract_y
_atom_site_fract_z
Si Si1 0.500000 0.343920 0.000000
Si Si2 0.479431 0.051581 0.119984
Si Si3 0.184188 0.179707 0.986834
Si Si4 0.190692 0.988450 0.257021
Si Si5 0.274062 0.009481 0.869743
Si Si6 0.489528 0.790888 0.646998
Si Si7 0.697407 0.680086 0.526941
O O1 0.490896 0.232012 0.852359
O O2 0.413607 0.449450 0.880901
O O3 0.531093 0.958036 0.310045
O O4 0.500000 0.969233 0.000000
O O5 0.376788 0.054589 0.021862
O O6 0.216055 0.124934 0.882917
O O7 0.077820 0.214082 0.835391
O O8 0.210299 0.046726 0.130933
O O9 0.240048 0.332216 0.105722
O O10 0.207424 0.132446 0.382413
O O11 0.253058 0.842198 0.376161
O O12 0.242878 0.038758 0.671860
O O13 0.500000 0.816288 0.500000
O O14 0.405704 0.683024 0.567002
#
# Coordination Sequence:
#
# PCOD8050827 Si02
#       7
#     2   4   4   4   4   4   4
#     4  10  22  44  66  94 128 178 224 266 320 402
#     4   9  22  40  69  91 133 177 216 267 330 400
#     4  11  25  44  70  93 132 184 214 270 338 404
#     4  12  26  41  70  96 132 175 225 274 335 386
#     4  11  22  44  66  98 132 171 222 269 331 393
#     4  11  24  42  65  98 135 172 219 273 337 387
#     4  12  25  43  66 101 134 166 227 284 321 391
#
# _framework density 20.727394
#
# number of rings (size 3 to 8) (size 9 to 14) (size 15 to 20)
#    0.462    0.615    3.077    2.769   10.769    0.000 
#    0.000    0.000    0.000    0.000    0.000    0.000 
#    0.000    0.000    0.000    0.000    0.000    0.000 
#
# Total GULP energy -161182.315680 kJ/mol
# GULP energy per Si atom -12398.639668 kJ/mol
# Density = 2.068022 g / cm^3
# Si number density = 20.727394 Si / 1000 Ang^3
#
#
#
# Elastic Constant Matrix: (Units=GPa)
#
#
# Indices 1 2 3 4 5 6 
#
# 1 74.1461 18.1157 10.2159 0.0000 -3.5081 0.0000
# 2 18.1157 92.4295 31.8746 0.0000 2.7938 0.0000
# 3 10.2159 31.8746 80.0432 0.0000 -14.2518 0.0000
# 4 0.0000 0.0000 0.0000 38.0554 0.0000 -7.1927
# 5 -3.5081 2.7938 -14.2518 0.0000 34.9074 0.0000
# 6 0.0000 0.0000 0.0000 -7.1927 0.0000 36.3670
#
#
#
# Elastic Compliance Matrix: (Units=1/GPa)
#
#
# Indices 1 2 3 4 5 6 
#
# 1 0.014276 -0.002668 -0.000503 0.000000 0.001443 0.000000
# 2 -0.002668 0.013399 -0.005644 0.000000 -0.003645 0.000000
# 3 -0.000503 -0.005644 0.016043 0.000000 0.006951 0.000000
# 4 0.000000 0.000000 0.000000 0.027298 0.000000 0.005399
# 5 0.001443 -0.003645 0.006951 0.000000 0.031922 0.000000
# 6 0.000000 0.000000 0.000000 0.005399 0.000000 0.028565
#
#
# Mechanical properties :
#
#
# Convention : Reuss Voigt Hill
#
# Bulk Modulus (GPa) = 38.33223 40.78124 39.55673
# Shear Modulus (GPa) = 31.68000 34.29344 32.98672
#
# Velocity S-wave (km/s) = 3.91373 4.07197 3.99363
# Velocity P-wave (km/s) = 6.24153 6.46727 6.35541
#
# Compressibility (1/GPa) = 0.02608771
#
# Stress axis : x y z
#
# Youngs Moduli (GPa) = 70.04585 74.63496 62.33427
#
# Poissons Ratio (x) = 0.19916 0.03132
# Poissons Ratio (y) = 0.18691 0.35181
# Poissons Ratio (z) = 0.03520 0.42123
#
# Static dielectric constant tensor:
#      x y z
#    x 3.747910 0.000000 -0.008250 
#    y 0.000000 3.804870 0.000000 
#    z -0.008250 0.000000 3.839270 
# 
# 
# High freq. dielectric constant tensor:
#      x y z
#    x 1.822090 0.000000 -0.000540 
#    y 0.000000 1.809020 0.000000 
#    z -0.000540 0.000000 1.807280 
# 
# From -- ./inp_files/29104.got.cif
#   From: 2010.03.12/outbox.cif.g09.slc.cpg/sg5_15_cif.got.tgz:29104.got - 2010.03.31 09:47:26.
