data_PCOD8050424
_publ_section_title
;
Structure prediction by ZEFSAII (Michael W. Deem and Ramdas Pophale) SiO2 
 PCOD8050424
Probable space group: C 2
;
_chemical_formula_sum "Si O2"
_cell_formula_units_Z 26
_cell_length_a 11.490739
_cell_length_b 11.431320
_cell_length_c 10.954002
_cell_angle_alpha 90.000000
_cell_angle_beta 60.423058
_cell_angle_gamma 90.000000
_cell_volume 1251.363411
_symmetry_space_group_name_H-M "C 2"
_symmetry_group_IT_number 5
_symmetry_cell_setting 'monoclinic'
loop_
_space_group_symop_operation_xyz
x,y,z
-x,y,-z
1/2+x,1/2+y,z
1/2-x,1/2+y,-z
loop_
_atom_site_type_symbol
_atom_site_label
_atom_site_fract_x
_atom_site_fract_y
_atom_site_fract_z
Si Si1 0.234282 0.188900 0.598426
Si Si2 0.183153 0.252690 0.134671
Si Si3 0.000000 0.576680 0.500000
Si Si4 0.670023 0.147692 0.712028
Si Si5 0.431751 0.917880 0.303237
Si Si6 0.498495 0.561029 0.145306
Si Si7 0.549998 0.304326 0.111150
O O1 0.376829 0.165374 0.589479
O O2 0.238264 0.147754 0.455809
O O3 0.187017 0.323481 0.622472
O O4 0.135124 0.109867 0.727384
O O5 0.249846 0.224212 0.230371
O O6 0.126015 0.129627 0.125099
O O7 0.070407 0.354116 0.195034
O O8 0.289750 0.289106 0.975761
O O9 0.039402 0.490922 0.589666
O O10 0.526624 0.211732 0.762854
O O11 0.626266 0.012799 0.765702
O O12 0.513540 0.429724 0.184140
O O13 0.500000 0.567942 0.000000
O O14 0.500000 0.285790 0.000000
#
# Coordination Sequence:
#
# PCOD8050424 Si02
#       7
#     4   4   2   4   4   4   4
#     4  10  23  41  64  99 125 169 218 261 320 384
#     4  10  22  42  64  93 126 173 206 267 335 356
#     4  10  22  38  68  88 134 176 202 262 328 374
#     4  10  22  40  65  93 128 166 219 258 317 391
#     4  10  22  40  63  93 129 164 215 265 310 388
#     4  10  23  41  64  93 129 165 217 264 314 394
#     4   9  21  38  64  89 121 168 216 256 309 390
#
# _framework density 20.777338
#
# number of rings (size 3 to 8) (size 9 to 14) (size 15 to 20)
#    0.000    2.154    0.000    0.923   12.923    3.077 
#   11.077    0.769    0.000    0.000    0.000    0.000 
#    0.000    0.000    0.000    0.000    0.000    0.000 
#
# Total GULP energy -161075.315530 kJ/mol
# GULP energy per Si atom -12390.408887 kJ/mol
# Density = 2.073005 g / cm^3
# Si number density = 20.777338 Si / 1000 Ang^3
#
#
#
# Elastic Constant Matrix: (Units=GPa)
#
#
# Indices 1 2 3 4 5 6 
#
# 1 72.4596 51.4831 34.9281 0.0000 -31.3262 0.0000
# 2 51.4831 159.8153 62.5924 0.0000 -28.3943 0.0000
# 3 34.9281 62.5924 101.2142 0.0000 -26.9916 0.0000
# 4 0.0000 0.0000 0.0000 30.1986 0.0000 -2.1488
# 5 -31.3262 -28.3943 -26.9916 0.0000 29.8516 0.0000
# 6 0.0000 0.0000 0.0000 -2.1488 0.0000 38.0264
#
#
#
# Elastic Compliance Matrix: (Units=1/GPa)
#
#
# Indices 1 2 3 4 5 6 
#
# 1 0.027747 -0.004464 -0.000240 0.000000 0.024655 0.000000
# 2 -0.004464 0.009409 -0.004139 0.000000 0.000523 0.000000
# 3 -0.000240 -0.004139 0.015029 0.000000 0.009401 0.000000
# 4 0.000000 0.000000 0.000000 0.033248 0.000000 0.001879
# 5 0.024655 0.000523 0.009401 0.000000 0.068369 0.000000
# 6 0.000000 0.000000 0.000000 0.001879 0.000000 0.026404
#
#
# Mechanical properties :
#
#
# Convention : Reuss Voigt Hill
#
# Bulk Modulus (GPa) = 28.98529 70.16625 49.57577
# Shear Modulus (GPa) = 23.87866 31.91436 27.89651
#
# Velocity S-wave (km/s) = 3.39376 3.92346 3.66818
# Velocity P-wave (km/s) = 5.41641 7.37351 6.46939
#
# Compressibility (1/GPa) = 0.03450025
#
# Stress axis : x y z
#
# Youngs Moduli (GPa) = 36.03979 106.27886 66.53671
#
# Poissons Ratio (x) = 0.47445 0.01595
# Poissons Ratio (y) = 0.16089 0.27538
# Poissons Ratio (z) = 0.00864 0.43987
#
# Static dielectric constant tensor:
#      x y z
#    x 3.872940 0.000000 -0.290480 
#    y 0.000000 4.113650 0.000000 
#    z -0.290480 0.000000 3.811920 
# 
# 
# High freq. dielectric constant tensor:
#      x y z
#    x 1.806830 0.000000 -0.020920 
#    y 0.000000 1.829500 0.000000 
#    z -0.020920 0.000000 1.812810 
# 
# From -- ./inp_files/39099.got.cif
#   From: 2010.03.12/outbox.cif.g09.slc.cpg/sg5_20_cif.got.tgz:39099.got - 2010.03.31 09:47:26.
