data_PCOD8050210
_publ_section_title
;
Structure prediction by ZEFSAII (Michael W. Deem and Ramdas Pophale) SiO2 
 PCOD8050210
Probable space group: C 2
;
_chemical_formula_sum "Si O2"
_cell_formula_units_Z 22
_cell_length_a 12.007162
_cell_length_b 13.011527
_cell_length_c 9.016031
_cell_angle_alpha 90.000000
_cell_angle_beta 131.892384
_cell_angle_gamma 90.000000
_cell_volume 1048.553464
_symmetry_space_group_name_H-M "C 2"
_symmetry_group_IT_number 5
_symmetry_cell_setting 'monoclinic'
loop_
_space_group_symop_operation_xyz
x,y,z
-x,y,-z
1/2+x,1/2+y,z
1/2-x,1/2+y,-z
loop_
_atom_site_type_symbol
_atom_site_label
_atom_site_fract_x
_atom_site_fract_y
_atom_site_fract_z
Si Si1 0.000000 0.802910 0.000000
Si Si2 0.046635 0.075815 0.383689
Si Si3 0.796592 0.872976 0.378472
Si Si4 0.181039 0.937897 0.931465
Si Si5 0.011254 0.486884 0.179016
Si Si6 0.161736 0.685352 0.398079
O O1 0.886296 0.734978 0.801431
O O2 0.108984 0.872220 0.997569
O O3 0.161816 0.159708 0.425967
O O4 0.000000 0.120994 0.500000
O O5 0.121281 0.964243 0.463851
O O6 0.900866 0.050765 0.151937
O O7 0.830631 0.877410 0.234600
O O8 0.621568 0.887942 0.266506
O O9 0.866325 0.765788 0.495396
O O10 0.356281 0.955014 0.117838
O O11 0.072323 0.578920 0.337061
O O12 0.000000 0.529525 0.000000
#
# Coordination Sequence:
#
# PCOD8050210 Si02
#       6
#     2   4   4   4   4   4
#     4  12  24  36  62  90 122 158 202 258 286 348
#     4   9  19  36  63  83 119 161 195 236 302 362
#     4   9  19  39  65  85 117 163 196 239 299 368
#     4  10  21  42  62  85 123 161 194 249 306 346
#     4   9  19  39  66  88 121 158 199 245 301 359
#     4  11  21  37  64  91 117 158 208 242 295 358
#
# _framework density 20.981285
#
# number of rings (size 3 to 8) (size 9 to 14) (size 15 to 20)
#    0.000    2.182    2.727    1.091    0.000    1.455 
#    0.000    3.636    2.000    0.000    0.000    0.000 
#    0.000    0.000    0.000    0.000    0.000    0.000 
#
# Total GULP energy -136286.451610 kJ/mol
# GULP energy per Si atom -12389.677419 kJ/mol
# Density = 2.093353 g / cm^3
# Si number density = 20.981285 Si / 1000 Ang^3
#
#
#
# Elastic Constant Matrix: (Units=GPa)
#
#
# Indices 1 2 3 4 5 6 
#
# 1 131.3820 44.6281 39.7740 0.0000 19.9812 0.0000
# 2 44.6281 82.9976 31.7292 0.0000 -7.9231 0.0000
# 3 39.7740 31.7292 69.8532 0.0000 10.9109 0.0000
# 4 0.0000 0.0000 0.0000 31.1136 0.0000 -0.8379
# 5 19.9812 -7.9231 10.9109 0.0000 32.4564 0.0000
# 6 0.0000 0.0000 0.0000 -0.8379 0.0000 13.9621
#
#
#
# Elastic Compliance Matrix: (Units=1/GPa)
#
#
# Indices 1 2 3 4 5 6 
#
# 1 0.011624 -0.005947 -0.002715 0.000000 -0.007695 0.000000
# 2 -0.005947 0.018867 -0.006834 0.000000 0.010564 0.000000
# 3 -0.002715 -0.006834 0.020017 0.000000 -0.006726 0.000000
# 4 0.000000 0.000000 0.000000 0.032192 0.000000 0.001932
# 5 -0.007695 0.010564 -0.006726 0.000000 0.040387 0.000000
# 6 0.000000 0.000000 0.000000 0.001932 0.000000 0.071738
#
#
# Mechanical properties :
#
#
# Convention : Reuss Voigt Hill
#
# Bulk Modulus (GPa) = 51.24210 57.38836 54.31523
# Shear Modulus (GPa) = 21.52180 26.71319 24.11750
#
# Velocity S-wave (km/s) = 3.20623 3.57205 3.39407
# Velocity P-wave (km/s) = 6.17918 6.66515 6.42676
#
# Compressibility (1/GPa) = 0.01951520
#
# Stress axis : x y z
#
# Youngs Moduli (GPa) = 86.03171 53.00238 49.95840
#
# Poissons Ratio (x) = 0.31518 0.13566
# Poissons Ratio (y) = 0.51159 0.34142
# Poissons Ratio (z) = 0.23362 0.36222
#
# Static dielectric constant tensor:
#      x y z
#    x 3.821030 0.000000 0.465340 
#    y 0.000000 3.609880 0.000000 
#    z 0.465340 0.000000 4.009020 
# 
# 
# High freq. dielectric constant tensor:
#      x y z
#    x 1.819230 0.000000 0.028610 
#    y 0.000000 1.803750 0.000000 
#    z 0.028610 0.000000 1.813910 
# 
# From -- ./inp_files/20221.got.cif
#   From: 2010.03.12/outbox.cif.g09.slc.cpg/sg5_11_cif.got.tgz:20221.got - 2010.03.31 09:47:26.
