data_PCOD8050925
_publ_section_title
;
Structure prediction by ZEFSAII (Michael W. Deem and Ramdas Pophale) SiO2 
 PCOD8050925
Probable space group: C 2
;
_chemical_formula_sum "Si O2"
_cell_formula_units_Z 28
_cell_length_a 11.099183
_cell_length_b 9.280999
_cell_length_c 15.181455
_cell_angle_alpha 90.000000
_cell_angle_beta 55.811860
_cell_angle_gamma 90.000000
_cell_volume 1293.623915
_symmetry_space_group_name_H-M "C 2"
_symmetry_group_IT_number 5
_symmetry_cell_setting 'monoclinic'
loop_
_space_group_symop_operation_xyz
x,y,z
-x,y,-z
1/2+x,1/2+y,z
1/2-x,1/2+y,-z
loop_
_atom_site_type_symbol
_atom_site_label
_atom_site_fract_x
_atom_site_fract_y
_atom_site_fract_z
Si Si1 0.842366 0.711530 0.186763
Si Si2 0.542278 0.506757 0.882298
Si Si3 0.943868 0.228972 0.795106
Si Si4 0.590447 0.902146 0.881579
Si Si5 0.717218 0.786041 0.589251
Si Si6 0.854076 0.620112 0.373851
Si Si7 0.683965 0.194850 0.268473
O O1 0.963889 0.836579 0.136054
O O2 0.707919 0.771125 0.185174
O O3 0.905035 0.572966 0.111590
O O4 0.791511 0.668843 0.305302
O O5 0.429051 0.587926 0.863799
O O6 0.703146 0.564494 0.792539
O O7 0.500000 0.538283 0.000000
O O8 0.005816 0.363163 0.826292
O O9 0.062465 0.206029 0.668767
O O10 0.752317 0.831420 0.813424
O O11 0.500000 0.837197 0.000000
O O12 0.785555 0.727731 0.472102
O O13 0.824822 0.745468 0.625897
O O14 0.693582 0.957240 0.587288
O O15 0.028366 0.640518 0.299998
#
# Coordination Sequence:
#
# PCOD8050925 Si02
#       7
#     4   4   4   4   4   4   4
#     4  12  25  40  66 100 136 168 221 273 321 385
#     4  10  23  43  67  99 131 177 221 263 324 386
#     4  10  23  46  63  95 135 170 218 270 321 393
#     4  10  22  46  68  94 133 176 215 270 326 383
#     4  10  24  45  67  97 127 173 225 265 331 389
#     4  12  25  44  68  98 132 172 218 275 328 390
#     4  10  22  46  70  92 134 171 216 269 325 393
#
# _framework density 21.644621999999998
#
# number of rings (size 3 to 8) (size 9 to 14) (size 15 to 20)
#    0.000    1.714    2.857    3.429    6.000    1.714 
#   10.286    0.000    0.000    0.000    0.000    0.000 
#    0.000    0.000    0.000    0.000    0.000    0.000 
#
# Total GULP energy -173566.148157 kJ/mol
# GULP energy per Si atom -12397.582011 kJ/mol
# Density = 2.159536 g / cm^3
# Si number density = 21.644622 Si / 1000 Ang^3
#
#
#
# Elastic Constant Matrix: (Units=GPa)
#
#
# Indices 1 2 3 4 5 6 
#
# 1 89.3152 18.9441 23.0763 0.0000 4.3308 0.0000
# 2 18.9441 138.8456 24.0839 0.0000 -0.3838 0.0000
# 3 23.0763 24.0839 128.0218 0.0000 4.2174 0.0000
# 4 0.0000 0.0000 0.0000 31.2463 0.0000 3.8451
# 5 4.3308 -0.3838 4.2174 0.0000 15.3952 0.0000
# 6 0.0000 0.0000 0.0000 3.8451 0.0000 19.9226
#
#
#
# Elastic Compliance Matrix: (Units=1/GPa)
#
#
# Indices 1 2 3 4 5 6 
#
# 1 0.012096 -0.001341 -0.001831 0.000000 -0.002934 0.000000
# 2 -0.001341 0.007599 -0.001217 0.000000 0.000900 0.000000
# 3 -0.001831 -0.001217 0.008430 0.000000 -0.001825 0.000000
# 4 0.000000 0.000000 0.000000 0.032782 0.000000 -0.006327
# 5 -0.002934 0.000900 -0.001825 0.000000 0.066303 0.000000
# 6 0.000000 0.000000 0.000000 -0.006327 0.000000 0.051415
#
#
# Mechanical properties :
#
#
# Convention : Reuss Voigt Hill
#
# Bulk Modulus (GPa) = 51.69047 54.26567 52.97807
# Shear Modulus (GPa) = 25.79251 32.65136 29.22194
#
# Velocity S-wave (km/s) = 3.45575 3.88818 3.67833
# Velocity P-wave (km/s) = 6.31318 6.72926 6.52454
#
# Compressibility (1/GPa) = 0.01934593
#
# Stress axis : x y z
#
# Youngs Moduli (GPa) = 82.67072 131.59870 118.61771
#
# Poissons Ratio (x) = 0.17645 0.21724
# Poissons Ratio (y) = 0.11085 0.14442
# Poissons Ratio (z) = 0.15141 0.16022
#
# Static dielectric constant tensor:
#      x y z
#    x 3.712310 0.000000 0.094150 
#    y 0.000000 3.947250 0.000000 
#    z 0.094150 0.000000 3.981930 
# 
# 
# High freq. dielectric constant tensor:
#      x y z
#    x 1.829810 0.000000 0.007850 
#    y 0.000000 1.863150 0.000000 
#    z 0.007850 0.000000 1.856990 
# 
# From -- ./inp_files/52186.got.cif
#   From: 2010.03.12/outbox.cif.g09.slc.cpg/sg5_27_cif.got.tgz:52186.got - 2010.03.31 09:47:26.
