data_PCOD8050782
_publ_section_title
;
Structure prediction by ZEFSAII (Michael W. Deem and Ramdas Pophale) SiO2 
 PCOD8050782
Probable space group: C 2
;
_chemical_formula_sum "Si O2"
_cell_formula_units_Z 26
_cell_length_a 26.330963
_cell_length_b 6.440614
_cell_length_c 22.445325
_cell_angle_alpha 90.000000
_cell_angle_beta 19.014923
_cell_angle_gamma 90.000000
_cell_volume 1240.195638
_symmetry_space_group_name_H-M "C 2"
_symmetry_group_IT_number 5
_symmetry_cell_setting 'monoclinic'
loop_
_space_group_symop_operation_xyz
x,y,z
-x,y,-z
1/2+x,1/2+y,z
1/2-x,1/2+y,-z
loop_
_atom_site_type_symbol
_atom_site_label
_atom_site_fract_x
_atom_site_fract_y
_atom_site_fract_z
Si Si1 0.708174 0.280850 0.810041
Si Si2 0.642001 0.699220 0.238433
Si Si3 0.858180 0.472542 0.534271
Si Si4 0.911217 0.804016 0.765205
Si Si5 0.035642 0.074215 0.859856
Si Si6 0.633224 0.507226 0.068809
Si Si7 0.500000 0.918664 0.000000
O O1 0.845388 0.232785 0.704834
O O2 0.783680 0.450989 0.682423
O O3 0.651708 0.065433 0.842168
O O4 0.558387 0.389065 0.004900
O O5 0.652633 0.456661 0.214462
O O6 0.478779 0.783280 0.391672
O O7 0.791202 0.805474 0.044042
O O8 0.709469 0.482533 0.655421
O O9 0.949431 0.685757 0.421996
O O10 0.768560 0.657532 0.942740
O O11 0.966123 0.930678 0.763490
O O12 0.032820 0.279668 0.904644
O O13 0.970825 0.124533 0.865531
#
# Coordination Sequence:
#
# PCOD8050782 Si02
#       7
#     4   4   4   4   4   4   2
#     4  11  22  42  63  95 134 172 212 260 326 401
#     4  10  23  40  67  91 125 174 211 267 323 379
#     4  11  23  41  59  99 137 158 211 273 320 384
#     4  11  22  43  67  93 127 171 221 268 317 382
#     4  11  23  42  65  95 133 169 214 270 322 391
#     4  10  22  43  67  91 123 172 226 261 313 390
#     4  12  20  38  70  90 128 180 210 258 330 390
#
# _framework density 20.964433
#
# number of rings (size 3 to 8) (size 9 to 14) (size 15 to 20)
#    0.000    1.231    4.615    1.385    2.154    0.000 
#    5.538    0.000    0.000    0.000    0.000    0.000 
#    0.000    0.000    0.000    0.000    0.000    0.000 
#
# Total GULP energy -161118.112159 kJ/mol
# GULP energy per Si atom -12393.700935 kJ/mol
# Density = 2.091672 g / cm^3
# Si number density = 20.964433 Si / 1000 Ang^3
#
#
#
# Elastic Constant Matrix: (Units=GPa)
#
#
# Indices 1 2 3 4 5 6 
#
# 1 138.7062 56.6643 45.4102 -0.0076 -4.3897 0.0069
# 2 56.6643 106.9322 41.1155 0.0917 1.8397 0.0048
# 3 45.4102 41.1155 89.0382 0.0505 -8.8130 -0.0078
# 4 -0.0076 0.0917 0.0505 27.5861 -0.0166 4.0176
# 5 -4.3897 1.8397 -8.8130 -0.0166 16.6768 0.0112
# 6 0.0069 0.0048 -0.0078 4.0176 0.0112 34.6599
#
#
#
# Elastic Compliance Matrix: (Units=1/GPa)
#
#
# Indices 1 2 3 4 5 6 
#
# 1 0.009929 -0.004129 -0.003011 0.000024 0.001478 -0.000005
# 2 -0.004129 0.013381 -0.004566 -0.000041 -0.004976 0.000004
# 3 -0.003011 -0.004566 0.015666 -0.000010 0.007990 0.000003
# 4 0.000024 -0.000041 -0.000010 0.036873 0.000045 -0.004274
# 5 0.001478 -0.004976 0.007990 0.000045 0.065124 -0.000024
# 6 -0.000005 0.000004 0.000003 -0.004274 -0.000024 0.029347
#
#
# Mechanical properties :
#
#
# Convention : Reuss Voigt Hill
#
# Bulk Modulus (GPa) = 64.24862 69.00632 66.62747
# Shear Modulus (GPa) = 25.13595 28.55032 26.84314
#
# Velocity S-wave (km/s) = 3.46639 3.69432 3.58217
# Velocity P-wave (km/s) = 6.83624 7.15435 6.99710
#
# Compressibility (1/GPa) = 0.01556454
#
# Stress axis : x y z
#
# Youngs Moduli (GPa) = 100.71738 74.73345 63.83363
#
# Poissons Ratio (x) = 0.30859 0.19219
# Poissons Ratio (y) = 0.41588 0.29143
# Poissons Ratio (z) = 0.30323 0.34120
#
# Static dielectric constant tensor:
#      x y z
#    x 4.020290 -0.000010 -0.173510 
#    y -0.000010 3.743460 0.000000 
#    z -0.173510 0.000000 3.736970 
# 
# 
# High freq. dielectric constant tensor:
#      x y z
#    x 1.821480 0.000000 -0.005710 
#    y 0.000000 1.821420 0.000000 
#    z -0.005710 0.000000 1.809950 
# 
# From -- ./inp_files/30307.got.cif
#   From: 2010.03.12/outbox.cif.g09.slc.cpg/sg5_16_cif.got.tgz:30307.got - 2010.03.31 09:47:26.
