data_PCOD8050425
_publ_section_title
;
Structure prediction by ZEFSAII (Michael W. Deem and Ramdas Pophale) SiO2 
 PCOD8050425
Probable space group: C 2
;
_chemical_formula_sum "Si O2"
_cell_formula_units_Z 30
_cell_length_a 13.425063
_cell_length_b 6.388888
_cell_length_c 17.476044
_cell_angle_alpha 90.000000
_cell_angle_beta 65.346043
_cell_angle_gamma 90.000000
_cell_volume 1362.303680
_symmetry_space_group_name_H-M "C 2"
_symmetry_group_IT_number 5
_symmetry_cell_setting 'monoclinic'
loop_
_space_group_symop_operation_xyz
x,y,z
-x,y,-z
1/2+x,1/2+y,z
1/2-x,1/2+y,-z
loop_
_atom_site_type_symbol
_atom_site_label
_atom_site_fract_x
_atom_site_fract_y
_atom_site_fract_z
Si Si1 0.000000 0.750000 0.000000
Si Si2 0.810414 0.976769 0.583591
Si Si3 0.995807 0.042643 0.137910
Si Si4 0.376496 0.104693 0.467702
Si Si5 0.112116 0.394232 0.385717
Si Si6 0.866197 0.423509 0.957563
Si Si7 0.313153 0.269812 0.874495
Si Si8 0.269568 0.671819 0.259552
O O1 0.953642 0.890903 0.084016
O O2 0.098718 0.605779 0.995661
O O3 0.707323 0.089221 0.575621
O O4 0.881344 0.845164 0.498106
O O5 0.757855 0.830872 0.664571
O O6 0.889995 0.142277 0.602482
O O7 0.084223 0.927404 0.163324
O O8 0.042314 0.247954 0.081941
O O9 0.895539 0.101932 0.225262
O O10 0.495421 0.007921 0.407720
O O11 0.332902 0.968778 0.552437
O O12 0.192117 0.466255 0.291595
O O13 0.847693 0.529068 0.880025
O O14 0.757057 0.328614 0.028249
O O15 0.247937 0.283471 0.816468
#
# Coordination Sequence:
#
# PCOD8050425 Si02
#       8
#     2   4   4   4   4   4   4   4
#     4  10  22  38  68  92 122 176 228 292 338 410
#     4  11  23  46  73 103 140 180 227 285 345 416
#     4  11  24  42  65  97 138 179 231 291 350 411
#     4  10  22  44  73 104 132 181 236 275 334 421
#     4  10  24  43  69 104 140 183 223 284 341 412
#     4  11  22  41  67  93 124 183 234 284 343 408
#     4  11  24  42  66  96 134 179 233 287 343 416
#     4  11  27  41  61 106 142 179 224 283 361 407
#
# _framework density 22.021522000000001
#
# number of rings (size 3 to 8) (size 9 to 14) (size 15 to 20)
#    0.000    1.333    2.667    2.000    1.867   11.733 
#    0.000    0.000    0.000    0.000    0.000    0.000 
#    0.000    0.000    0.000    0.000    0.000    0.000 
#
# Total GULP energy -185933.853093 kJ/mol
# GULP energy per Si atom -12395.590206 kJ/mol
# Density = 2.197140 g / cm^3
# Si number density = 22.021522 Si / 1000 Ang^3
#
#
#
# Elastic Constant Matrix: (Units=GPa)
#
#
# Indices 1 2 3 4 5 6 
#
# 1 104.4229 47.3369 43.1616 0.0000 -22.1394 0.0001
# 2 47.3369 136.3957 40.6758 0.0001 -20.3910 0.0005
# 3 43.1616 40.6758 83.1870 0.0000 -20.6383 0.0000
# 4 0.0000 0.0001 0.0000 26.8433 0.0000 -4.6988
# 5 -22.1394 -20.3910 -20.6383 0.0000 40.3530 0.0000
# 6 0.0001 0.0005 0.0000 -4.6988 0.0000 27.6802
#
#
#
# Elastic Compliance Matrix: (Units=1/GPa)
#
#
# Indices 1 2 3 4 5 6 
#
# 1 0.013568 -0.002736 -0.004808 0.000000 0.003602 0.000000
# 2 -0.002736 0.009363 -0.002700 0.000000 0.001849 0.000000
# 3 -0.004808 -0.002700 0.017000 0.000000 0.004692 0.000000
# 4 0.000000 0.000000 0.000000 0.038394 0.000000 0.006518
# 5 0.003602 0.001849 0.004692 0.000000 0.030092 0.000000
# 6 0.000000 0.000000 0.000000 0.006518 0.000000 0.037233
#
#
# Mechanical properties :
#
#
# Convention : Reuss Voigt Hill
#
# Bulk Modulus (GPa) = 51.43327 65.15047 58.29187
# Shear Modulus (GPa) = 28.96551 31.83072 30.39811
#
# Velocity S-wave (km/s) = 3.63068 3.80601 3.71938
# Velocity P-wave (km/s) = 6.40175 6.99739 6.70619
#
# Compressibility (1/GPa) = 0.01944267
#
# Stress axis : x y z
#
# Youngs Moduli (GPa) = 73.70284 106.80549 58.82379
#
# Poissons Ratio (x) = 0.29227 0.28283
# Poissons Ratio (y) = 0.20169 0.15880
# Poissons Ratio (z) = 0.35437 0.28832
#
# Static dielectric constant tensor:
#      x y z
#    x 3.814230 0.000000 0.031160 
#    y 0.000000 4.379810 0.000000 
#    z 0.031160 0.000000 3.881110 
# 
# 
# High freq. dielectric constant tensor:
#      x y z
#    x 1.864880 0.000000 -0.000960 
#    y 0.000000 1.880680 0.000000 
#    z -0.000960 0.000000 1.848070 
# 
# From -- ./inp_files/61201.got.cif
#   From: 2010.03.12/outbox.cif.g09.slc.cpg/sg5_31_cif.got.tgz:61201.got - 2010.03.31 09:47:26.
