data_PCOD8050728
_publ_section_title
;
Structure prediction by ZEFSAII (Michael W. Deem and Ramdas Pophale) SiO2 
 PCOD8050728
Probable space group: C 2
;
_chemical_formula_sum "Si O2"
_cell_formula_units_Z 16
_cell_length_a 9.317656
_cell_length_b 17.020674
_cell_length_c 8.063844
_cell_angle_alpha 90.000000
_cell_angle_beta 149.119627
_cell_angle_gamma 90.000000
_cell_volume 656.375264
_symmetry_space_group_name_H-M "C 2"
_symmetry_group_IT_number 5
_symmetry_cell_setting 'monoclinic'
loop_
_space_group_symop_operation_xyz
x,y,z
-x,y,-z
1/2+x,1/2+y,z
1/2-x,1/2+y,-z
loop_
_atom_site_type_symbol
_atom_site_label
_atom_site_fract_x
_atom_site_fract_y
_atom_site_fract_z
Si Si1 0.262921 0.016990 0.372650
Si Si2 0.444583 0.275866 0.628706
Si Si3 0.044489 0.383013 0.860652
Si Si4 0.766524 0.634522 0.658060
O O1 0.500000 0.061965 0.500000
O O2 0.151258 0.075430 0.403640
O O3 0.433730 0.942731 0.613578
O O4 0.000000 0.990458 0.000000
O O5 0.500000 0.242075 0.500000
O O6 0.453214 0.206502 0.770994
O O7 0.125424 0.302609 0.317675
O O8 0.638011 0.353071 0.858996
O O9 0.000000 0.420629 0.000000
O O10 0.500000 0.662750 0.500000
O O11 0.000000 0.589341 0.000000
#
# Coordination Sequence:
#
# PCOD8050728 Si02
#       4
#     4   4   4   4
#     4  12  26  44  69 101 140 182 229 284 341 408
#     4  10  22  42  69  99 135 178 223 276 339 406
#     4  10  22  42  69  99 135 178 223 276 339 406
#     4  12  26  44  69 101 140 182 229 284 341 408
#
# _framework density 24.376300000000001
#
# number of rings (size 3 to 8) (size 9 to 14) (size 15 to 20)
#    0.000    1.000    0.000    6.000    0.000   10.000 
#    0.000    0.000    0.000    0.000    0.000    0.000 
#    0.000    0.000    0.000    0.000    0.000    0.000 
#
# Total GULP energy -99163.241665 kJ/mol
# GULP energy per Si atom -12395.405208 kJ/mol
# Density = 2.432082 g / cm^3
# Si number density = 24.376300 Si / 1000 Ang^3
#
#
#
# Elastic Constant Matrix: (Units=GPa)
#
#
# Indices 1 2 3 4 5 6 
#
# 1 138.2001 52.7359 56.0228 0.0000 1.6041 0.0001
# 2 52.7359 82.5618 32.5700 -0.0001 -11.7029 0.0000
# 3 56.0228 32.5700 150.6243 0.0004 -13.5711 0.0002
# 4 0.0000 -0.0001 0.0004 21.9744 0.0001 -6.0316
# 5 1.6041 -11.7029 -13.5711 0.0001 46.1676 0.0001
# 6 0.0001 0.0000 0.0002 -6.0316 0.0001 19.5888
#
#
#
# Elastic Compliance Matrix: (Units=1/GPa)
#
#
# Indices 1 2 3 4 5 6 
#
# 1 0.010803 -0.006135 -0.002943 0.000000 -0.002796 0.000000
# 2 -0.006135 0.017033 -0.001020 0.000000 0.004231 0.000000
# 3 -0.002943 -0.001020 0.008156 0.000000 0.002241 0.000000
# 4 0.000000 0.000000 0.000000 0.049709 0.000000 0.015306
# 5 -0.002796 0.004231 0.002241 0.000000 0.023489 0.000000
# 6 0.000000 0.000000 0.000000 0.015306 0.000000 0.055762
#
#
# Mechanical properties :
#
#
# Convention : Reuss Voigt Hill
#
# Bulk Modulus (GPa) = 63.31082 72.67152 67.99117
# Shear Modulus (GPa) = 26.25863 32.88332 29.57097
#
# Velocity S-wave (km/s) = 3.28566 3.67684 3.48674
# Velocity P-wave (km/s) = 6.35789 6.92117 6.64550
#
# Compressibility (1/GPa) = 0.01579509
#
# Stress axis : x y z
#
# Youngs Moduli (GPa) = 92.57041 58.70897 122.60653
#
# Poissons Ratio (x) = 0.36020 0.36084
# Poissons Ratio (y) = 0.56795 0.12505
# Poissons Ratio (z) = 0.27244 0.05988
#
# Static dielectric constant tensor:
#      x y z
#    x 4.881060 0.000000 -0.087890 
#    y 0.000000 3.778800 0.000000 
#    z -0.087890 0.000000 4.382110 
# 
# 
# High freq. dielectric constant tensor:
#      x y z
#    x 1.984560 0.000000 -0.001710 
#    y 0.000000 1.942400 0.000000 
#    z -0.001710 0.000000 1.985200 
# 
# From -- ./inp_files/146.got.cif
#   From: 2010.03.12/outbox.cif.g09.slc.cpg/sg5_1_cif.got.tgz:146.got - 2010.03.31 09:47:26.
