data_PCOD8050365
_publ_section_title
;
Structure prediction by ZEFSAII (Michael W. Deem and Ramdas Pophale) SiO2 
 PCOD8050365
Probable space group: C 2
;
_chemical_formula_sum "Si O2"
_cell_formula_units_Z 28
_cell_length_a 21.657776
_cell_length_b 9.885826
_cell_length_c 23.835325
_cell_angle_alpha 90.000000
_cell_angle_beta 15.923004
_cell_angle_gamma 90.000000
_cell_volume 1400.056209
_symmetry_space_group_name_H-M "C 2"
_symmetry_group_IT_number 5
_symmetry_cell_setting 'monoclinic'
loop_
_space_group_symop_operation_xyz
x,y,z
-x,y,-z
1/2+x,1/2+y,z
1/2-x,1/2+y,-z
loop_
_atom_site_type_symbol
_atom_site_label
_atom_site_fract_x
_atom_site_fract_y
_atom_site_fract_z
Si Si1 0.389694 0.192590 0.949011
Si Si2 0.536610 0.969503 0.028163
Si Si3 0.720615 0.229335 0.345415
Si Si4 0.945916 0.657051 0.771867
Si Si5 0.917718 0.073424 0.342132
Si Si6 0.023966 0.992380 0.126697
Si Si7 0.999618 0.866864 0.357100
O O1 0.478576 0.173990 0.808907
O O2 0.474062 0.338523 0.897932
O O3 0.118746 0.175543 0.183989
O O4 0.505426 0.078432 0.886175
O O5 0.797469 0.938421 0.789116
O O6 0.500000 0.038626 0.000000
O O7 0.380742 0.837649 0.174622
O O8 0.500000 0.199665 0.500000
O O9 0.652473 0.285295 0.466000
O O10 0.856407 0.088141 0.236925
O O11 0.191104 0.654080 0.528465
O O12 0.855288 0.787497 0.818029
O O13 0.784053 0.536185 0.894842
O O14 0.971026 0.991772 0.239039
O O15 0.851529 0.974668 0.451627
#
# Coordination Sequence:
#
# PCOD8050365 Si02
#       7
#     4   4   4   4   4   4   4
#     4  10  24  40  61  96 132 164 206 262 321 380
#     4  11  23  45  66  88 122 170 223 261 307 372
#     4  12  24  41  67  91 122 168 223 262 307 379
#     4  11  21  36  63  93 129 162 199 257 319 382
#     4  10  22  36  63  92 129 165 203 251 325 381
#     4  11  23  38  61  97 130 160 203 267 322 373
#     4  11  21  38  64  93 118 163 213 261 305 376
#
# _framework density 19.999198
#
# number of rings (size 3 to 8) (size 9 to 14) (size 15 to 20)
#    0.000    1.143    5.714    0.857    2.000    0.000 
#    0.000    2.857    0.000    0.000    0.000    0.000 
#    0.000    0.000    0.000    0.000    0.000    0.000 
#
# Total GULP energy -173446.121226 kJ/mol
# GULP energy per Si atom -12389.008659 kJ/mol
# Density = 1.995368 g / cm^3
# Si number density = 19.999198 Si / 1000 Ang^3
#
#
#
# Elastic Constant Matrix: (Units=GPa)
#
#
# Indices 1 2 3 4 5 6 
#
# 1 103.3613 30.4060 21.0243 0.2614 -4.3257 0.1179
# 2 30.4060 108.3790 23.8932 0.8700 -10.2979 0.0767
# 3 21.0243 23.8932 81.4280 0.9432 -6.8250 0.1247
# 4 0.2614 0.8700 0.9432 19.6712 -0.1044 1.4544
# 5 -4.3257 -10.2979 -6.8250 -0.1044 31.3223 -0.0592
# 6 0.1179 0.0767 0.1247 1.4544 -0.0592 25.2505
#
#
#
# Elastic Compliance Matrix: (Units=1/GPa)
#
#
# Indices 1 2 3 4 5 6 
#
# 1 0.010855 -0.002579 -0.002029 0.000071 0.000209 -0.000036
# 2 -0.002579 0.010702 -0.002247 -0.000318 0.002672 0.000015
# 3 -0.002029 -0.002247 0.013633 -0.000516 0.001950 -0.000017
# 4 0.000071 -0.000318 -0.000516 0.051091 -0.000043 -0.002940
# 5 0.000209 0.002672 0.001950 -0.000043 0.033258 0.000062
# 6 -0.000036 0.000015 -0.000017 -0.002940 0.000062 0.039773
#
#
# Mechanical properties :
#
#
# Convention : Reuss Voigt Hill
#
# Bulk Modulus (GPa) = 46.55314 49.31278 47.93296
# Shear Modulus (GPa) = 27.74973 29.77179 28.76076
#
# Velocity S-wave (km/s) = 3.72901 3.86249 3.79634
# Velocity P-wave (km/s) = 6.47061 6.67852 6.57539
#
# Compressibility (1/GPa) = 0.02148083
#
# Stress axis : x y z
#
# Youngs Moduli (GPa) = 92.12573 93.43979 73.34895
#
# Poissons Ratio (x) = 0.24095 0.14884
# Poissons Ratio (y) = 0.23756 0.16481
# Poissons Ratio (z) = 0.18694 0.20995
#
# Static dielectric constant tensor:
#      x y z
#    x 3.635070 0.000020 -0.074520 
#    y 0.000020 3.572120 0.000960 
#    z -0.074520 0.000960 3.562890 
# 
# 
# High freq. dielectric constant tensor:
#      x y z
#    x 1.782180 0.000000 -0.000800 
#    y 0.000000 1.770450 0.000050 
#    z -0.000800 0.000050 1.783760 
# 
# From -- ./inp_files/69424.got.cif
#   From: 2010.03.12/outbox.cif.g09.slc.cpg/sg5_35_cif.got.tgz:69424.got - 2010.03.31 09:47:26.
