data_PCOD8050451
_publ_section_title
;
Structure prediction by ZEFSAII (Michael W. Deem and Ramdas Pophale) SiO2 
 PCOD8050451
Probable space group: C 2
;
_chemical_formula_sum "Si O2"
_cell_formula_units_Z 18
_cell_length_a 20.924391
_cell_length_b 6.799091
_cell_length_c 6.100182
_cell_angle_alpha 90.000000
_cell_angle_beta 76.518777
_cell_angle_gamma 90.000000
_cell_volume 843.941093
_symmetry_space_group_name_H-M "C 2"
_symmetry_group_IT_number 5
_symmetry_cell_setting 'monoclinic'
loop_
_space_group_symop_operation_xyz
x,y,z
-x,y,-z
1/2+x,1/2+y,z
1/2-x,1/2+y,-z
loop_
_atom_site_type_symbol
_atom_site_label
_atom_site_fract_x
_atom_site_fract_y
_atom_site_fract_z
Si Si1 0.611191 0.738070 0.214224
Si Si2 0.000000 0.339250 0.000000
Si Si3 0.204774 0.252188 0.759489
Si Si4 0.602898 0.017223 0.604601
Si Si5 0.838214 0.916605 0.515635
O O1 0.552134 0.702257 0.087855
O O2 0.616252 0.555043 0.372448
O O3 0.595663 0.937496 0.361455
O O4 0.680206 0.755306 0.029993
O O5 0.961960 0.474213 0.203676
O O6 0.167208 0.417216 0.653092
O O7 0.281314 0.308658 0.700620
O O8 0.192898 0.037627 0.661657
O O9 0.612212 0.250815 0.609422
#
# Coordination Sequence:
#
# PCOD8050451 Si02
#       5
#     4   2   4   4   4
#     4  10  24  40  66  94 127 172 211 263 311 375
#     4  10  22  48  64  86 134 172 216 262 306 370
#     4  10  22  39  62  97 138 159 203 265 320 380
#     4  10  22  43  66  92 127 172 209 260 315 374
#     4  11  22  39  64 102 128 164 211 257 328 380
#
# _framework density 21.328502
#
# number of rings (size 3 to 8) (size 9 to 14) (size 15 to 20)
#    0.000    1.778    2.222    0.667    3.111    3.556 
#    0.000   26.667    0.000    0.000    0.000    0.000 
#    0.000    0.000    0.000    0.000    0.000    0.000 
#
# Total GULP energy -111623.621075 kJ/mol
# GULP energy per Si atom -12402.624564 kJ/mol
# Density = 2.127996 g / cm^3
# Si number density = 21.328502 Si / 1000 Ang^3
#
#
#
# Elastic Constant Matrix: (Units=GPa)
#
#
# Indices 1 2 3 4 5 6 
#
# 1 81.1630 31.5258 27.3976 0.0000 -16.0661 0.0000
# 2 31.5258 131.5988 41.7602 0.0000 -3.2412 0.0000
# 3 27.3976 41.7602 118.2233 0.0000 -23.8919 0.0000
# 4 0.0000 0.0000 0.0000 15.2098 0.0000 -6.9791
# 5 -16.0661 -3.2412 -23.8919 0.0000 39.7360 0.0000
# 6 0.0000 0.0000 0.0000 -6.9791 0.0000 23.8026
#
#
#
# Elastic Compliance Matrix: (Units=1/GPa)
#
#
# Indices 1 2 3 4 5 6 
#
# 1 0.014945 -0.003015 -0.001397 0.000000 0.004957 0.000000
# 2 -0.003015 0.009223 -0.003021 0.000000 -0.002283 0.000000
# 3 -0.001397 -0.003021 0.011025 0.000000 0.005818 0.000000
# 4 0.000000 0.000000 0.000000 0.075968 0.000000 0.022275
# 5 0.004957 -0.002283 0.005818 0.000000 0.030482 0.000000
# 6 0.000000 0.000000 0.000000 0.022275 0.000000 0.048543
#
#
# Mechanical properties :
#
#
# Convention : Reuss Voigt Hill
#
# Bulk Modulus (GPa) = 49.19178 59.15026 54.17102
# Shear Modulus (GPa) = 23.60417 31.10310 27.35363
#
# Velocity S-wave (km/s) = 3.33031 3.82290 3.58507
# Velocity P-wave (km/s) = 6.15645 6.87599 6.52615
#
# Compressibility (1/GPa) = 0.02032860
#
# Stress axis : x y z
#
# Youngs Moduli (GPa) = 66.91389 108.41977 90.70313
#
# Poissons Ratio (x) = 0.32687 0.12668
# Poissons Ratio (y) = 0.20173 0.27398
# Poissons Ratio (z) = 0.09346 0.32750
#
# Static dielectric constant tensor:
#      x y z
#    x 3.753230 0.000000 -0.072850 
#    y 0.000000 3.678610 0.000000 
#    z -0.072850 0.000000 3.997810 
# 
# 
# High freq. dielectric constant tensor:
#      x y z
#    x 1.835640 0.000000 -0.008480 
#    y 0.000000 1.822100 0.000000 
#    z -0.008480 0.000000 1.843750 
# 
# From -- ./inp_files/9092.got.cif
#   From: 2010.03.12/outbox.cif.g09.slc.cpg/sg5_5_cif.got.tgz:9092.got - 2010.03.31 09:47:26.
