data_PCOD8050865
_publ_section_title
;
Structure prediction by ZEFSAII (Michael W. Deem and Ramdas Pophale) SiO2 
 PCOD8050865
Probable space group: C 2
;
_chemical_formula_sum "Si O2"
_cell_formula_units_Z 28
_cell_length_a 13.422683
_cell_length_b 5.192961
_cell_length_c 16.499323
_cell_angle_alpha 90.000000
_cell_angle_beta 119.723465
_cell_angle_gamma 90.000000
_cell_volume 998.744964
_symmetry_space_group_name_H-M "C 2"
_symmetry_group_IT_number 5
_symmetry_cell_setting 'monoclinic'
loop_
_space_group_symop_operation_xyz
x,y,z
-x,y,-z
1/2+x,1/2+y,z
1/2-x,1/2+y,-z
loop_
_atom_site_type_symbol
_atom_site_label
_atom_site_fract_x
_atom_site_fract_y
_atom_site_fract_z
Si Si1 0.609563 0.495000 0.208445
Si Si2 0.520937 0.713775 0.688909
Si Si3 0.000000 0.105306 0.000000
Si Si4 0.000000 0.489863 0.500000
Si Si5 0.232038 0.247145 0.038839
Si Si6 0.725550 0.707928 0.626170
Si Si7 0.660684 0.232676 0.754987
Si Si8 0.638810 0.389851 0.469900
O O1 0.527168 0.617891 0.242986
O O2 0.673346 0.232036 0.265832
O O3 0.718316 0.680565 0.238351
O O4 0.542045 0.439003 0.096342
O O5 0.620571 0.507532 0.701611
O O6 0.425282 0.664479 0.579485
O O7 0.567553 0.002658 0.715806
O O8 0.897830 0.295445 0.984393
O O9 0.100513 0.341537 0.592647
O O10 0.048418 0.660994 0.445187
O O11 0.324356 0.297698 0.144739
O O12 0.239942 0.944088 0.021016
O O13 0.702631 0.419240 0.583626
O O14 0.770613 0.850532 0.563457
#
# Coordination Sequence:
#
# PCOD8050865 Si02
#       8
#     4   4   2   2   4   4   4   4
#     4  10  24  44  69 103 141 184 237 293 347 418
#     4  11  26  45  70 103 144 185 232 291 351 413
#     4  10  22  44  72 100 138 188 236 290 356 410
#     4  12  24  42  70  96 140 178 222 288 352 410
#     4  11  23  42  71 101 139 182 233 293 350 413
#     4  11  24  45  66 100 136 178 231 284 347 417
#     4  11  24  44  69 104 137 185 237 283 350 421
#     4  11  25  42  69  99 137 183 229 282 347 420
#
# _framework density 28.035187000000001
#
# number of rings (size 3 to 8) (size 9 to 14) (size 15 to 20)
#    0.000    1.143    1.429    3.857    6.000    1.714 
#    0.000    2.857    0.000    0.000    0.000    0.000 
#    0.000    0.000    0.000    0.000    0.000    0.000 
#
# Total GULP energy -173464.901018 kJ/mol
# GULP energy per Si atom -12390.350073 kJ/mol
# Density = 2.797138 g / cm^3
# Si number density = 28.035187 Si / 1000 Ang^3
#
#
#
# Elastic Constant Matrix: (Units=GPa)
#
#
# Indices 1 2 3 4 5 6 
#
# 1 107.0233 12.1619 8.5353 0.0000 8.5809 0.0000
# 2 12.1619 107.9820 28.7047 0.0001 24.4479 0.0000
# 3 8.5353 28.7047 200.8638 0.0000 12.9668 0.0000
# 4 0.0000 0.0001 0.0000 39.6367 0.0000 6.7639
# 5 8.5809 24.4479 12.9668 0.0000 35.3361 0.0000
# 6 0.0000 0.0000 0.0000 6.7639 0.0000 29.6475
#
#
#
# Elastic Compliance Matrix: (Units=1/GPa)
#
#
# Indices 1 2 3 4 5 6 
#
# 1 0.009576 -0.000611 -0.000202 0.000000 -0.001829 0.000000
# 2 -0.000611 0.011265 -0.001117 0.000000 -0.007235 0.000000
# 3 -0.000202 -0.001117 0.005217 0.000000 -0.001093 0.000000
# 4 0.000000 0.000000 0.000000 0.026251 0.000000 -0.005989
# 5 -0.001829 -0.007235 -0.001093 0.000000 0.034151 0.000000
# 6 0.000000 0.000000 0.000000 -0.005989 0.000000 0.035096
#
#
# Mechanical properties :
#
#
# Convention : Reuss Voigt Hill
#
# Bulk Modulus (GPa) = 45.04643 57.18590 51.11616
# Shear Modulus (GPa) = 37.64667 45.35519 41.50093
#
# Velocity S-wave (km/s) = 3.66845 4.02655 3.85166
# Velocity P-wave (km/s) = 5.83490 6.48534 6.16870
#
# Compressibility (1/GPa) = 0.02219932
#
# Stress axis : x y z
#
# Youngs Moduli (GPa) = 104.42900 88.77341 191.67348
#
# Poissons Ratio (x) = 0.05423 0.03863
# Poissons Ratio (y) = 0.06380 0.21405
# Poissons Ratio (z) = 0.02105 0.09914
#
# Static dielectric constant tensor:
#      x y z
#    x 5.657310 0.000000 0.084570 
#    y 0.000000 4.894330 0.000000 
#    z 0.084570 0.000000 5.659060 
# 
# 
# High freq. dielectric constant tensor:
#      x y z
#    x 2.173820 0.000000 -0.009700 
#    y 0.000000 2.113460 0.000000 
#    z -0.009700 0.000000 2.155780 
# 
# From -- ./inp_files/61160.got.cif
#   From: 2010.03.12/outbox.cif.g09.slc.cpg/sg5_31_cif.got.tgz:61160.got - 2010.03.31 09:47:26.
