data_PCOD8050520
_publ_section_title
;
Structure prediction by ZEFSAII (Michael W. Deem and Ramdas Pophale) SiO2 
 PCOD8050520
Probable space group: C 2
;
_chemical_formula_sum "Si O2"
_cell_formula_units_Z 24
_cell_length_a 20.372887
_cell_length_b 8.669377
_cell_length_c 8.205246
_cell_angle_alpha 90.000000
_cell_angle_beta 51.862169
_cell_angle_gamma 90.000000
_cell_volume 1139.845394
_symmetry_space_group_name_H-M "C 2"
_symmetry_group_IT_number 5
_symmetry_cell_setting 'monoclinic'
loop_
_space_group_symop_operation_xyz
x,y,z
-x,y,-z
1/2+x,1/2+y,z
1/2-x,1/2+y,-z
loop_
_atom_site_type_symbol
_atom_site_label
_atom_site_fract_x
_atom_site_fract_y
_atom_site_fract_z
Si Si1 0.031532 0.705980 0.633479
Si Si2 0.417867 0.941186 0.210049
Si Si3 0.312072 0.376723 0.722640
Si Si4 0.316871 0.674905 0.248856
Si Si5 0.719867 0.128492 0.699750
Si Si6 0.626925 0.381801 0.005405
O O1 0.059754 0.540473 0.663048
O O2 0.111059 0.819089 0.506414
O O3 0.000000 0.671148 0.500000
O O4 0.962644 0.794493 0.851483
O O5 0.364296 0.783454 0.310586
O O6 0.369653 0.044363 0.150707
O O7 0.500000 0.879589 0.000000
O O8 0.230913 0.268812 0.820118
O O9 0.289132 0.551376 0.709027
O O10 0.336913 0.384054 0.870401
O O11 0.246118 0.600473 0.471542
O O12 0.378745 0.552526 0.065683
O O13 0.698744 0.301325 0.786315
#
# Coordination Sequence:
#
# PCOD8050520 Si02
#       6
#     4   4   4   4   4   4
#     4  10  22  41  67  93 125 169 207 257 317 375
#     4  11  22  41  59  90 126 161 213 254 309 371
#     4  10  22  40  64  94 129 164 212 255 315 374
#     4  11  24  39  62  97 126 167 211 261 309 371
#     4  11  22  39  63  92 125 168 207 261 310 367
#     4  11  22  41  65  93 127 169 208 259 318 374
#
# _framework density 21.055486999999999
#
# number of rings (size 3 to 8) (size 9 to 14) (size 15 to 20)
#    0.000    1.333    3.333    3.000    0.000    1.333 
#    0.000    1.667    0.000    0.000    0.000    0.000 
#    0.000    0.000    0.000    0.000    0.000    0.000 
#
# Total GULP energy -148678.299468 kJ/mol
# GULP energy per Si atom -12389.858289 kJ/mol
# Density = 2.100756 g / cm^3
# Si number density = 21.055487 Si / 1000 Ang^3
#
#
#
# Elastic Constant Matrix: (Units=GPa)
#
#
# Indices 1 2 3 4 5 6 
#
# 1 93.4602 48.3024 29.2828 0.0000 -9.0477 0.0000
# 2 48.3024 125.6736 46.9711 0.0000 -4.7318 0.0000
# 3 29.2828 46.9711 96.8547 0.0000 -4.5864 0.0000
# 4 0.0000 0.0000 0.0000 25.8751 0.0000 7.3695
# 5 -9.0477 -4.7318 -4.5864 0.0000 24.4412 0.0000
# 6 0.0000 0.0000 0.0000 7.3695 0.0000 38.9236
#
#
#
# Elastic Compliance Matrix: (Units=1/GPa)
#
#
# Indices 1 2 3 4 5 6 
#
# 1 0.014011 -0.004547 -0.001843 0.000000 0.003960 0.000000
# 2 -0.004547 0.011219 -0.004079 0.000000 -0.000277 0.000000
# 3 -0.001843 -0.004079 0.012905 0.000000 0.000950 0.000000
# 4 0.000000 0.000000 0.000000 0.040850 0.000000 -0.007734
# 5 0.003960 -0.000277 0.000950 0.000000 0.042505 0.000000
# 6 0.000000 0.000000 0.000000 -0.007734 0.000000 0.027156
#
#
# Mechanical properties :
#
#
# Convention : Reuss Voigt Hill
#
# Bulk Modulus (GPa) = 58.15301 62.78900 60.47100
# Shear Modulus (GPa) = 28.51986 30.61012 29.56499
#
# Velocity S-wave (km/s) = 3.68436 3.81699 3.75126
# Velocity P-wave (km/s) = 6.76596 7.02220 6.89527
#
# Compressibility (1/GPa) = 0.01719602
#
# Stress axis : x y z
#
# Youngs Moduli (GPa) = 71.37447 89.13524 77.48771
#
# Poissons Ratio (x) = 0.40529 0.14283
# Poissons Ratio (y) = 0.32453 0.31609
# Poissons Ratio (z) = 0.13157 0.36360
#
# Static dielectric constant tensor:
#      x y z
#    x 3.850350 0.000000 -0.221930 
#    y 0.000000 3.811200 0.000000 
#    z -0.221930 0.000000 3.797440 
# 
# 
# High freq. dielectric constant tensor:
#      x y z
#    x 1.829440 0.000000 -0.011830 
#    y 0.000000 1.821900 0.000000 
#    z -0.011830 0.000000 1.820710 
# 
# From -- ./inp_files/22896.got.cif
#   From: 2010.03.12/outbox.cif.g09.slc.cpg/sg5_12_cif.got.tgz:22896.got - 2010.03.31 09:47:26.
