data_PCOD8050919
_publ_section_title
;
Structure prediction by ZEFSAII (Michael W. Deem and Ramdas Pophale) SiO2 
 PCOD8050919
Probable space group: C 2
;
_chemical_formula_sum "Si O2"
_cell_formula_units_Z 28
_cell_length_a 6.782673
_cell_length_b 12.478548
_cell_length_c 17.954695
_cell_angle_alpha 90.000000
_cell_angle_beta 116.733589
_cell_angle_gamma 90.000000
_cell_volume 1357.209407
_symmetry_space_group_name_H-M "C 2"
_symmetry_group_IT_number 5
_symmetry_cell_setting 'monoclinic'
loop_
_space_group_symop_operation_xyz
x,y,z
-x,y,-z
1/2+x,1/2+y,z
1/2-x,1/2+y,-z
loop_
_atom_site_type_symbol
_atom_site_label
_atom_site_fract_x
_atom_site_fract_y
_atom_site_fract_z
Si Si1 0.542018 0.750000 0.360128
Si Si2 0.962189 0.253434 0.075281
Si Si3 0.455501 0.901775 0.777537
Si Si4 0.500000 0.300798 0.500000
Si Si5 0.978547 0.025515 0.280402
Si Si6 0.207554 0.392499 0.575555
Si Si7 0.411336 0.516328 0.869665
Si Si8 0.500000 0.344090 0.000000
O O1 0.505333 0.840045 0.292089
O O2 0.796408 0.733349 0.430402
O O3 0.454252 0.642575 0.309597
O O4 0.386231 0.782610 0.403303
O O5 0.085317 0.321376 0.160016
O O6 0.054068 0.132439 0.087533
O O7 0.701952 0.263353 0.048348
O O8 0.000000 0.304236 0.000000
O O9 0.652507 0.986002 0.825917
O O10 0.232647 0.964600 0.726025
O O11 0.402244 0.372957 0.549621
O O12 0.980555 0.026318 0.192312
O O13 0.203385 0.971047 0.346199
O O14 0.000000 0.450055 0.500000
O O15 0.539711 0.422864 0.936190
#
# Coordination Sequence:
#
# PCOD8050919 Si02
#       8
#     4   4   4   2   4   4   4   2
#     4  11  23  42  63  97 126 167 215 265 319 384
#     4  11  23  44  67  93 132 176 212 265 320 376
#     4  11  24  42  64  96 132 167 215 267 318 380
#     4  10  22  46  66  88 132 170 208 270 324 376
#     4  12  24  40  68  95 128 175 211 262 330 377
#     4  10  23  44  65  92 132 165 214 268 316 389
#     4  11  23  43  66  98 130 170 216 264 321 380
#     4  10  24  44  66  94 134 166 220 264 308 388
#
# _framework density 20.630568
#
# number of rings (size 3 to 8) (size 9 to 14) (size 15 to 20)
#    0.000    1.143    5.000    0.857    1.000    3.429 
#    5.143    0.000    0.000    0.000    0.000    0.000 
#    0.000    0.000    0.000    0.000    0.000    0.000 
#
# Total GULP energy -173586.500705 kJ/mol
# GULP energy per Si atom -12399.035765 kJ/mol
# Density = 2.058361 g / cm^3
# Si number density = 20.630568 Si / 1000 Ang^3
#
#
#
# Elastic Constant Matrix: (Units=GPa)
#
#
# Indices 1 2 3 4 5 6 
#
# 1 93.5333 48.4493 38.3185 0.0000 -0.6642 0.0000
# 2 48.4493 106.6917 44.1561 0.0000 13.9137 0.0000
# 3 38.3185 44.1561 118.2386 0.0000 -0.9759 0.0000
# 4 0.0000 0.0000 0.0000 21.2015 0.0000 0.9843
# 5 -0.6642 13.9137 -0.9759 0.0000 41.9195 0.0000
# 6 0.0000 0.0000 0.0000 0.9843 0.0000 24.7010
#
#
#
# Elastic Compliance Matrix: (Units=1/GPa)
#
#
# Indices 1 2 3 4 5 6 
#
# 1 0.014846 -0.005960 -0.002568 0.000000 0.002154 0.000000
# 2 -0.005960 0.014111 -0.003378 0.000000 -0.004857 0.000000
# 3 -0.002568 -0.003378 0.010562 0.000000 0.001327 0.000000
# 4 0.000000 0.000000 0.000000 0.047254 0.000000 -0.001883
# 5 0.002154 -0.004857 0.001327 0.000000 0.025532 0.000000
# 6 0.000000 0.000000 0.000000 -0.001883 0.000000 0.040559
#
#
# Mechanical properties :
#
#
# Convention : Reuss Voigt Hill
#
# Bulk Modulus (GPa) = 63.66546 64.47904 64.07225
# Shear Modulus (GPa) = 27.48601 30.06706 28.77653
#
# Velocity S-wave (km/s) = 3.65402 3.82174 3.73882
# Velocity P-wave (km/s) = 6.98063 7.12715 7.05427
#
# Compressibility (1/GPa) = 0.01570710
#
# Stress axis : x y z
#
# Youngs Moduli (GPa) = 67.35981 70.86870 94.67731
#
# Poissons Ratio (x) = 0.42235 0.24311
# Poissons Ratio (y) = 0.40144 0.31985
# Poissons Ratio (z) = 0.17296 0.23942
#
# Static dielectric constant tensor:
#      x y z
#    x 3.613830 0.000000 0.015240 
#    y 0.000000 3.478900 0.000000 
#    z 0.015240 0.000000 4.092380 
# 
# 
# High freq. dielectric constant tensor:
#      x y z
#    x 1.805870 0.000000 -0.002790 
#    y 0.000000 1.788510 0.000000 
#    z -0.002790 0.000000 1.836590 
# 
# From -- ./inp_files/64044.got.cif
#   From: 2010.03.12/outbox.cif.g09.slc.cpg/sg5_33_cif.got.tgz:64044.got - 2010.03.31 09:47:26.
