data_PCOD8050405
_publ_section_title
;
Structure prediction by ZEFSAII (Michael W. Deem and Ramdas Pophale) SiO2 
 PCOD8050405
Probable space group: C 2
;
_chemical_formula_sum "Si O2"
_cell_formula_units_Z 32
_cell_length_a 20.388569
_cell_length_b 8.002514
_cell_length_c 12.909371
_cell_angle_alpha 90.000000
_cell_angle_beta 47.311453
_cell_angle_gamma 90.000000
_cell_volume 1548.229130
_symmetry_space_group_name_H-M "C 2"
_symmetry_group_IT_number 5
_symmetry_cell_setting 'monoclinic'
loop_
_space_group_symop_operation_xyz
x,y,z
-x,y,-z
1/2+x,1/2+y,z
1/2-x,1/2+y,-z
loop_
_atom_site_type_symbol
_atom_site_label
_atom_site_fract_x
_atom_site_fract_y
_atom_site_fract_z
Si Si1 0.696389 0.866350 0.965845
Si Si2 0.505145 0.905333 0.777398
Si Si3 0.509186 0.238527 0.871708
Si Si4 0.264095 0.558459 0.227819
Si Si5 0.652697 0.355178 0.568114
Si Si6 0.334627 0.680255 0.364176
Si Si7 0.926380 0.597751 0.494959
Si Si8 0.685476 0.258364 0.969440
O O1 0.596537 0.841034 0.117289
O O2 0.765796 0.822525 0.980974
O O3 0.715303 0.732152 0.855261
O O4 0.709274 0.062285 0.917666
O O5 0.568648 0.759783 0.748586
O O6 0.520955 0.039965 0.850570
O O7 0.535299 0.971546 0.632144
O O8 0.595606 0.326179 0.732987
O O9 0.500000 0.294424 0.000000
O O10 0.420621 0.277950 0.898595
O O11 0.313828 0.575664 0.283170
O O12 0.158938 0.524556 0.355076
O O13 0.293969 0.385272 0.145061
O O14 0.658062 0.553403 0.546451
O O15 0.755206 0.304830 0.475508
O O16 0.605281 0.271310 0.521717
O O17 0.000000 0.641900 0.500000
#
# Coordination Sequence:
#
# PCOD8050405 Si02
#       8
#     4   4   4   4   4   4   4   4
#     4  11  24  42  67  99 134 180 221 276 339 396
#     4  10  24  42  66  90 133 172 217 279 334 394
#     4  10  22  38  63  95 125 171 211 263 335 397
#     4  11  24  41  69  99 129 183 224 281 335 410
#     4  10  22  40  64  92 126 171 211 275 329 395
#     4  11  23  43  65  92 131 167 225 276 335 400
#     4  10  22  45  68  92 133 175 224 272 338 405
#     4  11  23  42  65  95 140 172 219 275 336 398
#
# _framework density 20.668776000000001
#
# number of rings (size 3 to 8) (size 9 to 14) (size 15 to 20)
#    0.000    1.500    1.250    3.750    8.750    0.000 
#    9.000    0.625    0.000    0.000    0.000    0.000 
#    0.000    0.000    0.000    0.000    0.000    0.000 
#
# Total GULP energy -198291.026304 kJ/mol
# GULP energy per Si atom -12393.189144 kJ/mol
# Density = 2.062173 g / cm^3
# Si number density = 20.668776 Si / 1000 Ang^3
#
#
#
# Elastic Constant Matrix: (Units=GPa)
#
#
# Indices 1 2 3 4 5 6 
#
# 1 113.8964 46.2161 25.2635 -0.0004 -17.0234 0.0001
# 2 46.2161 109.6592 35.7411 -0.0023 -17.3113 0.0021
# 3 25.2635 35.7411 93.8191 -0.0001 -15.7097 0.0004
# 4 -0.0004 -0.0023 -0.0001 35.1223 -0.0006 -4.0850
# 5 -17.0234 -17.3113 -15.7097 -0.0006 15.1301 -0.0002
# 6 0.0001 0.0021 0.0004 -4.0850 -0.0002 25.8636
#
#
#
# Elastic Compliance Matrix: (Units=1/GPa)
#
#
# Indices 1 2 3 4 5 6 
#
# 1 0.011532 -0.003361 -0.000359 0.000000 0.008758 0.000000
# 2 -0.003361 0.012637 -0.002568 0.000001 0.008012 -0.000001
# 3 -0.000359 -0.002568 0.013526 0.000000 0.010702 0.000000
# 4 0.000000 0.000001 0.000000 0.029005 0.000002 0.004581
# 5 0.008758 0.008012 0.010702 0.000002 0.096226 0.000000
# 6 0.000000 -0.000001 0.000000 0.004581 0.000000 0.039388
#
#
# Mechanical properties :
#
#
# Convention : Reuss Voigt Hill
#
# Bulk Modulus (GPa) = 39.80793 59.09067 49.44930
# Shear Modulus (GPa) = 22.39527 29.23346 25.81436
#
# Velocity S-wave (km/s) = 3.29527 3.76490 3.53789
# Velocity P-wave (km/s) = 5.81207 6.89570 6.37695
#
# Compressibility (1/GPa) = 0.02512062
#
# Stress axis : x y z
#
# Youngs Moduli (GPa) = 86.71424 79.13119 73.93357
#
# Poissons Ratio (x) = 0.26595 0.02651
# Poissons Ratio (y) = 0.29143 0.18984
# Poissons Ratio (z) = 0.03110 0.20319
#
# Static dielectric constant tensor:
#      x y z
#    x 3.825570 0.000000 -0.197690 
#    y 0.000000 3.897960 0.000000 
#    z -0.197690 0.000000 3.922980 
# 
# 
# High freq. dielectric constant tensor:
#      x y z
#    x 1.819240 0.000000 -0.015530 
#    y 0.000000 1.812880 0.000000 
#    z -0.015530 0.000000 1.810280 
# 
# From -- ./inp_files/46142.got.cif
#   From: 2010.03.12/outbox.cif.g09.slc.cpg/sg5_24_cif.got.tgz:46142.got - 2010.03.31 09:47:26.
