data_PCOD8050688
_publ_section_title
;
Structure prediction by ZEFSAII (Michael W. Deem and Ramdas Pophale) SiO2 
 PCOD8050688
Probable space group: C 2
;
_chemical_formula_sum "Si O2"
_cell_formula_units_Z 28
_cell_length_a 22.033121
_cell_length_b 5.070584
_cell_length_c 20.243645
_cell_angle_alpha 90.000000
_cell_angle_beta 149.899788
_cell_angle_gamma 90.000000
_cell_volume 1134.241992
_symmetry_space_group_name_H-M "C 2"
_symmetry_group_IT_number 5
_symmetry_cell_setting 'monoclinic'
loop_
_space_group_symop_operation_xyz
x,y,z
-x,y,-z
1/2+x,1/2+y,z
1/2-x,1/2+y,-z
loop_
_atom_site_type_symbol
_atom_site_label
_atom_site_fract_x
_atom_site_fract_y
_atom_site_fract_z
Si Si1 0.472530 0.134860 0.546732
Si Si2 0.130581 0.570968 0.154531
Si Si3 0.820139 0.270066 0.583799
Si Si4 0.795038 0.293034 0.196193
Si Si5 0.297178 0.554885 0.704713
Si Si6 0.309486 0.438061 0.030729
Si Si7 0.978856 0.995825 0.293262
O O1 0.500000 0.264488 0.500000
O O2 0.345420 0.977209 0.425212
O O3 0.444553 0.335365 0.580537
O O4 0.588591 0.962844 0.673853
O O5 0.227700 0.688627 0.195892
O O6 0.174389 0.279823 0.214642
O O7 0.128503 0.784721 0.212009
O O8 0.000000 0.544089 0.000000
O O9 0.721033 0.072864 0.457572
O O10 0.940900 0.247564 0.652753
O O11 0.844055 0.171975 0.680094
O O12 0.851068 0.051309 0.208437
O O13 0.697273 0.436778 0.055778
O O14 0.438199 0.348721 0.185984
O O15 0.292446 0.741369 0.036967
#
# Coordination Sequence:
#
# PCOD8050688 Si02
#       7
#     4   4   4   4   4   4   4
#     4  12  23  44  77 110 154 189 255 322 384 450
#     4  12  29  53  76 108 157 204 260 313 387 473
#     4  12  26  47  73 107 153 197 248 307 385 464
#     4  11  25  45  74 110 147 200 254 320 382 451
#     4  12  27  50  75 112 150 203 255 318 394 458
#     4  10  22  42  65 101 142 184 241 301 367 437
#     4  11  25  44  71 106 151 193 252 316 376 453
#
# _framework density 24.686093
#
# number of rings (size 3 to 8) (size 9 to 14) (size 15 to 20)
#    0.000    0.571    4.286    3.000    4.000    0.571 
#   10.286    0.000    0.000    0.000    0.000    0.000 
#    0.000    0.000    0.000    0.000    0.000    0.000 
#
# Total GULP energy -173472.581519 kJ/mol
# GULP energy per Si atom -12390.898680 kJ/mol
# Density = 2.462991 g / cm^3
# Si number density = 24.686093 Si / 1000 Ang^3
#
#
#
# Elastic Constant Matrix: (Units=GPa)
#
#
# Indices 1 2 3 4 5 6 
#
# 1 74.0362 -11.8036 24.2171 -0.0004 -3.3954 -0.0009
# 2 -11.8036 61.9355 24.4093 -0.0006 -2.6130 -0.0007
# 3 24.2171 24.4093 141.6883 -0.0004 -24.9265 -0.0013
# 4 -0.0004 -0.0006 -0.0004 37.0036 -0.0004 -4.0956
# 5 -3.3954 -2.6130 -24.9265 -0.0004 34.2214 -0.0010
# 6 -0.0009 -0.0007 -0.0013 -4.0956 -0.0010 28.1774
#
#
#
# Elastic Compliance Matrix: (Units=1/GPa)
#
#
# Indices 1 2 3 4 5 6 
#
# 1 0.015287 0.004250 -0.003465 0.000000 -0.000683 0.000000
# 2 0.004250 0.018532 -0.004124 0.000000 -0.001167 0.000000
# 3 -0.003465 -0.004124 0.009456 0.000000 0.006229 0.000000
# 4 0.000000 0.000000 0.000000 0.027466 0.000001 0.003992
# 5 -0.000683 -0.001167 0.006229 0.000001 0.033602 0.000001
# 6 0.000000 0.000000 0.000000 0.003992 0.000001 0.036070
#
#
# Mechanical properties :
#
#
# Convention : Reuss Voigt Hill
#
# Bulk Modulus (GPa) = 27.32513 39.03395 33.17954
# Shear Modulus (GPa) = 31.38925 35.93631 33.66278
#
# Velocity S-wave (km/s) = 3.56973 3.81954 3.69675
# Velocity P-wave (km/s) = 5.29940 5.94124 5.62948
#
# Compressibility (1/GPa) = 0.03659635
#
# Stress axis : x y z
#
# Youngs Moduli (GPa) = 65.41676 53.96065 105.74867
#
# Poissons Ratio (x) = -0.22934 0.36642
# Poissons Ratio (y) = -0.27803 0.43615
# Poissons Ratio (z) = 0.22667 0.22256
#
# Static dielectric constant tensor:
#      x y z
#    x 4.605790 0.000000 -0.377610 
#    y 0.000000 4.295560 0.000000 
#    z -0.377610 0.000000 5.006010 
# 
# 
# High freq. dielectric constant tensor:
#      x y z
#    x 1.982470 0.000000 -0.021380 
#    y 0.000000 1.962260 0.000000 
#    z -0.021380 0.000000 2.004890 
# 
# From -- ./inp_files/67248.got.cif
#   From: 2010.03.12/outbox.cif.g09.slc.cpg/sg5_34_cif.got.tgz:67248.got - 2010.03.31 09:47:26.
