data_PCOD8050632
_publ_section_title
;
Structure prediction by ZEFSAII (Michael W. Deem and Ramdas Pophale) SiO2 
 PCOD8050632
Probable space group: C 2
;
_chemical_formula_sum "Si O2"
_cell_formula_units_Z 16
_cell_length_a 17.878279
_cell_length_b 4.821103
_cell_length_c 8.929098
_cell_angle_alpha 90.000000
_cell_angle_beta 47.289708
_cell_angle_gamma 90.000000
_cell_volume 565.515590
_symmetry_space_group_name_H-M "C 2"
_symmetry_group_IT_number 5
_symmetry_cell_setting 'monoclinic'
loop_
_space_group_symop_operation_xyz
x,y,z
-x,y,-z
1/2+x,1/2+y,z
1/2-x,1/2+y,-z
loop_
_atom_site_type_symbol
_atom_site_label
_atom_site_fract_x
_atom_site_fract_y
_atom_site_fract_z
Si Si1 0.348478 0.846230 0.133355
Si Si2 0.818780 0.791618 0.942323
Si Si3 0.882079 0.701395 0.552775
Si Si4 0.457977 0.706446 0.283967
O O1 0.239584 0.708714 0.305869
O O2 0.403217 0.851712 0.218128
O O3 0.420668 0.674799 0.916113
O O4 0.344846 0.161517 0.069893
O O5 0.908701 0.789466 0.691232
O O6 0.734399 0.589941 0.975879
O O7 0.928482 0.396398 0.465635
O O8 0.925392 0.897375 0.364193
#
# Coordination Sequence:
#
# PCOD8050632 Si02
#       4
#     4   4   4   4
#     4  10  24  44  66  97 135 169 219 276 324 390
#     4  10  22  41  68  96 132 177 216 269 334 387
#     4  11  23  43  65  95 132 173 218 268 327 391
#     4  11  25  41  69  98 127 175 221 267 331 390
#
# _framework density 28.292767999999999
#
# number of rings (size 3 to 8) (size 9 to 14) (size 15 to 20)
#    0.000    1.500    0.000    4.500    0.000   15.000 
#    0.000    7.500    0.000    0.000    0.000    0.000 
#    0.000    0.000    0.000    0.000    0.000    0.000 
#
# Total GULP energy -99174.291551 kJ/mol
# GULP energy per Si atom -12396.786444 kJ/mol
# Density = 2.822837 g / cm^3
# Si number density = 28.292768 Si / 1000 Ang^3
#
#
#
# Elastic Constant Matrix: (Units=GPa)
#
#
# Indices 1 2 3 4 5 6 
#
# 1 118.1629 0.9245 19.7806 -0.0001 -1.0328 -0.0042
# 2 0.9245 70.1584 47.5180 0.0001 -25.7037 -0.0073
# 3 19.7806 47.5180 147.2883 0.0002 -20.3317 -0.0003
# 4 -0.0001 0.0001 0.0002 67.3427 0.0001 4.5457
# 5 -1.0328 -25.7037 -20.3317 0.0001 49.3822 -0.0004
# 6 -0.0042 -0.0073 -0.0003 4.5457 -0.0004 27.5256
#
#
#
# Elastic Compliance Matrix: (Units=1/GPa)
#
#
# Indices 1 2 3 4 5 6 
#
# 1 0.008699 0.000882 -0.001446 0.000000 0.000045 0.000002
# 2 0.000882 0.021384 -0.005809 0.000000 0.008758 0.000006
# 3 -0.001446 -0.005809 0.008944 0.000000 0.000629 -0.000002
# 4 0.000000 0.000000 0.000000 0.015017 0.000000 -0.002480
# 5 0.000045 0.008758 0.000629 0.000000 0.025069 0.000003
# 6 0.000002 0.000006 -0.000002 -0.002480 0.000003 0.036739
#
#
# Mechanical properties :
#
#
# Convention : Reuss Voigt Hill
#
# Bulk Modulus (GPa) = 38.05062 52.45065 45.25063
# Shear Modulus (GPa) = 36.40101 46.67588 41.53844
#
# Velocity S-wave (km/s) = 3.59079 4.06611 3.83582
# Velocity P-wave (km/s) = 5.53803 6.37363 5.97047
#
# Compressibility (1/GPa) = 0.02628078
#
# Stress axis : x y z
#
# Youngs Moduli (GPa) = 114.96221 46.76303 111.80172
#
# Poissons Ratio (x) = -0.04123 0.16171
# Poissons Ratio (y) = -0.10135 0.64940
# Poissons Ratio (z) = 0.16628 0.27162
#
# Static dielectric constant tensor:
#      x y z
#    x 5.236580 0.000000 -0.145940 
#    y 0.000000 4.890280 0.000000 
#    z -0.145940 0.000000 5.749610 
# 
# 
# High freq. dielectric constant tensor:
#      x y z
#    x 2.166500 0.000000 -0.007120 
#    y 0.000000 2.140280 0.000000 
#    z -0.007120 0.000000 2.178210 
# 
# From -- ./inp_files/28238.got.cif
#   From: 2010.03.12/outbox.cif.g09.slc.cpg/sg5_15_cif.got.tgz:28238.got - 2010.03.31 09:47:26.
