data_PCOD8050025
_publ_section_title
;
Structure prediction by ZEFSAII (Michael W. Deem and Ramdas Pophale) SiO2 
 PCOD8050025
Probable space group: C 2
;
_chemical_formula_sum "Si O2"
_cell_formula_units_Z 24
_cell_length_a 26.809052
_cell_length_b 7.431419
_cell_length_c 11.704303
_cell_angle_alpha 90.000000
_cell_angle_beta 28.879170
_cell_angle_gamma 90.000000
_cell_volume 1126.194983
_symmetry_space_group_name_H-M "C 2"
_symmetry_group_IT_number 5
_symmetry_cell_setting 'monoclinic'
loop_
_space_group_symop_operation_xyz
x,y,z
-x,y,-z
1/2+x,1/2+y,z
1/2-x,1/2+y,-z
loop_
_atom_site_type_symbol
_atom_site_label
_atom_site_fract_x
_atom_site_fract_y
_atom_site_fract_z
Si Si1 0.387350 0.106060 0.686071
Si Si2 0.509623 0.634895 0.108471
Si Si3 0.685983 0.873033 0.497447
Si Si4 0.739175 0.753389 0.636371
Si Si5 0.273685 0.756135 0.823903
Si Si6 0.622299 0.422450 0.467611
O O1 0.500000 0.048797 0.500000
O O2 0.395790 0.235507 0.559722
O O3 0.328454 0.923914 0.774320
O O4 0.331724 0.213175 0.899445
O O5 0.431376 0.803461 0.275934
O O6 0.480892 0.479040 0.256281
O O7 0.500000 0.554088 0.000000
O O8 0.623745 0.704234 0.907827
O O9 0.744284 0.811044 0.494644
O O10 0.751178 0.802877 0.258066
O O11 0.682706 0.087745 0.504086
O O12 0.783348 0.909229 0.629794
O O13 0.348224 0.580996 0.680189
#
# Coordination Sequence:
#
# PCOD8050025 Si02
#       6
#     4   4   4   4   4   4
#     4  12  27  45  69  96 133 183 233 278 339 387
#     4   9  21  40  63 100 138 171 218 269 330 406
#     4  10  21  39  67  98 135 174 222 266 337 402
#     4  11  21  42  68  99 142 176 211 284 336 402
#     4  11  24  48  66  99 136 172 235 284 320 405
#     4  11  24  44  72  99 134 178 227 276 344 402
#
# _framework density 21.310697000000001
#
# number of rings (size 3 to 8) (size 9 to 14) (size 15 to 20)
#    0.000    1.333    3.333    3.000    2.333    3.333 
#    0.000    9.167    0.000    0.000    0.000    0.000 
#    0.000    0.000    0.000    0.000    0.000    0.000 
#
# Total GULP energy -148817.543072 kJ/mol
# GULP energy per Si atom -12401.461923 kJ/mol
# Density = 2.126219 g / cm^3
# Si number density = 21.310697 Si / 1000 Ang^3
#
#
#
# Elastic Constant Matrix: (Units=GPa)
#
#
# Indices 1 2 3 4 5 6 
#
# 1 89.8877 32.8737 53.4836 0.0000 9.7040 0.0000
# 2 32.8737 109.7813 38.9790 0.0000 3.2348 0.0000
# 3 53.4836 38.9790 129.0909 0.0000 14.2948 0.0000
# 4 0.0000 0.0000 0.0000 25.9539 0.0000 2.9988
# 5 9.7040 3.2348 14.2948 0.0000 30.1515 0.0000
# 6 0.0000 0.0000 0.0000 2.9988 0.0000 31.9917
#
#
#
# Elastic Compliance Matrix: (Units=1/GPa)
#
#
# Indices 1 2 3 4 5 6 
#
# 1 0.015546 -0.002677 -0.005394 0.000000 -0.002159 0.000000
# 2 -0.002677 0.010668 -0.002196 0.000000 0.000758 0.000000
# 3 -0.005394 -0.002196 0.011004 0.000000 -0.003245 0.000000
# 4 0.000000 0.000000 0.000000 0.038952 0.000000 -0.003651
# 5 -0.002159 0.000758 -0.003245 0.000000 0.035318 0.000000
# 6 0.000000 0.000000 0.000000 -0.003651 0.000000 0.031600
#
#
# Mechanical properties :
#
#
# Convention : Reuss Voigt Hill
#
# Bulk Modulus (GPa) = 59.93438 64.38138 62.15788
# Shear Modulus (GPa) = 29.55388 31.18099 30.36743
#
# Velocity S-wave (km/s) = 3.72803 3.82928 3.77899
# Velocity P-wave (km/s) = 6.83492 7.05887 6.94779
#
# Compressibility (1/GPa) = 0.01668492
#
# Stress axis : x y z
#
# Youngs Moduli (GPa) = 64.32434 93.73869 90.87908
#
# Poissons Ratio (x) = 0.25090 0.49017
# Poissons Ratio (y) = 0.17217 0.19959
# Poissons Ratio (z) = 0.34694 0.20587
#
# Static dielectric constant tensor:
#      x y z
#    x 3.821750 0.000000 0.295140 
#    y 0.000000 3.996270 0.000000 
#    z 0.295140 0.000000 3.898320 
# 
# 
# High freq. dielectric constant tensor:
#      x y z
#    x 1.831690 0.000000 0.019090 
#    y 0.000000 1.845030 0.000000 
#    z 0.019090 0.000000 1.834180 
# 
# From -- ./inp_files/47851.got.cif
#   From: 2010.03.12/outbox.cif.g09.slc.cpg/sg5_24_cif.got.tgz:47851.got - 2010.03.31 09:47:26.
