data_PCOD8050788
_publ_section_title
;
Structure prediction by ZEFSAII (Michael W. Deem and Ramdas Pophale) SiO2 
 PCOD8050788
Probable space group: C 2
;
_chemical_formula_sum "Si O2"
_cell_formula_units_Z 28
_cell_length_a 9.759323
_cell_length_b 7.703070
_cell_length_c 25.877907
_cell_angle_alpha 90.000000
_cell_angle_beta 37.903247
_cell_angle_gamma 90.000000
_cell_volume 1195.127802
_symmetry_space_group_name_H-M "C 2"
_symmetry_group_IT_number 5
_symmetry_cell_setting 'monoclinic'
loop_
_space_group_symop_operation_xyz
x,y,z
-x,y,-z
1/2+x,1/2+y,z
1/2-x,1/2+y,-z
loop_
_atom_site_type_symbol
_atom_site_label
_atom_site_fract_x
_atom_site_fract_y
_atom_site_fract_z
Si Si1 0.313286 0.290030 0.595700
Si Si2 0.328080 0.187224 0.703697
Si Si3 0.045778 0.977980 0.929971
Si Si4 0.112786 0.585946 0.019116
Si Si5 0.484418 0.995492 0.170210
Si Si6 0.186843 0.195863 0.404257
Si Si7 0.827611 0.301659 0.704141
O O1 0.500000 0.227184 0.500000
O O2 0.333217 0.177402 0.640752
O O3 0.340711 0.492997 0.600538
O O4 0.073375 0.243071 0.645375
O O5 0.154441 0.323659 0.777596
O O6 0.574323 0.244161 0.644903
O O7 0.267592 0.994583 0.743032
O O8 0.314949 0.997893 0.846262
O O9 0.979836 0.777326 0.947185
O O10 0.000000 0.058646 0.000000
O O11 0.887120 0.078454 0.935191
O O12 0.054232 0.479319 0.089019
O O13 0.000000 0.505402 0.000000
O O14 0.349200 0.171806 0.218285
O O15 0.169885 0.306810 0.357947
O O16 0.000000 0.258988 0.500000
#
# Coordination Sequence:
#
# PCOD8050788 Si02
#       7
#     4   4   4   4   4   4   4
#     4  10  22  43  68  97 142 187 236 290 333 403
#     4  11  25  43  67 103 138 182 238 279 347 401
#     4   9  22  47  69 101 135 172 220 272 342 414
#     4  10  23  49  75 101 131 180 224 270 346 421
#     4  11  25  48  70 100 150 171 219 300 332 405
#     4  10  22  43  67  98 141 187 239 286 335 406
#     4  11  25  43  67 104 136 185 237 275 354 396
#
# _framework density 23.428457000000002
#
# number of rings (size 3 to 8) (size 9 to 14) (size 15 to 20)
#    0.000    1.714    1.429    0.857    4.000    2.286 
#   20.571    0.000    0.000    0.000    0.000    0.000 
#    0.000    0.000    0.000    0.000    0.000    0.000 
#
# Total GULP energy -173537.710173 kJ/mol
# GULP energy per Si atom -12395.550727 kJ/mol
# Density = 2.337513 g / cm^3
# Si number density = 23.428457 Si / 1000 Ang^3
#
#
#
# Elastic Constant Matrix: (Units=GPa)
#
#
# Indices 1 2 3 4 5 6 
#
# 1 195.6449 44.4241 64.9724 0.0000 -31.6404 0.0001
# 2 44.4241 89.1992 57.3367 0.0001 -25.5672 0.0000
# 3 64.9724 57.3367 126.6550 -0.0005 -29.4056 -0.0015
# 4 0.0000 0.0001 -0.0005 30.3828 0.0000 -18.2125
# 5 -31.6404 -25.5672 -29.4056 0.0000 53.9344 0.0000
# 6 0.0001 0.0000 -0.0015 -18.2125 0.0000 13.8821
#
#
#
# Elastic Compliance Matrix: (Units=1/GPa)
#
#
# Indices 1 2 3 4 5 6 
#
# 1 0.006469 -0.001153 -0.002338 -0.000001 0.001973 -0.000002
# 2 -0.001153 0.016857 -0.006116 -0.000003 0.003980 -0.000004
# 3 -0.002338 -0.006116 0.012448 0.000005 0.002516 0.000008
# 4 -0.000001 -0.000003 0.000005 0.154108 0.000001 0.202181
# 5 0.001973 0.003980 0.002516 0.000001 0.022957 0.000001
# 6 -0.000002 -0.000004 0.000008 0.202181 0.000001 0.337284
#
#
# Mechanical properties :
#
#
# Convention : Reuss Voigt Hill
#
# Bulk Modulus (GPa) = 60.38763 82.77392 71.58078
# Shear Modulus (GPa) = 8.69783 35.95758 22.32770
#
# Velocity S-wave (km/s) = 1.92888 3.92188 3.09045
# Velocity P-wave (km/s) = 5.54906 7.47766 6.58435
#
# Compressibility (1/GPa) = 0.01655968
#
# Stress axis : x y z
#
# Youngs Moduli (GPa) = 154.58855 59.32246 80.33689
#
# Poissons Ratio (x) = 0.06840 0.18785
# Poissons Ratio (y) = 0.17824 0.49131
# Poissons Ratio (z) = 0.36147 0.36279
#
# Static dielectric constant tensor:
#      x y z
#    x 4.659570 0.000000 -0.139610 
#    y 0.000000 3.947460 0.000000 
#    z -0.139610 0.000000 4.323420 
# 
# 
# High freq. dielectric constant tensor:
#      x y z
#    x 1.944000 0.000000 -0.008390 
#    y 0.000000 1.921480 0.000000 
#    z -0.008390 0.000000 1.930540 
# 
# From -- ./inp_files/70134.got.cif
#   From: 2010.03.12/outbox.cif.g09.slc.cpg/sg5_36_cif.got.tgz:70134.got - 2010.03.31 09:47:26.
