data_PCOD8050203
_publ_section_title
;
Structure prediction by ZEFSAII (Michael W. Deem and Ramdas Pophale) SiO2 
 PCOD8050203
Probable space group: C 2
;
_chemical_formula_sum "Si O2"
_cell_formula_units_Z 18
_cell_length_a 5.324916
_cell_length_b 18.378913
_cell_length_c 7.450530
_cell_angle_alpha 90.000000
_cell_angle_beta 111.995884
_cell_angle_gamma 90.000000
_cell_volume 676.080197
_symmetry_space_group_name_H-M "C 2"
_symmetry_group_IT_number 5
_symmetry_cell_setting 'monoclinic'
loop_
_space_group_symop_operation_xyz
x,y,z
-x,y,-z
1/2+x,1/2+y,z
1/2-x,1/2+y,-z
loop_
_atom_site_type_symbol
_atom_site_label
_atom_site_fract_x
_atom_site_fract_y
_atom_site_fract_z
Si Si1 0.022239 0.883670 0.295627
Si Si2 0.179873 0.516496 0.722103
Si Si3 0.164635 0.679888 0.729394
Si Si4 0.841966 0.250765 0.281822
Si Si5 0.000000 0.421170 0.000000
O O1 0.272181 0.837454 0.276938
O O2 0.000000 0.863189 0.500000
O O3 0.059037 0.969725 0.268384
O O4 0.746643 0.866235 0.113967
O O5 0.258800 0.597872 0.801240
O O6 0.032919 0.474196 0.840352
O O7 0.000000 0.520707 0.500000
O O8 0.440197 0.728937 0.813371
O O9 0.000000 0.686567 0.500000
O O10 0.948293 0.709697 0.818028
O O11 0.000000 0.223395 0.500000
#
# Coordination Sequence:
#
# PCOD8050203 Si02
#       5
#     4   4   4   4   2
#     4  12  25  45  79 110 155 204 260 313 389 458
#     4  11  24  46  78 110 151 203 259 316 388 459
#     4   9  21  39  73 109 146 195 253 311 381 456
#     4  10  21  41  73 112 145 197 253 310 383 454
#     4  12  28  46  76 116 154 202 260 328 370 462
#
# _framework density 26.624061999999999
#
# number of rings (size 3 to 8) (size 9 to 14) (size 15 to 20)
#    0.000    1.333    2.222    3.333    6.222    0.889 
#    0.000    0.000    9.778    0.000    0.000    0.000 
#    0.000    0.000    0.000    0.000    0.000    0.000 
#
# Total GULP energy -111524.898914 kJ/mol
# GULP energy per Si atom -12391.655435 kJ/mol
# Density = 2.656346 g / cm^3
# Si number density = 26.624062 Si / 1000 Ang^3
#
#
#
# Elastic Constant Matrix: (Units=GPa)
#
#
# Indices 1 2 3 4 5 6 
#
# 1 178.7446 74.3632 41.2991 0.0000 42.6399 0.0000
# 2 74.3632 180.8023 17.6225 0.0000 16.9593 0.0000
# 3 41.2991 17.6225 75.8612 0.0000 0.3387 0.0000
# 4 0.0000 0.0000 0.0000 2.4544 0.0000 15.0526
# 5 42.6399 16.9593 0.3387 0.0000 37.6749 0.0000
# 6 0.0000 0.0000 0.0000 15.0526 0.0000 45.6095
#
#
#
# Elastic Compliance Matrix: (Units=1/GPa)
#
#
# Indices 1 2 3 4 5 6 
#
# 1 0.010412 -0.002816 -0.004967 0.000000 -0.010472 0.000000
# 2 -0.002816 0.006674 -0.000018 0.000000 0.000183 0.000000
# 3 -0.004967 -0.000018 0.015866 0.000000 0.005488 0.000000
# 4 0.000000 0.000000 0.000000 -0.397869 0.000000 0.131309
# 5 -0.010472 0.000183 0.005488 0.000000 0.038263 0.000000
# 6 0.000000 0.000000 0.000000 0.131309 0.000000 -0.021411
#
#
# Mechanical properties :
#
#
# Convention : Reuss Voigt Hill
#
# Bulk Modulus (GPa) = 57.64133 77.99753 67.81943
# Shear Modulus (GPa) = -15.30551 37.28931 10.99190
#
# Velocity S-wave (km/s) = -2.40026 3.74650 2.03409
# Velocity P-wave (km/s) = 3.74372 6.93358 5.57180
#
# Compressibility (1/GPa) = 0.01734866
#
# Stress axis : x y z
#
# Youngs Moduli (GPa) = 96.04423 149.84235 63.02812
#
# Poissons Ratio (x) = 0.42195 0.31308
# Poissons Ratio (y) = 0.27045 0.00114
# Poissons Ratio (z) = 0.47709 0.00271
#
# Static dielectric constant tensor:
#      x y z
#    x 5.066690 0.000000 0.120290 
#    y 0.000000 5.008640 0.000000 
#    z 0.120290 0.000000 4.695570 
# 
# 
# High freq. dielectric constant tensor:
#      x y z
#    x 2.074890 0.000000 0.006330 
#    y 0.000000 2.064840 0.000000 
#    z 0.006330 0.000000 2.069470 
# 
# From -- ./inp_files/12152.got.cif
#   From: 2010.03.12/outbox.cif.g09.slc.cpg/sg5_7_cif.got.tgz:12152.got - 2010.03.31 09:47:26.
