data_PCOD8050227
_publ_section_title
;
Structure prediction by ZEFSAII (Michael W. Deem and Ramdas Pophale) SiO2 
 PCOD8050227
Probable space group: C 2
;
_chemical_formula_sum "Si O2"
_cell_formula_units_Z 26
_cell_length_a 30.321279
_cell_length_b 6.623717
_cell_length_c 19.766915
_cell_angle_alpha 90.000000
_cell_angle_beta 163.433101
_cell_angle_gamma 90.000000
_cell_volume 1131.978601
_symmetry_space_group_name_H-M "C 2"
_symmetry_group_IT_number 5
_symmetry_cell_setting 'monoclinic'
loop_
_space_group_symop_operation_xyz
x,y,z
-x,y,-z
1/2+x,1/2+y,z
1/2-x,1/2+y,-z
loop_
_atom_site_type_symbol
_atom_site_label
_atom_site_fract_x
_atom_site_fract_y
_atom_site_fract_z
Si Si1 0.173796 0.448000 0.741976
Si Si2 0.402842 0.106153 0.663587
Si Si3 0.500000 0.108264 0.000000
Si Si4 0.616362 0.385598 0.066275
Si Si5 0.575175 0.767154 0.209763
Si Si6 0.885181 0.683852 0.141843
Si Si7 0.631080 0.356395 0.738893
O O1 0.188870 0.688551 0.770808
O O2 0.000000 0.370226 0.500000
O O3 0.221761 0.381256 0.736363
O O4 0.294518 0.366699 0.974304
O O5 0.486481 0.279987 0.829476
O O6 0.438496 0.872632 0.736734
O O7 0.221781 0.131570 0.408461
O O8 0.455827 0.130055 0.663511
O O9 0.628102 0.253541 0.152279
O O10 0.412939 0.963100 0.820491
O O11 0.570194 0.617969 0.014634
O O12 0.934385 0.739712 0.290706
O O13 0.769566 0.494582 0.967429
O O14 0.500000 0.472832 0.500000
#
# Coordination Sequence:
#
# PCOD8050227 Si02
#       7
#     4   4   2   4   4   4   4
#     4  10  22  43  67  96 130 177 226 277 337 400
#     4  10  22  38  68  92 122 173 222 269 341 392
#     4  10  24  40  60  98 134 170 216 268 338 390
#     4  10  21  42  65  93 134 171 216 278 330 399
#     4  11  20  43  63  93 131 169 219 274 326 406
#     4  11  22  44  64  96 133 173 225 282 335 403
#     4  11  23  43  67  96 134 175 226 277 339 403
#
# _framework density 22.968630999999998
#
# number of rings (size 3 to 8) (size 9 to 14) (size 15 to 20)
#    0.000    1.538    3.077    1.846    0.000    0.000 
#   22.154    0.000    0.000    0.000    0.000    0.000 
#    0.000    0.000    0.000    0.000    0.000    0.000 
#
# Total GULP energy -161106.857046 kJ/mol
# GULP energy per Si atom -12392.835157 kJ/mol
# Density = 2.291635 g / cm^3
# Si number density = 22.968631 Si / 1000 Ang^3
#
#
#
# Elastic Constant Matrix: (Units=GPa)
#
#
# Indices 1 2 3 4 5 6 
#
# 1 137.9368 39.8803 44.0966 -0.0001 15.5029 0.0002
# 2 39.8803 108.5170 15.0591 -0.0006 10.1452 0.0011
# 3 44.0966 15.0591 71.9914 -0.0001 19.3958 0.0002
# 4 -0.0001 -0.0006 -0.0001 -498.3507 0.0000 894.7205
# 5 15.5029 10.1452 19.3958 0.0000 36.8958 0.0000
# 6 0.0002 0.0011 0.0002 894.7205 0.0000-1486.6303
#
#
#
# Elastic Compliance Matrix: (Units=1/GPa)
#
#
# Indices 1 2 3 4 5 6 
#
# 1 0.009814 -0.002822 -0.005265 0.000000 -0.000580 0.000000
# 2 -0.002822 0.010409 0.000003 0.000000 -0.001678 0.000000
# 3 -0.005265 0.000003 0.019244 0.000000 -0.007905 0.000000
# 4 0.000000 0.000000 0.000000 0.024918 0.000000 0.014997
# 5 -0.000580 -0.001678 -0.007905 0.000000 0.031964 0.000000
# 6 0.000000 0.000000 0.000000 0.014997 0.000000 0.008353
#
#
# Mechanical properties :
#
#
# Convention : Reuss Voigt Hill
#
# Bulk Modulus (GPa) = 42.91753 57.39080 50.15416
# Shear Modulus (GPa) = 38.86968 -374.98976 -168.06004
#
# Velocity S-wave (km/s) = 4.11821 -12.79125 -8.56319
# Velocity P-wave (km/s) = 6.42952 13.89655 8.71135
#
# Compressibility (1/GPa) = 0.02330050
#
# Stress axis : x y z
#
# Youngs Moduli (GPa) = 101.89773 96.07452 51.96305
#
# Poissons Ratio (x) = 0.27110 0.27357
# Poissons Ratio (y) = 0.28753 -0.00017
# Poissons Ratio (z) = 0.53645 -0.00031
#
# Static dielectric constant tensor:
#      x y z
#    x 16.910090 0.000000 -3.853170 
#    y 0.000000 4.229130 0.000000 
#    z -3.853170 0.000000 4.999630 
# 
# 
# High freq. dielectric constant tensor:
#      x y z
#    x 1.916840 0.000000 0.006350 
#    y 0.000000 1.919650 0.000000 
#    z 0.006350 0.000000 1.876200 
# 
# From -- ./inp_files/67697.got.cif
#   From: 2010.03.12/outbox.cif.g09.slc.cpg/sg5_34_cif.got.tgz:67697.got - 2010.03.31 09:47:26.
