data_PCOD8050359
_publ_section_title
;
Structure prediction by ZEFSAII (Michael W. Deem and Ramdas Pophale) SiO2 
 PCOD8050359
Probable space group: C 2
;
_chemical_formula_sum "Si O2"
_cell_formula_units_Z 20
_cell_length_a 13.982613
_cell_length_b 7.755729
_cell_length_c 19.228580
_cell_angle_alpha 90.000000
_cell_angle_beta 155.200712
_cell_angle_gamma 90.000000
_cell_volume 874.639026
_symmetry_space_group_name_H-M "C 2"
_symmetry_group_IT_number 5
_symmetry_cell_setting 'monoclinic'
loop_
_space_group_symop_operation_xyz
x,y,z
-x,y,-z
1/2+x,1/2+y,z
1/2-x,1/2+y,-z
loop_
_atom_site_type_symbol
_atom_site_label
_atom_site_fract_x
_atom_site_fract_y
_atom_site_fract_z
Si Si1 0.046155 0.168380 0.375102
Si Si2 0.500000 0.607743 0.000000
Si Si3 0.533882 0.276708 0.714011
Si Si4 0.993163 0.558227 0.825036
Si Si5 0.296897 0.328680 0.950386
Si Si6 0.500000 0.596611 0.500000
O O1 0.881546 0.307377 0.230504
O O2 0.309506 0.201769 0.526844
O O3 0.014061 0.202546 0.436886
O O4 0.977013 0.982348 0.299662
O O5 0.273272 0.721208 0.836675
O O6 0.469430 0.482859 0.046365
O O7 0.526304 0.203466 0.787438
O O8 0.149583 0.390184 0.919858
O O9 0.733732 0.486886 0.658357
O O10 0.064110 0.654168 0.943089
#
# Coordination Sequence:
#
# PCOD8050359 Si02
#       6
#     4   2   4   4   4   2
#     4  11  22  41  63  87 123 166 204 254 304 360
#     4  10  22  38  60  92 122 160 206 246 298 366
#     4  10  22  40  61  87 123 163 207 251 302 361
#     4  10  22  39  60  90 120 158 203 248 304 367
#     4  11  22  40  63  89 124 162 201 252 307 361
#     4  10  22  36  58  86 114 152 204 244 296 354
#
# _framework density 22.866578000000001
#
# number of rings (size 3 to 8) (size 9 to 14) (size 15 to 20)
#    0.000    1.600    0.000    6.000    0.000    7.200 
#    0.000    2.000    0.000    9.600    0.000    0.000 
#    0.000    0.000    0.000    0.000    0.000    0.000 
#
# Total GULP energy -123899.955612 kJ/mol
# GULP energy per Si atom -12389.995561 kJ/mol
# Density = 2.281453 g / cm^3
# Si number density = 22.866578 Si / 1000 Ang^3
#
#
#
# Elastic Constant Matrix: (Units=GPa)
#
#
# Indices 1 2 3 4 5 6 
#
# 1 52.7256 8.3896 39.5510 -0.0075 21.5390 -0.0002
# 2 8.3896 75.0454 31.1905 -0.0249 13.0001 0.0004
# 3 39.5510 31.1905 146.1651 -0.0410 33.5645 -0.0007
# 4 -0.0075 -0.0249 -0.0410 34.5409 -0.0004 -6.2095
# 5 21.5390 13.0001 33.5645 -0.0004 48.1374 0.0004
# 6 -0.0002 0.0004 -0.0007 -6.2095 0.0004 27.9497
#
#
#
# Elastic Compliance Matrix: (Units=1/GPa)
#
#
# Indices 1 2 3 4 5 6 
#
# 1 0.026223 0.000718 -0.005370 0.000000 -0.008183 0.000000
# 2 0.000718 0.014824 -0.002815 0.000008 -0.002362 0.000001
# 3 -0.005370 -0.002815 0.009726 0.000009 -0.003619 0.000002
# 4 0.000000 0.000008 0.000009 0.030156 -0.000008 0.006700
# 5 -0.008183 -0.002362 -0.003619 -0.000008 0.027596 -0.000002
# 6 0.000000 0.000001 0.000002 0.006700 -0.000002 0.037267
#
#
# Mechanical properties :
#
#
# Convention : Reuss Voigt Hill
#
# Bulk Modulus (GPa) = 27.90266 48.02204 37.96235
# Shear Modulus (GPa) = 28.95646 35.11260 32.03453
#
# Velocity S-wave (km/s) = 3.56240 3.92285 3.74696
# Velocity P-wave (km/s) = 5.39906 6.44709 5.94621
#
# Compressibility (1/GPa) = 0.03583888
#
# Stress axis : x y z
#
# Youngs Moduli (GPa) = 38.13487 67.45710 102.81355
#
# Poissons Ratio (x) = -0.04842 0.55208
# Poissons Ratio (y) = -0.02737 0.28945
# Poissons Ratio (z) = 0.20477 0.18991
#
# Static dielectric constant tensor:
#      x y z
#    x 4.113440 0.000000 0.351300 
#    y 0.000000 3.733370 0.000000 
#    z 0.351300 0.000000 4.540870 
# 
# 
# High freq. dielectric constant tensor:
#      x y z
#    x 1.888950 0.000000 0.016040 
#    y 0.000000 1.878810 0.000000 
#    z 0.016040 0.000000 1.928960 
# 
# From -- ./inp_files/18373.got.cif
#   From: 2010.03.12/outbox.cif.g09.slc.cpg/sg5_10_cif.got.tgz:18373.got - 2010.03.31 09:47:26.
