data_PCOD8050898
_publ_section_title
;
Structure prediction by ZEFSAII (Michael W. Deem and Ramdas Pophale) SiO2 
 PCOD8050898
Probable space group: C 2
;
_chemical_formula_sum "Si O2"
_cell_formula_units_Z 20
_cell_length_a 10.859396
_cell_length_b 9.292260
_cell_length_c 10.671225
_cell_angle_alpha 90.000000
_cell_angle_beta 55.442404
_cell_angle_gamma 90.000000
_cell_volume 886.818299
_symmetry_space_group_name_H-M "C 2"
_symmetry_group_IT_number 5
_symmetry_cell_setting 'monoclinic'
loop_
_space_group_symop_operation_xyz
x,y,z
-x,y,-z
1/2+x,1/2+y,z
1/2-x,1/2+y,-z
loop_
_atom_site_type_symbol
_atom_site_label
_atom_site_fract_x
_atom_site_fract_y
_atom_site_fract_z
Si Si1 0.332019 0.970950 0.582797
Si Si2 0.364537 0.700447 0.405065
Si Si3 0.808068 0.115563 0.837612
Si Si4 0.276544 0.937711 0.888499
Si Si5 0.582308 0.915796 0.829596
O O1 0.500000 0.027612 0.500000
O O2 0.330974 0.804046 0.541504
O O3 0.243418 0.985255 0.765261
O O4 0.250001 0.067449 0.525573
O O5 0.532292 0.639102 0.319774
O O6 0.336964 0.786386 0.290329
O O7 0.741698 0.267947 0.920725
O O8 0.698632 0.040308 0.800333
O O9 0.827882 0.018579 0.951200
O O10 0.451758 0.975541 0.813530
O O11 0.500000 0.852272 0.000000
#
# Coordination Sequence:
#
# PCOD8050898 Si02
#       5
#     4   4   4   4   4
#     4  12  26  47  67  98 142 180 232 278 344 409
#     4  11  27  44  70  96 139 187 223 284 346 401
#     4  10  22  45  69 102 139 175 230 285 338 402
#     4  10  23  43  72 102 136 178 229 284 335 406
#     4   9  20  42  71  97 135 174 221 282 335 397
#
# _framework density 22.552533
#
# number of rings (size 3 to 8) (size 9 to 14) (size 15 to 20)
#    0.000    1.600    4.000    0.000   11.200    1.600 
#   10.800    0.000    0.000    0.000    0.000    0.000 
#    0.000    0.000    0.000    0.000    0.000    0.000 
#
# Total GULP energy -123996.953150 kJ/mol
# GULP energy per Si atom -12399.695315 kJ/mol
# Density = 2.250120 g / cm^3
# Si number density = 22.552533 Si / 1000 Ang^3
#
#
#
# Elastic Constant Matrix: (Units=GPa)
#
#
# Indices 1 2 3 4 5 6 
#
# 1 98.7849 51.2248 26.4120 0.0000 3.0321 0.0000
# 2 51.2248 98.7549 14.4242 0.0000 -14.7777 0.0000
# 3 26.4120 14.4242 54.6505 0.0000 11.4514 0.0000
# 4 0.0000 0.0000 0.0000 46.8696 0.0000 2.0166
# 5 3.0321 -14.7777 11.4514 0.0000 29.8995 0.0000
# 6 0.0000 0.0000 0.0000 2.0166 0.0000 50.3063
#
#
#
# Elastic Compliance Matrix: (Units=1/GPa)
#
#
# Indices 1 2 3 4 5 6 
#
# 1 0.015624 -0.007984 -0.004658 0.000000 -0.003747 0.000000
# 2 -0.007984 0.016067 -0.002409 0.000000 0.009673 0.000000
# 3 -0.004658 -0.002409 0.023197 0.000000 -0.009603 0.000000
# 4 0.000000 0.000000 0.000000 0.021373 0.000000 -0.000857
# 5 -0.003747 0.009673 -0.009603 0.000000 0.042284 0.000000
# 6 0.000000 0.000000 0.000000 -0.000857 0.000000 0.019913
#
#
# Mechanical properties :
#
#
# Convention : Reuss Voigt Hill
#
# Bulk Modulus (GPa) = 40.34713 48.47914 44.41313
# Shear Modulus (GPa) = 28.27700 36.09036 32.18368
#
# Velocity S-wave (km/s) = 3.54479 4.00469 3.78174
# Velocity P-wave (km/s) = 5.88924 6.55180 6.22934
#
# Compressibility (1/GPa) = 0.02478491
#
# Stress axis : x y z
#
# Youngs Moduli (GPa) = 64.00495 62.23949 43.10841
#
# Poissons Ratio (x) = 0.49694 0.20082
# Poissons Ratio (y) = 0.51104 0.10384
# Poissons Ratio (z) = 0.29816 0.14992
#
# Static dielectric constant tensor:
#      x y z
#    x 4.059840 0.000000 0.295520 
#    y 0.000000 4.018510 0.000000 
#    z 0.295520 0.000000 4.067780 
# 
# 
# High freq. dielectric constant tensor:
#      x y z
#    x 1.885690 0.000000 0.021160 
#    y 0.000000 1.880660 0.000000 
#    z 0.021160 0.000000 1.890590 
# 
# From -- ./inp_files/38162.got.cif
#   From: 2010.03.12/outbox.cif.g09.slc.cpg/sg5_20_cif.got.tgz:38162.got - 2010.03.31 09:47:26.
