data_PCOD8050806
_publ_section_title
;
Structure prediction by ZEFSAII (Michael W. Deem and Ramdas Pophale) SiO2 
 PCOD8050806
Probable space group: C 2
;
_chemical_formula_sum "Si O2"
_cell_formula_units_Z 22
_cell_length_a 11.165251
_cell_length_b 12.061402
_cell_length_c 14.482250
_cell_angle_alpha 90.000000
_cell_angle_beta 149.134143
_cell_angle_gamma 90.000000
_cell_volume 1000.564164
_symmetry_space_group_name_H-M "C 2"
_symmetry_group_IT_number 5
_symmetry_cell_setting 'monoclinic'
loop_
_space_group_symop_operation_xyz
x,y,z
-x,y,-z
1/2+x,1/2+y,z
1/2-x,1/2+y,-z
loop_
_atom_site_type_symbol
_atom_site_label
_atom_site_fract_x
_atom_site_fract_y
_atom_site_fract_z
Si Si1 0.145228 0.880020 0.509516
Si Si2 0.087350 0.181418 0.249209
Si Si3 0.000000 0.117818 0.000000
Si Si4 0.436118 0.232906 0.063125
Si Si5 0.535969 0.437377 0.802839
Si Si6 0.075068 0.525311 0.832736
O O1 0.208457 0.750659 0.566902
O O2 0.989401 0.886256 0.315301
O O3 0.000000 0.926450 0.500000
O O4 0.376724 0.954437 0.651780
O O5 0.114675 0.050845 0.290965
O O6 0.106633 0.195295 0.150939
O O7 0.843733 0.233176 0.120551
O O8 0.790725 0.043537 0.904279
O O9 0.545750 0.347819 0.174028
O O10 0.532818 0.138338 0.196844
O O11 0.500000 0.211569 0.000000
O O12 0.810081 0.462053 0.003058
#
# Coordination Sequence:
#
# PCOD8050806 Si02
#       6
#     4   4   2   4   4   4
#     4  12  28  41  69 101 143 178 227 280 344 405
#     4  10  24  42  67 101 135 177 235 269 342 398
#     4   8  20  44  76  90 132 184 228 280 330 398
#     4  10  22  43  73  95 136 179 226 283 337 395
#     4  10  24  44  67  96 134 184 228 273 342 391
#     4  10  24  45  69 100 138 179 230 278 342 401
#
# _framework density 21.987596
#
# number of rings (size 3 to 8) (size 9 to 14) (size 15 to 20)
#    0.000    2.182    1.818    0.000   17.818    0.000 
#    0.000    7.273    0.000    0.000    0.000    0.000 
#    0.000    0.000    0.000    0.000    0.000    0.000 
#
# Total GULP energy -136340.021734 kJ/mol
# GULP energy per Si atom -12394.547430 kJ/mol
# Density = 2.193755 g / cm^3
# Si number density = 21.987596 Si / 1000 Ang^3
#
#
#
# Elastic Constant Matrix: (Units=GPa)
#
#
# Indices 1 2 3 4 5 6 
#
# 1 146.4731 41.6260 41.0614 0.0048 -17.0121 0.0019
# 2 41.6260 135.6423 28.5982 -0.0044 -5.8072 -0.0039
# 3 41.0614 28.5982 78.8426 0.0063 -14.5372 0.0009
# 4 0.0048 -0.0044 0.0063 32.1376 0.0023 -9.3885
# 5 -17.0121 -5.8072 -14.5372 0.0023 33.6594 -0.0012
# 6 0.0019 -0.0039 0.0009 -9.3885 -0.0012 19.9219
#
#
#
# Elastic Compliance Matrix: (Units=1/GPa)
#
#
# Indices 1 2 3 4 5 6 
#
# 1 0.008578 -0.001820 -0.003331 -0.000002 0.002583 -0.000002
# 2 -0.001820 0.008369 -0.002164 0.000003 -0.000410 0.000003
# 3 -0.003331 -0.002164 0.016107 -0.000004 0.004899 -0.000002
# 4 -0.000002 0.000003 -0.000004 0.036084 -0.000004 0.017005
# 5 0.002583 -0.000410 0.004899 -0.000004 0.033060 0.000000
# 6 -0.000002 0.000003 -0.000002 0.017005 0.000000 0.058210
#
#
# Mechanical properties :
#
#
# Convention : Reuss Voigt Hill
#
# Bulk Modulus (GPa) = 54.27431 64.83656 59.55543
# Shear Modulus (GPa) = 27.59701 33.78861 30.69281
#
# Velocity S-wave (km/s) = 3.54661 3.92435 3.74025
# Velocity P-wave (km/s) = 6.44274 7.07713 6.76737
#
# Compressibility (1/GPa) = 0.01842492
#
# Stress axis : x y z
#
# Youngs Moduli (GPa) = 116.57535 119.48354 62.08618
#
# Poissons Ratio (x) = 0.21740 0.20683
# Poissons Ratio (y) = 0.21211 0.13434
# Poissons Ratio (z) = 0.38835 0.25854
#
# Static dielectric constant tensor:
#      x y z
#    x 3.825430 0.000000 -0.182880 
#    y 0.000000 4.190790 0.000000 
#    z -0.182880 0.000000 3.796830 
# 
# 
# High freq. dielectric constant tensor:
#      x y z
#    x 1.853450 0.000000 -0.016510 
#    y 0.000000 1.877640 0.000000 
#    z -0.016510 0.000000 1.848080 
# 
# From -- ./inp_files/52911.got.cif
#   From: 2010.03.12/outbox.cif.g09.slc.cpg/sg5_27_cif.got.tgz:52911.got - 2010.03.31 09:47:26.
