data_PCOD8050318
_publ_section_title
;
Structure prediction by ZEFSAII (Michael W. Deem and Ramdas Pophale) SiO2 
 PCOD8050318
Probable space group: C 2
;
_chemical_formula_sum "Si O2"
_cell_formula_units_Z 30
_cell_length_a 25.187886
_cell_length_b 10.927910
_cell_length_c 13.582871
_cell_angle_alpha 90.000000
_cell_angle_beta 159.207441
_cell_angle_gamma 90.000000
_cell_volume 1327.183838
_symmetry_space_group_name_H-M "C 2"
_symmetry_group_IT_number 5
_symmetry_cell_setting 'monoclinic'
loop_
_space_group_symop_operation_xyz
x,y,z
-x,y,-z
1/2+x,1/2+y,z
1/2-x,1/2+y,-z
loop_
_atom_site_type_symbol
_atom_site_label
_atom_site_fract_x
_atom_site_fract_y
_atom_site_fract_z
Si Si1 0.734448 0.246350 0.850540
Si Si2 0.515672 0.370213 0.207872
Si Si3 0.255613 0.536765 0.739005
Si Si4 0.000000 0.273616 0.000000
Si Si5 0.294335 0.167675 0.547245
Si Si6 0.087920 0.728521 0.790352
Si Si7 0.818515 0.484352 0.763816
Si Si8 0.060337 0.476756 0.827147
O O1 0.785459 0.115558 0.891057
O O2 0.725619 0.253564 0.954630
O O3 0.569334 0.272856 0.525837
O O4 0.847341 0.352747 0.017289
O O5 0.591830 0.283723 0.256233
O O6 0.406633 0.300924 0.096895
O O7 0.644150 0.454616 0.480218
O O8 0.401235 0.463029 0.956692
O O9 0.207139 0.629487 0.569288
O O10 0.113621 0.444416 0.495814
O O11 0.120758 0.197546 0.274670
O O12 0.099850 0.353813 0.100658
O O13 0.349586 0.065871 0.720288
O O14 0.100005 0.581736 0.818208
O O15 0.899490 0.544366 0.998534
#
# Coordination Sequence:
#
# PCOD8050318 Si02
#       8
#     4   4   4   2   4   4   4   4
#     4  10  21  44  74  94 137 182 212 282 341 398
#     4  11  23  46  67  98 137 175 224 279 333 403
#     4  11  24  44  67  99 136 175 222 272 337 399
#     4  10  22  38  64  90 128 172 224 266 328 390
#     4  11  22  45  62  97 134 176 224 271 332 391
#     4  10  22  43  70  99 132 174 221 278 343 389
#     4  11  23  43  68  93 132 178 221 276 328 389
#     4  11  22  45  68 100 136 174 225 276 332 406
#
# _framework density 22.604251999999999
#
# number of rings (size 3 to 8) (size 9 to 14) (size 15 to 20)
#    0.000    1.333    4.000    2.400    1.867    0.000 
#   12.000    0.000    0.000    0.000    0.000    0.000 
#    0.000    0.000    0.000    0.000    0.000    0.000 
#
# Total GULP energy -185823.431843 kJ/mol
# GULP energy per Si atom -12388.228790 kJ/mol
# Density = 2.255280 g / cm^3
# Si number density = 22.604252 Si / 1000 Ang^3
#
#
#
# Elastic Constant Matrix: (Units=GPa)
#
#
# Indices 1 2 3 4 5 6 
#
# 1 93.0853 28.8337 34.3182 0.0000 11.1581 0.0000
# 2 28.8337 76.9859 46.6943 0.0000 9.9802 0.0000
# 3 34.3182 46.6943 90.0568 0.0000 8.6586 0.0000
# 4 0.0000 0.0000 0.0000 37.7478 0.0000 6.3060
# 5 11.1581 9.9802 8.6586 0.0000 18.7772 0.0000
# 6 0.0000 0.0000 0.0000 6.3060 0.0000 24.5340
#
#
#
# Elastic Compliance Matrix: (Units=1/GPa)
#
#
# Indices 1 2 3 4 5 6 
#
# 1 0.013314 -0.002250 -0.003413 0.000000 -0.005142 0.000000
# 2 -0.002250 0.019952 -0.008995 0.000000 -0.005119 0.000000
# 3 -0.003413 -0.008995 0.017175 0.000000 -0.001111 0.000000
# 4 0.000000 0.000000 0.000000 0.027680 0.000000 -0.007115
# 5 -0.005142 -0.005119 -0.001111 0.000000 0.059545 0.000000
# 6 0.000000 0.000000 0.000000 -0.007115 0.000000 0.042588
#
#
# Mechanical properties :
#
#
# Convention : Reuss Voigt Hill
#
# Bulk Modulus (GPa) = 47.33635 53.31335 50.32485
# Shear Modulus (GPa) = 23.08262 26.23057 24.65660
#
# Velocity S-wave (km/s) = 3.19903 3.41020 3.30630
# Velocity P-wave (km/s) = 5.88488 6.25641 6.07349
#
# Compressibility (1/GPa) = 0.02112541
#
# Stress axis : x y z
#
# Youngs Moduli (GPa) = 75.10673 50.12108 58.22282
#
# Poissons Ratio (x) = 0.11278 0.19869
# Poissons Ratio (y) = 0.16900 0.52373
# Poissons Ratio (z) = 0.25631 0.45085
#
# Static dielectric constant tensor:
#      x y z
#    x 4.116160 0.000000 0.096380 
#    y 0.000000 3.930720 0.000000 
#    z 0.096380 0.000000 4.524370 
# 
# 
# High freq. dielectric constant tensor:
#      x y z
#    x 1.880730 0.000000 0.011300 
#    y 0.000000 1.884540 0.000000 
#    z 0.011300 0.000000 1.892780 
# 
# From -- ./inp_files/58210.got.cif
#   From: 2010.03.12/outbox.cif.g09.slc.cpg/sg5_30_cif.got.tgz:58210.got - 2010.03.31 09:47:26.
