data_PCOD8050643
_publ_section_title
;
Structure prediction by ZEFSAII (Michael W. Deem and Ramdas Pophale) SiO2 
 PCOD8050643
Probable space group: C 2
;
_chemical_formula_sum "Si O2"
_cell_formula_units_Z 26
_cell_length_a 19.055224
_cell_length_b 9.182558
_cell_length_c 7.497539
_cell_angle_alpha 90.000000
_cell_angle_beta 123.937692
_cell_angle_gamma 90.000000
_cell_volume 1088.400853
_symmetry_space_group_name_H-M "C 2"
_symmetry_group_IT_number 5
_symmetry_cell_setting 'monoclinic'
loop_
_space_group_symop_operation_xyz
x,y,z
-x,y,-z
1/2+x,1/2+y,z
1/2-x,1/2+y,-z
loop_
_atom_site_type_symbol
_atom_site_label
_atom_site_fract_x
_atom_site_fract_y
_atom_site_fract_z
Si Si1 0.186911 0.138450 0.806794
Si Si2 0.335825 0.321317 0.104513
Si Si3 0.500000 0.647823 0.000000
Si Si4 0.048681 0.338367 0.753174
Si Si5 0.827197 0.729211 0.499255
Si Si6 0.489324 0.151574 0.276636
Si Si7 0.331465 0.544310 0.612294
O O1 0.138681 0.264014 0.847706
O O2 0.147081 0.099451 0.557988
O O3 0.188162 0.992396 0.932130
O O4 0.277173 0.214510 0.902689
O O5 0.330535 0.261121 0.295986
O O6 0.429968 0.293326 0.156173
O O7 0.496982 0.744742 0.820046
O O8 0.412907 0.557286 0.857646
O O9 0.057285 0.501126 0.847683
O O10 0.000000 0.339023 0.500000
O O11 0.751406 0.618942 0.425943
O O12 0.919459 0.666949 0.690693
O O13 0.807964 0.874927 0.581102
O O14 0.500000 0.138656 0.500000
#
# Coordination Sequence:
#
# PCOD8050643 Si02
#       7
#     4   4   2   4   4   4   4
#     4  11  23  42  70 104 138 190 238 289 357 427
#     4  10  22  41  70  99 139 184 235 293 358 418
#     4  12  26  44  72 108 142 186 232 300 354 410
#     4  11  23  42  71 100 137 182 237 283 352 423
#     4  10  24  46  68 100 142 184 238 294 352 423
#     4   9  21  42  69  99 139 184 233 294 355 418
#     4  11  26  44  71 101 145 185 238 294 356 422
#
# _framework density 23.888259999999999
#
# number of rings (size 3 to 8) (size 9 to 14) (size 15 to 20)
#    0.000    1.538    1.538    1.846    4.308    5.538 
#    0.000    0.000    0.000    0.000    0.000    0.000 
#    0.000    0.000    0.000    0.000    0.000    0.000 
#
# Total GULP energy -161134.811256 kJ/mol
# GULP energy per Si atom -12394.985481 kJ/mol
# Density = 2.383389 g / cm^3
# Si number density = 23.888260 Si / 1000 Ang^3
#
#
#
# Elastic Constant Matrix: (Units=GPa)
#
#
# Indices 1 2 3 4 5 6 
#
# 1 125.8469 59.9853 30.6067 0.0000 39.9874 0.0000
# 2 59.9853 155.7971 54.3582 0.0000 30.9894 0.0000
# 3 30.6067 54.3582 80.8797 0.0000 25.9613 0.0000
# 4 0.0000 0.0000 0.0000 33.3471 0.0000 10.2906
# 5 39.9874 30.9894 25.9613 0.0000 42.3424 0.0000
# 6 0.0000 0.0000 0.0000 10.2906 0.0000 27.9791
#
#
#
# Elastic Compliance Matrix: (Units=1/GPa)
#
#
# Indices 1 2 3 4 5 6 
#
# 1 0.012358 -0.002974 0.000460 0.000000 -0.009776 0.000000
# 2 -0.002974 0.009498 -0.004891 0.000000 -0.001144 0.000000
# 3 0.000460 -0.004891 0.018012 0.000000 -0.007899 0.000000
# 4 0.000000 0.000000 0.000000 0.033827 0.000000 -0.012441
# 5 -0.009776 -0.001144 -0.007899 0.000000 0.038530 0.000000
# 6 0.000000 0.000000 0.000000 -0.012441 0.000000 0.040317
#
#
# Mechanical properties :
#
#
# Convention : Reuss Voigt Hill
#
# Bulk Modulus (GPa) = 39.90531 72.49158 56.19845
# Shear Modulus (GPa) = 28.45698 35.23862 31.84780
#
# Velocity S-wave (km/s) = 3.45520 3.84493 3.65526
# Velocity P-wave (km/s) = 5.71482 7.07978 6.43360
#
# Compressibility (1/GPa) = 0.02505932
#
# Stress axis : x y z
#
# Youngs Moduli (GPa) = 80.91720 105.28991 55.51771
#
# Poissons Ratio (x) = 0.31316 -0.02556
# Poissons Ratio (y) = 0.24067 0.27151
# Poissons Ratio (z) = -0.03725 0.51493
#
# Static dielectric constant tensor:
#      x y z
#    x 4.355240 0.000000 0.222920 
#    y 0.000000 4.615620 0.000000 
#    z 0.222920 0.000000 4.306590 
# 
# 
# High freq. dielectric constant tensor:
#      x y z
#    x 1.947020 0.000000 0.003430 
#    y 0.000000 1.954600 0.000000 
#    z 0.003430 0.000000 1.939890 
# 
# From -- ./inp_files/29164.got.cif
#   From: 2010.03.12/outbox.cif.g09.slc.cpg/sg5_15_cif.got.tgz:29164.got - 2010.03.31 09:47:26.
