data_PCOD8050380
_publ_section_title
;
Structure prediction by ZEFSAII (Michael W. Deem and Ramdas Pophale) SiO2 
 PCOD8050380
Probable space group: C 2
;
_chemical_formula_sum "Si O2"
_cell_formula_units_Z 28
_cell_length_a 20.024403
_cell_length_b 12.783070
_cell_length_c 17.149370
_cell_angle_alpha 90.000000
_cell_angle_beta 19.232500
_cell_angle_gamma 90.000000
_cell_volume 1446.004045
_symmetry_space_group_name_H-M "C 2"
_symmetry_group_IT_number 5
_symmetry_cell_setting 'monoclinic'
loop_
_space_group_symop_operation_xyz
x,y,z
-x,y,-z
1/2+x,1/2+y,z
1/2-x,1/2+y,-z
loop_
_atom_site_type_symbol
_atom_site_label
_atom_site_fract_x
_atom_site_fract_y
_atom_site_fract_z
Si Si1 0.971148 0.575300 0.758446
Si Si2 0.292177 0.199407 0.084626
Si Si3 0.240056 0.575193 0.735096
Si Si4 0.236469 0.338709 0.752159
Si Si5 0.407918 0.835151 0.810313
Si Si6 0.594689 0.257073 0.276737
Si Si7 0.261515 0.179634 0.420638
O O1 0.975905 0.454302 0.732688
O O2 0.924955 0.636941 0.729148
O O3 0.187858 0.606505 0.559882
O O4 0.795131 0.607894 0.014489
O O5 0.182636 0.153024 0.281957
O O6 0.163274 0.298844 0.197292
O O7 0.527093 0.234631 0.840517
O O8 0.306054 0.458655 0.686103
O O9 0.325227 0.611236 0.556760
O O10 0.000000 0.577317 0.000000
O O11 0.363246 0.298660 0.537719
O O12 0.294935 0.268405 0.762092
O O13 0.000000 0.325414 0.000000
O O14 0.599480 0.765753 0.626112
O O15 0.219022 0.823814 0.076695
#
# Coordination Sequence:
#
# PCOD8050380 Si02
#       7
#     4   4   4   4   4   4   4
#     4   9  21  39  55  86 120 152 197 236 283 358
#     4   8  19  38  55  88 119 143 195 248 282 350
#     4   9  17  36  60  88 118 142 197 250 289 336
#     4  10  22  37  63  86 114 158 187 250 302 326
#     4  11  21  38  60  82 121 163 186 237 299 336
#     4  10  23  38  55  89 121 143 202 238 281 365
#     4   9  21  36  55  90 113 152 193 243 284 341
#
# _framework density 19.363707000000002
#
# number of rings (size 3 to 8) (size 9 to 14) (size 15 to 20)
#    0.857    1.714    0.000    0.857    4.000    5.143 
#    5.143    2.857    0.000    1.714    0.000    0.000 
#    0.000    0.000    0.000    0.000    0.000    0.000 
#
# Total GULP energy -173463.989980 kJ/mol
# GULP energy per Si atom -12390.284999 kJ/mol
# Density = 1.931963 g / cm^3
# Si number density = 19.363707 Si / 1000 Ang^3
#
#
#
# Elastic Constant Matrix: (Units=GPa)
#
#
# Indices 1 2 3 4 5 6 
#
# 1 125.1149 77.2630 33.2450 -0.0025 -1.9895 0.0000
# 2 77.2630 147.1386 53.9143 0.0072 -2.1079 -0.0085
# 3 33.2450 53.9143 101.0288 -0.0096 -2.1127 0.0031
# 4 -0.0025 0.0072 -0.0096 19.5584 -0.0042 -4.2462
# 5 -1.9895 -2.1079 -2.1127 -0.0042 24.2774 0.0058
# 6 0.0000 -0.0085 0.0031 -4.2462 0.0058 30.4665
#
#
#
# Elastic Compliance Matrix: (Units=1/GPa)
#
#
# Indices 1 2 3 4 5 6 
#
# 1 0.011874 -0.005968 -0.000714 0.000003 0.000393 -0.000001
# 2 -0.005968 0.011450 -0.004144 -0.000006 0.000145 0.000003
# 3 -0.000714 -0.004144 0.012358 0.000007 0.000657 -0.000002
# 4 0.000003 -0.000006 0.000007 0.052724 0.000008 0.007348
# 5 0.000393 0.000145 0.000657 0.000008 0.041292 -0.000007
# 6 -0.000001 0.000003 -0.000002 0.007348 -0.000007 0.033847
#
#
# Mechanical properties :
#
#
# Convention : Reuss Voigt Hill
#
# Bulk Modulus (GPa) = 71.27082 78.01407 74.64244
# Shear Modulus (GPa) = 26.33307 28.78445 27.55876
#
# Velocity S-wave (km/s) = 3.69171 3.85972 3.77665
# Velocity P-wave (km/s) = 7.42010 7.76141 7.59267
#
# Compressibility (1/GPa) = 0.01403099
#
# Stress axis : x y z
#
# Youngs Moduli (GPa) = 84.21773 87.33342 80.91709
#
# Poissons Ratio (x) = 0.52118 0.05781
# Poissons Ratio (y) = 0.50258 0.33530
# Poissons Ratio (z) = 0.06017 0.36189
#
# Static dielectric constant tensor:
#      x y z
#    x 3.636570 0.000000 -0.001730 
#    y 0.000000 3.291290 0.000030 
#    z -0.001730 0.000030 3.577730 
# 
# 
# High freq. dielectric constant tensor:
#      x y z
#    x 1.752960 0.000000 -0.009970 
#    y 0.000000 1.723370 0.000000 
#    z -0.009970 0.000000 1.756580 
# 
# From -- ./inp_files/62880.got.cif
#   From: 2010.03.12/outbox.cif.g09.slc.cpg/sg5_32_cif.got.tgz:62880.got - 2010.03.31 09:47:26.
