data_PCOD8050323
_publ_section_title
;
Structure prediction by ZEFSAII (Michael W. Deem and Ramdas Pophale) SiO2 
 PCOD8050323
Probable space group: C 2
;
_chemical_formula_sum "Si O2"
_cell_formula_units_Z 32
_cell_length_a 12.281027
_cell_length_b 7.585709
_cell_length_c 22.633812
_cell_angle_alpha 90.000000
_cell_angle_beta 43.983445
_cell_angle_gamma 90.000000
_cell_volume 1464.299322
_symmetry_space_group_name_H-M "C 2"
_symmetry_group_IT_number 5
_symmetry_cell_setting 'monoclinic'
loop_
_space_group_symop_operation_xyz
x,y,z
-x,y,-z
1/2+x,1/2+y,z
1/2-x,1/2+y,-z
loop_
_atom_site_type_symbol
_atom_site_label
_atom_site_fract_x
_atom_site_fract_y
_atom_site_fract_z
Si Si1 0.125531 0.791660 0.599567
Si Si2 0.110780 0.231511 0.284291
Si Si3 0.058734 0.097647 0.542936
Si Si4 0.872346 0.066958 0.301931
Si Si5 0.809503 0.611976 0.731991
Si Si6 0.360766 0.455634 0.889700
Si Si7 0.822992 0.420436 0.150541
Si Si8 0.586626 0.183975 0.026538
O O1 0.267424 0.674580 0.521865
O O2 0.985539 0.669634 0.678065
O O3 0.062558 0.903979 0.569186
O O4 0.176931 0.914260 0.633770
O O5 0.207535 0.411125 0.237170
O O6 0.061023 0.218412 0.372425
O O7 0.953323 0.228611 0.305353
O O8 0.206878 0.060039 0.226972
O O9 0.000000 0.084811 0.500000
O O10 0.715540 0.127691 0.329195
O O11 0.979697 0.998949 0.206071
O O12 0.678775 0.736494 0.813572
O O13 0.238274 0.368569 0.890987
O O14 0.411495 0.333296 0.924423
O O15 0.269006 0.632254 0.946415
O O16 0.995061 0.506932 0.083622
O O17 0.500000 0.252478 0.000000
#
# Coordination Sequence:
#
# PCOD8050323 Si02
#       8
#     4   4   4   4   4   4   4   4
#     4  11  24  43  61  99 134 165 229 273 317 398
#     4  10  22  44  63  96 131 167 224 269 320 396
#     4  11  23  41  64  92 134 174 213 276 330 376
#     4  10  23  43  65  95 133 169 224 272 315 400
#     4  12  22  40  71  92 123 180 209 265 338 375
#     4  10  21  45  64  95 135 168 215 275 322 385
#     4  10  22  45  65  95 134 164 222 272 315 401
#     4  10  23  41  64  93 134 170 210 275 325 387
#
# _framework density 21.853456000000001
#
# number of rings (size 3 to 8) (size 9 to 14) (size 15 to 20)
#    0.000    1.500    3.750    2.250    1.750    4.000 
#    9.000    0.625    0.000    0.000    0.000    0.000 
#    0.000    0.000    0.000    0.000    0.000    0.000 
#
# Total GULP energy -198346.854212 kJ/mol
# GULP energy per Si atom -12396.678388 kJ/mol
# Density = 2.180372 g / cm^3
# Si number density = 21.853456 Si / 1000 Ang^3
#
#
#
# Elastic Constant Matrix: (Units=GPa)
#
#
# Indices 1 2 3 4 5 6 
#
# 1 88.3415 37.5029 12.7634 0.0000 31.9553 -0.0001
# 2 37.5029 88.9093 23.2260 0.0001 23.4502 -0.0002
# 3 12.7634 23.2260 86.3683 0.0000 18.6795 0.0001
# 4 0.0000 0.0001 0.0000 32.4222 0.0000 3.8051
# 5 31.9553 23.4502 18.6795 0.0000 41.0245 0.0000
# 6 -0.0001 -0.0002 0.0001 3.8051 0.0000 20.8813
#
#
#
# Elastic Compliance Matrix: (Units=1/GPa)
#
#
# Indices 1 2 3 4 5 6 
#
# 1 0.017176 -0.004564 0.001130 0.000000 -0.011284 0.000000
# 2 -0.004564 0.014821 -0.002493 0.000000 -0.003782 0.000000
# 3 0.001130 -0.002493 0.013271 0.000000 -0.005497 0.000000
# 4 0.000000 0.000000 0.000000 0.031517 0.000000 -0.005743
# 5 -0.011284 -0.003782 -0.005497 0.000000 0.037830 0.000000
# 6 0.000000 0.000000 0.000000 -0.005743 0.000000 0.048936
#
#
# Mechanical properties :
#
#
# Convention : Reuss Voigt Hill
#
# Bulk Modulus (GPa) = 29.92849 45.62263 37.77556
# Shear Modulus (GPa) = 26.80331 31.54071 29.17201
#
# Velocity S-wave (km/s) = 3.50594 3.80318 3.65758
# Velocity P-wave (km/s) = 5.48759 6.34094 5.92964
#
# Compressibility (1/GPa) = 0.03341298
#
# Stress axis : x y z
#
# Youngs Moduli (GPa) = 58.22171 67.47056 75.35335
#
# Poissons Ratio (x) = 0.30791 -0.08512
# Poissons Ratio (y) = 0.26571 0.18788
# Poissons Ratio (z) = -0.06577 0.16823
#
# Static dielectric constant tensor:
#      x y z
#    x 4.159800 0.000000 -0.002610 
#    y 0.000000 3.712420 0.000000 
#    z -0.002610 0.000000 4.141160 
# 
# 
# High freq. dielectric constant tensor:
#      x y z
#    x 1.866450 0.000000 0.003470 
#    y 0.000000 1.841520 0.000000 
#    z 0.003470 0.000000 1.865410 
# 
# From -- ./inp_files/65114.got.cif
#   From: 2010.03.12/outbox.cif.g09.slc.cpg/sg5_33_cif.got.tgz:65114.got - 2010.03.31 09:47:26.
