data_PCOD8050390
_publ_section_title
;
Structure prediction by ZEFSAII (Michael W. Deem and Ramdas Pophale) SiO2 
 PCOD8050390
Probable space group: C 2
;
_chemical_formula_sum "Si O2"
_cell_formula_units_Z 30
_cell_length_a 13.299458
_cell_length_b 8.548752
_cell_length_c 22.277759
_cell_angle_alpha 90.000000
_cell_angle_beta 38.100922
_cell_angle_gamma 90.000000
_cell_volume 1562.886681
_symmetry_space_group_name_H-M "C 2"
_symmetry_group_IT_number 5
_symmetry_cell_setting 'monoclinic'
loop_
_space_group_symop_operation_xyz
x,y,z
-x,y,-z
1/2+x,1/2+y,z
1/2-x,1/2+y,-z
loop_
_atom_site_type_symbol
_atom_site_label
_atom_site_fract_x
_atom_site_fract_y
_atom_site_fract_z
Si Si1 0.543861 0.213080 0.156658
Si Si2 0.810143 0.348903 0.372436
Si Si3 0.954238 0.343994 0.842666
Si Si4 0.500000 0.129838 0.500000
Si Si5 0.039916 0.351506 0.564601
Si Si6 0.740674 0.703423 0.371683
Si Si7 0.090090 0.215665 0.015369
Si Si8 0.910511 0.845452 0.984536
O O1 0.415371 0.269963 0.267190
O O2 0.487197 0.274289 0.118580
O O3 0.544412 0.028530 0.158467
O O4 0.725934 0.281325 0.079190
O O5 0.655992 0.235206 0.442319
O O6 0.905608 0.350628 0.391568
O O7 0.748157 0.521273 0.385089
O O8 0.935501 0.282419 0.263707
O O9 0.012580 0.282121 0.880009
O O10 0.771327 0.277328 0.923786
O O11 0.477080 0.021501 0.570468
O O12 0.197159 0.303058 0.451152
O O13 0.894872 0.227417 0.617613
O O14 0.089622 0.030619 0.020356
O O15 0.000000 0.280064 0.000000
O O16 0.000000 0.781332 0.000000
#
# Coordination Sequence:
#
# PCOD8050390 Si02
#       8
#     4   4   4   2   4   4   4   4
#     4   9  18  34  55  75 109 143 182 222 271 332
#     4  11  21  39  60  83 120 149 188 238 286 333
#     4   9  20  35  51  80 110 141 180 226 273 331
#     4  10  22  38  58  90 110 150 196 234 276 348
#     4  10  22  39  61  83 117 150 190 235 288 335
#     4   9  20  38  58  83 115 152 187 236 282 341
#     4   9  18  35  53  78 112 141 178 228 276 321
#     4   9  18  32  55  80 103 144 180 220 271 327
#
# _framework density 19.195249
#
# number of rings (size 3 to 8) (size 9 to 14) (size 15 to 20)
#    0.000    2.667    0.000    1.600    1.867    2.667 
#    9.600    0.000    2.933    0.000    0.000    0.000 
#    0.000    0.000    0.000    0.000    0.000    0.000 
#
# Total GULP energy -185870.251354 kJ/mol
# GULP energy per Si atom -12391.350090 kJ/mol
# Density = 1.915156 g / cm^3
# Si number density = 19.195249 Si / 1000 Ang^3
#
#
#
# Elastic Constant Matrix: (Units=GPa)
#
#
# Indices 1 2 3 4 5 6 
#
# 1 131.8546 28.4533 65.6028 0.0000 22.4957 0.0000
# 2 28.4533 31.8383 28.1269 0.0000 -1.9904 0.0001
# 3 65.6028 28.1269 140.6268 0.0000 14.3666 0.0000
# 4 0.0000 0.0000 0.0000 26.6023 0.0000 0.7896
# 5 22.4957 -1.9904 14.3666 0.0000 24.2036 0.0000
# 6 0.0000 0.0001 0.0000 0.7896 0.0000 24.4126
#
#
#
# Elastic Compliance Matrix: (Units=1/GPa)
#
#
# Indices 1 2 3 4 5 6 
#
# 1 0.013094 -0.009733 -0.003020 0.000000 -0.011178 0.000000
# 2 -0.009733 0.046961 -0.006569 0.000000 0.016807 0.000000
# 3 -0.003020 -0.006569 0.010222 0.000000 -0.003801 0.000000
# 4 0.000000 0.000000 0.000000 0.037627 0.000000 -0.001217
# 5 -0.011178 0.016807 -0.003801 0.000000 0.055344 0.000000
# 6 0.000000 0.000000 0.000000 -0.001217 0.000000 0.041002
#
#
# Mechanical properties :
#
#
# Convention : Reuss Voigt Hill
#
# Bulk Modulus (GPa) = 31.61245 60.96507 46.28876
# Shear Modulus (GPa) = 19.72870 27.18612 23.45741
#
# Velocity S-wave (km/s) = 3.20940 3.76745 3.49956
# Velocity P-wave (km/s) = 5.49893 7.12421 6.36367
#
# Compressibility (1/GPa) = 0.03163311
#
# Stress axis : x y z
#
# Youngs Moduli (GPa) = 76.37153 21.29418 97.82822
#
# Poissons Ratio (x) = 0.20725 0.29541
# Poissons Ratio (y) = 0.74332 0.64267
# Poissons Ratio (z) = 0.23062 0.13989
#
# Static dielectric constant tensor:
#      x y z
#    x 3.677910 0.000000 -0.084260 
#    y 0.000000 3.370040 0.000000 
#    z -0.084260 0.000000 3.827900 
# 
# 
# High freq. dielectric constant tensor:
#      x y z
#    x 1.745330 0.000000 0.001010 
#    y 0.000000 1.737260 0.000000 
#    z 0.001010 0.000000 1.751220 
# 
# From -- ./inp_files/65828.got.cif
#   From: 2010.03.12/outbox.cif.g09.slc.cpg/sg5_33_cif.got.tgz:65828.got - 2010.03.31 09:47:26.
