data_PCOD8050567
_publ_section_title
;
Structure prediction by ZEFSAII (Michael W. Deem and Ramdas Pophale) SiO2 
 PCOD8050567
Probable space group: C 2
;
_chemical_formula_sum "Si O2"
_cell_formula_units_Z 28
_cell_length_a 20.560748
_cell_length_b 10.880952
_cell_length_c 10.898977
_cell_angle_alpha 90.000000
_cell_angle_beta 28.752072
_cell_angle_gamma 90.000000
_cell_volume 1172.884110
_symmetry_space_group_name_H-M "C 2"
_symmetry_group_IT_number 5
_symmetry_cell_setting 'monoclinic'
loop_
_space_group_symop_operation_xyz
x,y,z
-x,y,-z
1/2+x,1/2+y,z
1/2-x,1/2+y,-z
loop_
_atom_site_type_symbol
_atom_site_label
_atom_site_fract_x
_atom_site_fract_y
_atom_site_fract_z
Si Si1 0.261888 0.417660 0.680954
Si Si2 0.892282 0.690195 0.354169
Si Si3 0.833978 0.793099 0.049778
Si Si4 0.239254 0.543708 0.226166
Si Si5 0.500000 0.807557 0.000000
Si Si6 0.818081 0.180329 0.499521
Si Si7 0.500000 0.902527 0.500000
Si Si8 0.206561 0.288520 0.003779
O O1 0.365804 0.312785 0.473692
O O2 0.333576 0.541060 0.518151
O O3 0.115491 0.396873 0.860112
O O4 0.248830 0.406248 0.850159
O O5 0.826888 0.573067 0.531931
O O6 0.826426 0.696095 0.330070
O O7 0.055634 0.694352 0.083076
O O8 0.695799 0.763025 0.354723
O O9 0.812022 0.771928 0.941083
O O10 0.856999 0.939068 0.040944
O O11 0.123542 0.489600 0.331158
O O12 0.302593 0.666101 0.063357
O O13 0.441222 0.720593 0.206265
O O14 0.554846 0.814062 0.301560
#
# Coordination Sequence:
#
# PCOD8050567 Si02
#       8
#     4   4   4   4   2   4   2   4
#     4  10  25  44  72 102 138 186 228 294 355 412
#     4  10  24  45  66 103 139 180 234 291 352 414
#     4  11  25  41  72 106 136 187 237 280 361 421
#     4  10  23  43  67  96 142 182 226 298 342 408
#     4  10  26  48  68 104 138 178 238 292 348 416
#     4  11  26  44  72 101 136 188 233 288 355 413
#     4  10  22  40  70  98 140 186 230 282 352 416
#     4  10  24  44  68 107 138 185 239 281 357 421
#
# _framework density 23.872775000000001
#
# number of rings (size 3 to 8) (size 9 to 14) (size 15 to 20)
#    0.000    1.714    0.000    1.286   16.000    5.143 
#    0.000    0.000    0.000    0.000    0.000    0.000 
#    0.000    0.000    0.000    0.000    0.000    0.000 
#
# Total GULP energy -173522.375712 kJ/mol
# GULP energy per Si atom -12394.455408 kJ/mol
# Density = 2.381844 g / cm^3
# Si number density = 23.872775 Si / 1000 Ang^3
#
#
#
# Elastic Constant Matrix: (Units=GPa)
#
#
# Indices 1 2 3 4 5 6 
#
# 1 41.6219 -9.0479 16.4622 0.0000 8.6443 0.0000
# 2 -9.0479 96.7306 21.8920 0.0000 18.3510 0.0000
# 3 16.4622 21.8920 91.5996 0.0000 28.1622 0.0000
# 4 0.0000 0.0000 0.0000 36.3659 0.0000 5.1476
# 5 8.6443 18.3510 28.1622 0.0000 41.3983 0.0000
# 6 0.0000 0.0000 0.0000 5.1476 0.0000 27.0395
#
#
#
# Elastic Compliance Matrix: (Units=1/GPa)
#
#
# Indices 1 2 3 4 5 6 
#
# 1 0.027820 0.004538 -0.004653 0.000000 -0.004655 0.000000
# 2 0.004538 0.012185 -0.002246 0.000000 -0.004822 0.000000
# 3 -0.004653 -0.002246 0.014776 0.000000 -0.008084 0.000000
# 4 0.000000 0.000000 0.000000 0.028260 0.000000 -0.005380
# 5 -0.004655 -0.004822 -0.008084 0.000000 0.032765 0.000000
# 6 0.000000 0.000000 0.000000 -0.005380 0.000000 0.038007
#
#
# Mechanical properties :
#
#
# Convention : Reuss Voigt Hill
#
# Bulk Modulus (GPa) = 19.97595 32.06276 26.01935
# Shear Modulus (GPa) = 28.53570 34.33715 31.43642
#
# Velocity S-wave (km/s) = 3.46110 3.79666 3.63275
# Velocity P-wave (km/s) = 4.93539 5.71658 5.34029
#
# Compressibility (1/GPa) = 0.05006020
#
# Stress axis : x y z
#
# Youngs Moduli (GPa) = 35.94588 82.06525 67.67948
#
# Poissons Ratio (x) = -0.37245 0.31492
# Poissons Ratio (y) = -0.16314 0.15198
# Poissons Ratio (z) = 0.16726 0.18428
#
# Static dielectric constant tensor:
#      x y z
#    x 4.156260 0.000000 0.259730 
#    y 0.000000 4.327890 0.000000 
#    z 0.259730 0.000000 4.591110 
# 
# 
# High freq. dielectric constant tensor:
#      x y z
#    x 1.943070 0.000000 0.014020 
#    y 0.000000 1.945410 0.000000 
#    z 0.014020 0.000000 1.956270 
# 
# From -- ./inp_files/47446.got.cif
#   From: 2010.03.12/outbox.cif.g09.slc.cpg/sg5_24_cif.got.tgz:47446.got - 2010.03.31 09:47:26.
