data_PCOD8050116
_publ_section_title
;
Structure prediction by ZEFSAII (Michael W. Deem and Ramdas Pophale) SiO2 
 PCOD8050116
Probable space group: C 2
;
_chemical_formula_sum "Si O2"
_cell_formula_units_Z 22
_cell_length_a 13.357054
_cell_length_b 16.562534
_cell_length_c 8.394613
_cell_angle_alpha 90.000000
_cell_angle_beta 34.600003
_cell_angle_gamma 90.000000
_cell_volume 1054.549629
_symmetry_space_group_name_H-M "C 2"
_symmetry_group_IT_number 5
_symmetry_cell_setting 'monoclinic'
loop_
_space_group_symop_operation_xyz
x,y,z
-x,y,-z
1/2+x,1/2+y,z
1/2-x,1/2+y,-z
loop_
_atom_site_type_symbol
_atom_site_label
_atom_site_fract_x
_atom_site_fract_y
_atom_site_fract_z
Si Si1 0.702214 0.336400 0.693046
Si Si2 0.069461 0.463665 0.736583
Si Si3 0.302013 0.748218 0.278558
Si Si4 0.500000 0.347961 0.500000
Si Si5 0.820939 0.581683 0.653564
Si Si6 0.747052 0.923172 0.069192
O O1 0.763729 0.402964 0.480654
O O2 0.747413 0.252986 0.539811
O O3 0.796557 0.354892 0.738620
O O4 0.500000 0.344730 0.000000
O O5 0.128277 0.548344 0.586217
O O6 0.918441 0.421693 0.829585
O O7 0.000000 0.483646 0.000000
O O8 0.160342 0.794385 0.355720
O O9 0.309485 0.656323 0.205438
O O10 0.500000 0.784933 0.000000
O O11 0.425760 0.403615 0.739739
O O12 0.729047 0.511063 0.878706
O O13 0.000000 0.613578 0.500000
#
# Coordination Sequence:
#
# PCOD8050116 Si02
#       6
#     4   4   4   2   4   4
#     4  11  21  37  62  95 129 170 225 272 334 395
#     4  10  21  40  67  98 132 175 234 278 332 411
#     4  12  25  42  67  99 139 181 226 284 343 400
#     4  12  22  42  74  96 134 176 234 284 336 400
#     4   9  21  43  65  93 140 182 221 279 347 394
#     4  10  22  41  69  97 131 180 225 283 328 410
#
# _framework density 20.861986000000002
#
# number of rings (size 3 to 8) (size 9 to 14) (size 15 to 20)
#    0.000    1.455    2.727    4.364    0.000    3.636 
#    0.000    0.000    0.000    0.000    0.000    0.000 
#    0.000    0.000    0.000    0.000    0.000    0.000 
#
# Total GULP energy -136316.180211 kJ/mol
# GULP energy per Si atom -12392.380019 kJ/mol
# Density = 2.081450 g / cm^3
# Si number density = 20.861986 Si / 1000 Ang^3
#
#
#
# Elastic Constant Matrix: (Units=GPa)
#
#
# Indices 1 2 3 4 5 6 
#
# 1 112.6056 51.1292 57.7561 -0.0025 7.6805 0.0023
# 2 51.1292 94.1774 56.2807 -0.0037 3.2418 0.0028
# 3 57.7561 56.2807 169.3446 -0.0073 11.4901 0.0017
# 4 -0.0025 -0.0037 -0.0073 19.5558 0.0019 -9.3868
# 5 7.6805 3.2418 11.4901 0.0019 46.3079 -0.0003
# 6 0.0023 0.0028 0.0017 -9.3868 -0.0003 20.2138
#
#
#
# Elastic Compliance Matrix: (Units=1/GPa)
#
#
# Indices 1 2 3 4 5 6 
#
# 1 0.012651 -0.005362 -0.002457 -0.000001 -0.001113 -0.000001
# 2 -0.005362 0.015523 -0.003374 0.000000 0.000640 -0.000001
# 3 -0.002457 -0.003374 0.007955 0.000003 -0.001330 0.000001
# 4 -0.000001 0.000000 0.000003 0.065803 -0.000003 0.030557
# 5 -0.001113 0.000640 -0.001330 -0.000003 0.022064 -0.000001
# 6 -0.000001 -0.000001 0.000001 0.030557 -0.000001 0.063661
#
#
# Mechanical properties :
#
#
# Convention : Reuss Voigt Hill
#
# Bulk Modulus (GPa) = 72.76070 78.49551 75.62811
# Shear Modulus (GPa) = 23.29642 31.27961 27.28801
#
# Velocity S-wave (km/s) = 3.34532 3.87636 3.62059
# Velocity P-wave (km/s) = 7.06218 7.59886 7.33543
#
# Compressibility (1/GPa) = 0.01374368
#
# Stress axis : x y z
#
# Youngs Moduli (GPa) = 79.04296 64.41935 125.71095
#
# Poissons Ratio (x) = 0.34539 0.30892
# Poissons Ratio (y) = 0.42380 0.42413
# Poissons Ratio (z) = 0.19424 0.21734
#
# Static dielectric constant tensor:
#      x y z
#    x 4.025270 0.000000 0.184430 
#    y 0.000000 3.547470 0.000000 
#    z 0.184430 0.000000 4.049060 
# 
# 
# High freq. dielectric constant tensor:
#      x y z
#    x 1.826620 0.000000 0.002460 
#    y 0.000000 1.788160 0.000000 
#    z 0.002460 0.000000 1.828330 
# 
# From -- ./inp_files/15632.got.cif
#   From: 2010.03.12/outbox.cif.g09.slc.cpg/sg5_8_cif.got.tgz:15632.got - 2010.03.31 09:47:26.
