data_PCOD8050300
_publ_section_title
;
Structure prediction by ZEFSAII (Michael W. Deem and Ramdas Pophale) SiO2 
 PCOD8050300
Probable space group: C 2
;
_chemical_formula_sum "Si O2"
_cell_formula_units_Z 26
_cell_length_a 11.538280
_cell_length_b 8.355697
_cell_length_c 24.720497
_cell_angle_alpha 90.000000
_cell_angle_beta 150.580406
_cell_angle_gamma 90.000000
_cell_volume 1170.686965
_symmetry_space_group_name_H-M "C 2"
_symmetry_group_IT_number 5
_symmetry_cell_setting 'monoclinic'
loop_
_space_group_symop_operation_xyz
x,y,z
-x,y,-z
1/2+x,1/2+y,z
1/2-x,1/2+y,-z
loop_
_atom_site_type_symbol
_atom_site_label
_atom_site_fract_x
_atom_site_fract_y
_atom_site_fract_z
Si Si1 0.899322 0.888240 0.556394
Si Si2 0.121911 0.913042 0.335342
Si Si3 0.000000 0.673065 0.500000
Si Si4 0.923960 0.235755 0.383937
Si Si5 0.528119 0.180322 0.139977
Si Si6 0.252031 0.072663 0.877172
Si Si7 0.210015 0.880472 0.043513
O O1 0.027308 0.775500 0.565636
O O2 0.615637 0.866447 0.442340
O O3 0.003403 0.856113 0.659604
O O4 0.951135 0.067210 0.559153
O O5 0.256325 0.077087 0.405205
O O6 0.947433 0.937498 0.212334
O O7 0.318819 0.783432 0.399621
O O8 0.696045 0.248055 0.253694
O O9 0.708554 0.123397 0.168169
O O10 0.375308 0.033569 0.102820
O O11 0.371811 0.323857 0.050021
O O12 0.165378 0.222869 0.878884
O O13 0.500000 0.000480 0.000000
O O14 0.000000 0.927208 0.000000
#
# Coordination Sequence:
#
# PCOD8050300 Si02
#       7
#     4   4   2   4   4   4   4
#     4  12  25  47  66 102 138 180 230 290 347 422
#     4  12  24  46  66 103 140 182 236 287 348 425
#     4  12  26  42  76  94 140 182 228 292 354 402
#     4  12  25  44  70  99 143 181 234 285 356 418
#     4  10  21  44  66 100 137 180 230 280 341 407
#     4   9  21  41  68  93 140 183 222 284 338 400
#     4   9  22  43  66  98 139 178 229 280 335 409
#
# _framework density 22.209181000000001
#
# number of rings (size 3 to 8) (size 9 to 14) (size 15 to 20)
#    0.000    1.538    4.615    0.000    8.615    0.000 
#    2.769    0.000    0.000    0.000    0.000    0.000 
#    0.000    0.000    0.000    0.000    0.000    0.000 
#
# Total GULP energy -161071.239188 kJ/mol
# GULP energy per Si atom -12390.095322 kJ/mol
# Density = 2.215863 g / cm^3
# Si number density = 22.209181 Si / 1000 Ang^3
#
#
#
# Elastic Constant Matrix: (Units=GPa)
#
#
# Indices 1 2 3 4 5 6 
#
# 1 84.9743 48.7949 14.6695 -0.0001 -9.5430 -0.0006
# 2 48.7949 84.6720 52.2645 -0.0003 -5.1638 0.0002
# 3 14.6695 52.2645 120.8732 0.0019 -16.2673 -0.0023
# 4 -0.0001 -0.0003 0.0019 43.1579 -0.0004 5.2776
# 5 -9.5430 -5.1638 -16.2673 -0.0004 25.1437 0.0004
# 6 -0.0006 0.0002 -0.0023 5.2776 0.0004 23.7959
#
#
#
# Elastic Compliance Matrix: (Units=1/GPa)
#
#
# Indices 1 2 3 4 5 6 
#
# 1 0.019707 -0.013707 0.004560 0.000000 0.007615 0.000001
# 2 -0.013707 0.025684 -0.010332 0.000001 -0.006612 -0.000002
# 3 0.004560 -0.010332 0.013292 -0.000001 0.008208 0.000001
# 4 0.000000 0.000001 -0.000001 0.023817 0.000000 -0.005282
# 5 0.007615 -0.006612 0.008208 0.000000 0.046614 0.000000
# 6 0.000001 -0.000002 0.000001 -0.005282 0.000000 0.043196
#
#
# Mechanical properties :
#
#
# Convention : Reuss Voigt Hill
#
# Bulk Modulus (GPa) = 50.69771 57.99747 54.34759
# Shear Modulus (GPa) = 22.95240 30.07221 26.51230
#
# Velocity S-wave (km/s) = 3.21824 3.68373 3.45882
# Velocity P-wave (km/s) = 6.05693 6.65312 6.36201
#
# Compressibility (1/GPa) = 0.01972476
#
# Stress axis : x y z
#
# Youngs Moduli (GPa) = 50.74235 38.93528 75.23470
#
# Poissons Ratio (x) = 0.53370 -0.34307
# Poissons Ratio (y) = 0.69554 0.77730
# Poissons Ratio (z) = -0.23139 0.40227
#
# Static dielectric constant tensor:
#      x y z
#    x 4.172680 0.000000 -0.178320 
#    y 0.000000 3.859130 0.000000 
#    z -0.178320 0.000000 4.051290 
# 
# 
# High freq. dielectric constant tensor:
#      x y z
#    x 1.891860 0.000000 -0.011860 
#    y 0.000000 1.858040 0.000000 
#    z -0.011860 0.000000 1.873410 
# 
# From -- ./inp_files/70331.got.cif
#   From: 2010.03.12/outbox.cif.g09.slc.cpg/sg5_36_cif.got.tgz:70331.got - 2010.03.31 09:47:26.
