data_PCOD8050578
_publ_section_title
;
Structure prediction by ZEFSAII (Michael W. Deem and Ramdas Pophale) SiO2 
 PCOD8050578
Probable space group: C 2
;
_chemical_formula_sum "Si O2"
_cell_formula_units_Z 30
_cell_length_a 10.005104
_cell_length_b 9.932131
_cell_length_c 17.305942
_cell_angle_alpha 90.000000
_cell_angle_beta 60.342538
_cell_angle_gamma 90.000000
_cell_volume 1494.440490
_symmetry_space_group_name_H-M "C 2"
_symmetry_group_IT_number 5
_symmetry_cell_setting 'monoclinic'
loop_
_space_group_symop_operation_xyz
x,y,z
-x,y,-z
1/2+x,1/2+y,z
1/2-x,1/2+y,-z
loop_
_atom_site_type_symbol
_atom_site_label
_atom_site_fract_x
_atom_site_fract_y
_atom_site_fract_z
Si Si1 0.898159 0.049230 0.822032
Si Si2 0.325889 0.821555 0.778401
Si Si3 0.359484 0.850470 0.093951
Si Si4 0.518141 0.402791 0.354982
Si Si5 0.500000 0.581285 0.500000
Si Si6 0.638630 0.917303 0.732688
Si Si7 0.384390 0.548992 0.099498
Si Si8 0.209797 0.708848 0.657859
O O1 0.800611 0.184138 0.833425
O O2 0.030950 0.077931 0.844419
O O3 0.789157 0.934809 0.889369
O O4 0.970335 0.002965 0.720532
O O5 0.509554 0.847442 0.716227
O O6 0.251562 0.812467 0.714656
O O7 0.249682 0.941039 0.849696
O O8 0.409294 0.891317 0.165615
O O9 0.313614 0.693554 0.096128
O O10 0.500000 0.891021 0.000000
O O11 0.442253 0.486073 0.446543
O O12 0.690734 0.355463 0.330953
O O13 0.415426 0.274196 0.363438
O O14 0.360049 0.676122 0.564946
O O15 0.638163 0.075873 0.715684
O O16 0.500000 0.496594 0.000000
#
# Coordination Sequence:
#
# PCOD8050578 Si02
#       8
#     4   4   4   4   2   4   4   4
#     4  11  22  42  64  89 130 175 214 269 325 375
#     4  12  23  40  67  96 127 173 222 265 323 384
#     4  10  22  41  59  88 131 171 215 271 315 372
#     4  10  22  45  66  92 134 167 206 269 328 387
#     4  10  22  42  66 100 128 162 216 270 322 398
#     4  10  23  39  64  94 125 171 217 260 322 385
#     4  11  26  39  60  99 135 172 221 273 317 377
#     4  11  23  44  68  96 127 169 211 270 327 388
#
# _framework density 20.074403
#
# number of rings (size 3 to 8) (size 9 to 14) (size 15 to 20)
#    0.000    1.333    6.667    0.000    5.600    2.667 
#    0.000    0.000    0.000    0.000    0.000    0.000 
#    0.000    0.000    0.000    0.000    0.000    0.000 
#
# Total GULP energy -186015.304480 kJ/mol
# GULP energy per Si atom -12401.020299 kJ/mol
# Density = 2.002871 g / cm^3
# Si number density = 20.074403 Si / 1000 Ang^3
#
#
#
# Elastic Constant Matrix: (Units=GPa)
#
#
# Indices 1 2 3 4 5 6 
#
# 1 102.7474 50.8784 18.1593 0.0000 -7.2550 0.0000
# 2 50.8784 117.1356 44.9789 0.0000 -17.6409 0.0000
# 3 18.1593 44.9789 102.7393 0.0000 -12.4891 0.0000
# 4 0.0000 0.0000 0.0000 21.5071 0.0000 -3.4899
# 5 -7.2550 -17.6409 -12.4891 0.0000 20.5395 0.0000
# 6 0.0000 0.0000 0.0000 -3.4899 0.0000 42.9221
#
#
#
# Elastic Compliance Matrix: (Units=1/GPa)
#
#
# Indices 1 2 3 4 5 6 
#
# 1 0.012404 -0.005492 0.000185 0.000000 -0.000223 0.000000
# 2 -0.005492 0.013586 -0.004097 0.000000 0.007237 0.000000
# 3 0.000185 -0.004097 0.011959 0.000000 0.003818 0.000000
# 4 0.000000 0.000000 0.000000 0.047118 0.000000 0.003831
# 5 -0.000223 0.007237 0.003818 0.000000 0.057145 0.000000
# 6 0.000000 0.000000 0.000000 0.003831 0.000000 0.023610
#
#
# Mechanical properties :
#
#
# Convention : Reuss Voigt Hill
#
# Bulk Modulus (GPa) = 52.24938 61.18393 56.71666
# Shear Modulus (GPa) = 26.17665 30.90080 28.53873
#
# Velocity S-wave (km/s) = 3.61499 3.92767 3.77456
# Velocity P-wave (km/s) = 6.59610 7.14937 6.87830
#
# Compressibility (1/GPa) = 0.01913898
#
# Stress axis : x y z
#
# Youngs Moduli (GPa) = 80.62020 73.60501 83.62202
#
# Poissons Ratio (x) = 0.40426 -0.01547
# Poissons Ratio (y) = 0.44279 0.34263
# Poissons Ratio (z) = -0.01491 0.30159
#
# Static dielectric constant tensor:
#      x y z
#    x 3.741540 0.000000 0.037200 
#    y 0.000000 3.710880 0.000000 
#    z 0.037200 0.000000 3.589690 
# 
# 
# High freq. dielectric constant tensor:
#      x y z
#    x 1.782350 0.000000 0.003420 
#    y 0.000000 1.787080 0.000000 
#    z 0.003420 0.000000 1.777490 
# 
# From -- ./inp_files/60296.got.cif
#   From: 2010.03.12/outbox.cif.g09.slc.cpg/sg5_31_cif.got.tgz:60296.got - 2010.03.31 09:47:26.
