data_PCOD8050691
_publ_section_title
;
Structure prediction by ZEFSAII (Michael W. Deem and Ramdas Pophale) SiO2 
 PCOD8050691
Probable space group: C 2
;
_chemical_formula_sum "Si O2"
_cell_formula_units_Z 26
_cell_length_a 14.730682
_cell_length_b 13.269295
_cell_length_c 13.176212
_cell_angle_alpha 90.000000
_cell_angle_beta 150.920257
_cell_angle_gamma 90.000000
_cell_volume 1251.760264
_symmetry_space_group_name_H-M "C 2"
_symmetry_group_IT_number 5
_symmetry_cell_setting 'monoclinic'
loop_
_space_group_symop_operation_xyz
x,y,z
-x,y,-z
1/2+x,1/2+y,z
1/2-x,1/2+y,-z
loop_
_atom_site_type_symbol
_atom_site_label
_atom_site_fract_x
_atom_site_fract_y
_atom_site_fract_z
Si Si1 0.484909 0.034810 0.259958
Si Si2 0.000000 0.812748 0.000000
Si Si3 0.000000 0.141667 0.000000
Si Si4 0.158455 0.621497 0.084419
Si Si5 0.000000 0.017104 0.500000
Si Si6 0.671435 0.417294 0.488103
Si Si7 0.861032 0.711379 0.453778
Si Si8 0.594723 0.474412 0.938287
O O1 0.581611 0.104220 0.440470
O O2 0.630219 0.952660 0.360853
O O3 0.405980 0.108792 0.095297
O O4 0.318502 0.965140 0.142929
O O5 0.171123 0.738383 0.136462
O O6 0.018094 0.885071 0.114676
O O7 0.838244 0.210029 0.796052
O O8 0.074541 0.077531 0.978841
O O9 0.368611 0.583292 0.299344
O O10 0.000000 0.566481 0.000000
O O11 0.145681 0.950795 0.578912
O O12 0.649724 0.295724 0.467626
O O13 0.504997 0.474693 0.267213
O O14 0.000000 0.742378 0.500000
#
# Coordination Sequence:
#
# PCOD8050691 Si02
#       8
#     4   2   2   4   2   4   4   4
#     4  12  24  45  70  97 135 180 223 283 344 398
#     4   9  22  46  63  96 130 172 225 272 325 410
#     4  11  24  46  71 100 140 182 225 282 351 406
#     4  10  22  42  65  93 136 170 224 275 337 395
#     4  12  22  40  68  94 136 180 212 284 346 392
#     4  12  25  42  68 105 134 174 233 277 337 412
#     4  12  26  44  71 103 139 180 228 287 344 407
#     4  11  23  44  70  96 138 175 224 283 337 404
#
# _framework density 20.770751000000001
#
# number of rings (size 3 to 8) (size 9 to 14) (size 15 to 20)
#    0.462    0.308    6.923    0.923    0.000    2.462 
#    8.308    0.000    0.000    0.000    0.000    0.000 
#    0.000    0.000    0.000    0.000    0.000    0.000 
#
# Total GULP energy -161077.301851 kJ/mol
# GULP energy per Si atom -12390.561681 kJ/mol
# Density = 2.072348 g / cm^3
# Si number density = 20.770751 Si / 1000 Ang^3
#
#
#
# Elastic Constant Matrix: (Units=GPa)
#
#
# Indices 1 2 3 4 5 6 
#
# 1 106.2135 42.3277 35.7510 -0.0003 11.3189 -0.0001
# 2 42.3277 75.8353 20.0672 -0.0001 5.8097 -0.0001
# 3 35.7510 20.0672 119.8079 -0.0001 9.6912 -0.0002
# 4 -0.0003 -0.0001 -0.0001 21.9848 -0.0005 -0.9118
# 5 11.3189 5.8097 9.6912 -0.0005 36.6146 -0.0004
# 6 -0.0001 -0.0001 -0.0002 -0.9118 -0.0004 27.5518
#
#
#
# Elastic Compliance Matrix: (Units=1/GPa)
#
#
# Indices 1 2 3 4 5 6 
#
# 1 0.013124 -0.006446 -0.002648 0.000000 -0.002333 0.000000
# 2 -0.006446 0.017057 -0.000895 0.000000 -0.000477 0.000000
# 3 -0.002648 -0.000895 0.009410 0.000000 -0.001530 0.000000
# 4 0.000000 0.000000 0.000000 0.045548 0.000001 0.001507
# 5 -0.002333 -0.000477 -0.001530 0.000001 0.028514 0.000000
# 6 0.000000 0.000000 0.000000 0.001507 0.000000 0.036345
#
#
# Mechanical properties :
#
#
# Convention : Reuss Voigt Hill
#
# Bulk Modulus (GPa) = 50.98206 55.34984 53.16595
# Shear Modulus (GPa) = 28.32641 30.81096 29.56868
#
# Velocity S-wave (km/s) = 3.69692 3.85565 3.77712
# Velocity P-wave (km/s) = 6.54381 6.82108 6.68388
#
# Compressibility (1/GPa) = 0.01961474
#
# Stress axis : x y z
#
# Youngs Moduli (GPa) = 76.19902 58.62540 106.26433
#
# Poissons Ratio (x) = 0.37787 0.28136
# Poissons Ratio (y) = 0.49114 0.09511
# Poissons Ratio (z) = 0.20176 0.05247
#
# Static dielectric constant tensor:
#      x y z
#    x 3.911680 0.000000 -0.020440 
#    y 0.000000 3.580840 0.000000 
#    z -0.020440 0.000000 3.644630 
# 
# 
# High freq. dielectric constant tensor:
#      x y z
#    x 1.829000 0.000000 -0.003760 
#    y 0.000000 1.797370 0.000000 
#    z -0.003760 0.000000 1.807970 
# 
# From -- ./inp_files/43150.got.cif
#   From: 2010.03.12/outbox.cif.g09.slc.cpg/sg5_22_cif.got.tgz:43150.got - 2010.03.31 09:47:26.
