data_PCOD8050580
_publ_section_title
;
Structure prediction by ZEFSAII (Michael W. Deem and Ramdas Pophale) SiO2 
 PCOD8050580
Probable space group: C 2
;
_chemical_formula_sum "Si O2"
_cell_formula_units_Z 28
_cell_length_a 8.958699
_cell_length_b 11.227234
_cell_length_c 13.884294
_cell_angle_alpha 90.000000
_cell_angle_beta 112.642885
_cell_angle_gamma 90.000000
_cell_volume 1288.862743
_symmetry_space_group_name_H-M "C 2"
_symmetry_group_IT_number 5
_symmetry_cell_setting 'monoclinic'
loop_
_space_group_symop_operation_xyz
x,y,z
-x,y,-z
1/2+x,1/2+y,z
1/2-x,1/2+y,-z
loop_
_atom_site_type_symbol
_atom_site_label
_atom_site_fract_x
_atom_site_fract_y
_atom_site_fract_z
Si Si1 0.000000 0.190140 0.500000
Si Si2 0.582288 0.743626 0.141381
Si Si3 0.827712 0.949312 0.162723
Si Si4 0.017093 0.344308 0.324719
Si Si5 0.357441 0.318778 0.778580
Si Si6 0.714842 0.076143 0.319162
Si Si7 0.792592 0.123761 0.989423
Si Si8 0.500000 0.235453 0.000000
O O1 0.929886 0.277286 0.565332
O O2 0.858085 0.103287 0.429427
O O3 0.686620 0.852120 0.124910
O O4 0.575046 0.753966 0.254655
O O5 0.397825 0.736570 0.057223
O O6 0.667071 0.622204 0.116472
O O7 0.005819 0.902250 0.234068
O O8 0.789265 0.047172 0.233097
O O9 0.836959 0.004032 0.057452
O O10 0.103898 0.471849 0.335359
O O11 0.824454 0.367471 0.279228
O O12 0.384450 0.195968 0.726274
O O13 0.388976 0.311792 0.901121
O O14 0.604871 0.150828 0.956930
#
# Coordination Sequence:
#
# PCOD8050580 Si02
#       8
#     2   4   4   4   4   4   4   2
#     4  10  22  44  76  94 132 158 218 286 344 404
#     4  10  22  41  61  91 131 170 225 268 311 383
#     4  11  23  41  65  93 131 181 216 264 333 381
#     4  10  22  45  71  97 129 175 216 277 343 387
#     4  11  23  43  62  97 139 176 221 269 310 391
#     4  10  23  45  70  97 129 170 215 279 335 400
#     4  11  22  40  60  89 133 176 222 265 311 375
#     4  12  20  40  62  90 138 180 222 256 314 370
#
# _framework density 21.724578000000001
#
# number of rings (size 3 to 8) (size 9 to 14) (size 15 to 20)
#    0.000    1.429    4.286    0.857    0.000    5.714 
#    2.571    2.857    0.000    0.000    0.000    0.000 
#    0.000    0.000    0.000    0.000    0.000    0.000 
#
# Total GULP energy -173443.432999 kJ/mol
# GULP energy per Si atom -12388.816643 kJ/mol
# Density = 2.167513 g / cm^3
# Si number density = 21.724578 Si / 1000 Ang^3
#
#
#
# Elastic Constant Matrix: (Units=GPa)
#
#
# Indices 1 2 3 4 5 6 
#
# 1 126.8294 52.0903 25.6550 0.0000 -4.2052 0.0000
# 2 52.0903 88.4525 34.3566 0.0000 -2.6657 0.0000
# 3 25.6550 34.3566 89.6599 0.0000 -5.2275 0.0000
# 4 0.0000 0.0000 0.0000 32.1265 0.0000 2.3010
# 5 -4.2052 -2.6657 -5.2275 0.0000 38.1574 0.0000
# 6 0.0000 0.0000 0.0000 2.3010 0.0000 32.7670
#
#
#
# Elastic Compliance Matrix: (Units=1/GPa)
#
#
# Indices 1 2 3 4 5 6 
#
# 1 0.010458 -0.005864 -0.000708 0.000000 0.000646 0.000000
# 2 -0.005864 0.016573 -0.004680 0.000000 -0.000130 0.000000
# 3 -0.000708 -0.004680 0.013231 0.000000 0.001408 0.000000
# 4 0.000000 0.000000 0.000000 0.031284 0.000000 -0.002197
# 5 0.000646 -0.000130 0.001408 0.000000 0.026462 0.000000
# 6 0.000000 0.000000 0.000000 -0.002197 0.000000 0.030673
#
#
# Mechanical properties :
#
#
# Convention : Reuss Voigt Hill
#
# Bulk Modulus (GPa) = 56.31310 58.79395 57.55353
# Shear Modulus (GPa) = 31.82596 33.46616 32.64606
#
# Velocity S-wave (km/s) = 3.83165 3.92915 3.88070
# Velocity P-wave (km/s) = 6.74930 6.90698 6.82859
#
# Compressibility (1/GPa) = 0.01775786
#
# Stress axis : x y z
#
# Youngs Moduli (GPa) = 95.62339 60.33909 75.57922
#
# Poissons Ratio (x) = 0.35385 0.05347
# Poissons Ratio (y) = 0.56077 0.35372
# Poissons Ratio (z) = 0.06766 0.28240
#
# Static dielectric constant tensor:
#      x y z
#    x 4.232790 0.000000 -0.100570 
#    y 0.000000 3.814460 0.000000 
#    z -0.100570 0.000000 3.976730 
# 
# 
# High freq. dielectric constant tensor:
#      x y z
#    x 1.871930 0.000000 -0.000270 
#    y 0.000000 1.843950 0.000000 
#    z -0.000270 0.000000 1.837330 
# 
# From -- ./inp_files/50568.got.cif
#   From: 2010.03.12/outbox.cif.g09.slc.cpg/sg5_26_cif.got.tgz:50568.got - 2010.03.31 09:47:26.
