data_PCOD8050712
_publ_section_title
;
Structure prediction by ZEFSAII (Michael W. Deem and Ramdas Pophale) SiO2 
 PCOD8050712
Probable space group: C 2
;
_chemical_formula_sum "Si O2"
_cell_formula_units_Z 18
_cell_length_a 12.561944
_cell_length_b 8.084299
_cell_length_c 9.840121
_cell_angle_alpha 90.000000
_cell_angle_beta 123.792750
_cell_angle_gamma 90.000000
_cell_volume 830.480329
_symmetry_space_group_name_H-M "C 2"
_symmetry_group_IT_number 5
_symmetry_cell_setting 'monoclinic'
loop_
_space_group_symop_operation_xyz
x,y,z
-x,y,-z
1/2+x,1/2+y,z
1/2-x,1/2+y,-z
loop_
_atom_site_type_symbol
_atom_site_label
_atom_site_fract_x
_atom_site_fract_y
_atom_site_fract_z
Si Si1 0.783946 0.335920 0.688389
Si Si2 0.302928 0.271479 0.909963
Si Si3 0.500000 0.008163 0.000000
Si Si4 0.381317 0.497500 0.204032
Si Si5 0.672609 0.468234 0.342763
O O1 0.668316 0.399805 0.699796
O O2 0.769515 0.406913 0.526845
O O3 0.922343 0.392413 0.841082
O O4 0.776020 0.138363 0.683008
O O5 0.402251 0.123738 0.014816
O O6 0.330995 0.331687 0.777418
O O7 0.161497 0.190435 0.820144
O O8 0.318477 0.420410 0.024636
O O9 0.533369 0.491287 0.309384
#
# Coordination Sequence:
#
# PCOD8050712 Si02
#       5
#     4   4   2   4   4
#     4  11  26  43  70  98 137 177 231 268 344 391
#     4  11  23  42  72  99 137 174 230 270 343 393
#     4  10  22  42  68 100 130 180 218 276 328 410
#     4  11  24  42  70 100 134 179 224 276 330 411
#     4  12  25  47  67  99 140 179 217 292 325 397
#
# _framework density 21.674205000000001
#
# number of rings (size 3 to 8) (size 9 to 14) (size 15 to 20)
#    0.000    0.889    2.222    4.667    9.333    0.000 
#    0.000    0.000    0.000    0.000    0.000    0.000 
#    0.000    0.000    0.000    0.000    0.000    0.000 
#
# Total GULP energy -111652.101290 kJ/mol
# GULP energy per Si atom -12405.789032 kJ/mol
# Density = 2.162487 g / cm^3
# Si number density = 21.674205 Si / 1000 Ang^3
#
#
#
# Elastic Constant Matrix: (Units=GPa)
#
#
# Indices 1 2 3 4 5 6 
#
# 1 64.6956 24.2099 20.9802 0.0000 -0.3766 0.0000
# 2 24.2099 77.5394 34.0202 0.0000 11.9383 0.0000
# 3 20.9802 34.0202 110.2384 0.0000 -3.3105 0.0000
# 4 0.0000 0.0000 0.0000 35.2600 0.0000 0.6853
# 5 -0.3766 11.9383 -3.3105 0.0000 32.7452 0.0000
# 6 0.0000 0.0000 0.0000 0.6853 0.0000 32.4894
#
#
#
# Elastic Compliance Matrix: (Units=1/GPa)
#
#
# Indices 1 2 3 4 5 6 
#
# 1 0.017961 -0.005117 -0.001782 0.000000 0.001892 0.000000
# 2 -0.005117 0.017614 -0.004671 0.000000 -0.006953 0.000000
# 3 -0.001782 -0.004671 0.010936 0.000000 0.002788 0.000000
# 4 0.000000 0.000000 0.000000 0.028372 0.000000 -0.000598
# 5 0.001892 -0.006953 0.002788 0.000000 0.033377 0.000000
# 6 0.000000 0.000000 0.000000 -0.000598 0.000000 0.030792
#
#
# Mechanical properties :
#
#
# Convention : Reuss Voigt Hill
#
# Bulk Modulus (GPa) = 42.78942 45.65487 44.22214
# Shear Modulus (GPa) = 29.41475 31.64980 30.53227
#
# Velocity S-wave (km/s) = 3.68792 3.82547 3.75733
# Velocity P-wave (km/s) = 6.15787 6.37355 6.26664
#
# Compressibility (1/GPa) = 0.02337026
#
# Stress axis : x y z
#
# Youngs Moduli (GPa) = 55.67644 56.77242 91.44457
#
# Poissons Ratio (x) = 0.29052 0.16298
# Poissons Ratio (y) = 0.28491 0.42711
# Poissons Ratio (z) = 0.09923 0.26517
#
# Static dielectric constant tensor:
#      x y z
#    x 3.926810 0.000000 0.030050 
#    y 0.000000 4.031230 0.000000 
#    z 0.030050 0.000000 3.876920 
# 
# 
# High freq. dielectric constant tensor:
#      x y z
#    x 1.852170 0.000000 -0.001500 
#    y 0.000000 1.862980 0.000000 
#    z -0.001500 0.000000 1.852550 
# 
# From -- ./inp_files/18142.got.cif
#   From: 2010.03.12/outbox.cif.g09.slc.cpg/sg5_10_cif.got.tgz:18142.got - 2010.03.31 09:47:26.
