data_PCOD8050762
_publ_section_title
;
Structure prediction by ZEFSAII (Michael W. Deem and Ramdas Pophale) SiO2 
 PCOD8050762
Probable space group: C 2
;
_chemical_formula_sum "Si O2"
_cell_formula_units_Z 26
_cell_length_a 9.956130
_cell_length_b 8.526117
_cell_length_c 22.259741
_cell_angle_alpha 90.000000
_cell_angle_beta 140.497028
_cell_angle_gamma 90.000000
_cell_volume 1201.987096
_symmetry_space_group_name_H-M "C 2"
_symmetry_group_IT_number 5
_symmetry_cell_setting 'monoclinic'
loop_
_space_group_symop_operation_xyz
x,y,z
-x,y,-z
1/2+x,1/2+y,z
1/2-x,1/2+y,-z
loop_
_atom_site_type_symbol
_atom_site_label
_atom_site_fract_x
_atom_site_fract_y
_atom_site_fract_z
Si Si1 0.197623 0.895260 0.526957
Si Si2 0.000000 0.805359 0.000000
Si Si3 0.582280 0.769431 0.718984
Si Si4 0.797806 0.045749 0.844278
Si Si5 0.244702 0.252942 0.574389
Si Si6 0.587805 0.614562 0.846325
Si Si7 0.477469 0.268135 0.779955
O O1 0.381997 0.769761 0.606141
O O2 0.151927 0.865216 0.440848
O O3 0.000000 0.851046 0.500000
O O4 0.266448 0.073145 0.561929
O O5 0.806032 0.688260 0.944618
O O6 0.956423 0.918670 0.928584
O O7 0.523722 0.677321 0.759088
O O8 0.791279 0.700502 0.758489
O O9 0.620620 0.951943 0.746519
O O10 0.672611 0.147220 0.850217
O O11 0.919696 0.161031 0.840170
O O12 0.382417 0.289113 0.680781
O O13 0.000000 0.298623 0.500000
O O14 0.581379 0.426556 0.841003
#
# Coordination Sequence:
#
# PCOD8050762 Si02
#       7
#     4   2   4   4   4   4   4
#     4  11  25  38  62  93 130 177 223 264 316 368
#     4  10  24  46  66  94 134 158 208 274 328 392
#     4  10  22  43  60  94 137 163 215 268 317 373
#     4  10  23  43  67  93 126 170 209 263 323 393
#     4  11  24  42  61  93 134 178 219 265 310 373
#     4  10  25  41  69  97 124 168 208 270 325 391
#     4  11  23  40  66  96 131 172 219 261 322 375
#
# _framework density 21.630846999999999
#
# number of rings (size 3 to 8) (size 9 to 14) (size 15 to 20)
#    0.000    1.538    3.077    0.000    4.308    8.615 
#    0.000    0.000    0.000    0.000    0.000    0.000 
#    0.000    0.000    0.000    0.000    0.000    0.000 
#
# Total GULP energy -161163.834174 kJ/mol
# GULP energy per Si atom -12397.218013 kJ/mol
# Density = 2.158161 g / cm^3
# Si number density = 21.630847 Si / 1000 Ang^3
#
#
#
# Elastic Constant Matrix: (Units=GPa)
#
#
# Indices 1 2 3 4 5 6 
#
# 1 150.8194 60.9035 23.7243 0.0000 -7.9814 0.0000
# 2 60.9035 61.9637 30.2911 0.0000 12.5322 0.0000
# 3 23.7243 30.2911 82.1472 0.0000 -2.5128 0.0000
# 4 0.0000 0.0000 0.0000 34.1306 0.0000 -4.6494
# 5 -7.9814 12.5322 -2.5128 0.0000 25.0921 0.0000
# 6 0.0000 0.0000 0.0000 -4.6494 0.0000 36.1491
#
#
#
# Elastic Compliance Matrix: (Units=1/GPa)
#
#
# Indices 1 2 3 4 5 6 
#
# 1 0.014346 -0.018465 0.003097 0.000000 0.014096 0.000000
# 2 -0.018465 0.046728 -0.012831 0.000000 -0.030496 0.000000
# 3 0.003097 -0.012831 0.016286 0.000000 0.009024 0.000000
# 4 0.000000 0.000000 0.000000 0.029822 0.000000 0.003836
# 5 0.014096 -0.030496 0.009024 0.000000 0.060472 0.000000
# 6 0.000000 0.000000 0.000000 0.003836 0.000000 0.028157
#
#
# Mechanical properties :
#
#
# Convention : Reuss Voigt Hill
#
# Bulk Modulus (GPa) = 47.70498 58.30757 53.00627
# Shear Modulus (GPa) = 19.29055 31.07513 25.18284
#
# Velocity S-wave (km/s) = 2.98955 3.79438 3.41575
# Velocity P-wave (km/s) = 5.83255 6.79784 6.33361
#
# Compressibility (1/GPa) = 0.02096217
#
# Stress axis : x y z
#
# Youngs Moduli (GPa) = 69.70708 21.40057 61.40222
#
# Poissons Ratio (x) = 0.39516 -0.19016
# Poissons Ratio (y) = 1.28715 0.78782
# Poissons Ratio (z) = -0.21588 0.27458
#
# Static dielectric constant tensor:
#      x y z
#    x 4.081200 0.000000 -0.030260 
#    y 0.000000 3.703700 0.000000 
#    z -0.030260 0.000000 3.884470 
# 
# 
# High freq. dielectric constant tensor:
#      x y z
#    x 1.860860 0.000000 -0.005090 
#    y 0.000000 1.837490 0.000000 
#    z -0.005090 0.000000 1.849660 
# 
# From -- ./inp_files/59335.got.cif
#   From: 2010.03.12/outbox.cif.g09.slc.cpg/sg5_30_cif.got.tgz:59335.got - 2010.03.31 09:47:26.
