data_PCOD8050833
_publ_section_title
;
Structure prediction by ZEFSAII (Michael W. Deem and Ramdas Pophale) SiO2 
 PCOD8050833
Probable space group: C 2
;
_chemical_formula_sum "Si O2"
_cell_formula_units_Z 28
_cell_length_a 9.014505
_cell_length_b 11.977825
_cell_length_c 14.339951
_cell_angle_alpha 90.000000
_cell_angle_beta 118.638896
_cell_angle_gamma 90.000000
_cell_volume 1358.916385
_symmetry_space_group_name_H-M "C 2"
_symmetry_group_IT_number 5
_symmetry_cell_setting 'monoclinic'
loop_
_space_group_symop_operation_xyz
x,y,z
-x,y,-z
1/2+x,1/2+y,z
1/2-x,1/2+y,-z
loop_
_atom_site_type_symbol
_atom_site_label
_atom_site_fract_x
_atom_site_fract_y
_atom_site_fract_z
Si Si1 0.326910 0.606590 0.914634
Si Si2 0.330681 0.788697 0.391800
Si Si3 0.845756 0.247585 0.740646
Si Si4 0.848754 0.391454 0.202017
Si Si5 0.912213 0.097087 0.288017
Si Si6 0.996471 0.860708 0.391736
Si Si7 0.192801 0.685776 0.063013
O O1 0.375236 0.694414 0.849901
O O2 0.189488 0.517985 0.837231
O O3 0.500000 0.545783 0.000000
O O4 0.255367 0.679411 0.976684
O O5 0.500000 0.812502 0.500000
O O6 0.320852 0.877196 0.304294
O O7 0.327308 0.661764 0.350278
O O8 0.171302 0.805714 0.411689
O O9 0.649099 0.269398 0.666003
O O10 0.957927 0.361024 0.767546
O O11 0.912981 0.162373 0.681735
O O12 0.719210 0.310960 0.108433
O O13 0.790569 0.100444 0.161081
O O14 0.953080 0.969741 0.319536
O O15 0.000000 0.896285 0.500000
O O16 0.000000 0.650827 0.000000
#
# Coordination Sequence:
#
# PCOD8050833 Si02
#       7
#     4   4   4   4   4   4   4
#     4  12  22  42  66  93 131 173 209 260 313 366
#     4  10  22  44  67  90 130 165 205 268 318 372
#     4  10  24  43  61 100 128 159 220 263 299 384
#     4  10  23  41  65  91 130 167 214 258 314 380
#     4  10  23  45  63  93 133 164 211 262 311 379
#     4  12  25  41  70  95 122 168 212 259 324 374
#     4  10  23  40  60  96 131 169 214 256 312 372
#
# _framework density 20.604652999999999
#
# number of rings (size 3 to 8) (size 9 to 14) (size 15 to 20)
#    0.000    1.714    2.857    3.429    6.000    1.143 
#    0.000    7.143    0.000    0.000    0.000    0.000 
#    0.000    0.000    0.000    0.000    0.000    0.000 
#
# Total GULP energy -173601.298012 kJ/mol
# GULP energy per Si atom -12400.092715 kJ/mol
# Density = 2.055776 g / cm^3
# Si number density = 20.604653 Si / 1000 Ang^3
#
#
#
# Elastic Constant Matrix: (Units=GPa)
#
#
# Indices 1 2 3 4 5 6 
#
# 1 147.0338 33.3475 43.8716 0.0000 5.7907 0.0000
# 2 33.3475 55.6015 26.2071 0.0000 -0.6783 0.0000
# 3 43.8716 26.2071 87.5273 0.0000 -0.8489 0.0000
# 4 0.0000 0.0000 0.0000 14.6617 0.0000 -5.1776
# 5 5.7907 -0.6783 -0.8489 0.0000 44.8535 0.0000
# 6 0.0000 0.0000 0.0000 -5.1776 0.0000 14.4117
#
#
#
# Elastic Compliance Matrix: (Units=1/GPa)
#
#
# Indices 1 2 3 4 5 6 
#
# 1 0.008652 -0.003673 -0.003249 0.000000 -0.001234 0.000000
# 2 -0.003673 0.022501 -0.004889 0.000000 0.000722 0.000000
# 3 -0.003249 -0.004889 0.014523 0.000000 0.000620 0.000000
# 4 0.000000 0.000000 0.000000 0.078115 0.000000 0.028064
# 5 -0.001234 0.000722 0.000620 0.000000 0.022477 0.000000
# 6 0.000000 0.000000 0.000000 0.028064 0.000000 0.079470
#
#
# Mechanical properties :
#
#
# Convention : Reuss Voigt Hill
#
# Bulk Modulus (GPa) = 45.34207 55.22389 50.28298
# Shear Modulus (GPa) = 19.47702 27.23448 23.35575
#
# Velocity S-wave (km/s) = 3.07786 3.63955 3.37043
# Velocity P-wave (km/s) = 5.88936 6.67245 6.29310
#
# Compressibility (1/GPa) = 0.02205457
#
# Stress axis : x y z
#
# Youngs Moduli (GPa) = 115.57732 44.44193 68.85418
#
# Poissons Ratio (x) = 0.16323 0.22371
# Poissons Ratio (y) = 0.42451 0.33665
# Poissons Ratio (z) = 0.37551 0.21729
#
# Static dielectric constant tensor:
#      x y z
#    x 4.300430 0.000000 0.270440 
#    y 0.000000 3.369380 0.000000 
#    z 0.270440 0.000000 4.093140 
# 
# 
# High freq. dielectric constant tensor:
#      x y z
#    x 1.818280 0.000000 -0.004630 
#    y 0.000000 1.782080 0.000000 
#    z -0.004630 0.000000 1.818440 
# 
# From -- ./inp_files/50552.got.cif
#   From: 2010.03.12/outbox.cif.g09.slc.cpg/sg5_26_cif.got.tgz:50552.got - 2010.03.31 09:47:26.
