data_PCOD8050687
_publ_section_title
;
Structure prediction by ZEFSAII (Michael W. Deem and Ramdas Pophale) SiO2 
 PCOD8050687
Probable space group: C 2
;
_chemical_formula_sum "Si O2"
_cell_formula_units_Z 28
_cell_length_a 17.711479
_cell_length_b 6.886813
_cell_length_c 12.551871
_cell_angle_alpha 90.000000
_cell_angle_beta 56.068385
_cell_angle_gamma 90.000000
_cell_volume 1270.296148
_symmetry_space_group_name_H-M "C 2"
_symmetry_group_IT_number 5
_symmetry_cell_setting 'monoclinic'
loop_
_space_group_symop_operation_xyz
x,y,z
-x,y,-z
1/2+x,1/2+y,z
1/2-x,1/2+y,-z
loop_
_atom_site_type_symbol
_atom_site_label
_atom_site_fract_x
_atom_site_fract_y
_atom_site_fract_z
Si Si1 0.777884 0.973910 0.247006
Si Si2 0.798032 0.170498 0.844450
Si Si3 0.503507 0.728198 0.695131
Si Si4 0.708897 0.803537 0.921576
Si Si5 0.472832 0.001255 0.902108
Si Si6 0.413343 0.047909 0.499903
Si Si7 0.925623 0.825341 0.294956
O O1 0.771770 0.792201 0.172580
O O2 0.678132 0.042439 0.360618
O O3 0.839669 0.907251 0.296966
O O4 0.821003 0.157227 0.149363
O O5 0.792551 0.941062 0.817763
O O6 0.768173 0.179550 0.991978
O O7 0.898612 0.251861 0.743510
O O8 0.522208 0.837553 0.791864
O O9 0.564635 0.828904 0.556576
O O10 0.524632 0.503474 0.688727
O O11 0.634536 0.965103 0.015082
O O12 0.501861 0.215232 0.838274
O O13 0.500000 0.967671 0.000000
O O14 0.500000 0.126148 0.500000
O O15 0.393129 0.185058 0.414724
#
# Coordination Sequence:
#
# PCOD8050687 Si02
#       7
#     4   4   4   4   4   4   4
#     4  12  26  46  70 107 143 191 238 302 362 416
#     4  11  23  40  69 103 141 183 234 287 358 436
#     4  10  24  43  68  98 139 189 240 292 355 424
#     4  11  24  39  71 104 144 182 235 292 354 431
#     4  10  22  42  65 100 144 178 229 295 358 432
#     4  11  26  49  70  99 143 187 249 300 349 431
#     4  11  27  44  73 101 139 192 242 294 364 422
#
# _framework density 22.042107000000001
#
# number of rings (size 3 to 8) (size 9 to 14) (size 15 to 20)
#    0.000    1.143    2.857    1.714    6.000    5.714 
#    0.000    0.000    0.000    0.000    0.000    0.000 
#    0.000    0.000    0.000    0.000    0.000    0.000 
#
# Total GULP energy -173580.563648 kJ/mol
# GULP energy per Si atom -12398.611689 kJ/mol
# Density = 2.199194 g / cm^3
# Si number density = 22.042107 Si / 1000 Ang^3
#
#
#
# Elastic Constant Matrix: (Units=GPa)
#
#
# Indices 1 2 3 4 5 6 
#
# 1 105.2303 36.1609 23.8163 0.0000 11.9353 0.0001
# 2 36.1609 123.0655 26.1259 -0.0001 0.6738 0.0001
# 3 23.8163 26.1259 80.2607 0.0000 1.2516 0.0000
# 4 0.0000 -0.0001 0.0000 19.2912 0.0000 6.5675
# 5 11.9353 0.6738 1.2516 0.0000 32.2545 0.0000
# 6 0.0001 0.0001 0.0000 6.5675 0.0000 38.6497
#
#
#
# Elastic Compliance Matrix: (Units=1/GPa)
#
#
# Indices 1 2 3 4 5 6 
#
# 1 0.011492 -0.002840 -0.002422 0.000000 -0.004099 0.000000
# 2 -0.002840 0.009431 -0.002242 0.000000 0.000941 0.000000
# 3 -0.002422 -0.002242 0.013901 0.000000 0.000403 0.000000
# 4 0.000000 0.000000 0.000000 0.055020 0.000000 -0.009349
# 5 -0.004099 0.000941 0.000403 0.000000 0.032485 0.000000
# 6 0.000000 0.000000 0.000000 -0.009349 0.000000 0.027462
#
#
# Mechanical properties :
#
#
# Convention : Reuss Voigt Hill
#
# Bulk Modulus (GPa) = 50.46134 53.41808 51.93971
# Shear Modulus (GPa) = 29.17079 32.86932 31.02006
#
# Velocity S-wave (km/s) = 3.64182 3.86580 3.75548
# Velocity P-wave (km/s) = 6.37390 6.64929 6.51305
#
# Compressibility (1/GPa) = 0.01981715
#
# Stress axis : x y z
#
# Youngs Moduli (GPa) = 87.01734 106.03250 71.93504
#
# Poissons Ratio (x) = 0.30115 0.17420
# Poissons Ratio (y) = 0.24715 0.16127
# Poissons Ratio (z) = 0.21072 0.23771
#
# Static dielectric constant tensor:
#      x y z
#    x 4.243680 0.000000 -0.012140 
#    y 0.000000 3.985830 0.000000 
#    z -0.012140 0.000000 3.966870 
# 
# 
# High freq. dielectric constant tensor:
#      x y z
#    x 1.866850 0.000000 0.010430 
#    y 0.000000 1.876610 0.000000 
#    z 0.010430 0.000000 1.864130 
# 
# From -- ./inp_files/55409.got.cif
#   From: 2010.03.12/outbox.cif.g09.slc.cpg/sg5_28_cif.got.tgz:55409.got - 2010.03.31 09:47:26.
