data_PCOD8050052
_publ_section_title
;
Structure prediction by ZEFSAII (Michael W. Deem and Ramdas Pophale) SiO2 
 PCOD8050052
Probable space group: C 2
;
_chemical_formula_sum "Si O2"
_cell_formula_units_Z 28
_cell_length_a 13.233637
_cell_length_b 8.356556
_cell_length_c 14.896558
_cell_angle_alpha 90.000000
_cell_angle_beta 57.272009
_cell_angle_gamma 90.000000
_cell_volume 1385.848894
_symmetry_space_group_name_H-M "C 2"
_symmetry_group_IT_number 5
_symmetry_cell_setting 'monoclinic'
loop_
_space_group_symop_operation_xyz
x,y,z
-x,y,-z
1/2+x,1/2+y,z
1/2-x,1/2+y,-z
loop_
_atom_site_type_symbol
_atom_site_label
_atom_site_fract_x
_atom_site_fract_y
_atom_site_fract_z
Si Si1 0.899328 0.820860 0.139332
Si Si2 0.776921 0.307617 0.096199
Si Si3 0.859969 0.736582 0.656460
Si Si4 0.137476 0.971902 0.014822
Si Si5 0.500000 0.035030 0.000000
Si Si6 0.000000 0.165099 0.500000
Si Si7 0.220416 0.393579 0.374640
Si Si8 0.605240 0.387188 0.544132
O O1 0.820911 0.852427 0.086500
O O2 0.821490 0.817451 0.264374
O O3 0.970221 0.651449 0.099020
O O4 0.992216 0.971489 0.094605
O O5 0.730639 0.280587 0.219812
O O6 0.889846 0.421539 0.034598
O O7 0.809100 0.145114 0.029675
O O8 0.675282 0.400503 0.091635
O O9 0.830670 0.558863 0.637704
O O10 0.837183 0.850335 0.581407
O O11 0.001508 0.754516 0.618498
O O12 0.887962 0.272641 0.577993
O O13 0.964026 0.056940 0.430860
O O14 0.283593 0.403965 0.441463
#
# Coordination Sequence:
#
# PCOD8050052 Si02
#       8
#     4   4   4   4   2   2   4   4
#     4  10  22  41  62  94 129 169 215 268 323 398
#     4  12  22  41  65  93 130 174 216 275 328 390
#     4  10  23  42  68  96 132 175 217 276 329 398
#     4  10  21  40  61  92 129 168 219 262 327 388
#     4  10  24  38  62  92 132 166 216 272 314 394
#     4  10  24  40  66 100 128 168 226 270 316 406
#     4  12  22  44  72  94 136 173 215 275 337 387
#     4  10  24  45  66  99 136 168 223 271 331 395
#
# _framework density 20.204222999999999
#
# number of rings (size 3 to 8) (size 9 to 14) (size 15 to 20)
#    0.000    1.714    1.429    5.143    4.000    0.000 
#    2.571    1.429    0.000    0.000    0.000    0.000 
#    0.000    0.000    0.000    0.000    0.000    0.000 
#
# Total GULP energy -173485.642079 kJ/mol
# GULP energy per Si atom -12391.831577 kJ/mol
# Density = 2.015824 g / cm^3
# Si number density = 20.204223 Si / 1000 Ang^3
#
#
#
# Elastic Constant Matrix: (Units=GPa)
#
#
# Indices 1 2 3 4 5 6 
#
# 1 93.5406 60.2141 49.4748 0.0000 1.0277 0.0000
# 2 60.2141 138.0491 63.1909 0.0000 -4.8907 0.0000
# 3 49.4748 63.1909 124.3692 0.0000 -2.7110 0.0000
# 4 0.0000 0.0000 0.0000 31.4138 0.0000 -4.2820
# 5 1.0277 -4.8907 -2.7110 0.0000 26.5430 0.0000
# 6 0.0000 0.0000 0.0000 -4.2820 0.0000 31.8250
#
#
#
# Elastic Compliance Matrix: (Units=1/GPa)
#
#
# Indices 1 2 3 4 5 6 
#
# 1 0.016171 -0.005420 -0.003722 0.000000 -0.002005 0.000000
# 2 -0.005420 0.011298 -0.003542 0.000000 0.001930 0.000000
# 3 -0.003722 -0.003542 0.011335 0.000000 0.000649 0.000000
# 4 0.000000 0.000000 0.000000 0.032428 0.000000 0.004363
# 5 -0.002005 0.001930 0.000649 0.000000 0.038174 0.000000
# 6 0.000000 0.000000 0.000000 0.004363 0.000000 0.032009
#
#
# Mechanical properties :
#
#
# Convention : Reuss Voigt Hill
#
# Bulk Modulus (GPa) = 74.43805 77.96870 76.20338
# Shear Modulus (GPa) = 29.19505 30.16166 29.67835
#
# Velocity S-wave (km/s) = 3.80544 3.86792 3.83680
# Velocity P-wave (km/s) = 7.49875 7.65649 7.57803
#
# Compressibility (1/GPa) = 0.01343399
#
# Stress axis : x y z
#
# Youngs Moduli (GPa) = 61.84051 88.51336 88.22114
#
# Poissons Ratio (x) = 0.47978 0.32840
# Poissons Ratio (y) = 0.33520 0.31247
# Poissons Ratio (z) = 0.23020 0.31351
#
# Static dielectric constant tensor:
#      x y z
#    x 2.711830 0.000000 -0.377700 
#    y 0.000000 3.883360 0.000000 
#    z -0.377700 0.000000 3.517870 
# 
# 
# High freq. dielectric constant tensor:
#      x y z
#    x 1.790570 0.000000 -0.002870 
#    y 0.000000 1.795260 0.000000 
#    z -0.002870 0.000000 1.785500 
# 
# From -- ./inp_files/52406.got.cif
#   From: 2010.03.12/outbox.cif.g09.slc.cpg/sg5_27_cif.got.tgz:52406.got - 2010.03.31 09:47:26.
