data_PCOD8050195
_publ_section_title
;
Structure prediction by ZEFSAII (Michael W. Deem and Ramdas Pophale) SiO2 
 PCOD8050195
Probable space group: C 2
;
_chemical_formula_sum "Si O2"
_cell_formula_units_Z 26
_cell_length_a 14.647682
_cell_length_b 11.265247
_cell_length_c 8.601667
_cell_angle_alpha 90.000000
_cell_angle_beta 123.631688
_cell_angle_gamma 90.000000
_cell_volume 1181.779647
_symmetry_space_group_name_H-M "C 2"
_symmetry_group_IT_number 5
_symmetry_cell_setting 'monoclinic'
loop_
_space_group_symop_operation_xyz
x,y,z
-x,y,-z
1/2+x,1/2+y,z
1/2-x,1/2+y,-z
loop_
_atom_site_type_symbol
_atom_site_label
_atom_site_fract_x
_atom_site_fract_y
_atom_site_fract_z
Si Si1 0.120658 0.030550 0.077258
Si Si2 0.178375 0.950900 0.637963
Si Si3 0.000000 0.375306 0.500000
Si Si4 0.372814 0.674833 0.211051
Si Si5 0.046074 0.752369 0.382351
Si Si6 0.314073 0.034033 0.494249
Si Si7 0.674091 0.314425 0.940539
O O1 0.200530 0.064167 0.295633
O O2 0.094793 0.136450 0.932332
O O3 0.000000 0.981068 0.000000
O O4 0.190290 0.928192 0.062100
O O5 0.089075 0.887363 0.442798
O O6 0.209261 0.854558 0.799419
O O7 0.122219 0.069431 0.656434
O O8 0.284373 0.974602 0.631301
O O9 0.947332 0.288128 0.322129
O O10 0.904232 0.454957 0.487838
O O11 0.246426 0.710961 0.080136
O O12 0.137958 0.661722 0.411101
O O13 0.000000 0.699772 0.500000
O O14 0.948086 0.761200 0.166903
#
# Coordination Sequence:
#
# PCOD8050195 Si02
#       7
#     4   4   2   4   4   4   4
#     4  11  24  42  68 100 134 177 229 278 336 410
#     4  10  25  41  72 103 133 183 234 279 343 418
#     4  12  28  44  66 100 140 188 224 298 354 406
#     4  11  26  44  69  97 143 179 231 289 347 401
#     4  10  21  41  69  94 135 179 226 275 339 412
#     4  12  25  45  70 102 139 180 229 285 352 406
#     4  10  22  45  65  98 138 179 225 278 338 414
#
# _framework density 22.000716000000001
#
# number of rings (size 3 to 8) (size 9 to 14) (size 15 to 20)
#    0.000    1.231    2.308    2.769    9.692    2.462 
#    0.000    1.538    0.000    0.000    0.000    0.000 
#    0.000    0.000    0.000    0.000    0.000    0.000 
#
# Total GULP energy -161133.222046 kJ/mol
# GULP energy per Si atom -12394.863234 kJ/mol
# Density = 2.195064 g / cm^3
# Si number density = 22.000716 Si / 1000 Ang^3
#
#
#
# Elastic Constant Matrix: (Units=GPa)
#
#
# Indices 1 2 3 4 5 6 
#
# 1 106.4915 36.8290 39.5087 0.0000 6.0266 0.0000
# 2 36.8290 104.0193 45.4678 0.0000 11.8394 0.0000
# 3 39.5087 45.4678 95.3801 0.0000 21.4751 0.0000
# 4 0.0000 0.0000 0.0000 24.1626 0.0000 13.7384
# 5 6.0266 11.8394 21.4751 0.0000 34.4192 0.0000
# 6 0.0000 0.0000 0.0000 13.7384 0.0000 38.5376
#
#
#
# Elastic Compliance Matrix: (Units=1/GPa)
#
#
# Indices 1 2 3 4 5 6 
#
# 1 0.011649 -0.002570 -0.003886 0.000000 0.001269 0.000000
# 2 -0.002570 0.012724 -0.004790 0.000000 -0.000938 0.000000
# 3 -0.003886 -0.004790 0.016117 0.000000 -0.007728 0.000000
# 4 0.000000 0.000000 0.000000 0.051908 0.000000 -0.018505
# 5 0.001269 -0.000938 -0.007728 0.000000 0.033976 0.000000
# 6 0.000000 0.000000 0.000000 -0.018505 0.000000 0.032545
#
#
# Mechanical properties :
#
#
# Convention : Reuss Voigt Hill
#
# Bulk Modulus (GPa) = 55.55894 61.05575 58.30734
# Shear Modulus (GPa) = 26.67940 31.69626 29.18783
#
# Velocity S-wave (km/s) = 3.48611 3.79976 3.64631
# Velocity P-wave (km/s) = 6.44298 6.86024 6.65488
#
# Compressibility (1/GPa) = 0.01799890
#
# Stress axis : x y z
#
# Youngs Moduli (GPa) = 85.84282 78.59135 62.04586
#
# Poissons Ratio (x) = 0.20201 0.24109
# Poissons Ratio (y) = 0.22065 0.29717
# Poissons Ratio (z) = 0.33356 0.37642
#
# Static dielectric constant tensor:
#      x y z
#    x 3.904440 0.000000 0.033170 
#    y 0.000000 3.952270 0.000000 
#    z 0.033170 0.000000 3.993850 
# 
# 
# High freq. dielectric constant tensor:
#      x y z
#    x 1.857610 0.000000 0.007480 
#    y 0.000000 1.869910 0.000000 
#    z 0.007480 0.000000 1.866200 
# 
# From -- ./inp_files/23713.got.cif
#   From: 2010.03.12/outbox.cif.g09.slc.cpg/sg5_12_cif.got.tgz:23713.got - 2010.03.31 09:47:26.
