data_PCOD8050349
_publ_section_title
;
Structure prediction by ZEFSAII (Michael W. Deem and Ramdas Pophale) SiO2 
 PCOD8050349
Probable space group: C 2
;
_chemical_formula_sum "Si O2"
_cell_formula_units_Z 26
_cell_length_a 22.067325
_cell_length_b 5.581252
_cell_length_c 13.360571
_cell_angle_alpha 90.000000
_cell_angle_beta 127.742133
_cell_angle_gamma 90.000000
_cell_volume 1301.243338
_symmetry_space_group_name_H-M "C 2"
_symmetry_group_IT_number 5
_symmetry_cell_setting 'monoclinic'
loop_
_space_group_symop_operation_xyz
x,y,z
-x,y,-z
1/2+x,1/2+y,z
1/2-x,1/2+y,-z
loop_
_atom_site_type_symbol
_atom_site_label
_atom_site_fract_x
_atom_site_fract_y
_atom_site_fract_z
Si Si1 0.340553 0.128970 0.591893
Si Si2 0.155946 0.410302 0.865700
Si Si3 0.500000 0.182671 0.000000
Si Si4 0.601200 0.511257 0.213868
Si Si5 0.783460 0.912763 0.155489
Si Si6 0.259793 0.821105 0.668573
Si Si7 0.503459 0.890640 0.198617
O O1 0.357752 0.393228 0.649802
O O2 0.304250 0.144055 0.444160
O O3 0.277586 0.020245 0.603400
O O4 0.419724 0.982192 0.668279
O O5 0.172579 0.660650 0.823715
O O6 0.065347 0.397055 0.793049
O O7 0.173091 0.161330 0.825315
O O8 0.202673 0.410210 0.016438
O O9 0.422966 0.330554 0.898134
O O10 0.522041 0.037274 0.924250
O O11 0.660037 0.694186 0.222503
O O12 0.522682 0.627050 0.176705
O O13 0.771879 0.933499 0.262262
#
# Coordination Sequence:
#
# PCOD8050349 Si02
#       7
#     4   4   2   4   4   4   4
#     4  10  22  39  63  96 124 167 208 271 328 379
#     4  10  24  45  63  97 129 171 221 273 313 398
#     4  10  22  34  60 104 118 166 208 260 352 384
#     4  10  22  36  61  95 128 161 201 274 330 384
#     4  10  25  41  69  93 128 178 217 263 332 378
#     4  11  22  40  66  93 130 166 219 264 324 397
#     4  10  23  39  62  91 133 162 215 271 328 381
#
# _framework density 19.980889999999999
#
# number of rings (size 3 to 8) (size 9 to 14) (size 15 to 20)
#    0.000    1.846    1.538    0.462   15.077    1.231 
#    0.000    0.769    0.000    0.000    0.000    0.000 
#    0.000    0.000    0.000    0.000    0.000    0.000 
#
# Total GULP energy -161125.187301 kJ/mol
# GULP energy per Si atom -12394.245177 kJ/mol
# Density = 1.993541 g / cm^3
# Si number density = 19.980890 Si / 1000 Ang^3
#
#
#
# Elastic Constant Matrix: (Units=GPa)
#
#
# Indices 1 2 3 4 5 6 
#
# 1 130.0711 45.1963 54.3881 0.0000 2.0001 0.0000
# 2 45.1963 118.0084 29.5187 0.0000 -3.2269 -0.0001
# 3 54.3881 29.5187 97.5875 0.0000 -8.9692 0.0000
# 4 0.0000 0.0000 0.0000 17.5376 0.0000 -10.6082
# 5 2.0001 -3.2269 -8.9692 0.0000 26.1038 0.0000
# 6 0.0000 -0.0001 0.0000 -10.6082 0.0000 8.8546
#
#
#
# Elastic Compliance Matrix: (Units=1/GPa)
#
#
# Indices 1 2 3 4 5 6 
#
# 1 0.011090 -0.002937 -0.005580 0.000000 -0.003130 0.000000
# 2 -0.002937 0.009946 -0.001278 0.000000 0.001015 0.000000
# 3 -0.005580 -0.001278 0.014218 0.000000 0.005155 0.000000
# 4 0.000000 0.000000 0.000000 0.207104 0.000000 0.248120
# 5 -0.003130 0.001015 0.005155 0.000000 0.040445 0.000000
# 6 0.000000 0.000000 0.000000 0.248120 0.000000 0.410196
#
#
# Mechanical properties :
#
#
# Convention : Reuss Voigt Hill
#
# Bulk Modulus (GPa) = 63.84504 67.09702 65.47103
# Shear Modulus (GPa) = 6.96562 24.93680 15.95121
#
# Velocity S-wave (km/s) = 1.86915 3.53658 2.82853
# Velocity P-wave (km/s) = 6.05646 7.09437 6.59586
#
# Compressibility (1/GPa) = 0.01566292
#
# Stress axis : x y z
#
# Youngs Moduli (GPa) = 90.17081 100.53860 70.33575
#
# Poissons Ratio (x) = 0.29530 0.39247
# Poissons Ratio (y) = 0.26485 0.08991
# Poissons Ratio (z) = 0.50315 0.12852
#
# Static dielectric constant tensor:
#      x y z
#    x 3.396090 0.000000 0.206200 
#    y 0.000000 3.944520 0.000000 
#    z 0.206200 0.000000 3.623540 
# 
# 
# High freq. dielectric constant tensor:
#      x y z
#    x 1.758720 0.000000 0.015970 
#    y 0.000000 1.796110 0.000000 
#    z 0.015970 0.000000 1.776860 
# 
# From -- ./inp_files/45392.got.cif
#   From: 2010.03.12/outbox.cif.g09.slc.cpg/sg5_23_cif.got.tgz:45392.got - 2010.03.31 09:47:26.
