data_PCOD8050240
_publ_section_title
;
Structure prediction by ZEFSAII (Michael W. Deem and Ramdas Pophale) SiO2 
 PCOD8050240
Probable space group: C 2
;
_chemical_formula_sum "Si O2"
_cell_formula_units_Z 28
_cell_length_a 18.416752
_cell_length_b 7.146658
_cell_length_c 15.011176
_cell_angle_alpha 90.000000
_cell_angle_beta 43.595731
_cell_angle_gamma 90.000000
_cell_volume 1362.405333
_symmetry_space_group_name_H-M "C 2"
_symmetry_group_IT_number 5
_symmetry_cell_setting 'monoclinic'
loop_
_space_group_symop_operation_xyz
x,y,z
-x,y,-z
1/2+x,1/2+y,z
1/2-x,1/2+y,-z
loop_
_atom_site_type_symbol
_atom_site_label
_atom_site_fract_x
_atom_site_fract_y
_atom_site_fract_z
Si Si1 0.541285 0.638470 0.562487
Si Si2 0.900209 0.044870 0.853028
Si Si3 0.325629 0.929412 0.999015
Si Si4 0.270744 0.349804 0.585139
Si Si5 0.861025 0.495582 0.447489
Si Si6 0.991980 0.696133 0.182556
Si Si7 0.605775 0.951842 0.871493
O O1 0.500000 0.631917 0.500000
O O2 0.451337 0.572685 0.710449
O O3 0.645078 0.510464 0.469769
O O4 0.565179 0.852944 0.565868
O O5 0.789784 0.937769 0.939906
O O6 0.981668 0.916830 0.837021
O O7 0.881663 0.233601 0.924755
O O8 0.317138 0.971889 0.112662
O O9 0.399006 0.089815 0.894214
O O10 0.229898 0.376090 0.520375
O O11 0.169313 0.346319 0.739118
O O12 0.314815 0.140932 0.560340
O O13 0.916662 0.634081 0.328765
O O14 0.939304 0.645193 0.133573
O O15 0.500000 0.842738 0.000000
#
# Coordination Sequence:
#
# PCOD8050240 Si02
#       7
#     4   4   4   4   4   4   4
#     4  12  26  42  65 103 133 169 223 276 327 384
#     4  12  23  41  72  94 133 182 215 263 337 390
#     4  11  22  42  66  98 134 174 218 266 325 393
#     4  11  22  42  69  96 129 171 218 272 330 394
#     4  11  22  42  69  94 130 171 218 267 334 392
#     4  10  21  42  67  95 129 171 218 270 322 387
#     4   9  22  43  65  92 132 164 213 276 313 383
#
# _framework density 20.551884999999999
#
# number of rings (size 3 to 8) (size 9 to 14) (size 15 to 20)
#    0.000    1.143    5.714    0.857    0.000    0.571 
#    5.143    6.429    0.000    0.000    0.000    0.000 
#    0.000    0.000    0.000    0.000    0.000    0.000 
#
# Total GULP energy -173506.184959 kJ/mol
# GULP energy per Si atom -12393.298926 kJ/mol
# Density = 2.050511 g / cm^3
# Si number density = 20.551885 Si / 1000 Ang^3
#
#
#
# Elastic Constant Matrix: (Units=GPa)
#
#
# Indices 1 2 3 4 5 6 
#
# 1 93.6745 26.1769 27.6356 0.0004 13.2710 0.0004
# 2 26.1769 107.8696 42.2245 -0.0002 6.5532 0.0013
# 3 27.6356 42.2245 112.2095 -0.0002 2.7374 0.0002
# 4 0.0004 -0.0002 -0.0002 31.5998 -0.0001 -12.3610
# 5 13.2710 6.5532 2.7374 -0.0001 26.8174 -0.0003
# 6 0.0004 0.0013 0.0002 -12.3610 -0.0003 25.7996
#
#
#
# Elastic Compliance Matrix: (Units=1/GPa)
#
#
# Indices 1 2 3 4 5 6 
#
# 1 0.012654 -0.001836 -0.002290 0.000000 -0.005580 0.000000
# 2 -0.001836 0.011275 -0.003755 0.000000 -0.001463 -0.000001
# 3 -0.002290 -0.003755 0.010866 0.000000 0.000942 0.000000
# 4 0.000000 0.000000 0.000000 0.038945 0.000001 0.018659
# 5 -0.005580 -0.001463 0.000942 0.000001 0.040312 0.000001
# 6 0.000000 -0.000001 0.000000 0.018659 0.000001 0.047700
#
#
# Mechanical properties :
#
#
# Convention : Reuss Voigt Hill
#
# Bulk Modulus (GPa) = 52.53655 56.20309 54.36982
# Shear Modulus (GPa) = 27.19513 31.35781 29.27647
#
# Velocity S-wave (km/s) = 3.64159 3.91037 3.77837
# Velocity P-wave (km/s) = 6.58027 6.91334 6.74886
#
# Compressibility (1/GPa) = 0.01903437
#
# Stress axis : x y z
#
# Youngs Moduli (GPa) = 79.02507 88.69496 92.03173
#
# Poissons Ratio (x) = 0.16280 0.21073
# Poissons Ratio (y) = 0.14505 0.34557
# Poissons Ratio (z) = 0.18094 0.33304
#
# Static dielectric constant tensor:
#      x y z
#    x 3.722550 0.000000 -0.030130 
#    y 0.000000 3.636890 0.000000 
#    z -0.030130 0.000000 3.958390 
# 
# 
# High freq. dielectric constant tensor:
#      x y z
#    x 1.795980 0.000000 -0.010340 
#    y 0.000000 1.794710 0.000000 
#    z -0.010340 0.000000 1.821140 
# 
# From -- ./inp_files/62615.got.cif
#   From: 2010.03.12/outbox.cif.g09.slc.cpg/sg5_32_cif.got.tgz:62615.got - 2010.03.31 09:47:26.
