data_PCOD8050226
_publ_section_title
;
Structure prediction by ZEFSAII (Michael W. Deem and Ramdas Pophale) SiO2 
 PCOD8050226
Probable space group: C 2
;
_chemical_formula_sum "Si O2"
_cell_formula_units_Z 32
_cell_length_a 9.339326
_cell_length_b 10.602948
_cell_length_c 29.700646
_cell_angle_alpha 90.000000
_cell_angle_beta 148.436370
_cell_angle_gamma 90.000000
_cell_volume 1539.498385
_symmetry_space_group_name_H-M "C 2"
_symmetry_group_IT_number 5
_symmetry_cell_setting 'monoclinic'
loop_
_space_group_symop_operation_xyz
x,y,z
-x,y,-z
1/2+x,1/2+y,z
1/2-x,1/2+y,-z
loop_
_atom_site_type_symbol
_atom_site_label
_atom_site_fract_x
_atom_site_fract_y
_atom_site_fract_z
Si Si1 0.697569 0.144420 0.758184
Si Si2 0.303130 0.457413 0.592706
Si Si3 0.323204 0.243439 0.344149
Si Si4 0.732136 0.361064 0.958102
Si Si5 0.292668 0.863240 0.239492
Si Si6 0.762910 0.842861 0.671216
Si Si7 0.713926 0.216161 0.524144
Si Si8 0.228703 0.149080 0.956001
O O1 0.737023 0.156850 0.714969
O O2 0.447902 0.223900 0.709527
O O3 0.979436 0.185509 0.856722
O O4 0.620540 0.003020 0.751517
O O5 0.539796 0.374823 0.633748
O O6 0.344302 0.455994 0.658611
O O7 0.341111 0.597661 0.584531
O O8 0.000000 0.404971 0.500000
O O9 0.542807 0.170848 0.434508
O O10 0.043030 0.269375 0.296543
O O11 0.471790 0.319178 0.858964
O O12 0.697413 0.505627 0.967409
O O13 0.762274 0.256885 0.004346
O O14 0.000000 0.355056 0.000000
O O15 0.204523 0.873054 0.267954
O O16 0.450339 0.811794 0.574779
O O17 0.500000 0.287474 0.500000
O O18 0.500000 0.158033 0.000000
#
# Coordination Sequence:
#
# PCOD8050226 Si02
#       8
#     4   4   4   4   4   4   4   4
#     4  10  24  39  61  90 120 155 198 251 303 358
#     4  10  22  37  58  81 113 157 201 242 293 344
#     4  11  22  40  59  86 120 156 204 249 296 351
#     4  10  22  41  66  93 125 160 204 249 310 380
#     4  11  23  39  62  90 118 156 200 250 301 360
#     4  11  22  40  58  83 121 155 197 249 296 346
#     4  11  22  37  57  83 114 157 201 243 288 349
#     4  10  21  42  65  93 126 160 201 252 311 377
#
# _framework density 20.785990999999999
#
# number of rings (size 3 to 8) (size 9 to 14) (size 15 to 20)
#    0.000    1.500    2.500    2.250    3.500    0.500 
#    0.000    3.750    0.000    0.000    0.000    0.000 
#    0.000    0.000    0.000    0.000    0.000    0.000 
#
# Total GULP energy -198344.476409 kJ/mol
# GULP energy per Si atom -12396.529776 kJ/mol
# Density = 2.073868 g / cm^3
# Si number density = 20.785991 Si / 1000 Ang^3
#
#
#
# Elastic Constant Matrix: (Units=GPa)
#
#
# Indices 1 2 3 4 5 6 
#
# 1 92.1500 30.3829 35.5085 -0.0001 -9.0005 0.0000
# 2 30.3829 73.1714 27.4317 0.0000 -11.9952 0.0000
# 3 35.5085 27.4317 110.1631 -0.0004 -21.3673 0.0002
# 4 -0.0001 0.0000 -0.0004 50.2325 0.0001 -0.2373
# 5 -9.0005 -11.9952 -21.3673 0.0001 37.4296 0.0000
# 6 0.0000 0.0000 0.0002 -0.2373 0.0000 29.3219
#
#
#
# Elastic Compliance Matrix: (Units=1/GPa)
#
#
# Indices 1 2 3 4 5 6 
#
# 1 0.013567 -0.004407 -0.003280 0.000000 -0.000022 0.000000
# 2 -0.004407 0.016816 -0.002167 0.000000 0.003092 0.000000
# 3 -0.003280 -0.002167 0.011680 0.000000 0.005184 0.000000
# 4 0.000000 0.000000 0.000000 0.019908 0.000000 0.000161
# 5 -0.000022 0.003092 0.005184 0.000000 0.030662 0.000000
# 6 0.000000 0.000000 0.000000 0.000161 0.000000 0.034105
#
#
# Mechanical properties :
#
#
# Convention : Reuss Voigt Hill
#
# Bulk Modulus (GPa) = 44.73441 51.34784 48.04113
# Shear Modulus (GPa) = 32.48915 35.54091 34.01503
#
# Velocity S-wave (km/s) = 3.95781 4.13952 4.04968
# Velocity P-wave (km/s) = 6.51566 6.89958 6.71037
#
# Compressibility (1/GPa) = 0.02235415
#
# Stress axis : x y z
#
# Youngs Moduli (GPa) = 73.71020 59.46753 85.61812
#
# Poissons Ratio (x) = 0.26210 0.28081
# Poissons Ratio (y) = 0.32487 0.18553
# Poissons Ratio (z) = 0.24175 0.12886
#
# Static dielectric constant tensor:
#      x y z
#    x 3.772510 0.000000 -0.053140 
#    y 0.000000 3.645180 0.000000 
#    z -0.053140 0.000000 3.902370 
# 
# 
# High freq. dielectric constant tensor:
#      x y z
#    x 1.820290 0.000000 0.000890 
#    y 0.000000 1.805490 0.000000 
#    z 0.000890 0.000000 1.823570 
# 
# From -- ./inp_files/64544.got.cif
#   From: 2010.03.12/outbox.cif.g09.slc.cpg/sg5_33_cif.got.tgz:64544.got - 2010.03.31 09:47:26.
