data_PCOD8050076
_publ_section_title
;
Structure prediction by ZEFSAII (Michael W. Deem and Ramdas Pophale) SiO2 
 PCOD8050076
Probable space group: C 2
;
_chemical_formula_sum "Si O2"
_cell_formula_units_Z 28
_cell_length_a 10.931170
_cell_length_b 10.651731
_cell_length_c 11.395696
_cell_angle_alpha 90.000000
_cell_angle_beta 94.458949
_cell_angle_gamma 90.000000
_cell_volume 1322.851877
_symmetry_space_group_name_H-M "C 2"
_symmetry_group_IT_number 5
_symmetry_cell_setting 'monoclinic'
loop_
_space_group_symop_operation_xyz
x,y,z
-x,y,-z
1/2+x,1/2+y,z
1/2-x,1/2+y,-z
loop_
_atom_site_type_symbol
_atom_site_label
_atom_site_fract_x
_atom_site_fract_y
_atom_site_fract_z
Si Si1 0.705418 0.811680 0.825187
Si Si2 0.659311 0.459349 0.347657
Si Si3 0.469405 0.240714 0.369802
Si Si4 0.374933 0.087103 0.780183
Si Si5 0.621814 0.856221 0.063690
Si Si6 0.936223 0.228551 0.721612
Si Si7 0.735023 0.899117 0.398075
O O1 0.807321 0.705940 0.827021
O O2 0.575720 0.758075 0.768863
O O3 0.744676 0.930400 0.748812
O O4 0.715670 0.857160 0.961842
O O5 0.556800 0.355637 0.347962
O O6 0.585225 0.586925 0.319546
O O7 0.734673 0.459431 0.474377
O O8 0.500000 0.184275 0.500000
O O9 0.499623 0.130249 0.278005
O O10 0.332360 0.295320 0.357295
O O11 0.408846 0.995397 0.889645
O O12 0.277317 0.018535 0.687791
O O13 0.654730 0.764556 0.175156
O O14 0.500000 0.797610 0.000000
O O15 0.893916 0.321411 0.612181
#
# Coordination Sequence:
#
# PCOD8050076 Si02
#       7
#     4   4   4   4   4   4   4
#     4  10  22  40  63  91 120 162 214 251 310 375
#     4  10  22  37  62  90 123 161 204 251 320 369
#     4   9  20  39  58  88 123 156 201 252 305 377
#     4  10  21  40  64  87 124 162 200 260 314 362
#     4   9  21  41  58  87 120 157 213 254 305 368
#     4  10  22  39  61  87 124 162 199 259 310 361
#     4  10  22  38  58  94 122 158 207 247 311 383
#
# _framework density 21.166391000000001
#
# number of rings (size 3 to 8) (size 9 to 14) (size 15 to 20)
#    0.000    2.286    0.000    0.857    8.000    4.000 
#    2.571    0.000    0.000    0.000    0.000    0.000 
#    0.000    0.000    0.000    0.000    0.000    0.000 
#
# Total GULP energy -173443.850913 kJ/mol
# GULP energy per Si atom -12388.846494 kJ/mol
# Density = 2.111822 g / cm^3
# Si number density = 21.166391 Si / 1000 Ang^3
#
#
#
# Elastic Constant Matrix: (Units=GPa)
#
#
# Indices 1 2 3 4 5 6 
#
# 1 41.2952 5.7787 20.5021 0.0000 -6.1184 0.0000
# 2 5.7787 78.9251 33.0410 0.0000 -6.8949 0.0000
# 3 20.5021 33.0410 92.0201 0.0000 -11.3876 0.0000
# 4 0.0000 0.0000 0.0000 34.2613 0.0000 2.6646
# 5 -6.1184 -6.8949 -11.3876 0.0000 32.7331 0.0000
# 6 0.0000 0.0000 0.0000 2.6646 0.0000 10.6314
#
#
#
# Elastic Compliance Matrix: (Units=1/GPa)
#
#
# Indices 1 2 3 4 5 6 
#
# 1 0.027576 0.000786 -0.006027 0.000000 0.003223 0.000000
# 2 0.000786 0.014990 -0.005380 0.000000 0.001433 0.000000
# 3 -0.006027 -0.005380 0.014486 0.000000 0.002780 0.000000
# 4 0.000000 0.000000 0.000000 0.029768 0.000000 -0.007461
# 5 0.003223 0.001433 0.002780 0.000000 0.032421 0.000000
# 6 0.000000 0.000000 0.000000 -0.007461 0.000000 0.095931
#
#
# Mechanical properties :
#
#
# Convention : Reuss Voigt Hill
#
# Bulk Modulus (GPa) = 27.92620 36.76488 32.34554
# Shear Modulus (GPa) = 20.13280 25.71974 22.92627
#
# Velocity S-wave (km/s) = 3.08745 3.48964 3.29469
# Velocity P-wave (km/s) = 5.09235 5.80034 5.45784
#
# Compressibility (1/GPa) = 0.03580866
#
# Stress axis : x y z
#
# Youngs Moduli (GPa) = 36.26361 66.71020 69.03283
#
# Poissons Ratio (x) = -0.05242 0.41607
# Poissons Ratio (y) = -0.02849 0.37141
# Poissons Ratio (z) = 0.21857 0.35891
#
# Static dielectric constant tensor:
#      x y z
#    x 3.802750 0.000000 -0.194900 
#    y 0.000000 3.804280 0.000000 
#    z -0.194900 0.000000 4.308670 
# 
# 
# High freq. dielectric constant tensor:
#      x y z
#    x 1.819100 0.000000 -0.000020 
#    y 0.000000 1.830830 0.000000 
#    z -0.000020 0.000000 1.836480 
# 
# From -- ./inp_files/38848.got.cif
#   From: 2010.03.12/outbox.cif.g09.slc.cpg/sg5_20_cif.got.tgz:38848.got - 2010.03.31 09:47:26.
