data_PCOD8050787
_publ_section_title
;
Structure prediction by ZEFSAII (Michael W. Deem and Ramdas Pophale) SiO2 
 PCOD8050787
Probable space group: C 2
;
_chemical_formula_sum "Si O2"
_cell_formula_units_Z 30
_cell_length_a 8.925575
_cell_length_b 30.658685
_cell_length_c 5.231228
_cell_angle_alpha 90.000000
_cell_angle_beta 111.446578
_cell_angle_gamma 90.000000
_cell_volume 1332.387553
_symmetry_space_group_name_H-M "C 2"
_symmetry_group_IT_number 5
_symmetry_cell_setting 'monoclinic'
loop_
_space_group_symop_operation_xyz
x,y,z
-x,y,-z
1/2+x,1/2+y,z
1/2-x,1/2+y,-z
loop_
_atom_site_type_symbol
_atom_site_label
_atom_site_fract_x
_atom_site_fract_y
_atom_site_fract_z
Si Si1 0.500000 0.187310 0.500000
Si Si2 0.311857 0.885319 0.861906
Si Si3 0.605781 0.676591 0.812458
Si Si4 0.811597 0.030432 0.873100
Si Si5 0.187210 0.977903 0.630398
Si Si6 0.310090 0.839532 0.367324
Si Si7 0.352623 0.112528 0.076172
Si Si8 0.669280 0.246086 0.220353
O O1 0.404895 0.156104 0.251441
O O2 0.635023 0.217054 0.449657
O O3 0.282891 0.935594 0.779054
O O4 0.233196 0.858464 0.579273
O O5 0.500000 0.876816 0.000000
O O6 0.236481 0.867085 0.080955
O O7 0.500000 0.686373 0.500000
O O8 0.730315 0.717026 0.918132
O O9 0.500000 0.673314 0.000000
O O10 0.699691 0.630536 0.819041
O O11 0.706919 0.074365 0.770150
O O12 0.762082 0.996885 0.616034
O O13 0.000000 0.041448 0.000000
O O14 0.767572 0.012830 0.125745
O O15 0.000000 0.966211 0.500000
O O16 0.500000 0.846156 0.500000
O O17 0.271323 0.788798 0.340733
O O18 0.500000 0.094424 0.000000
O O19 0.500000 0.261058 0.000000
#
# Coordination Sequence:
#
# PCOD8050787 Si02
#       8
#     2   4   4   4   4   4   4   4
#     4  12  24  48  68  96 154 184 236 310 352 412
#     4  10  22  43  67  98 138 173 221 282 351 423
#     4  12  26  44  70  98 133 187 237 293 355 424
#     4  10  24  43  68 102 135 180 231 289 341 423
#     4  10  22  43  69  97 137 175 225 282 351 420
#     4  10  24  42  67 100 135 180 229 284 340 424
#     4  12  26  45  68 100 140 188 238 300 355 414
#     4  12  26  44  68 100 141 186 237 297 355 412
#
# _framework density 22.515969999999999
#
# number of rings (size 3 to 8) (size 9 to 14) (size 15 to 20)
#    0.000    1.067    2.667    2.400    3.733    4.800 
#    0.000    0.000    0.000    0.000    0.000    0.000 
#    0.000    0.000    0.000    0.000    0.000    0.000 
#
# Total GULP energy -185962.725140 kJ/mol
# GULP energy per Si atom -12397.515009 kJ/mol
# Density = 2.246472 g / cm^3
# Si number density = 22.515970 Si / 1000 Ang^3
#
#
#
# Elastic Constant Matrix: (Units=GPa)
#
#
# Indices 1 2 3 4 5 6 
#
# 1 77.2157 40.0523 36.5478 0.0000 -19.2171 0.0000
# 2 40.0523 133.7262 45.7336 0.0000 -15.2195 0.0000
# 3 36.5478 45.7336 132.0201 0.0000 -26.3686 0.0000
# 4 0.0000 0.0000 0.0000 1097.0027 0.0000 37.9011
# 5 -19.2171 -15.2195 -26.3686 0.0000 22.5590 0.0000
# 6 0.0000 0.0000 0.0000 37.9011 0.0000 39.0487
#
#
#
# Elastic Compliance Matrix: (Units=1/GPa)
#
#
# Indices 1 2 3 4 5 6 
#
# 1 0.018438 -0.003696 -0.001546 0.000000 0.011407 0.000000
# 2 -0.003696 0.009381 -0.002076 0.000000 0.000754 0.000000
# 3 -0.001546 -0.002076 0.010670 0.000000 0.009754 0.000000
# 4 0.000000 0.000000 0.000000 0.000943 0.000000 -0.000915
# 5 0.011407 0.000754 0.009754 0.000000 0.065956 0.000000
# 6 0.000000 0.000000 0.000000 -0.000915 0.000000 0.026498
#
#
# Mechanical properties :
#
#
# Convention : Reuss Voigt Hill
#
# Bulk Modulus (GPa) = 41.92156 65.29219 53.60688
# Shear Modulus (GPa) = 32.36849 246.43062 139.39955
#
# Velocity S-wave (km/s) = 3.79566 10.47304 7.87692
# Velocity P-wave (km/s) = 6.15373 13.24037 10.32414
#
# Compressibility (1/GPa) = 0.02385408
#
# Stress axis : x y z
#
# Youngs Moduli (GPa) = 54.23531 106.60320 93.72104
#
# Poissons Ratio (x) = 0.39396 0.14488
# Poissons Ratio (y) = 0.20043 0.19456
# Poissons Ratio (z) = 0.08384 0.22130
#
# Static dielectric constant tensor:
#      x y z
#    x 4.212020 0.000000 -0.062980 
#    y 0.000000 3.898220 0.000000 
#    z -0.062980 0.000000 2.808260 
# 
# 
# High freq. dielectric constant tensor:
#      x y z
#    x 1.882510 0.000000 -0.001070 
#    y 0.000000 1.890770 0.000000 
#    z -0.001070 0.000000 1.896420 
# 
# From -- ./inp_files/3970.got.cif
#   From: 2010.03.12/outbox.cif.g09.slc.cpg/sg5_2_cif.got.tgz:3970.got - 2010.03.31 09:47:26.
