data_PCOD8050715
_publ_section_title
;
Structure prediction by ZEFSAII (Michael W. Deem and Ramdas Pophale) SiO2 
 PCOD8050715
Probable space group: C 2
;
_chemical_formula_sum "Si O2"
_cell_formula_units_Z 28
_cell_length_a 19.427796
_cell_length_b 9.155181
_cell_length_c 13.692133
_cell_angle_alpha 90.000000
_cell_angle_beta 33.975876
_cell_angle_gamma 90.000000
_cell_volume 1360.980837
_symmetry_space_group_name_H-M "C 2"
_symmetry_group_IT_number 5
_symmetry_cell_setting 'monoclinic'
loop_
_space_group_symop_operation_xyz
x,y,z
-x,y,-z
1/2+x,1/2+y,z
1/2-x,1/2+y,-z
loop_
_atom_site_type_symbol
_atom_site_label
_atom_site_fract_x
_atom_site_fract_y
_atom_site_fract_z
Si Si1 0.354063 0.363560 0.420304
Si Si2 0.450400 0.144031 0.451829
Si Si3 0.558502 0.274758 0.028412
Si Si4 0.848258 0.238828 0.972155
Si Si5 0.377398 0.667738 0.326282
Si Si6 0.167214 0.566373 0.055415
Si Si7 0.809072 0.058389 0.203839
O O1 0.409280 0.299607 0.455184
O O2 0.447514 0.333836 0.223116
O O3 0.336856 0.537930 0.447758
O O4 0.222447 0.294722 0.550180
O O5 0.500000 0.178183 0.500000
O O6 0.553652 0.067602 0.264453
O O7 0.331966 0.036905 0.593661
O O8 0.636606 0.153031 0.992489
O O9 0.500000 0.203161 0.000000
O O10 0.646504 0.409636 0.897612
O O11 0.799187 0.401729 0.012688
O O12 0.994838 0.234754 0.788089
O O13 0.788249 0.133536 0.962194
O O14 0.808581 0.189875 0.126732
O O15 0.392994 0.603595 0.197728
#
# Coordination Sequence:
#
# PCOD8050715 Si02
#       7
#     4   4   4   4   4   4   4
#     4  10  23  40  66  96 128 172 224 271 329 390
#     4  10  22  42  68  91 129 177 222 267 333 396
#     4  11  21  42  68  93 130 170 222 276 325 394
#     4  12  24  42  66  95 133 171 224 269 335 394
#     4  11  24  41  68  96 135 176 220 272 331 397
#     4  11  27  41  66  98 131 175 221 279 331 391
#     4  11  21  41  71  94 125 180 219 267 336 398
#
# _framework density 20.573397
#
# number of rings (size 3 to 8) (size 9 to 14) (size 15 to 20)
#    0.000    1.143    4.286    1.286    8.000    1.143 
#    2.571    0.000    0.000    0.000    0.000    0.000 
#    0.000    0.000    0.000    0.000    0.000    0.000 
#
# Total GULP energy -173651.460073 kJ/mol
# GULP energy per Si atom -12403.675719 kJ/mol
# Density = 2.052657 g / cm^3
# Si number density = 20.573397 Si / 1000 Ang^3
#
#
#
# Elastic Constant Matrix: (Units=GPa)
#
#
# Indices 1 2 3 4 5 6 
#
# 1 146.8572 49.4938 37.4367 0.0000 -3.8556 0.0000
# 2 49.4938 116.3123 26.0516 0.0000 0.7216 0.0001
# 3 37.4367 26.0516 78.2479 0.0000 -7.9920 0.0000
# 4 0.0000 0.0000 0.0000 27.3704 0.0000 -2.7568
# 5 -3.8556 0.7216 -7.9920 0.0000 35.1861 0.0000
# 6 0.0000 0.0001 0.0000 -2.7568 0.0000 31.6375
#
#
#
# Elastic Compliance Matrix: (Units=1/GPa)
#
#
# Indices 1 2 3 4 5 6 
#
# 1 0.008608 -0.002971 -0.003099 0.000000 0.000300 0.000000
# 2 -0.002971 0.010344 -0.002127 0.000000 -0.001021 0.000000
# 3 -0.003099 -0.002127 0.015295 0.000000 0.003178 0.000000
# 4 0.000000 0.000000 0.000000 0.036859 0.000000 0.003212
# 5 0.000300 -0.001021 0.003178 0.000000 0.029196 0.000000
# 6 0.000000 0.000000 0.000000 0.003212 0.000000 0.031888
#
#
# Mechanical properties :
#
#
# Convention : Reuss Voigt Hill
#
# Bulk Modulus (GPa) = 56.00712 63.04238 59.52475
# Shear Modulus (GPa) = 32.35489 34.06781 33.21135
#
# Velocity S-wave (km/s) = 3.96998 4.07371 4.02218
# Velocity P-wave (km/s) = 6.94956 7.26884 7.11099
#
# Compressibility (1/GPa) = 0.01785487
#
# Stress axis : x y z
#
# Youngs Moduli (GPa) = 116.16546 96.67014 65.37995
#
# Poissons Ratio (x) = 0.28720 0.20260
# Poissons Ratio (y) = 0.34512 0.13906
# Poissons Ratio (z) = 0.35997 0.20561
#
# Static dielectric constant tensor:
#      x y z
#    x 4.007750 0.000000 -0.022260 
#    y 0.000000 3.654810 0.000000 
#    z -0.022260 0.000000 3.815630 
# 
# 
# High freq. dielectric constant tensor:
#      x y z
#    x 1.820030 0.000000 -0.009180 
#    y 0.000000 1.792230 0.000000 
#    z -0.009180 0.000000 1.808690 
# 
# From -- ./inp_files/41896.got.cif
#   From: 2010.03.12/outbox.cif.g09.slc.cpg/sg5_21_cif.got.tgz:41896.got - 2010.03.31 09:47:26.
