data_PCOD8050436
_publ_section_title
;
Structure prediction by ZEFSAII (Michael W. Deem and Ramdas Pophale) SiO2 
 PCOD8050436
Probable space group: C 2
;
_chemical_formula_sum "Si O2"
_cell_formula_units_Z 30
_cell_length_a 15.299468
_cell_length_b 13.022999
_cell_length_c 15.600384
_cell_angle_alpha 90.000000
_cell_angle_beta 151.459910
_cell_angle_gamma 90.000000
_cell_volume 1485.062501
_symmetry_space_group_name_H-M "C 2"
_symmetry_group_IT_number 5
_symmetry_cell_setting 'monoclinic'
loop_
_space_group_symop_operation_xyz
x,y,z
-x,y,-z
1/2+x,1/2+y,z
1/2-x,1/2+y,-z
loop_
_atom_site_type_symbol
_atom_site_label
_atom_site_fract_x
_atom_site_fract_y
_atom_site_fract_z
Si Si1 0.064599 0.267910 0.747889
Si Si2 0.226823 0.642351 0.405821
Si Si3 0.881251 0.774982 0.145218
Si Si4 0.379730 0.174863 0.314929
Si Si5 0.073203 0.919981 0.196368
Si Si6 0.000000 0.080769 0.000000
Si Si7 0.683083 0.216423 0.193270
Si Si8 0.088896 0.487910 0.409910
O O1 0.168054 0.234300 0.751333
O O2 0.875760 0.204590 0.590626
O O3 0.028073 0.389325 0.716690
O O4 0.185625 0.243198 0.935971
O O5 0.276939 0.644914 0.347763
O O6 0.201487 0.529005 0.423578
O O7 0.031057 0.696085 0.240751
O O8 0.872989 0.769636 0.241468
O O9 0.943339 0.887385 0.164571
O O10 0.500000 0.208837 0.500000
O O11 0.458588 0.074475 0.336511
O O12 0.174254 0.152208 0.167571
O O13 0.114555 0.825378 0.169974
O O14 0.269594 0.959256 0.394685
O O15 0.966806 0.009391 0.054499
O O16 0.500000 0.160201 0.000000
#
# Coordination Sequence:
#
# PCOD8050436 Si02
#       8
#     4   4   4   4   4   2   4   4
#     4  12  21  38  68  89 124 169 208 255 321 363
#     4  10  23  38  56  96 130 160 203 260 310 372
#     4  10  22  39  57  93 121 166 202 257 302 374
#     4  11  24  38  60  93 130 159 203 261 315 363
#     4  11  19  37  60  89 125 152 204 255 307 367
#     4  12  22  36  64  96 120 156 208 256 318 368
#     4  11  19  36  63  92 124 155 205 260 310 360
#     4  11  23  38  62  93 130 162 202 260 317 365
#
# _framework density 20.201170000000001
#
# number of rings (size 3 to 8) (size 9 to 14) (size 15 to 20)
#    0.000    1.067    7.333    2.000    1.867    0.000 
#    0.000    0.000    0.000    3.200    0.000    0.000 
#    0.000    0.000    0.000    0.000    0.000    0.000 
#
# Total GULP energy -185957.342242 kJ/mol
# GULP energy per Si atom -12397.156149 kJ/mol
# Density = 2.015519 g / cm^3
# Si number density = 20.201170 Si / 1000 Ang^3
#
#
#
# Elastic Constant Matrix: (Units=GPa)
#
#
# Indices 1 2 3 4 5 6 
#
# 1 95.4977 41.1190 40.9920 0.0018 -23.2898 0.0013
# 2 41.1190 36.3288 27.5951 0.0027 -2.9651 0.0011
# 3 40.9920 27.5951 156.0659 0.0029 -12.9302 0.0026
# 4 0.0018 0.0027 0.0029 10.7968 0.0010 11.8393
# 5 -23.2898 -2.9651 -12.9302 0.0010 29.1488 0.0027
# 6 0.0013 0.0011 0.0026 11.8393 0.0027 -21.8843
#
#
#
# Elastic Compliance Matrix: (Units=1/GPa)
#
#
# Indices 1 2 3 4 5 6 
#
# 1 0.028436 -0.030206 -0.000519 -0.000001 0.019417 0.000002
# 2 -0.030206 0.063900 -0.005010 -0.000004 -0.019857 -0.000004
# 3 -0.000519 -0.005010 0.007634 -0.000001 0.002462 0.000000
# 4 -0.000001 -0.000004 -0.000001 0.058133 -0.000007 0.031450
# 5 0.019417 -0.019857 0.002462 -0.000007 0.048893 0.000003
# 6 0.000002 -0.000004 0.000000 0.031450 0.000003 -0.028681
#
#
# Mechanical properties :
#
#
# Convention : Reuss Voigt Hill
#
# Bulk Modulus (GPa) = 35.08865 56.36717 45.72791
# Shear Modulus (GPa) = 19.28386 15.49136 17.38761
#
# Velocity S-wave (km/s) = 3.09300 2.77222 2.93699
# Velocity P-wave (km/s) = 5.49207 6.18146 5.84693
#
# Compressibility (1/GPa) = 0.02849925
#
# Stress axis : x y z
#
# Youngs Moduli (GPa) = 35.16722 15.64952 130.99763
#
# Poissons Ratio (x) = 0.47271 0.06802
# Poissons Ratio (y) = 1.06225 0.65628
# Poissons Ratio (z) = 0.01826 0.07840
#
# Static dielectric constant tensor:
#      x y z
#    x 3.949030 0.000000 -0.247210 
#    y 0.000000 3.577170 0.000000 
#    z -0.247210 0.000000 4.071500 
# 
# 
# High freq. dielectric constant tensor:
#      x y z
#    x 1.777360 0.000000 -0.002200 
#    y 0.000000 1.743430 0.000000 
#    z -0.002200 0.000000 1.816680 
# 
# From -- ./inp_files/54776.got.cif
#   From: 2010.03.12/outbox.cif.g09.slc.cpg/sg5_28_cif.got.tgz:54776.got - 2010.03.31 09:47:26.
