data_PCOD8050741
_publ_section_title
;
Structure prediction by ZEFSAII (Michael W. Deem and Ramdas Pophale) SiO2 
 PCOD8050741
Probable space group: C 2
;
_chemical_formula_sum "Si O2"
_cell_formula_units_Z 16
_cell_length_a 8.878351
_cell_length_b 11.534321
_cell_length_c 9.328462
_cell_angle_alpha 90.000000
_cell_angle_beta 133.671936
_cell_angle_gamma 90.000000
_cell_volume 690.965135
_symmetry_space_group_name_H-M "C 2"
_symmetry_group_IT_number 5
_symmetry_cell_setting 'monoclinic'
loop_
_space_group_symop_operation_xyz
x,y,z
-x,y,-z
1/2+x,1/2+y,z
1/2-x,1/2+y,-z
loop_
_atom_site_type_symbol
_atom_site_label
_atom_site_fract_x
_atom_site_fract_y
_atom_site_fract_z
Si Si1 0.790726 0.986130 0.927753
Si Si2 0.209501 0.230290 0.210605
Si Si3 0.083858 0.332290 0.406102
Si Si4 0.004573 0.942205 0.659981
O O1 0.599774 0.899070 0.797421
O O2 0.731963 0.102318 0.803667
O O3 0.854418 0.015473 0.135597
O O4 0.000000 0.927470 0.000000
O O5 0.168602 0.231337 0.356575
O O6 0.396422 0.314451 0.293061
O O7 0.000000 0.275848 0.000000
O O8 0.268825 0.424014 0.562517
O O9 0.000000 0.278911 0.500000
O O10 0.000000 0.003934 0.500000
#
# Coordination Sequence:
#
# PCOD8050741 Si02
#       4
#     4   4   4   4
#     4  11  22  42  70 102 138 178 220 284 339 393
#     4  10  22  42  71  98 139 178 220 282 339 393
#     4  11  22  40  71  98 139 181 224 278 338 402
#     4  10  22  42  71 101 138 178 227 280 336 404
#
# _framework density 23.156016999999999
#
# number of rings (size 3 to 8) (size 9 to 14) (size 15 to 20)
#    0.000    1.500    5.000    0.000    0.000    3.000 
#    0.000    5.000   44.000    0.000    0.000    0.000 
#    0.000    0.000    0.000    0.000    0.000    0.000 
#
# Total GULP energy -99151.070798 kJ/mol
# GULP energy per Si atom -12393.883850 kJ/mol
# Density = 2.310331 g / cm^3
# Si number density = 23.156017 Si / 1000 Ang^3
#
#
#
# Elastic Constant Matrix: (Units=GPa)
#
#
# Indices 1 2 3 4 5 6 
#
# 1 106.1972 21.9308 32.3722 0.0000 -14.5381 0.0000
# 2 21.9308 64.0310 25.7572 0.0000 -15.5799 0.0000
# 3 32.3722 25.7572 135.4397 0.0000 -18.3998 0.0000
# 4 0.0000 0.0000 0.0000 33.3006 0.0000 -4.7582
# 5 -14.5381 -15.5799 -18.3998 0.0000 60.2548 0.0000
# 6 0.0000 0.0000 0.0000 -4.7582 0.0000 24.4304
#
#
#
# Elastic Compliance Matrix: (Units=1/GPa)
#
#
# Indices 1 2 3 4 5 6 
#
# 1 0.010708 -0.002583 -0.001886 0.000000 0.001340 0.000000
# 2 -0.002583 0.018289 -0.002403 0.000000 0.003372 0.000000
# 3 -0.001886 -0.002403 0.008497 0.000000 0.001518 0.000000
# 4 0.000000 0.000000 0.000000 0.030889 0.000000 0.006016
# 5 0.001340 0.003372 0.001518 0.000000 0.018255 0.000000
# 6 0.000000 0.000000 0.000000 0.006016 0.000000 0.042104
#
#
# Mechanical properties :
#
#
# Convention : Reuss Voigt Hill
#
# Bulk Modulus (GPa) = 42.10310 51.75427 46.92868
# Shear Modulus (GPa) = 33.24384 38.63766 35.94075
#
# Velocity S-wave (km/s) = 3.79310 4.08926 3.94396
# Velocity P-wave (km/s) = 6.11599 6.68542 6.40703
#
# Compressibility (1/GPa) = 0.02375122
#
# Stress axis : x y z
#
# Youngs Moduli (GPa) = 93.38623 54.67753 117.68288
#
# Poissons Ratio (x) = 0.14122 0.22198
# Poissons Ratio (y) = 0.24120 0.28275
# Poissons Ratio (z) = 0.17615 0.13137
#
# Static dielectric constant tensor:
#      x y z
#    x 4.343910 0.000000 -0.182740 
#    y 0.000000 3.414270 0.000000 
#    z -0.182740 0.000000 4.749280 
# 
# 
# High freq. dielectric constant tensor:
#      x y z
#    x 1.924290 0.000000 -0.000870 
#    y 0.000000 1.859610 0.000000 
#    z -0.000870 0.000000 1.948490 
# 
# From -- ./inp_files/14098.got.cif
#   From: 2010.03.12/outbox.cif.g09.slc.cpg/sg5_8_cif.got.tgz:14098.got - 2010.03.31 09:47:26.
