data_PCOD8050536
_publ_section_title
;
Structure prediction by ZEFSAII (Michael W. Deem and Ramdas Pophale) SiO2 
 PCOD8050536
Probable space group: C 2
;
_chemical_formula_sum "Si O2"
_cell_formula_units_Z 20
_cell_length_a 14.517781
_cell_length_b 10.882499
_cell_length_c 8.373753
_cell_angle_alpha 90.000000
_cell_angle_beta 138.416707
_cell_angle_gamma 90.000000
_cell_volume 878.063981
_symmetry_space_group_name_H-M "C 2"
_symmetry_group_IT_number 5
_symmetry_cell_setting 'monoclinic'
loop_
_space_group_symop_operation_xyz
x,y,z
-x,y,-z
1/2+x,1/2+y,z
1/2-x,1/2+y,-z
loop_
_atom_site_type_symbol
_atom_site_label
_atom_site_fract_x
_atom_site_fract_y
_atom_site_fract_z
Si Si1 0.645775 0.922770 0.332353
Si Si2 0.000000 0.654489 0.500000
Si Si3 0.500000 0.139276 0.000000
Si Si4 0.623288 0.779079 0.001224
Si Si5 0.357415 0.293669 0.057584
Si Si6 0.784689 0.026967 0.799728
O O1 0.693879 0.876942 0.218053
O O2 0.570122 0.054689 0.226054
O O3 0.771720 0.945134 0.619423
O O4 0.532002 0.822169 0.245193
O O5 0.985277 0.748919 0.332788
O O6 0.868886 0.565062 0.343084
O O7 0.376131 0.220469 0.915682
O O8 0.711629 0.763379 0.955070
O O9 0.619963 0.647751 0.089595
O O10 0.358600 0.439161 0.025224
#
# Coordination Sequence:
#
# PCOD8050536 Si02
#       6
#     4   2   2   4   4   4
#     4  10  22  44  64  91 135 168 214 264 316 389
#     4  10  22  44  60 100 132 168 212 272 308 396
#     4  10  22  40  66  94 126 176 216 258 320 386
#     4   9  23  40  63  99 128 167 215 264 317 385
#     4  11  23  38  68  98 126 171 220 257 329 373
#     4  11  22  39  69  88 131 174 209 264 323 373
#
# _framework density 22.777381999999999
#
# number of rings (size 3 to 8) (size 9 to 14) (size 15 to 20)
#    0.000    2.000    2.000    1.200   11.200    1.600 
#    0.000    4.000    0.000    0.000    0.000    0.000 
#    0.000    0.000    0.000    0.000    0.000    0.000 
#
# Total GULP energy -123895.505005 kJ/mol
# GULP energy per Si atom -12389.550501 kJ/mol
# Density = 2.272554 g / cm^3
# Si number density = 22.777382 Si / 1000 Ang^3
#
#
#
# Elastic Constant Matrix: (Units=GPa)
#
#
# Indices 1 2 3 4 5 6 
#
# 1 124.0735 35.8896 11.2129 0.0000 -1.3777 0.0000
# 2 35.8896 157.3396 55.3202 0.0000 -3.5531 0.0000
# 3 11.2129 55.3202 63.6744 0.0000 -11.0915 0.0000
# 4 0.0000 0.0000 0.0000 44.9790 0.0000 4.7939
# 5 -1.3777 -3.5531 -11.0915 0.0000 23.6908 0.0000
# 6 0.0000 0.0000 0.0000 4.7939 0.0000 34.3652
#
#
#
# Elastic Compliance Matrix: (Units=1/GPa)
#
#
# Indices 1 2 3 4 5 6 
#
# 1 0.008635 -0.002086 0.000353 0.000000 0.000355 0.000000
# 2 -0.002086 0.009800 -0.008614 0.000000 -0.002685 0.000000
# 3 0.000353 -0.008614 0.024939 0.000000 0.010404 0.000000
# 4 0.000000 0.000000 0.000000 0.022568 0.000000 -0.003148
# 5 0.000355 -0.002685 0.010404 0.000000 0.046700 0.000000
# 6 0.000000 0.000000 0.000000 -0.003148 0.000000 0.029538
#
#
# Mechanical properties :
#
#
# Convention : Reuss Voigt Hill
#
# Bulk Modulus (GPa) = 44.09095 61.10366 52.59730
# Shear Modulus (GPa) = 29.33701 36.78465 33.06083
#
# Velocity S-wave (km/s) = 3.59275 4.02302 3.81396
# Velocity P-wave (km/s) = 6.05061 6.96163 6.52204
#
# Compressibility (1/GPa) = 0.02268039
#
# Stress axis : x y z
#
# Youngs Moduli (GPa) = 115.80606 102.04519 40.09789
#
# Poissons Ratio (x) = 0.21286 -0.01417
# Poissons Ratio (y) = 0.24157 0.34541
# Poissons Ratio (z) = -0.04093 0.87903
#
# Static dielectric constant tensor:
#      x y z
#    x 3.905980 0.000000 -0.207910 
#    y 0.000000 4.328780 0.000000 
#    z -0.207910 0.000000 3.989140 
# 
# 
# High freq. dielectric constant tensor:
#      x y z
#    x 1.889490 0.000000 -0.012310 
#    y 0.000000 1.912250 0.000000 
#    z -0.012310 0.000000 1.872080 
# 
# From -- ./inp_files/23014.got.cif
#   From: 2010.03.12/outbox.cif.g09.slc.cpg/sg5_12_cif.got.tgz:23014.got - 2010.03.31 09:47:26.
