data_PCOD8050159
_publ_section_title
;
Structure prediction by ZEFSAII (Michael W. Deem and Ramdas Pophale) SiO2 
 PCOD8050159
Probable space group: C 2
;
_chemical_formula_sum "Si O2"
_cell_formula_units_Z 24
_cell_length_a 11.836573
_cell_length_b 8.991595
_cell_length_c 10.879144
_cell_angle_alpha 90.000000
_cell_angle_beta 97.021254
_cell_angle_gamma 90.000000
_cell_volume 1149.180748
_symmetry_space_group_name_H-M "C 2"
_symmetry_group_IT_number 5
_symmetry_cell_setting 'monoclinic'
loop_
_space_group_symop_operation_xyz
x,y,z
-x,y,-z
1/2+x,1/2+y,z
1/2-x,1/2+y,-z
loop_
_atom_site_type_symbol
_atom_site_label
_atom_site_fract_x
_atom_site_fract_y
_atom_site_fract_z
Si Si1 0.293736 0.207720 0.741679
Si Si2 0.882604 0.895786 0.952508
Si Si3 0.542496 0.708390 0.634030
Si Si4 0.725251 0.397966 0.812787
Si Si5 0.566003 0.708948 0.129510
Si Si6 0.994045 0.861865 0.362673
O O1 0.291967 0.287755 0.874706
O O2 0.177707 0.237374 0.651791
O O3 0.403793 0.276359 0.691269
O O4 0.297873 0.029464 0.758487
O O5 0.925094 0.029784 0.869488
O O6 0.829153 0.964043 0.069588
O O7 0.000000 0.806171 0.000000
O O8 0.500000 0.783049 0.500000
O O9 0.492372 0.775025 0.754207
O O10 0.496441 0.539885 0.631217
O O11 0.805358 0.263116 0.858061
O O12 0.627715 0.325914 0.714278
O O13 0.500000 0.767729 0.000000
O O14 0.000000 0.795691 0.500000
#
# Coordination Sequence:
#
# PCOD8050159 Si02
#       6
#     4   4   4   4   4   4
#     4  11  21  41  65  90 120 164 209 255 312 373
#     4  11  19  39  65  89 120 165 208 250 318 374
#     4  10  22  41  65  91 123 169 209 251 317 379
#     4  11  23  38  62  95 126 156 211 264 308 376
#     4  11  22  41  61  90 131 163 207 261 316 373
#     4  10  21  41  64  89 121 167 208 252 313 376
#
# _framework density 20.884443000000001
#
# number of rings (size 3 to 8) (size 9 to 14) (size 15 to 20)
#    0.000    1.333    3.333    5.000    2.333    0.667 
#    6.000    0.833    0.000    0.000    0.000    0.000 
#    0.000    0.000    0.000    0.000    0.000    0.000 
#
# Total GULP energy -148699.209445 kJ/mol
# GULP energy per Si atom -12391.600787 kJ/mol
# Density = 2.083691 g / cm^3
# Si number density = 20.884443 Si / 1000 Ang^3
#
#
#
# Elastic Constant Matrix: (Units=GPa)
#
#
# Indices 1 2 3 4 5 6 
#
# 1 139.7374 56.5121 70.4243 0.0000 18.8393 0.0000
# 2 56.5121 45.0427 30.0131 0.0000 9.6975 0.0000
# 3 70.4243 30.0131 163.5895 0.0000 19.6801 0.0000
# 4 0.0000 0.0000 0.0000 11.5065 0.0000 1.6405
# 5 18.8393 9.6975 19.6801 0.0000 40.4723 0.0000
# 6 0.0000 0.0000 0.0000 1.6405 0.0000 41.6360
#
#
#
# Elastic Compliance Matrix: (Units=1/GPa)
#
#
# Indices 1 2 3 4 5 6 
#
# 1 0.016394 -0.017827 -0.003593 0.000000 -0.001613 0.000000
# 2 -0.017827 0.045317 -0.000352 0.000000 -0.002389 0.000000
# 3 -0.003593 -0.000352 0.007980 0.000000 -0.002123 0.000000
# 4 0.000000 0.000000 0.000000 0.087399 0.000000 -0.003444
# 5 -0.001613 -0.002389 -0.002123 0.000000 0.027064 0.000000
# 6 0.000000 0.000000 0.000000 -0.003444 0.000000 0.024153
#
#
# Mechanical properties :
#
#
# Convention : Reuss Voigt Hill
#
# Bulk Modulus (GPa) = 38.24705 73.58540 55.91623
# Shear Modulus (GPa) = 19.18898 31.48429 25.33664
#
# Velocity S-wave (km/s) = 3.03449 3.88693 3.48686
# Velocity P-wave (km/s) = 5.53452 7.44683 6.56072
#
# Compressibility (1/GPa) = 0.02614580
#
# Stress axis : x y z
#
# Youngs Moduli (GPa) = 60.99775 22.06684 125.31930
#
# Poissons Ratio (x) = 0.39339 0.45025
# Poissons Ratio (y) = 1.08743 0.04414
# Poissons Ratio (z) = 0.21915 0.00777
#
# Static dielectric constant tensor:
#      x y z
#    x 3.776640 0.000000 0.164410 
#    y 0.000000 3.295770 0.000000 
#    z 0.164410 0.000000 4.323720 
# 
# 
# High freq. dielectric constant tensor:
#      x y z
#    x 1.825330 0.000000 0.007200 
#    y 0.000000 1.773830 0.000000 
#    z 0.007200 0.000000 1.838380 
# 
# From -- ./inp_files/38364.got.cif
#   From: 2010.03.12/outbox.cif.g09.slc.cpg/sg5_20_cif.got.tgz:38364.got - 2010.03.31 09:47:26.
