data_PCOD8050676
_publ_section_title
;
Structure prediction by ZEFSAII (Michael W. Deem and Ramdas Pophale) SiO2 
 PCOD8050676
Probable space group: C 2
;
_chemical_formula_sum "Si O2"
_cell_formula_units_Z 22
_cell_length_a 10.467480
_cell_length_b 8.986246
_cell_length_c 11.516901
_cell_angle_alpha 90.000000
_cell_angle_beta 68.751107
_cell_angle_gamma 90.000000
_cell_volume 1009.668760
_symmetry_space_group_name_H-M "C 2"
_symmetry_group_IT_number 5
_symmetry_cell_setting 'monoclinic'
loop_
_space_group_symop_operation_xyz
x,y,z
-x,y,-z
1/2+x,1/2+y,z
1/2-x,1/2+y,-z
loop_
_atom_site_type_symbol
_atom_site_label
_atom_site_fract_x
_atom_site_fract_y
_atom_site_fract_z
Si Si1 0.642149 0.385720 0.168803
Si Si2 0.341289 0.440425 0.200258
Si Si3 0.230700 0.205951 0.067277
Si Si4 0.000000 0.160450 0.000000
Si Si5 0.846981 0.534769 0.533521
Si Si6 0.150318 0.868410 0.431334
O O1 0.479151 0.408182 0.226217
O O2 0.726784 0.530365 0.097234
O O3 0.689203 0.349111 0.283386
O O4 0.668974 0.247745 0.072826
O O5 0.275492 0.291799 0.167829
O O6 0.376118 0.556655 0.086987
O O7 0.231879 0.510092 0.321364
O O8 0.075138 0.255344 0.076310
O O9 0.854082 0.709521 0.503548
O O10 0.770958 0.463079 0.449206
O O11 0.000000 0.468756 0.500000
O O12 0.000000 0.944389 0.500000
#
# Coordination Sequence:
#
# PCOD8050676 Si02
#       6
#     4   4   4   2   4   4
#     4  11  24  43  72 100 140 186 228 282 354 412
#     4  11  21  44  69  94 142 177 226 289 343 406
#     4  11  22  41  68 102 133 182 226 281 348 402
#     4  10  22  42  64 102 132 184 218 290 350 404
#     4  11  27  44  70 104 139 182 238 286 341 421
#     4  11  25  47  71 102 140 188 230 290 349 411
#
# _framework density 21.789325999999999
#
# number of rings (size 3 to 8) (size 9 to 14) (size 15 to 20)
#    0.000    1.091    5.455    1.091    2.545    5.091 
#    3.273    1.818    0.000    0.000    0.000    0.000 
#    0.000    0.000    0.000    0.000    0.000    0.000 
#
# Total GULP energy -136364.866941 kJ/mol
# GULP energy per Si atom -12396.806086 kJ/mol
# Density = 2.173973 g / cm^3
# Si number density = 21.789326 Si / 1000 Ang^3
#
#
#
# Elastic Constant Matrix: (Units=GPa)
#
#
# Indices 1 2 3 4 5 6 
#
# 1 151.2782 57.9301 36.7463 0.0000 4.6614 0.0000
# 2 57.9301 70.5189 28.7779 0.0000 2.1810 0.0000
# 3 36.7463 28.7779 100.3321 0.0000 2.0079 0.0000
# 4 0.0000 0.0000 0.0000 25.6735 0.0000 8.0186
# 5 4.6614 2.1810 2.0079 0.0000 46.2643 0.0000
# 6 0.0000 0.0000 0.0000 8.0186 0.0000 36.6018
#
#
#
# Elastic Compliance Matrix: (Units=1/GPa)
#
#
# Indices 1 2 3 4 5 6 
#
# 1 0.009843 -0.007477 -0.001449 0.000000 -0.000576 0.000000
# 2 -0.007477 0.021754 -0.003499 0.000000 -0.000120 0.000000
# 3 -0.001449 -0.003499 0.011505 0.000000 -0.000188 0.000000
# 4 0.000000 0.000000 0.000000 0.041812 0.000000 -0.009160
# 5 -0.000576 -0.000120 -0.000188 0.000000 0.021687 0.000000
# 6 0.000000 0.000000 0.000000 -0.009160 0.000000 0.029328
#
#
# Mechanical properties :
#
#
# Convention : Reuss Voigt Hill
#
# Bulk Modulus (GPa) = 54.78566 63.22639 59.00603
# Shear Modulus (GPa) = 29.96476 34.95292 32.45884
#
# Velocity S-wave (km/s) = 3.71240 4.00950 3.86381
# Velocity P-wave (km/s) = 6.60104 7.10739 6.85889
#
# Compressibility (1/GPa) = 0.01825295
#
# Stress axis : x y z
#
# Youngs Moduli (GPa) = 101.59245 45.96780 86.91931
#
# Poissons Ratio (x) = 0.34370 0.12594
# Poissons Ratio (y) = 0.75960 0.30412
# Poissons Ratio (z) = 0.14720 0.16084
#
# Static dielectric constant tensor:
#      x y z
#    x 4.143160 0.000000 0.084480 
#    y 0.000000 3.783090 0.000000 
#    z 0.084480 0.000000 3.863730 
# 
# 
# High freq. dielectric constant tensor:
#      x y z
#    x 1.870730 0.000000 0.012060 
#    y 0.000000 1.837100 0.000000 
#    z 0.012060 0.000000 1.861450 
# 
# From -- ./inp_files/38258.got.cif
#   From: 2010.03.12/outbox.cif.g09.slc.cpg/sg5_20_cif.got.tgz:38258.got - 2010.03.31 09:47:26.
