data_PCOD8050714
_publ_section_title
;
Structure prediction by ZEFSAII (Michael W. Deem and Ramdas Pophale) SiO2 
 PCOD8050714
Probable space group: C 2
;
_chemical_formula_sum "Si O2"
_cell_formula_units_Z 20
_cell_length_a 10.487236
_cell_length_b 9.072908
_cell_length_c 9.050637
_cell_angle_alpha 90.000000
_cell_angle_beta 81.694455
_cell_angle_gamma 90.000000
_cell_volume 852.133578
_symmetry_space_group_name_H-M "C 2"
_symmetry_group_IT_number 5
_symmetry_cell_setting 'monoclinic'
loop_
_space_group_symop_operation_xyz
x,y,z
-x,y,-z
1/2+x,1/2+y,z
1/2-x,1/2+y,-z
loop_
_atom_site_type_symbol
_atom_site_label
_atom_site_fract_x
_atom_site_fract_y
_atom_site_fract_z
Si Si1 0.861017 0.728540 0.596649
Si Si2 0.149254 0.070522 0.439212
Si Si3 0.500000 0.426934 0.000000
Si Si4 0.079818 0.179247 0.156426
Si Si5 0.322577 0.180674 0.943701
Si Si6 0.000000 0.432077 0.000000
O O1 0.747748 0.632362 0.542677
O O2 0.867058 0.682613 0.766484
O O3 0.000000 0.694762 0.500000
O O4 0.822362 0.898879 0.587929
O O5 0.167397 0.167512 0.287132
O O6 0.000000 0.099194 0.500000
O O7 0.504732 0.529611 0.850449
O O8 0.374447 0.324517 0.021004
O O9 0.170045 0.181679 0.993186
O O10 0.997578 0.329892 0.150748
O O11 0.374432 0.034558 0.017242
#
# Coordination Sequence:
#
# PCOD8050714 Si02
#       6
#     4   4   2   4   4   2
#     4  11  28  47  70 101 142 183 227 281 345 408
#     4  11  28  47  70 101 142 183 227 281 345 408
#     4  10  22  42  68  90 140 170 228 278 340 384
#     4  11  24  42  69  97 132 177 228 279 333 401
#     4  11  24  42  69  97 132 177 228 279 333 401
#     4  10  26  38  68 102 132 166 236 274 340 392
#
# _framework density 23.470499
#
# number of rings (size 3 to 8) (size 9 to 14) (size 15 to 20)
#    0.000    1.200    2.000    1.200   14.000    0.800 
#    0.000    0.000    0.000    0.000    0.000    0.000 
#    0.000    0.000    0.000    0.000    0.000    0.000 
#
# Total GULP energy -123934.399872 kJ/mol
# GULP energy per Si atom -12393.439987 kJ/mol
# Density = 2.341708 g / cm^3
# Si number density = 23.470499 Si / 1000 Ang^3
#
#
#
# Elastic Constant Matrix: (Units=GPa)
#
#
# Indices 1 2 3 4 5 6 
#
# 1 111.1145 53.5061 47.2363 0.0000 15.0856 0.0000
# 2 53.5061 163.6144 35.7424 0.0000 19.3462 0.0000
# 3 47.2363 35.7424 106.8686 0.0000 0.5523 0.0000
# 4 0.0000 0.0000 0.0000 29.1400 0.0000 11.6738
# 5 15.0856 19.3462 0.5523 0.0000 37.7382 0.0000
# 6 0.0000 0.0000 0.0000 11.6738 0.0000 27.9240
#
#
#
# Elastic Compliance Matrix: (Units=1/GPa)
#
#
# Indices 1 2 3 4 5 6 
#
# 1 0.012823 -0.002726 -0.004737 0.000000 -0.003659 0.000000
# 2 -0.002726 0.007625 -0.001331 0.000000 -0.002800 0.000000
# 3 -0.004737 -0.001331 0.011884 0.000000 0.002402 0.000000
# 4 0.000000 0.000000 0.000000 0.041221 0.000000 -0.017233
# 5 -0.003659 -0.002800 0.002402 0.000000 0.029361 0.000000
# 6 0.000000 0.000000 0.000000 -0.017233 0.000000 0.043016
#
#
# Mechanical properties :
#
#
# Convention : Reuss Voigt Hill
#
# Bulk Modulus (GPa) = 67.82443 72.72966 70.27704
# Shear Modulus (GPa) = 29.68552 35.30128 32.49340
#
# Velocity S-wave (km/s) = 3.56026 3.88244 3.72484
# Velocity P-wave (km/s) = 6.77208 7.15212 6.96469
#
# Compressibility (1/GPa) = 0.01474395
#
# Stress axis : x y z
#
# Youngs Moduli (GPa) = 77.98487 131.14437 84.14771
#
# Poissons Ratio (x) = 0.35749 0.39863
# Poissons Ratio (y) = 0.21258 0.11199
# Poissons Ratio (z) = 0.36943 0.17454
#
# Static dielectric constant tensor:
#      x y z
#    x 4.147800 0.000000 0.228670 
#    y 0.000000 4.503810 0.000000 
#    z 0.228670 0.000000 4.193390 
# 
# 
# High freq. dielectric constant tensor:
#      x y z
#    x 1.941160 0.000000 0.024220 
#    y 0.000000 1.949020 0.000000 
#    z 0.024220 0.000000 1.907760 
# 
# From -- ./inp_files/18280.got.cif
#   From: 2010.03.12/outbox.cif.g09.slc.cpg/sg5_10_cif.got.tgz:18280.got - 2010.03.31 09:47:26.
