data_PCOD8050744
_publ_section_title
;
Structure prediction by ZEFSAII (Michael W. Deem and Ramdas Pophale) SiO2 
 PCOD8050744
Probable space group: C 2
;
_chemical_formula_sum "Si O2"
_cell_formula_units_Z 24
_cell_length_a 11.381645
_cell_length_b 11.262076
_cell_length_c 9.024829
_cell_angle_alpha 90.000000
_cell_angle_beta 112.591703
_cell_angle_gamma 90.000000
_cell_volume 1068.044251
_symmetry_space_group_name_H-M "C 2"
_symmetry_group_IT_number 5
_symmetry_cell_setting 'monoclinic'
loop_
_space_group_symop_operation_xyz
x,y,z
-x,y,-z
1/2+x,1/2+y,z
1/2-x,1/2+y,-z
loop_
_atom_site_type_symbol
_atom_site_label
_atom_site_fract_x
_atom_site_fract_y
_atom_site_fract_z
Si Si1 0.761650 0.640500 0.312555
Si Si2 0.861498 0.183461 0.453505
Si Si3 0.121589 0.977088 0.768251
Si Si4 0.500000 0.452348 0.000000
Si Si5 0.742224 0.874928 0.774394
Si Si6 0.853764 0.319568 0.967099
Si Si7 0.500000 0.295712 0.500000
O O1 0.655883 0.632243 0.390147
O O2 0.802847 0.509052 0.282463
O O3 0.696697 0.700282 0.137531
O O4 0.877843 0.709960 0.445415
O O5 0.766709 0.292699 0.375371
O O6 0.000000 0.239484 0.500000
O O7 0.845630 0.076569 0.332441
O O8 0.260623 0.925086 0.870776
O O9 0.021875 0.880076 0.653732
O O10 0.053225 0.028742 0.885411
O O11 0.612295 0.366249 0.104995
O O12 0.655142 0.813082 0.858870
O O13 0.000000 0.347899 0.000000
#
# Coordination Sequence:
#
# PCOD8050744 Si02
#       7
#     4   4   4   2   4   4   2
#     4  11  26  42  71  94 135 175 216 276 324 388
#     4  12  25  42  69  99 132 169 223 271 332 385
#     4  10  22  42  71  95 128 176 218 272 324 391
#     4  10  22  44  66  90 132 170 226 260 318 394
#     4  11  26  41  69 100 129 174 222 268 332 385
#     4  10  24  45  66  95 133 171 221 270 327 387
#     4  10  22  46  66  96 130 174 222 268 326 388
#
# _framework density 22.470979
#
# number of rings (size 3 to 8) (size 9 to 14) (size 15 to 20)
#    0.000    1.333    0.833    3.000   11.667    1.333 
#    1.500    0.000    0.000    0.000    0.000    0.000 
#    0.000    0.000    0.000    0.000    0.000    0.000 
#
# Total GULP energy -148730.490816 kJ/mol
# GULP energy per Si atom -12394.207568 kJ/mol
# Density = 2.241983 g / cm^3
# Si number density = 22.470979 Si / 1000 Ang^3
#
#
#
# Elastic Constant Matrix: (Units=GPa)
#
#
# Indices 1 2 3 4 5 6 
#
# 1 96.1026 26.8716 39.7650 0.0000 -1.9594 0.0000
# 2 26.8716 122.1113 56.1959 0.0000 -10.5915 0.0000
# 3 39.7650 56.1959 108.2985 0.0000 -7.0554 0.0000
# 4 0.0000 0.0000 0.0000 44.7831 0.0000 -3.3619
# 5 -1.9594 -10.5915 -7.0554 0.0000 53.1889 0.0000
# 6 0.0000 0.0000 0.0000 -3.3619 0.0000 19.3947
#
#
#
# Elastic Compliance Matrix: (Units=1/GPa)
#
#
# Indices 1 2 3 4 5 6 
#
# 1 0.012337 -0.000847 -0.004107 0.000000 -0.000259 0.000000
# 2 -0.000847 0.010923 -0.005263 0.000000 0.001446 0.000000
# 3 -0.004107 -0.005263 0.013511 0.000000 0.000593 0.000000
# 4 0.000000 0.000000 0.000000 0.022624 0.000000 0.003922
# 5 -0.000259 0.001446 0.000593 0.000000 0.019158 0.000000
# 6 0.000000 0.000000 0.000000 0.003922 0.000000 0.052240
#
#
# Mechanical properties :
#
#
# Convention : Reuss Voigt Hill
#
# Bulk Modulus (GPa) = 61.21075 63.57526 62.39301
# Shear Modulus (GPa) = 31.91372 37.05201 34.48287
#
# Velocity S-wave (km/s) = 3.77267 4.06505 3.92158
# Velocity P-wave (km/s) = 6.80268 7.09834 6.95208
#
# Compressibility (1/GPa) = 0.01633700
#
# Stress axis : x y z
#
# Youngs Moduli (GPa) = 81.06013 91.55031 74.01297
#
# Poissons Ratio (x) = 0.07756 0.30397
# Poissons Ratio (y) = 0.06867 0.38950
# Poissons Ratio (z) = 0.33291 0.48180
#
# Static dielectric constant tensor:
#      x y z
#    x 4.158770 0.000000 -0.004970 
#    y 0.000000 3.788670 0.000000 
#    z -0.004970 0.000000 4.483500 
# 
# 
# High freq. dielectric constant tensor:
#      x y z
#    x 1.887410 0.000000 0.003390 
#    y 0.000000 1.873710 0.000000 
#    z 0.003390 0.000000 1.911540 
# 
# From -- ./inp_files/19311.got.cif
#   From: 2010.03.12/outbox.cif.g09.slc.cpg/sg5_10_cif.got.tgz:19311.got - 2010.03.31 09:47:26.
