data_PCOD8050364
_publ_section_title
;
Structure prediction by ZEFSAII (Michael W. Deem and Ramdas Pophale) SiO2 
 PCOD8050364
Probable space group: C 2
;
_chemical_formula_sum "Si O2"
_cell_formula_units_Z 26
_cell_length_a 16.746117
_cell_length_b 8.291306
_cell_length_c 20.020945
_cell_angle_alpha 90.000000
_cell_angle_beta 27.109678
_cell_angle_gamma 90.000000
_cell_volume 1266.765297
_symmetry_space_group_name_H-M "C 2"
_symmetry_group_IT_number 5
_symmetry_cell_setting 'monoclinic'
loop_
_space_group_symop_operation_xyz
x,y,z
-x,y,-z
1/2+x,1/2+y,z
1/2-x,1/2+y,-z
loop_
_atom_site_type_symbol
_atom_site_label
_atom_site_fract_x
_atom_site_fract_y
_atom_site_fract_z
Si Si1 0.434786 0.712130 0.801772
Si Si2 0.227335 0.541247 0.439139
Si Si3 0.893757 0.568063 0.889041
Si Si4 0.000000 0.424737 0.500000
Si Si5 0.258965 0.635065 0.678052
Si Si6 0.975213 0.049743 0.633492
Si Si7 0.936536 0.764131 0.339939
O O1 0.615016 0.656445 0.703752
O O2 0.452624 0.688023 0.707880
O O3 0.396652 0.893223 0.852376
O O4 0.284255 0.589435 0.937818
O O5 0.059969 0.541852 0.515105
O O6 0.164902 0.607790 0.557089
O O7 0.299895 0.360136 0.394571
O O8 0.053384 0.607839 0.820783
O O9 0.901065 0.700676 0.824703
O O10 0.171335 0.316044 0.354870
O O11 0.309809 0.534720 0.706659
O O12 0.354011 0.582126 0.538920
O O13 0.992117 0.875543 0.654460
#
# Coordination Sequence:
#
# PCOD8050364 Si02
#       7
#     4   4   4   2   4   4   4
#     4  11  24  40  66  92 125 170 209 260 305 381
#     4  11  22  38  62  93 124 159 211 256 314 356
#     4  12  24  41  64  90 130 165 216 250 317 372
#     4  10  22  36  62  92 128 152 206 258 310 354
#     4  10  22  39  66  91 127 164 202 261 319 371
#     4   9  21  41  64  93 124 159 216 250 322 362
#     4  11  22  36  64  93 121 164 208 264 298 373
#
# _framework density 20.524719000000001
#
# number of rings (size 3 to 8) (size 9 to 14) (size 15 to 20)
#    0.000    1.538    1.538    5.538    8.615    3.077 
#    0.000    0.000    0.000    2.769    0.000    0.000 
#    0.000    0.000    0.000    0.000    0.000    0.000 
#
# Total GULP energy -161114.811920 kJ/mol
# GULP energy per Si atom -12393.447071 kJ/mol
# Density = 2.047800 g / cm^3
# Si number density = 20.524719 Si / 1000 Ang^3
#
#
#
# Elastic Constant Matrix: (Units=GPa)
#
#
# Indices 1 2 3 4 5 6 
#
# 1 145.6461 46.4319 52.8305 -0.0006 -1.2917 -0.0001
# 2 46.4319 82.5752 13.6474 -0.0018 9.1222 0.0006
# 3 52.8305 13.6474 77.7680 -0.0017 4.7880 0.0008
# 4 -0.0006 -0.0018 -0.0017 33.0492 0.0010 -0.9254
# 5 -1.2917 9.1222 4.7880 0.0010 21.6867 -0.0004
# 6 -0.0001 0.0006 0.0008 -0.9254 -0.0004 37.6287
#
#
#
# Elastic Compliance Matrix: (Units=1/GPa)
#
#
# Indices 1 2 3 4 5 6 
#
# 1 0.011222 -0.005674 -0.006910 -0.000001 0.004581 0.000000
# 2 -0.005674 0.015860 0.001524 0.000001 -0.007346 0.000000
# 3 -0.006910 0.001524 0.017589 0.000001 -0.004936 0.000000
# 4 -0.000001 0.000001 0.000001 0.030279 -0.000002 0.000745
# 5 0.004581 -0.007346 -0.004936 -0.000002 0.050564 0.000001
# 6 0.000000 0.000000 0.000000 0.000745 0.000001 0.026594
#
#
# Mechanical properties :
#
#
# Convention : Reuss Voigt Hill
#
# Bulk Modulus (GPa) = 44.34375 59.08986 51.71680
# Shear Modulus (GPa) = 27.51106 31.34489 29.42797
#
# Velocity S-wave (km/s) = 3.66510 3.91215 3.79064
# Velocity P-wave (km/s) = 6.28988 7.01845 6.66413
#
# Compressibility (1/GPa) = 0.02255109
#
# Stress axis : x y z
#
# Youngs Moduli (GPa) = 89.11210 63.05015 56.85291
#
# Poissons Ratio (x) = 0.35775 0.39283
# Poissons Ratio (y) = 0.50563 -0.08662
# Poissons Ratio (z) = 0.61573 -0.09606
#
# Static dielectric constant tensor:
#      x y z
#    x 3.984580 0.000000 -0.018320 
#    y 0.000000 3.675970 0.000000 
#    z -0.018320 0.000000 3.635060 
# 
# 
# High freq. dielectric constant tensor:
#      x y z
#    x 1.809030 0.000000 0.001140 
#    y 0.000000 1.806650 0.000000 
#    z 0.001140 0.000000 1.782450 
# 
# From -- ./inp_files/66510.got.cif
#   From: 2010.03.12/outbox.cif.g09.slc.cpg/sg5_34_cif.got.tgz:66510.got - 2010.03.31 09:47:26.
