data_PCOD8050403
_publ_section_title
;
Structure prediction by ZEFSAII (Michael W. Deem and Ramdas Pophale) SiO2 
 PCOD8050403
Probable space group: C 2
;
_chemical_formula_sum "Si O2"
_cell_formula_units_Z 24
_cell_length_a 24.886152
_cell_length_b 10.348180
_cell_length_c 8.726898
_cell_angle_alpha 90.000000
_cell_angle_beta 151.499504
_cell_angle_gamma 90.000000
_cell_volume 1072.386775
_symmetry_space_group_name_H-M "C 2"
_symmetry_group_IT_number 5
_symmetry_cell_setting 'monoclinic'
loop_
_space_group_symop_operation_xyz
x,y,z
-x,y,-z
1/2+x,1/2+y,z
1/2-x,1/2+y,-z
loop_
_atom_site_type_symbol
_atom_site_label
_atom_site_fract_x
_atom_site_fract_y
_atom_site_fract_z
Si Si1 0.397519 0.131470 0.128132
Si Si2 0.524444 0.936913 0.251039
Si Si3 0.298946 0.906473 0.038606
Si Si4 0.811502 0.296953 0.749426
Si Si5 0.724793 0.022235 0.542805
Si Si6 0.625382 0.404951 0.849087
O O1 0.500000 0.146773 0.500000
O O2 0.358058 0.277984 0.001179
O O3 0.437927 0.056169 0.075806
O O4 0.299558 0.049524 0.965377
O O5 0.600258 0.896962 0.585531
O O6 0.598573 0.984455 0.290795
O O7 0.442044 0.812058 0.016203
O O8 0.312551 0.801927 0.937485
O O9 0.180438 0.879337 0.821489
O O10 0.746207 0.166819 0.530293
O O11 0.742172 0.418773 0.504963
O O12 0.810269 0.017759 0.900577
O O13 0.500000 0.449709 0.500000
#
# Coordination Sequence:
#
# PCOD8050403 Si02
#       6
#     4   4   4   4   4   4
#     4   8  16  33  63  88 120 159 217 260 332 387
#     4   9  20  44  71  92 125 180 223 275 339 399
#     4   9  20  37  66  95 122 175 220 277 334 398
#     4  11  24  43  66 100 132 178 223 273 335 409
#     4  11  26  43  66  97 136 179 221 276 341 397
#     4  10  22  38  62  96 132 165 221 285 327 396
#
# _framework density 22.379985000000001
#
# number of rings (size 3 to 8) (size 9 to 14) (size 15 to 20)
#    0.000    2.333    0.000    2.000   14.000    1.333 
#    3.000    2.500    0.000    0.000    0.000    0.000 
#    0.000    0.000    0.000    0.000    0.000    0.000 
#
# Total GULP energy -148696.340295 kJ/mol
# GULP energy per Si atom -12391.361691 kJ/mol
# Density = 2.232905 g / cm^3
# Si number density = 22.379985 Si / 1000 Ang^3
#
#
#
# Elastic Constant Matrix: (Units=GPa)
#
#
# Indices 1 2 3 4 5 6 
#
# 1 135.6807 46.2962 40.2194 0.0000 8.3288 0.0000
# 2 46.2962 123.6821 39.6888 0.0000 7.6515 0.0000
# 3 40.2194 39.6888 82.7449 0.0000 29.1378 0.0000
# 4 0.0000 0.0000 0.0000 36.0999 0.0000 -0.5803
# 5 8.3288 7.6515 29.1378 0.0000 36.9082 0.0000
# 6 0.0000 0.0000 0.0000 -0.5803 0.0000 28.9832
#
#
#
# Elastic Compliance Matrix: (Units=1/GPa)
#
#
# Indices 1 2 3 4 5 6 
#
# 1 0.009217 -0.002290 -0.003901 0.000000 0.001475 0.000000
# 2 -0.002290 0.010264 -0.004492 0.000000 0.001935 0.000000
# 3 -0.003901 -0.004492 0.021466 0.000000 -0.015135 0.000000
# 4 0.000000 0.000000 0.000000 0.027710 0.000000 0.000555
# 5 0.001475 0.001935 -0.015135 0.000000 0.038309 0.000000
# 6 0.000000 0.000000 0.000000 0.000555 0.000000 0.034514
#
#
# Mechanical properties :
#
#
# Convention : Reuss Voigt Hill
#
# Bulk Modulus (GPa) = 51.06714 66.05737 58.56226
# Shear Modulus (GPa) = 29.52089 34.79181 32.15635
#
# Velocity S-wave (km/s) = 3.63585 3.94711 3.79467
# Velocity P-wave (km/s) = 6.36346 7.09600 6.73969
#
# Compressibility (1/GPa) = 0.01958206
#
# Stress axis : x y z
#
# Youngs Moduli (GPa) = 108.49032 97.42922 46.58616
#
# Poissons Ratio (x) = 0.22307 0.18175
# Poissons Ratio (y) = 0.24839 0.20924
# Poissons Ratio (z) = 0.42326 0.43761
#
# Static dielectric constant tensor:
#      x y z
#    x 4.141850 0.000000 -0.045060 
#    y 0.000000 4.161850 0.000000 
#    z -0.045060 0.000000 4.147520 
# 
# 
# High freq. dielectric constant tensor:
#      x y z
#    x 1.883390 0.000000 -0.021590 
#    y 0.000000 1.861220 0.000000 
#    z -0.021590 0.000000 1.893960 
# 
# From -- ./inp_files/30900.got.cif
#   From: 2010.03.12/outbox.cif.g09.slc.cpg/sg5_16_cif.got.tgz:30900.got - 2010.03.31 09:47:26.
