data_PCOD8050820
_publ_section_title
;
Structure prediction by ZEFSAII (Michael W. Deem and Ramdas Pophale) SiO2 
 PCOD8050820
Probable space group: C 2
;
_chemical_formula_sum "Si O2"
_cell_formula_units_Z 22
_cell_length_a 21.018415
_cell_length_b 9.503913
_cell_length_c 12.986938
_cell_angle_alpha 90.000000
_cell_angle_beta 23.927325
_cell_angle_gamma 90.000000
_cell_volume 1052.163177
_symmetry_space_group_name_H-M "C 2"
_symmetry_group_IT_number 5
_symmetry_cell_setting 'monoclinic'
loop_
_space_group_symop_operation_xyz
x,y,z
-x,y,-z
1/2+x,1/2+y,z
1/2-x,1/2+y,-z
loop_
_atom_site_type_symbol
_atom_site_label
_atom_site_fract_x
_atom_site_fract_y
_atom_site_fract_z
Si Si1 0.171603 0.121740 0.198206
Si Si2 0.896558 0.876331 0.845920
Si Si3 0.500000 0.788495 0.000000
Si Si4 0.218914 0.968104 0.327439
Si Si5 0.690043 0.602869 0.576807
Si Si6 0.436006 0.319815 0.203151
O O1 0.264172 0.039786 0.152356
O O2 0.000000 0.161489 0.500000
O O3 0.168051 0.023405 0.102501
O O4 0.269722 0.254999 0.012151
O O5 0.926510 0.875780 0.924980
O O6 0.069661 0.860356 0.536011
O O7 0.545755 0.690796 0.836165
O O8 0.636882 0.886406 0.838549
O O9 0.170785 0.090551 0.481053
O O10 0.690839 0.445586 0.623660
O O11 0.850359 0.680848 0.373570
O O12 0.500000 0.272407 0.000000
#
# Coordination Sequence:
#
# PCOD8050820 Si02
#       6
#     4   4   2   4   4   4
#     4  10  23  44  65  91 127 175 221 269 313 384
#     4  10  22  44  65  92 128 170 222 263 318 382
#     4  12  22  38  64 100 136 170 206 276 332 386
#     4  10  24  40  65  95 135 169 213 267 328 390
#     4  11  22  38  59  96 130 165 210 256 325 389
#     4  11  23  39  63  94 132 164 209 269 320 387
#
# _framework density 20.909305
#
# number of rings (size 3 to 8) (size 9 to 14) (size 15 to 20)
#    0.000    1.455    4.545    1.091    3.818    4.364 
#    0.000    8.182    0.000    0.000    0.000    0.000 
#    0.000    0.000    0.000    0.000    0.000    0.000 
#
# Total GULP energy -136282.873398 kJ/mol
# GULP energy per Si atom -12389.352127 kJ/mol
# Density = 2.086171 g / cm^3
# Si number density = 20.909305 Si / 1000 Ang^3
#
#
#
# Elastic Constant Matrix: (Units=GPa)
#
#
# Indices 1 2 3 4 5 6 
#
# 1 84.3236 36.3435 39.1888 0.0000 -1.6595 0.0000
# 2 36.3435 123.6001 73.1584 0.0000 -15.8415 0.0000
# 3 39.1888 73.1584 98.2193 0.0000 -8.2415 0.0000
# 4 0.0000 0.0000 0.0000 35.7103 0.0000 1.7777
# 5 -1.6595 -15.8415 -8.2415 0.0000 30.9258 0.0000
# 6 0.0000 0.0000 0.0000 1.7777 0.0000 27.2964
#
#
#
# Elastic Compliance Matrix: (Units=1/GPa)
#
#
# Indices 1 2 3 4 5 6 
#
# 1 0.014770 -0.001718 -0.004726 0.000000 -0.001347 0.000000
# 2 -0.001718 0.015353 -0.010329 0.000000 0.005020 0.000000
# 3 -0.004726 -0.010329 0.019736 0.000000 -0.000285 0.000000
# 4 0.000000 0.000000 0.000000 0.028094 0.000000 -0.001830
# 5 -0.001347 0.005020 -0.000285 0.000000 0.034758 0.000000
# 6 0.000000 0.000000 0.000000 -0.001830 0.000000 0.036754
#
#
# Mechanical properties :
#
#
# Convention : Reuss Voigt Hill
#
# Bulk Modulus (GPa) = 61.30235 67.05828 64.18031
# Shear Modulus (GPa) = 26.53237 29.28332 27.90785
#
# Velocity S-wave (km/s) = 3.56606 3.74638 3.65733
# Velocity P-wave (km/s) = 6.80717 7.13123 6.97108
#
# Compressibility (1/GPa) = 0.01631259
#
# Stress axis : x y z
#
# Youngs Moduli (GPa) = 67.70684 65.13541 50.66758
#
# Poissons Ratio (x) = 0.11190 0.23947
# Poissons Ratio (y) = 0.11632 0.52333
# Poissons Ratio (z) = 0.32001 0.67276
#
# Static dielectric constant tensor:
#      x y z
#    x 3.826730 0.000000 0.066570 
#    y 0.000000 3.927900 0.000000 
#    z 0.066570 0.000000 3.992030 
# 
# 
# High freq. dielectric constant tensor:
#      x y z
#    x 1.811830 0.000000 0.004300 
#    y 0.000000 1.813180 0.000000 
#    z 0.004300 0.000000 1.816770 
# 
# From -- ./inp_files/38070.got.cif
#   From: 2010.03.12/outbox.cif.g09.slc.cpg/sg5_20_cif.got.tgz:38070.got - 2010.03.31 09:47:26.
