data_PCOD8050717
_publ_section_title
;
Structure prediction by ZEFSAII (Michael W. Deem and Ramdas Pophale) SiO2 
 PCOD8050717
Probable space group: C 2
;
_chemical_formula_sum "Si O2"
_cell_formula_units_Z 24
_cell_length_a 6.885642
_cell_length_b 12.731141
_cell_length_c 14.059458
_cell_angle_alpha 90.000000
_cell_angle_beta 104.179721
_cell_angle_gamma 90.000000
_cell_volume 1194.930218
_symmetry_space_group_name_H-M "C 2"
_symmetry_group_IT_number 5
_symmetry_cell_setting 'monoclinic'
loop_
_space_group_symop_operation_xyz
x,y,z
-x,y,-z
1/2+x,1/2+y,z
1/2-x,1/2+y,-z
loop_
_atom_site_type_symbol
_atom_site_label
_atom_site_fract_x
_atom_site_fract_y
_atom_site_fract_z
Si Si1 0.622764 0.484910 0.600423
Si Si2 0.690635 0.435558 0.087620
Si Si3 0.041637 0.645552 0.336445
Si Si4 0.267793 0.207650 0.829577
Si Si5 0.000000 0.786161 0.500000
Si Si6 0.602433 0.572885 0.257309
Si Si7 0.500000 0.060455 0.000000
O O1 0.500000 0.542463 0.500000
O O2 0.658056 0.362693 0.574582
O O3 0.486323 0.489695 0.678417
O O4 0.836619 0.536831 0.645375
O O5 0.761630 0.325667 0.138998
O O6 0.630090 0.516683 0.160965
O O7 0.874668 0.484435 0.052672
O O8 0.500000 0.413582 0.000000
O O9 0.809027 0.619988 0.320455
O O10 0.082136 0.705357 0.242379
O O11 0.111192 0.716049 0.434216
O O12 0.049074 0.169682 0.772073
O O13 0.351152 0.133517 0.922615
#
# Coordination Sequence:
#
# PCOD8050717 Si02
#       7
#     4   4   4   4   2   4   2
#     4   9  22  42  63  95 131 162 218 262 313 395
#     4  12  25  41  68  94 129 177 216 266 326 378
#     4  11  22  42  70  94 131 172 211 270 325 378
#     4  11  25  43  65  97 131 169 221 266 321 386
#     4  10  22  42  68  94 130 172 212 262 322 390
#     4  11  23  42  67  97 132 166 216 273 320 381
#     4  12  24  44  64  96 130 170 220 272 316 384
#
# _framework density 20.084855000000001
#
# number of rings (size 3 to 8) (size 9 to 14) (size 15 to 20)
#    0.500    0.667    4.167    2.000    0.000    4.000 
#    0.000    5.000    0.000    0.000    0.000    0.000 
#    0.000    0.000    0.000    0.000    0.000    0.000 
#
# Total GULP energy -148810.778945 kJ/mol
# GULP energy per Si atom -12400.898245 kJ/mol
# Density = 2.003914 g / cm^3
# Si number density = 20.084855 Si / 1000 Ang^3
#
#
#
# Elastic Constant Matrix: (Units=GPa)
#
#
# Indices 1 2 3 4 5 6 
#
# 1 114.5879 35.4020 34.3056 0.0000 -5.7823 0.0000
# 2 35.4020 95.5631 26.9811 0.0000 -20.4783 0.0000
# 3 34.3056 26.9811 96.1819 0.0000 -23.9732 0.0000
# 4 0.0000 0.0000 0.0000 49.9738 0.0000 0.2609
# 5 -5.7823 -20.4783 -23.9732 0.0000 35.5411 0.0000
# 6 0.0000 0.0000 0.0000 0.2609 0.0000 17.4193
#
#
#
# Elastic Compliance Matrix: (Units=1/GPa)
#
#
# Indices 1 2 3 4 5 6 
#
# 1 0.010739 -0.003562 -0.003495 0.000000 -0.002663 0.000000
# 2 -0.003562 0.013437 -0.000858 0.000000 0.006584 0.000000
# 3 -0.003495 -0.000858 0.013967 0.000000 0.008359 0.000000
# 4 0.000000 0.000000 0.000000 0.020012 0.000000 -0.000300
# 5 -0.002663 0.006584 0.008359 0.000000 0.037135 0.000000
# 6 0.000000 0.000000 0.000000 -0.000300 0.000000 0.057412
#
#
# Mechanical properties :
#
#
# Convention : Reuss Voigt Hill
#
# Bulk Modulus (GPa) = 44.81459 55.52338 50.16898
# Shear Modulus (GPa) = 28.41382 34.56314 31.48848
#
# Velocity S-wave (km/s) = 3.76532 4.15282 3.96381
# Velocity P-wave (km/s) = 6.42375 7.12032 6.78098
#
# Compressibility (1/GPa) = 0.02231416
#
# Stress axis : x y z
#
# Youngs Moduli (GPa) = 93.11473 74.42094 71.59512
#
# Poissons Ratio (x) = 0.26511 0.25021
# Poissons Ratio (y) = 0.33171 0.06141
# Poissons Ratio (z) = 0.32542 0.06383
#
# Static dielectric constant tensor:
#      x y z
#    x 3.428690 0.000000 -0.070730 
#    y 0.000000 3.545680 0.000000 
#    z -0.070730 0.000000 3.901060 
# 
# 
# High freq. dielectric constant tensor:
#      x y z
#    x 1.777320 0.000000 -0.008570 
#    y 0.000000 1.782460 0.000000 
#    z -0.008570 0.000000 1.805830 
# 
# From -- ./inp_files/48990.got.cif
#   From: 2010.03.12/outbox.cif.g09.slc.cpg/sg5_25_cif.got.tgz:48990.got - 2010.03.31 09:47:26.
