data_PCOD8050530
_publ_section_title
;
Structure prediction by ZEFSAII (Michael W. Deem and Ramdas Pophale) SiO2 
 PCOD8050530
Probable space group: C 2
;
_chemical_formula_sum "Si O2"
_cell_formula_units_Z 30
_cell_length_a 11.439119
_cell_length_b 8.196055
_cell_length_c 30.505898
_cell_angle_alpha 90.000000
_cell_angle_beta 151.905956
_cell_angle_gamma 90.000000
_cell_volume 1346.878924
_symmetry_space_group_name_H-M "C 2"
_symmetry_group_IT_number 5
_symmetry_cell_setting 'monoclinic'
loop_
_space_group_symop_operation_xyz
x,y,z
-x,y,-z
1/2+x,1/2+y,z
1/2-x,1/2+y,-z
loop_
_atom_site_type_symbol
_atom_site_label
_atom_site_fract_x
_atom_site_fract_y
_atom_site_fract_z
Si Si1 0.975358 0.873570 0.890559
Si Si2 0.986868 0.494173 0.087754
Si Si3 0.500000 0.763796 0.500000
Si Si4 0.082759 0.536593 0.374581
Si Si5 0.640316 0.784260 0.219417
Si Si6 0.371884 0.490915 0.149893
Si Si7 0.064087 0.496510 0.273958
Si Si8 0.771969 0.353586 0.338023
O O1 0.949704 0.684082 0.891380
O O2 0.735165 0.975441 0.826386
O O3 0.030394 0.877188 0.856768
O O4 0.196423 0.956521 0.991377
O O5 0.122396 0.406745 0.172881
O O6 0.102132 0.436847 0.078803
O O7 0.352868 0.873537 0.415760
O O8 0.687706 0.649039 0.533809
O O9 0.860856 0.655901 0.285243
O O10 0.160299 0.448262 0.354470
O O11 0.010853 0.401009 0.386733
O O12 0.383548 0.679643 0.137381
O O13 0.692973 0.878941 0.281680
O O14 0.558256 0.480857 0.253777
O O15 0.157319 0.675973 0.291181
#
# Coordination Sequence:
#
# PCOD8050530 Si02
#       8
#     4   4   2   4   4   4   4   4
#     4  12  25  42  64  96 132 178 230 275 335 386
#     4  12  26  41  62  96 136 175 227 288 326 382
#     4  10  22  40  66 106 128 162 218 282 328 402
#     4  10  23  45  68  97 135 176 216 271 333 401
#     4  11  23  41  68  93 130 176 222 269 332 392
#     4  11  23  45  64  92 130 177 219 273 333 401
#     4  11  22  42  64  93 128 176 222 266 326 397
#     4  10  22  41  72  91 134 174 215 269 336 398
#
# _framework density 22.273717000000001
#
# number of rings (size 3 to 8) (size 9 to 14) (size 15 to 20)
#    0.000    1.067    4.000    3.600    1.867    2.667 
#    2.400    4.000    0.000    1.600    0.000    0.000 
#    0.000    0.000    0.000    0.000    0.000    0.000 
#
# Total GULP energy -185905.436337 kJ/mol
# GULP energy per Si atom -12393.695756 kJ/mol
# Density = 2.222302 g / cm^3
# Si number density = 22.273717 Si / 1000 Ang^3
#
#
#
# Elastic Constant Matrix: (Units=GPa)
#
#
# Indices 1 2 3 4 5 6 
#
# 1 114.5662 39.3881 18.7816 0.0003 -12.5880 -0.0002
# 2 39.3881 82.8529 22.3070 0.0006 -4.3568 -0.0002
# 3 18.7816 22.3070 66.9203 0.0011 -7.2737 -0.0005
# 4 0.0003 0.0006 0.0011 31.2252 -0.0003 0.3381
# 5 -12.5880 -4.3568 -7.2737 -0.0003 33.0386 0.0002
# 6 -0.0002 -0.0002 -0.0005 0.3381 0.0002 33.4505
#
#
#
# Elastic Compliance Matrix: (Units=1/GPa)
#
#
# Indices 1 2 3 4 5 6 
#
# 1 0.010891 -0.004700 -0.001133 0.000000 0.003280 0.000000
# 2 -0.004700 0.015308 -0.003851 0.000000 -0.000620 0.000000
# 3 -0.001133 -0.003851 0.016846 0.000000 0.002769 0.000000
# 4 0.000000 0.000000 0.000000 0.032029 0.000000 -0.000324
# 5 0.003280 -0.000620 0.002769 0.000000 0.032045 0.000000
# 6 0.000000 0.000000 0.000000 -0.000324 0.000000 0.029898
#
#
# Mechanical properties :
#
#
# Convention : Reuss Voigt Hill
#
# Bulk Modulus (GPa) = 42.23661 47.25475 44.74568
# Shear Modulus (GPa) = 30.43630 31.80036 31.11833
#
# Velocity S-wave (km/s) = 3.70059 3.78260 3.74182
# Velocity P-wave (km/s) = 6.10433 6.35130 6.22904
#
# Compressibility (1/GPa) = 0.02367614
#
# Stress axis : x y z
#
# Youngs Moduli (GPa) = 91.82259 65.32494 59.36146
#
# Poissons Ratio (x) = 0.30701 0.06728
# Poissons Ratio (y) = 0.43154 0.22861
# Poissons Ratio (z) = 0.10407 0.25157
#
# Static dielectric constant tensor:
#      x y z
#    x 4.283420 0.000000 0.073130 
#    y 0.000000 3.896580 0.000000 
#    z 0.073130 0.000000 3.950900 
# 
# 
# High freq. dielectric constant tensor:
#      x y z
#    x 1.892000 0.000000 0.000560 
#    y 0.000000 1.862810 0.000000 
#    z 0.000560 0.000000 1.868210 
# 
# From -- ./inp_files/71710.got.cif
#   From: 2010.03.12/outbox.cif.g09.slc.cpg/sg5_36_cif.got.tgz:71710.got - 2010.03.31 09:47:26.
