data_PCOD8050669
_publ_section_title
;
Structure prediction by ZEFSAII (Michael W. Deem and Ramdas Pophale) SiO2 
 PCOD8050669
Probable space group: C 2
;
_chemical_formula_sum "Si O2"
_cell_formula_units_Z 18
_cell_length_a 7.559981
_cell_length_b 23.922140
_cell_length_c 5.225727
_cell_angle_alpha 90.000000
_cell_angle_beta 112.040321
_cell_angle_gamma 90.000000
_cell_volume 876.011290
_symmetry_space_group_name_H-M "C 2"
_symmetry_group_IT_number 5
_symmetry_cell_setting 'monoclinic'
loop_
_space_group_symop_operation_xyz
x,y,z
-x,y,-z
1/2+x,1/2+y,z
1/2-x,1/2+y,-z
loop_
_atom_site_type_symbol
_atom_site_label
_atom_site_fract_x
_atom_site_fract_y
_atom_site_fract_z
Si Si1 0.500000 0.276390 0.000000
Si Si2 0.383637 0.632604 0.689220
Si Si3 0.883404 0.001181 0.686629
Si Si4 0.404738 0.826053 0.201233
Si Si5 0.000000 0.701285 0.500000
Si Si6 0.000000 0.433599 0.500000
O O1 0.679674 0.317439 0.089554
O O2 0.494799 0.238872 0.247094
O O3 0.500000 0.649917 0.500000
O O4 0.345166 0.566866 0.678074
O O5 0.181880 0.662105 0.581493
O O6 0.500000 0.652792 0.000000
O O7 0.000000 0.983846 0.500000
O O8 0.680309 0.972160 0.545897
O O9 0.000000 0.981118 0.000000
O O10 0.500000 0.795501 0.500000
O O11 0.452391 0.892555 0.234622
O O12 0.500000 0.799553 0.000000
#
# Coordination Sequence:
#
# PCOD8050669 Si02
#       6
#     2   4   4   4   2   2
#     4  12  26  42  62  92 120 162 208 254 302 352
#     4  10  22  42  63  93 126 156 197 250 304 363
#     4  10  23  39  64  94 125 158 198 246 301 367
#     4  10  25  42  61  87 123 162 202 256 297 353
#     4  12  25  40  68  90 118 164 205 250 304 364
#     4  10  25  38  68  88 124 164 201 246 304 358
#
# _framework density 20.547681000000001
#
# number of rings (size 3 to 8) (size 9 to 14) (size 15 to 20)
#    0.667    0.889    0.000    3.333    4.667    5.333 
#    0.000    6.667    0.000    0.000    0.000    0.000 
#    0.000    0.000    0.000    0.000    0.000    0.000 
#
# Total GULP energy -111591.048592 kJ/mol
# GULP energy per Si atom -12399.005399 kJ/mol
# Density = 2.050091 g / cm^3
# Si number density = 20.547681 Si / 1000 Ang^3
#
#
#
# Elastic Constant Matrix: (Units=GPa)
#
#
# Indices 1 2 3 4 5 6 
#
# 1 211.6677 72.2144 103.1210 0.0000 17.8124 0.0000
# 2 72.2144 59.2699 49.2503 0.0000 10.1573 0.0000
# 3 103.1210 49.2503 182.7598 0.0000 -12.0357 0.0000
# 4 0.0000 0.0000 0.0000 2.8725 0.0000 36.2612
# 5 17.8124 10.1573 -12.0357 0.0000 44.1643 0.0000
# 6 0.0000 0.0000 0.0000 36.2612 0.0000 49.4420
#
#
#
# Elastic Compliance Matrix: (Units=1/GPa)
#
#
# Indices 1 2 3 4 5 6 
#
# 1 0.009334 -0.008212 -0.003236 0.000000 -0.002758 0.000000
# 2 -0.008212 0.031115 -0.004078 0.000000 -0.004955 0.000000
# 3 -0.003236 -0.004078 0.008700 0.000000 0.004614 0.000000
# 4 0.000000 0.000000 0.000000 -0.042155 0.000000 0.030917
# 5 -0.002758 -0.004955 0.004614 0.000000 0.026152 0.000000
# 6 0.000000 0.000000 0.000000 0.030917 0.000000 -0.002449
#
#
# Mechanical properties :
#
#
# Convention : Reuss Voigt Hill
#
# Bulk Modulus (GPa) = 55.25159 100.31876 77.78517
# Shear Modulus (GPa) = 73.76805 34.56988 54.16897
#
# Velocity S-wave (km/s) = 5.99824 4.10618 5.14002
# Velocity P-wave (km/s) = 8.65561 8.45041 8.55363
#
# Compressibility (1/GPa) = 0.01809903
#
# Stress axis : x y z
#
# Youngs Moduli (GPa) = 107.13075 32.13904 114.94219
#
# Poissons Ratio (x) = 0.26392 0.37190
# Poissons Ratio (y) = 0.87973 0.46870
# Poissons Ratio (z) = 0.34663 0.13105
#
# Static dielectric constant tensor:
#      x y z
#    x 3.828060 0.000000 -0.342140 
#    y 0.000000 3.591150 0.000000 
#    z -0.342140 0.000000 4.471240 
# 
# 
# High freq. dielectric constant tensor:
#      x y z
#    x 1.818150 0.000000 0.000980 
#    y 0.000000 1.800280 0.000000 
#    z 0.000980 0.000000 1.818450 
# 
# From -- ./inp_files/930.got.cif
#   From: 2010.03.12/outbox.cif.g09.slc.cpg/sg5_1_cif.got.tgz:930.got - 2010.03.31 09:47:26.
