data_PCOD8050929
_publ_section_title
;
Structure prediction by ZEFSAII (Michael W. Deem and Ramdas Pophale) SiO2 
 PCOD8050929
Probable space group: C 2
;
_chemical_formula_sum "Si O2"
_cell_formula_units_Z 24
_cell_length_a 10.873232
_cell_length_b 14.397350
_cell_length_c 13.395149
_cell_angle_alpha 90.000000
_cell_angle_beta 147.018561
_cell_angle_gamma 90.000000
_cell_volume 1141.512864
_symmetry_space_group_name_H-M "C 2"
_symmetry_group_IT_number 5
_symmetry_cell_setting 'monoclinic'
loop_
_space_group_symop_operation_xyz
x,y,z
-x,y,-z
1/2+x,1/2+y,z
1/2-x,1/2+y,-z
loop_
_atom_site_type_symbol
_atom_site_label
_atom_site_fract_x
_atom_site_fract_y
_atom_site_fract_z
Si Si1 0.504769 0.034110 0.696894
Si Si2 0.000000 0.269195 0.500000
Si Si3 0.754338 0.377702 0.643277
Si Si4 0.840464 0.918714 0.800696
Si Si5 0.336201 0.543898 0.098759
Si Si6 0.658660 0.686517 0.407214
Si Si7 0.500000 0.940113 0.000000
O O1 0.376595 0.121297 0.563359
O O2 0.331006 0.956812 0.618215
O O3 0.653721 0.991816 0.709781
O O4 0.663764 0.069981 0.893675
O O5 0.778807 0.329128 0.325511
O O6 0.940400 0.203647 0.551122
O O7 0.500000 0.400045 0.500000
O O8 0.769639 0.279648 0.599438
O O9 0.916106 0.376543 0.850867
O O10 0.987791 0.964663 0.814235
O O11 0.000000 0.886075 0.000000
O O12 0.462599 0.638609 0.209999
O O13 0.205972 0.505641 0.106603
#
# Coordination Sequence:
#
# PCOD8050929 Si02
#       7
#     4   2   4   4   4   4   2
#     4  10  23  47  67  94 133 177 219 266 326 383
#     4  12  26  40  68 100 130 168 220 276 324 386
#     4  11  25  44  68  97 133 175 216 269 326 389
#     4  10  22  46  69  90 128 179 221 269 324 381
#     4  10  24  43  69  93 130 178 217 269 323 389
#     4  12  27  41  67 102 131 171 219 272 324 391
#     4  10  24  46  70  90 132 180 214 268 328 388
#
# _framework density 21.024730000000002
#
# number of rings (size 3 to 8) (size 9 to 14) (size 15 to 20)
#    0.000    1.333    1.667    2.000   10.500    2.667 
#    1.500    0.000    0.000    0.000    0.000    0.000 
#    0.000    0.000    0.000    0.000    0.000    0.000 
#
# Total GULP energy -148889.229822 kJ/mol
# GULP energy per Si atom -12407.435818 kJ/mol
# Density = 2.097688 g / cm^3
# Si number density = 21.024730 Si / 1000 Ang^3
#
#
#
# Elastic Constant Matrix: (Units=GPa)
#
#
# Indices 1 2 3 4 5 6 
#
# 1 89.4577 2.1977 21.1997 -0.0641 19.3329 -0.0339
# 2 2.1977 69.8793 47.1365 -0.1256 4.5520 -0.0946
# 3 21.1997 47.1365 104.5050 -0.1194 13.6122 -0.0977
# 4 -0.0641 -0.1256 -0.1194 26.4430 -0.0573 -6.4264
# 5 19.3329 4.5520 13.6122 -0.0573 36.8806 -0.0385
# 6 -0.0339 -0.0946 -0.0977 -6.4264 -0.0385 11.8135
#
#
#
# Elastic Compliance Matrix: (Units=1/GPa)
#
#
# Indices 1 2 3 4 5 6 
#
# 1 0.013083 0.001783 -0.002664 0.000020 -0.006095 0.000021
# 2 0.001783 0.020842 -0.009775 0.000094 0.000101 0.000143
# 3 -0.002664 -0.009775 0.014896 0.000017 -0.002895 0.000037
# 4 0.000020 0.000094 0.000017 0.043580 0.000064 0.023708
# 5 -0.006095 0.000101 -0.002895 0.000064 0.031366 0.000096
# 6 0.000021 0.000143 0.000037 0.023708 0.000096 0.097547
#
#
# Mechanical properties :
#
#
# Convention : Reuss Voigt Hill
#
# Bulk Modulus (GPa) = 36.35404 44.98999 40.67201
# Shear Modulus (GPa) = 19.85739 27.91463 23.88601
#
# Velocity S-wave (km/s) = 3.07657 3.64772 3.37425
# Velocity P-wave (km/s) = 5.47257 6.25989 5.87942
#
# Compressibility (1/GPa) = 0.02750726
#
# Stress axis : x y z
#
# Youngs Moduli (GPa) = 76.43366 47.98031 67.13421
#
# Poissons Ratio (x) = -0.08554 0.17886
# Poissons Ratio (y) = -0.13626 0.65625
# Poissons Ratio (z) = 0.20364 0.46902
#
# Static dielectric constant tensor:
#      x y z
#    x 4.006280 -0.000010 0.000040 
#    y -0.000010 3.573100 0.000010 
#    z 0.000040 0.000010 4.133360 
# 
# 
# High freq. dielectric constant tensor:
#      x y z
#    x 1.841990 0.000000 0.000700 
#    y 0.000000 1.811210 0.000000 
#    z 0.000700 0.000000 1.843540 
# 
# From -- ./inp_files/53235.got.cif
#   From: 2010.03.12/outbox.cif.g09.slc.cpg/sg5_27_cif.got.tgz:53235.got - 2010.03.31 09:47:26.
