data_PCOD8050538
_publ_section_title
;
Structure prediction by ZEFSAII (Michael W. Deem and Ramdas Pophale) SiO2 
 PCOD8050538
Probable space group: C 2
;
_chemical_formula_sum "Si O2"
_cell_formula_units_Z 20
_cell_length_a 22.306758
_cell_length_b 4.614637
_cell_length_c 8.359178
_cell_angle_alpha 90.000000
_cell_angle_beta 127.108533
_cell_angle_gamma 90.000000
_cell_volume 686.222642
_symmetry_space_group_name_H-M "C 2"
_symmetry_group_IT_number 5
_symmetry_cell_setting 'monoclinic'
loop_
_space_group_symop_operation_xyz
x,y,z
-x,y,-z
1/2+x,1/2+y,z
1/2-x,1/2+y,-z
loop_
_atom_site_type_symbol
_atom_site_label
_atom_site_fract_x
_atom_site_fract_y
_atom_site_fract_z
Si Si1 0.761505 0.739540 0.230756
Si Si2 0.877024 0.074412 0.598754
Si Si3 0.028386 0.560843 0.364835
Si Si4 0.829990 0.738025 0.008182
Si Si5 0.436219 0.625357 0.016098
O O1 0.801245 0.891041 0.445008
O O2 0.737010 0.404656 0.199936
O O3 0.681290 0.901521 0.058457
O O4 0.820098 0.793627 0.180191
O O5 0.950851 0.876752 0.672588
O O6 0.869649 0.172323 0.774326
O O7 0.893650 0.368234 0.522293
O O8 0.000000 0.582115 0.500000
O O9 0.962353 0.413808 0.151082
O O10 0.911798 0.865740 0.097465
O O11 0.500000 0.508642 0.000000
#
# Coordination Sequence:
#
# PCOD8050538 Si02
#       5
#     4   4   4   4   4
#     4  10  22  41  65  96 127 179 236 285 338 403
#     4  11  24  42  66  99 140 179 235 290 348 417
#     4  11  24  43  69  98 136 189 236 282 342 419
#     4  10  22  40  66  94 133 177 231 286 339 413
#     4  10  25  42  64  99 139 178 222 283 349 408
#
# _framework density 29.145060000000001
#
# number of rings (size 3 to 8) (size 9 to 14) (size 15 to 20)
#    0.000    1.600    0.000    3.000    0.000   20.000 
#    0.000    0.000    0.000    0.000    0.000    0.000 
#    0.000    0.000    0.000    0.000    0.000    0.000 
#
# Total GULP energy -123957.701783 kJ/mol
# GULP energy per Si atom -12395.770178 kJ/mol
# Density = 2.907872 g / cm^3
# Si number density = 29.145060 Si / 1000 Ang^3
#
#
#
# Elastic Constant Matrix: (Units=GPa)
#
#
# Indices 1 2 3 4 5 6 
#
# 1 57.8139 10.3323 -13.3618 0.0000 -20.5574 0.0000
# 2 10.3323 120.3422 -2.2209 0.0000 -30.1281 0.0000
# 3 -13.3618 -2.2209 106.1694 0.0000 -21.0432 0.0000
# 4 0.0000 0.0000 0.0000 16.8251 0.0000 -9.6308
# 5 -20.5574 -30.1281 -21.0432 0.0000 50.5150 0.0000
# 6 0.0000 0.0000 0.0000 -9.6308 0.0000 26.3203
#
#
#
# Elastic Compliance Matrix: (Units=1/GPa)
#
#
# Indices 1 2 3 4 5 6 
#
# 1 0.022606 0.001186 0.005268 0.000000 0.012101 0.000000
# 2 0.001186 0.010049 0.001791 0.000000 0.007222 0.000000
# 3 0.005268 0.001791 0.011724 0.000000 0.008096 0.000000
# 4 0.000000 0.000000 0.000000 0.075182 0.000000 0.027510
# 5 0.012101 0.007222 0.008096 0.000000 0.032401 0.000000
# 6 0.000000 0.000000 0.000000 0.027510 0.000000 0.048059
#
#
# Mechanical properties :
#
#
# Convention : Reuss Voigt Hill
#
# Bulk Modulus (GPa) = 16.42868 30.42497 23.42683
# Shear Modulus (GPa) = 24.53148 38.03714 31.28431
#
# Velocity S-wave (km/s) = 2.90436 3.61653 3.27983
# Velocity P-wave (km/s) = 4.11050 5.28213 4.73271
#
# Compressibility (1/GPa) = 0.06086915
#
# Stress axis : x y z
#
# Youngs Moduli (GPa) = 44.23695 99.51300 85.29450
#
# Poissons Ratio (x) = -0.11802 -0.44936
# Poissons Ratio (y) = -0.05247 -0.15276
# Poissons Ratio (z) = -0.23306 -0.17822
#
# Static dielectric constant tensor:
#      x y z
#    x 5.466260 0.000000 0.170860 
#    y 0.000000 5.201960 0.000000 
#    z 0.170860 0.000000 5.879690 
# 
# 
# High freq. dielectric constant tensor:
#      x y z
#    x 2.206620 0.000000 0.015420 
#    y 0.000000 2.200310 0.000000 
#    z 0.015420 0.000000 2.189490 
# 
# From -- ./inp_files/28390.got.cif
#   From: 2010.03.12/outbox.cif.g09.slc.cpg/sg5_15_cif.got.tgz:28390.got - 2010.03.31 09:47:26.
