data_PCOD8050657
_publ_section_title
;
Structure prediction by ZEFSAII (Michael W. Deem and Ramdas Pophale) SiO2 
 PCOD8050657
Probable space group: C 2
;
_chemical_formula_sum "Si O2"
_cell_formula_units_Z 28
_cell_length_a 8.580630
_cell_length_b 13.118830
_cell_length_c 13.105452
_cell_angle_alpha 90.000000
_cell_angle_beta 67.297463
_cell_angle_gamma 90.000000
_cell_volume 1360.951177
_symmetry_space_group_name_H-M "C 2"
_symmetry_group_IT_number 5
_symmetry_cell_setting 'monoclinic'
loop_
_space_group_symop_operation_xyz
x,y,z
-x,y,-z
1/2+x,1/2+y,z
1/2-x,1/2+y,-z
loop_
_atom_site_type_symbol
_atom_site_label
_atom_site_fract_x
_atom_site_fract_y
_atom_site_fract_z
Si Si1 0.598915 0.099340 0.266469
Si Si2 0.741032 0.165388 0.584749
Si Si3 0.265583 0.516038 0.410917
Si Si4 0.620368 0.938789 0.776135
Si Si5 0.603156 0.603814 0.258939
Si Si6 0.563990 0.721644 0.872472
Si Si7 0.699632 0.346109 0.465224
O O1 0.442305 0.177692 0.315198
O O2 0.616904 0.056014 0.376947
O O3 0.757979 0.163484 0.187253
O O4 0.551402 0.001716 0.207417
O O5 0.762097 0.054091 0.529847
O O6 0.876364 0.172230 0.642608
O O7 0.762599 0.232662 0.476824
O O8 0.438195 0.535589 0.308156
O O9 0.250945 0.396528 0.437952
O O10 0.581619 0.844738 0.861345
O O11 0.701615 0.885125 0.657401
O O12 0.743372 0.023739 0.795816
O O13 0.578575 0.681378 0.170705
O O14 0.500000 0.693110 0.000000
O O15 0.500000 0.352878 0.500000
#
# Coordination Sequence:
#
# PCOD8050657 Si02
#       7
#     4   4   4   4   4   4   4
#     4  10  23  40  61  93 124 163 211 259 301 378
#     4  11  21  35  59  89 131 167 202 246 296 377
#     4  11  19  35  56  90 131 165 194 228 303 379
#     4  11  23  41  66  97 127 164 214 254 306 380
#     4  10  22  42  61  90 127 165 209 254 307 379
#     4  11  26  47  67  86 118 164 217 281 330 354
#     4  12  20  32  59  92 133 173 192 235 306 372
#
# _framework density 20.573844999999999
#
# number of rings (size 3 to 8) (size 9 to 14) (size 15 to 20)
#    0.000    1.143    4.286    4.286    2.000    1.143 
#    0.000    2.143    0.000    0.000    0.000    0.000 
#    0.000    0.000    0.000    0.000    0.000    0.000 
#
# Total GULP energy -173466.820053 kJ/mol
# GULP energy per Si atom -12390.487147 kJ/mol
# Density = 2.052702 g / cm^3
# Si number density = 20.573845 Si / 1000 Ang^3
#
#
#
# Elastic Constant Matrix: (Units=GPa)
#
#
# Indices 1 2 3 4 5 6 
#
# 1 82.1588 30.0703 16.9208 0.0000 7.5887 0.0000
# 2 30.0703 78.2845 15.1529 0.0000 0.0078 0.0000
# 3 16.9208 15.1529 57.8231 0.0000 7.5769 0.0000
# 4 0.0000 0.0000 0.0000 27.8264 0.0000 3.7437
# 5 7.5887 0.0078 7.5769 0.0000 19.0680 0.0000
# 6 0.0000 0.0000 0.0000 3.7437 0.0000 30.0498
#
#
#
# Elastic Compliance Matrix: (Units=1/GPa)
#
#
# Indices 1 2 3 4 5 6 
#
# 1 0.015076 -0.005336 -0.002350 0.000000 -0.005064 0.000000
# 2 -0.005336 0.015384 -0.002898 0.000000 0.003269 0.000000
# 3 -0.002350 -0.002898 0.019641 0.000000 -0.006868 0.000000
# 4 0.000000 0.000000 0.000000 0.036550 0.000000 -0.004554
# 5 -0.005064 0.003269 -0.006868 0.000000 0.057187 0.000000
# 6 0.000000 0.000000 0.000000 -0.004554 0.000000 0.033845
#
#
# Mechanical properties :
#
#
# Convention : Reuss Voigt Hill
#
# Bulk Modulus (GPa) = 34.56197 38.06161 36.31179
# Shear Modulus (GPa) = 23.98123 25.79699 24.88911
#
# Velocity S-wave (km/s) = 3.41782 3.54485 3.48191
# Velocity P-wave (km/s) = 5.69304 5.94094 5.81831
#
# Compressibility (1/GPa) = 0.02893353
#
# Stress axis : x y z
#
# Youngs Moduli (GPa) = 66.33012 65.00211 50.91298
#
# Poissons Ratio (x) = 0.34683 0.11964
# Poissons Ratio (y) = 0.35391 0.14757
# Poissons Ratio (z) = 0.15587 0.18841
#
# Static dielectric constant tensor:
#      x y z
#    x 3.929620 0.000000 0.095180 
#    y 0.000000 3.957060 0.000000 
#    z 0.095180 0.000000 3.331160 
# 
# 
# High freq. dielectric constant tensor:
#      x y z
#    x 1.816120 0.000000 0.001510 
#    y 0.000000 1.813750 0.000000 
#    z 0.001510 0.000000 1.766920 
# 
# From -- ./inp_files/35853.got.cif
#   From: 2010.03.12/outbox.cif.g09.slc.cpg/sg5_18_cif.got.tgz:35853.got - 2010.03.31 09:47:26.
