data_PCOD8050233
_publ_section_title
;
Structure prediction by ZEFSAII (Michael W. Deem and Ramdas Pophale) SiO2 
 PCOD8050233
Probable space group: C 2
;
_chemical_formula_sum "Si O2"
_cell_formula_units_Z 30
_cell_length_a 22.041209
_cell_length_b 9.148294
_cell_length_c 7.177792
_cell_angle_alpha 90.000000
_cell_angle_beta 111.448073
_cell_angle_gamma 90.000000
_cell_volume 1347.097822
_symmetry_space_group_name_H-M "C 2"
_symmetry_group_IT_number 5
_symmetry_cell_setting 'monoclinic'
loop_
_space_group_symop_operation_xyz
x,y,z
-x,y,-z
1/2+x,1/2+y,z
1/2-x,1/2+y,-z
loop_
_atom_site_type_symbol
_atom_site_label
_atom_site_fract_x
_atom_site_fract_y
_atom_site_fract_z
Si Si1 0.538755 0.281870 0.715806
Si Si2 0.882592 0.389346 0.037382
Si Si3 0.500000 0.480224 0.000000
Si Si4 0.986279 0.473392 0.693972
Si Si5 0.640201 0.839437 0.551020
Si Si6 0.374264 0.629612 0.755128
Si Si7 0.235046 0.953003 0.202928
Si Si8 0.320514 0.172546 0.067356
O O1 0.500000 0.358556 0.500000
O O2 0.540350 0.388134 0.893879
O O3 0.613092 0.229171 0.750808
O O4 0.491863 0.147002 0.715279
O O5 0.869421 0.347521 0.238806
O O6 0.847080 0.545702 0.955189
O O7 0.961186 0.403933 0.103989
O O8 0.857116 0.263160 0.875180
O O9 0.449028 0.583589 0.840601
O O10 0.911894 0.423028 0.644295
O O11 0.000000 0.417804 0.500000
O O12 0.640131 0.673418 0.475548
O O13 0.711034 0.905598 0.585370
O O14 0.329329 0.494380 0.757990
O O15 0.265868 0.092454 0.130668
O O16 0.216267 0.811943 0.057787
#
# Coordination Sequence:
#
# PCOD8050233 Si02
#       8
#     4   4   2   4   4   4   4   4
#     4  10  21  42  66  96 131 172 217 274 341 383
#     4   9  20  40  70  90 125 168 215 275 332 384
#     4  12  26  42  62  98 138 166 224 284 326 396
#     4   8  16  36  65  94 118 161 221 265 322 395
#     4  10  22  40  62  94 125 168 222 267 320 400
#     4  12  25  42  62  97 133 172 220 273 335 392
#     4  11  22  42  65  96 135 175 225 267 329 402
#     4  10  21  43  69  97 131 176 222 270 326 401
#
# _framework density 22.270098000000001
#
# number of rings (size 3 to 8) (size 9 to 14) (size 15 to 20)
#    0.000    1.867    1.333    4.800    0.000    4.267 
#    7.200    0.000    0.000    0.000    0.000    0.000 
#    0.000    0.000    0.000    0.000    0.000    0.000 
#
# Total GULP energy -185827.861471 kJ/mol
# GULP energy per Si atom -12388.524098 kJ/mol
# Density = 2.221941 g / cm^3
# Si number density = 22.270098 Si / 1000 Ang^3
#
#
#
# Elastic Constant Matrix: (Units=GPa)
#
#
# Indices 1 2 3 4 5 6 
#
# 1 99.3161 44.1458 29.6531 0.0000 29.9264 0.0000
# 2 44.1458 96.7544 39.1853 0.0000 7.2076 0.0000
# 3 29.6531 39.1853 65.1529 0.0000 22.2917 0.0000
# 4 0.0000 0.0000 0.0000 37.0022 0.0000 5.1618
# 5 29.9264 7.2076 22.2917 0.0000 35.2567 0.0000
# 6 0.0000 0.0000 0.0000 5.1618 0.0000 38.6220
#
#
#
# Elastic Compliance Matrix: (Units=1/GPa)
#
#
# Indices 1 2 3 4 5 6 
#
# 1 0.017097 -0.007323 0.001373 0.000000 -0.013883 0.000000
# 2 -0.007323 0.017065 -0.010034 0.000000 0.009071 0.000000
# 3 0.001373 -0.010034 0.026102 0.000000 -0.015618 0.000000
# 4 0.000000 0.000000 0.000000 0.027539 0.000000 -0.003681
# 5 -0.013883 0.009071 -0.015618 0.000000 0.048168 0.000000
# 6 0.000000 0.000000 0.000000 -0.003681 0.000000 0.026384
#
#
# Mechanical properties :
#
#
# Convention : Reuss Voigt Hill
#
# Bulk Modulus (GPa) = 35.34097 54.13242 44.73669
# Shear Modulus (GPa) = 24.53926 32.05878 28.29902
#
# Velocity S-wave (km/s) = 3.32308 3.79825 3.56858
# Velocity P-wave (km/s) = 5.53421 6.60269 6.09192
#
# Compressibility (1/GPa) = 0.02829577
#
# Stress axis : x y z
#
# Youngs Moduli (GPa) = 58.48856 58.60072 38.31103
#
# Poissons Ratio (x) = 0.42911 -0.05259
# Poissons Ratio (y) = 0.42829 0.38442
# Poissons Ratio (z) = -0.08029 0.58801
#
# Static dielectric constant tensor:
#      x y z
#    x 4.170220 0.000000 0.406910 
#    y 0.000000 3.980000 0.000000 
#    z 0.406910 0.000000 4.051760 
# 
# 
# High freq. dielectric constant tensor:
#      x y z
#    x 1.878910 0.000000 0.026690 
#    y 0.000000 1.872680 0.000000 
#    z 0.026690 0.000000 1.866330 
# 
# From -- ./inp_files/30687.got.cif
#   From: 2010.03.12/outbox.cif.g09.slc.cpg/sg5_16_cif.got.tgz:30687.got - 2010.03.31 09:47:26.
