data_PCOD8050171
_publ_section_title
;
Structure prediction by ZEFSAII (Michael W. Deem and Ramdas Pophale) SiO2 
 PCOD8050171
Probable space group: C 2
;
_chemical_formula_sum "Si O2"
_cell_formula_units_Z 20
_cell_length_a 18.575675
_cell_length_b 6.446379
_cell_length_c 7.995599
_cell_angle_alpha 90.000000
_cell_angle_beta 76.138012
_cell_angle_gamma 90.000000
_cell_volume 929.554912
_symmetry_space_group_name_H-M "C 2"
_symmetry_group_IT_number 5
_symmetry_cell_setting 'monoclinic'
loop_
_space_group_symop_operation_xyz
x,y,z
-x,y,-z
1/2+x,1/2+y,z
1/2-x,1/2+y,-z
loop_
_atom_site_type_symbol
_atom_site_label
_atom_site_fract_x
_atom_site_fract_y
_atom_site_fract_z
Si Si1 0.717615 0.115800 0.260812
Si Si2 0.711485 0.236746 0.894686
Si Si3 0.573921 0.464075 0.860582
Si Si4 0.150497 0.352719 0.728378
Si Si5 0.579454 0.173940 0.536842
O O1 0.780909 0.198497 0.355699
O O2 0.638568 0.214640 0.355840
O O3 0.724434 0.862491 0.246099
O O4 0.739555 0.200951 0.065904
O O5 0.639579 0.382557 0.939819
O O6 0.686627 0.020572 0.830342
O O7 0.584002 0.712747 0.841544
O O8 0.574658 0.356472 0.676164
O O9 0.500000 0.407915 0.000000
O O10 0.113194 0.461768 0.591532
O O11 0.500000 0.133285 0.500000
#
# Coordination Sequence:
#
# PCOD8050171 Si02
#       5
#     4   4   4   4   4
#     4  11  22  40  68  97 135 175 226 270 331 395
#     4  10  21  41  65  99 127 177 222 271 326 400
#     4  10  23  43  66  95 132 173 222 276 336 396
#     4  10  24  41  65  97 132 181 221 275 330 392
#     4  11  26  43  66 101 138 175 220 280 331 398
#
# _framework density 21.515675000000002
#
# number of rings (size 3 to 8) (size 9 to 14) (size 15 to 20)
#    0.000    1.600    2.000    1.200    8.400    5.600 
#    0.000    0.000    0.000    0.000    0.000    0.000 
#    0.000    0.000    0.000    0.000    0.000    0.000 
#
# Total GULP energy -123889.807837 kJ/mol
# GULP energy per Si atom -12388.980784 kJ/mol
# Density = 2.146670 g / cm^3
# Si number density = 21.515675 Si / 1000 Ang^3
#
#
#
# Elastic Constant Matrix: (Units=GPa)
#
#
# Indices 1 2 3 4 5 6 
#
# 1 131.0321 32.9145 46.3819 0.0000 -0.7788 0.0000
# 2 32.9145 122.0289 45.9578 0.0000 3.5465 0.0000
# 3 46.3819 45.9578 87.9926 0.0000 -7.9091 0.0000
# 4 0.0000 0.0000 0.0000 25.7362 0.0000 4.3087
# 5 -0.7788 3.5465 -7.9091 0.0000 43.9276 0.0000
# 6 0.0000 0.0000 0.0000 4.3087 0.0000 34.1630
#
#
#
# Elastic Compliance Matrix: (Units=1/GPa)
#
#
# Indices 1 2 3 4 5 6 
#
# 1 0.009466 -0.000792 -0.004630 0.000000 -0.000602 0.000000
# 2 -0.000792 0.010412 -0.005181 0.000000 -0.001787 0.000000
# 3 -0.004630 -0.005181 0.016814 0.000000 0.003363 0.000000
# 4 0.000000 0.000000 0.000000 0.039694 0.000000 -0.005006
# 5 -0.000602 -0.001787 0.003363 0.000000 0.023504 0.000000
# 6 0.000000 0.000000 0.000000 -0.005006 0.000000 0.029903
#
#
# Mechanical properties :
#
#
# Convention : Reuss Voigt Hill
#
# Bulk Modulus (GPa) = 64.57945 65.72911 65.15428
# Shear Modulus (GPa) = 32.01845 35.15196 33.58520
#
# Velocity S-wave (km/s) = 3.86183 4.04639 3.95519
# Velocity P-wave (km/s) = 7.06861 7.24202 7.15584
#
# Compressibility (1/GPa) = 0.01548480
#
# Stress axis : x y z
#
# Youngs Moduli (GPa) = 105.64112 96.04644 59.47588
#
# Poissons Ratio (x) = 0.07607 0.27538
# Poissons Ratio (y) = 0.08367 0.30815
# Poissons Ratio (z) = 0.48913 0.49763
#
# Static dielectric constant tensor:
#      x y z
#    x 3.924050 0.000000 0.055560 
#    y 0.000000 4.327680 0.000000 
#    z 0.055560 0.000000 3.774600 
# 
# 
# High freq. dielectric constant tensor:
#      x y z
#    x 1.848840 0.000000 0.011370 
#    y 0.000000 1.857350 0.000000 
#    z 0.011370 0.000000 1.826210 
# 
# From -- ./inp_files/25953.got.cif
#   From: 2010.03.12/outbox.cif.g09.slc.cpg/sg5_13_cif.got.tgz:25953.got - 2010.03.31 09:47:26.
