data_PCOD8050050
_publ_section_title
;
Structure prediction by ZEFSAII (Michael W. Deem and Ramdas Pophale) SiO2 
 PCOD8050050
Probable space group: C 2
;
_chemical_formula_sum "Si O2"
_cell_formula_units_Z 24
_cell_length_a 8.081257
_cell_length_b 11.924639
_cell_length_c 17.972800
_cell_angle_alpha 90.000000
_cell_angle_beta 44.342316
_cell_angle_gamma 90.000000
_cell_volume 1210.548176
_symmetry_space_group_name_H-M "C 2"
_symmetry_group_IT_number 5
_symmetry_cell_setting 'monoclinic'
loop_
_space_group_symop_operation_xyz
x,y,z
-x,y,-z
1/2+x,1/2+y,z
1/2-x,1/2+y,-z
loop_
_atom_site_type_symbol
_atom_site_label
_atom_site_fract_x
_atom_site_fract_y
_atom_site_fract_z
Si Si1 0.250405 0.751710 0.617518
Si Si2 0.413593 0.175867 0.943490
Si Si3 0.563519 0.048353 0.758706
Si Si4 0.765061 0.817287 0.737736
Si Si5 0.562089 0.601634 0.850991
Si Si6 0.528454 0.369714 0.180925
O O1 0.500000 0.774790 0.500000
O O2 0.224862 0.621461 0.650509
O O3 0.220342 0.828428 0.701424
O O4 0.039534 0.788479 0.627360
O O5 0.575412 0.096847 0.838774
O O6 0.427195 0.304169 0.910382
O O7 0.500000 0.169631 0.000000
O O8 0.142529 0.135000 0.025401
O O9 0.292534 0.059360 0.820537
O O10 0.656534 0.920346 0.725938
O O11 0.608343 0.705186 0.778931
O O12 0.761011 0.841436 0.828310
O O13 0.470058 0.501444 0.829702
#
# Coordination Sequence:
#
# PCOD8050050 Si02
#       6
#     4   4   4   4   4   4
#     4   8  18  42  64  84 119 157 194 254 308 347
#     4  11  23  36  59  87 120 170 202 240 301 355
#     4  10  21  40  61  88 122 154 203 253 298 361
#     4   9  21  40  59  86 122 150 202 250 296 359
#     4  11  22  38  59  85 125 158 201 245 302 350
#     4   9  22  40  56  89 120 157 204 249 288 364
#
# _framework density 19.825727000000001
#
# number of rings (size 3 to 8) (size 9 to 14) (size 15 to 20)
#    1.000    1.333    1.667    1.500    4.667    0.000 
#    6.000    0.000    0.000    1.000    0.000    0.000 
#    0.000    0.000    0.000    0.000    0.000    0.000 
#
# Total GULP energy -148665.528034 kJ/mol
# GULP energy per Si atom -12388.794003 kJ/mol
# Density = 1.978060 g / cm^3
# Si number density = 19.825727 Si / 1000 Ang^3
#
#
#
# Elastic Constant Matrix: (Units=GPa)
#
#
# Indices 1 2 3 4 5 6 
#
# 1 50.6175 25.0413 22.0013 0.0005 -7.1886 -0.0001
# 2 25.0413 165.7752 49.8684 0.0007 -16.4087 -0.0003
# 3 22.0013 49.8684 113.6709 -0.0011 -19.6133 -0.0006
# 4 0.0005 0.0007 -0.0011 14.0472 0.0006 -5.5565
# 5 -7.1886 -16.4087 -19.6133 0.0006 18.9900 0.0008
# 6 -0.0001 -0.0003 -0.0006 -5.5565 0.0008 34.8229
#
#
#
# Elastic Compliance Matrix: (Units=1/GPa)
#
#
# Indices 1 2 3 4 5 6 
#
# 1 0.022582 -0.002209 -0.002745 -0.000001 0.003804 0.000000
# 2 -0.002209 0.007359 -0.002249 -0.000001 0.003200 0.000000
# 3 -0.002745 -0.002249 0.011926 0.000001 0.009335 0.000000
# 4 -0.000001 -0.000001 0.000001 0.075984 -0.000003 0.012124
# 5 0.003804 0.003200 0.009335 -0.000003 0.066506 -0.000002
# 6 0.000000 0.000000 0.000000 0.012124 -0.000002 0.030651
#
#
# Mechanical properties :
#
#
# Convention : Reuss Voigt Hill
#
# Bulk Modulus (GPa) = 36.41469 58.20948 47.31209
# Shear Modulus (GPa) = 20.95831 29.11554 25.03692
#
# Velocity S-wave (km/s) = 3.25488 3.83635 3.55752
# Velocity P-wave (km/s) = 5.70376 7.00341 6.38673
#
# Compressibility (1/GPa) = 0.02746145
#
# Stress axis : x y z
#
# Youngs Moduli (GPa) = 44.28235 135.88506 83.85028
#
# Poissons Ratio (x) = 0.30013 0.23021
# Poissons Ratio (y) = 0.09781 0.18857
# Poissons Ratio (z) = 0.12157 0.30559
#
# Static dielectric constant tensor:
#      x y z
#    x 3.296170 0.000000 -0.135680 
#    y 0.000000 3.756410 0.000000 
#    z -0.135680 0.000000 3.270120 
# 
# 
# High freq. dielectric constant tensor:
#      x y z
#    x 1.753530 0.000000 -0.014550 
#    y 0.000000 1.783940 0.000000 
#    z -0.014550 0.000000 1.743620 
# 
# From -- ./inp_files/64439.got.cif
#   From: 2010.03.12/outbox.cif.g09.slc.cpg/sg5_33_cif.got.tgz:64439.got - 2010.03.31 09:47:26.
