data_PCOD8050635
_publ_section_title
;
Structure prediction by ZEFSAII (Michael W. Deem and Ramdas Pophale) SiO2 
 PCOD8050635
Probable space group: C 2
;
_chemical_formula_sum "Si O2"
_cell_formula_units_Z 16
_cell_length_a 11.781301
_cell_length_b 14.513096
_cell_length_c 9.556683
_cell_angle_alpha 90.000000
_cell_angle_beta 153.838378
_cell_angle_gamma 90.000000
_cell_volume 720.452376
_symmetry_space_group_name_H-M "C 2"
_symmetry_group_IT_number 5
_symmetry_cell_setting 'monoclinic'
loop_
_space_group_symop_operation_xyz
x,y,z
-x,y,-z
1/2+x,1/2+y,z
1/2-x,1/2+y,-z
loop_
_atom_site_type_symbol
_atom_site_label
_atom_site_fract_x
_atom_site_fract_y
_atom_site_fract_z
Si Si1 0.593027 0.827600 0.253002
Si Si2 0.782809 0.458331 0.366756
Si Si3 0.895647 0.194011 0.237755
Si Si4 0.154048 0.644768 0.431205
O O1 0.696507 0.913763 0.456260
O O2 0.368571 0.779353 0.098559
O O3 0.808099 0.747920 0.463627
O O4 0.500000 0.865026 0.000000
O O5 0.821914 0.568468 0.421542
O O6 0.000000 0.420864 0.500000
O O7 0.500000 0.432581 0.000000
O O8 0.000000 0.233464 0.500000
O O9 0.119549 0.124136 0.431185
O O10 0.626223 0.140399 0.952071
#
# Coordination Sequence:
#
# PCOD8050635 Si02
#       4
#     4   4   4   4
#     4  10  26  43  70 104 141 178 233 286 346 400
#     4  12  27  47  73 103 140 186 232 282 348 420
#     4  10  22  41  69 101 132 185 222 283 339 410
#     4  10  24  42  72  95 140 181 234 272 347 408
#
# _framework density 22.208268
#
# number of rings (size 3 to 8) (size 9 to 14) (size 15 to 20)
#    1.500    0.000    0.000    3.750   10.500    2.000 
#    0.000    0.000    0.000    0.000    0.000    0.000 
#    0.000    0.000    0.000    0.000    0.000    0.000 
#
# Total GULP energy -99112.198724 kJ/mol
# GULP energy per Si atom -12389.024841 kJ/mol
# Density = 2.215772 g / cm^3
# Si number density = 22.208268 Si / 1000 Ang^3
#
#
#
# Elastic Constant Matrix: (Units=GPa)
#
#
# Indices 1 2 3 4 5 6 
#
# 1 112.8401 32.8441 87.7330 0.0000 -7.8464 0.0000
# 2 32.8441 82.4540 36.6772 0.0000 -6.0244 0.0000
# 3 87.7330 36.6772 177.1073 0.0001 3.5079 0.0000
# 4 0.0000 0.0000 0.0001 26.5696 0.0000 -10.8206
# 5 -7.8464 -6.0244 3.5079 0.0000 57.4663 0.0000
# 6 0.0000 0.0000 0.0000 -10.8206 0.0000 21.3240
#
#
#
# Elastic Compliance Matrix: (Units=1/GPa)
#
#
# Indices 1 2 3 4 5 6 
#
# 1 0.015314 -0.002801 -0.007050 0.000000 0.002228 0.000000
# 2 -0.002801 0.014014 -0.001538 0.000000 0.001181 0.000000
# 3 -0.007050 -0.001538 0.009491 0.000000 -0.001703 0.000000
# 4 0.000000 0.000000 0.000000 0.047441 0.000000 0.024073
# 5 0.002228 0.001181 -0.001703 0.000000 0.017933 0.000000
# 6 0.000000 0.000000 0.000000 0.024073 0.000000 0.059111
#
#
# Mechanical properties :
#
#
# Convention : Reuss Voigt Hill
#
# Bulk Modulus (GPa) = 62.34228 76.32332 69.33280
# Shear Modulus (GPa) = 26.11938 35.41512 30.76725
#
# Velocity S-wave (km/s) = 3.43317 3.99768 3.72613
# Velocity P-wave (km/s) = 6.62179 7.46661 7.05685
#
# Compressibility (1/GPa) = 0.01604048
#
# Stress axis : x y z
#
# Youngs Moduli (GPa) = 65.30152 71.35642 105.36546
#
# Poissons Ratio (x) = 0.19989 0.74281
# Poissons Ratio (y) = 0.18292 0.16205
# Poissons Ratio (z) = 0.46037 0.10974
#
# Static dielectric constant tensor:
#      x y z
#    x 3.904960 0.000000 0.110180 
#    y 0.000000 3.650700 0.000000 
#    z 0.110180 0.000000 3.741380 
# 
# 
# High freq. dielectric constant tensor:
#      x y z
#    x 1.870550 0.000000 0.003340 
#    y 0.000000 1.851180 0.000000 
#    z 0.003340 0.000000 1.868320 
# 
# From -- ./inp_files/2487.got.cif
#   From: 2010.03.12/outbox.cif.g09.slc.cpg/sg5_2_cif.got.tgz:2487.got - 2010.03.31 09:47:26.
