data_PCOD8050371
_publ_section_title
;
Structure prediction by ZEFSAII (Michael W. Deem and Ramdas Pophale) SiO2 
 PCOD8050371
Probable space group: C 2
;
_chemical_formula_sum "Si O2"
_cell_formula_units_Z 28
_cell_length_a 11.877324
_cell_length_b 8.361474
_cell_length_c 15.140403
_cell_angle_alpha 90.000000
_cell_angle_beta 113.517032
_cell_angle_gamma 90.000000
_cell_volume 1378.734082
_symmetry_space_group_name_H-M "C 2"
_symmetry_group_IT_number 5
_symmetry_cell_setting 'monoclinic'
loop_
_space_group_symop_operation_xyz
x,y,z
-x,y,-z
1/2+x,1/2+y,z
1/2-x,1/2+y,-z
loop_
_atom_site_type_symbol
_atom_site_label
_atom_site_fract_x
_atom_site_fract_y
_atom_site_fract_z
Si Si1 0.808045 0.953370 0.111810
Si Si2 0.447518 0.886986 0.238462
Si Si3 0.889230 0.671705 0.524521
Si Si4 0.891431 0.239696 0.034696
Si Si5 0.255280 0.161668 0.753688
Si Si6 0.504598 0.245797 0.263040
Si Si7 0.712686 0.917926 0.384991
O O1 0.915078 0.887746 0.208603
O O2 0.866514 0.055143 0.050465
O O3 0.727103 0.071006 0.147407
O O4 0.730889 0.809599 0.047645
O O5 0.426970 0.841926 0.130901
O O6 0.352064 0.794701 0.272481
O O7 0.586843 0.841387 0.308138
O O8 0.430858 0.077616 0.242976
O O9 0.804218 0.776376 0.434825
O O10 0.814915 0.518159 0.535149
O O11 0.000000 0.606136 0.500000
O O12 0.938772 0.777475 0.622283
O O13 0.000000 0.248944 0.000000
O O14 0.385458 0.243956 0.773976
O O15 0.223663 0.034732 0.666694
#
# Coordination Sequence:
#
# PCOD8050371 Si02
#       7
#     4   4   4   4   4   4   4
#     4  11  23  38  59  85 114 149 188 232 281 335
#     4   9  20  40  60  81 114 151 187 233 282 329
#     4  10  22  37  57  84 113 147 188 232 280 334
#     4  11  23  38  59  86 113 149 191 231 281 335
#     4   9  20  40  60  81 114 152 187 231 282 330
#     4  10  22  39  58  84 115 148 188 233 281 333
#     4  10  22  38  57  85 115 148 189 232 281 334
#
# _framework density 20.308485000000001
#
# number of rings (size 3 to 8) (size 9 to 14) (size 15 to 20)
#    0.000    2.286    0.000    3.429    0.000   11.429 
#    0.000    0.714    0.000    0.000    0.000    0.000 
#    0.000    0.000    0.000    0.000    0.000    0.000 
#
# Total GULP energy -173611.895968 kJ/mol
# GULP energy per Si atom -12400.849712 kJ/mol
# Density = 2.026226 g / cm^3
# Si number density = 20.308485 Si / 1000 Ang^3
#
#
#
# Elastic Constant Matrix: (Units=GPa)
#
#
# Indices 1 2 3 4 5 6 
#
# 1 100.7732 29.6666 26.6056 0.0000 -8.7577 0.0000
# 2 29.6666 49.9181 11.7796 0.0000 7.2106 0.0000
# 3 26.6056 11.7796 64.6962 0.0000 2.7550 0.0000
# 4 0.0000 0.0000 0.0000 33.7058 0.0000 3.6281
# 5 -8.7577 7.2106 2.7550 0.0000 29.4500 0.0000
# 6 0.0000 0.0000 0.0000 3.6281 0.0000 26.9926
#
#
#
# Elastic Compliance Matrix: (Units=1/GPa)
#
#
# Indices 1 2 3 4 5 6 
#
# 1 0.014158 -0.008293 -0.004596 0.000000 0.006671 0.000000
# 2 -0.008293 0.026485 -0.001035 0.000000 -0.008854 0.000000
# 3 -0.004596 -0.001035 0.017653 0.000000 -0.002765 0.000000
# 4 0.000000 0.000000 0.000000 0.030104 0.000000 -0.004046
# 5 0.006671 -0.008854 -0.002765 0.000000 0.038366 0.000000
# 6 0.000000 0.000000 0.000000 -0.004046 0.000000 0.037591
#
#
# Mechanical properties :
#
#
# Convention : Reuss Voigt Hill
#
# Bulk Modulus (GPa) = 32.84362 39.05459 35.94911
# Shear Modulus (GPa) = 24.70917 27.85206 26.28061
#
# Velocity S-wave (km/s) = 3.49189 3.70733 3.60122
# Velocity P-wave (km/s) = 5.69783 6.13173 5.91876
#
# Compressibility (1/GPa) = 0.03044731
#
# Stress axis : x y z
#
# Youngs Moduli (GPa) = 70.63201 37.75786 56.64694
#
# Poissons Ratio (x) = 0.31313 0.26037
# Poissons Ratio (y) = 0.58575 0.05862
# Poissons Ratio (z) = 0.32465 0.03907
#
# Static dielectric constant tensor:
#      x y z
#    x 3.786030 0.000000 -0.088210 
#    y 0.000000 3.538520 0.000000 
#    z -0.088210 0.000000 3.712380 
# 
# 
# High freq. dielectric constant tensor:
#      x y z
#    x 1.801550 0.000000 -0.009090 
#    y 0.000000 1.784870 0.000000 
#    z -0.009090 0.000000 1.797620 
# 
# From -- ./inp_files/52223.got.cif
#   From: 2010.03.12/outbox.cif.g09.slc.cpg/sg5_27_cif.got.tgz:52223.got - 2010.03.31 09:47:26.
