data_PCOD8050769
_publ_section_title
;
Structure prediction by ZEFSAII (Michael W. Deem and Ramdas Pophale) SiO2 
 PCOD8050769
Probable space group: C 2
;
_chemical_formula_sum "Si O2"
_cell_formula_units_Z 32
_cell_length_a 11.642085
_cell_length_b 10.414312
_cell_length_c 20.814597
_cell_angle_alpha 90.000000
_cell_angle_beta 143.759144
_cell_angle_gamma 90.000000
_cell_volume 1491.934577
_symmetry_space_group_name_H-M "C 2"
_symmetry_group_IT_number 5
_symmetry_cell_setting 'monoclinic'
loop_
_space_group_symop_operation_xyz
x,y,z
-x,y,-z
1/2+x,1/2+y,z
1/2-x,1/2+y,-z
loop_
_atom_site_type_symbol
_atom_site_label
_atom_site_fract_x
_atom_site_fract_y
_atom_site_fract_z
Si Si1 0.753151 0.868260 0.227947
Si Si2 0.479503 0.425413 0.852213
Si Si3 0.609647 0.839327 0.755565
Si Si4 0.436053 0.585860 0.639644
Si Si5 0.891782 0.562808 0.603880
Si Si6 0.075486 0.712733 0.796937
Si Si7 0.130617 0.454439 0.895285
Si Si8 0.248189 0.634394 0.685825
O O1 0.743899 0.776323 0.160776
O O2 0.560803 0.955619 0.145864
O O3 0.763124 0.783311 0.297687
O O4 0.946119 0.953371 0.304307
O O5 0.315291 0.400489 0.830666
O O6 0.468937 0.314483 0.793993
O O7 0.435643 0.564268 0.802021
O O8 0.689362 0.425470 0.978368
O O9 0.593489 0.699489 0.716567
O O10 0.610333 0.839903 0.833621
O O11 0.422721 0.921874 0.648143
O O12 0.323576 0.583522 0.521004
O O13 0.275138 0.613550 0.622004
O O14 0.921263 0.668117 0.673068
O O15 0.048212 0.569057 0.616972
O O16 0.156904 0.592133 0.873293
#
# Coordination Sequence:
#
# PCOD8050769 Si02
#       8
#     4   4   4   4   4   4   4   4
#     4  11  24  43  69 103 138 173 231 284 337 415
#     4  11  23  44  71  92 135 189 219 286 353 402
#     4  10  23  42  64  99 139 171 240 280 334 424
#     4  12  22  42  70  98 139 182 227 288 340 412
#     4   9  23  41  67  99 136 186 222 284 354 392
#     4  10  23  45  65 103 142 165 239 283 333 424
#     4  11  24  44  68  99 135 182 226 288 349 399
#     4  10  22  43  64  99 134 175 231 280 327 422
#
# _framework density 21.448661999999999
#
# number of rings (size 3 to 8) (size 9 to 14) (size 15 to 20)
#    0.000    1.500    2.500    2.250    5.250    0.500 
#    4.500    5.625    0.000    0.000    0.000    0.000 
#    0.000    0.000    0.000    0.000    0.000    0.000 
#
# Total GULP energy -198352.153465 kJ/mol
# GULP energy per Si atom -12397.009592 kJ/mol
# Density = 2.139984 g / cm^3
# Si number density = 21.448662 Si / 1000 Ang^3
#
#
#
# Elastic Constant Matrix: (Units=GPa)
#
#
# Indices 1 2 3 4 5 6 
#
# 1 85.7606 35.9125 19.9329 0.0000 -3.3399 0.0000
# 2 35.9125 118.5074 38.6481 0.0000 -5.7022 0.0000
# 3 19.9329 38.6481 97.4332 0.0000 -2.9808 0.0000
# 4 0.0000 0.0000 0.0000 19.8329 0.0000 -0.4495
# 5 -3.3399 -5.7022 -2.9808 0.0000 21.1326 0.0000
# 6 0.0000 0.0000 0.0000 -0.4495 0.0000 46.4485
#
#
#
# Elastic Compliance Matrix: (Units=1/GPa)
#
#
# Indices 1 2 3 4 5 6 
#
# 1 0.013519 -0.003627 -0.001297 0.000000 0.000975 0.000000
# 2 -0.003627 0.010757 -0.003469 0.000000 0.001840 0.000000
# 3 -0.001297 -0.003469 0.011921 0.000000 0.000541 0.000000
# 4 0.000000 0.000000 0.000000 0.050432 0.000000 0.000488
# 5 0.000975 0.001840 0.000541 0.000000 0.048047 0.000000
# 6 0.000000 0.000000 0.000000 0.000488 0.000000 0.021534
#
#
# Mechanical properties :
#
#
# Convention : Reuss Voigt Hill
#
# Bulk Modulus (GPa) = 51.51534 54.52087 53.01811
# Shear Modulus (GPa) = 27.86043 31.29666 29.57855
#
# Velocity S-wave (km/s) = 3.60799 3.82402 3.71757
# Velocity P-wave (km/s) = 6.43637 6.70611 6.57262
#
# Compressibility (1/GPa) = 0.01941169
#
# Stress axis : x y z
#
# Youngs Moduli (GPa) = 73.97254 92.96198 83.88372
#
# Poissons Ratio (x) = 0.33714 0.10882
# Poissons Ratio (y) = 0.26828 0.29097
# Poissons Ratio (z) = 0.09596 0.32246
#
# Static dielectric constant tensor:
#      x y z
#    x 3.987670 0.000000 -0.095030 
#    y 0.000000 3.982710 0.000000 
#    z -0.095030 0.000000 3.534110 
# 
# 
# High freq. dielectric constant tensor:
#      x y z
#    x 1.851220 0.000000 -0.004300 
#    y 0.000000 1.847780 0.000000 
#    z -0.004300 0.000000 1.818340 
# 
# From -- ./inp_files/65366.got.cif
#   From: 2010.03.12/outbox.cif.g09.slc.cpg/sg5_33_cif.got.tgz:65366.got - 2010.03.31 09:47:26.
