data_PCOD8050527
_publ_section_title
;
Structure prediction by ZEFSAII (Michael W. Deem and Ramdas Pophale) SiO2 
 PCOD8050527
Probable space group: C 2
;
_chemical_formula_sum "Si O2"
_cell_formula_units_Z 26
_cell_length_a 14.059475
_cell_length_b 12.331009
_cell_length_c 13.132762
_cell_angle_alpha 90.000000
_cell_angle_beta 146.579136
_cell_angle_gamma 90.000000
_cell_volume 1254.023478
_symmetry_space_group_name_H-M "C 2"
_symmetry_group_IT_number 5
_symmetry_cell_setting 'monoclinic'
loop_
_space_group_symop_operation_xyz
x,y,z
-x,y,-z
1/2+x,1/2+y,z
1/2-x,1/2+y,-z
loop_
_atom_site_type_symbol
_atom_site_label
_atom_site_fract_x
_atom_site_fract_y
_atom_site_fract_z
Si Si1 0.818510 0.358950 0.395541
Si Si2 0.772476 0.116649 0.375249
Si Si3 0.871283 0.345711 0.979725
Si Si4 0.967925 0.481584 0.705512
Si Si5 0.500000 0.459538 0.000000
Si Si6 0.859504 0.045249 0.243248
Si Si7 0.702764 0.603947 0.036109
O O1 0.789679 0.241889 0.420446
O O2 0.827524 0.443008 0.497540
O O3 0.661254 0.386280 0.179404
O O4 0.000000 0.358531 0.500000
O O5 0.754259 0.108943 0.236854
O O6 0.936792 0.045265 0.555306
O O7 0.606936 0.068789 0.282760
O O8 0.964623 0.378925 0.168744
O O9 0.703849 0.421252 0.815879
O O10 0.798989 0.224378 0.920582
O O11 0.000000 0.358597 0.000000
O O12 0.118556 0.543137 0.777892
O O13 0.549118 0.534938 0.948781
O O14 0.819677 0.109319 0.104748
#
# Coordination Sequence:
#
# PCOD8050527 Si02
#       7
#     4   4   4   4   2   4   4
#     4  12  25  46  71 100 136 182 227 278 346 397
#     4  11  23  43  67  98 136 176 224 287 332 400
#     4  11  22  41  69  97 135 180 225 275 338 397
#     4  11  25  43  68 100 135 178 225 283 332 411
#     4  12  26  44  70 102 136 180 230 286 328 416
#     4  10  22  40  65  95 132 174 229 273 333 400
#     4  11  24  41  66  99 138 178 227 279 338 395
#
# _framework density 20.733264999999999
#
# number of rings (size 3 to 8) (size 9 to 14) (size 15 to 20)
#    0.000    0.923    5.385    1.846    0.000    6.154 
#    0.000    3.077    0.000    0.000    0.000    0.000 
#    0.000    0.000    0.000    0.000    0.000    0.000 
#
# Total GULP energy -161245.807254 kJ/mol
# GULP energy per Si atom -12403.523635 kJ/mol
# Density = 2.068608 g / cm^3
# Si number density = 20.733265 Si / 1000 Ang^3
#
#
#
# Elastic Constant Matrix: (Units=GPa)
#
#
# Indices 1 2 3 4 5 6 
#
# 1 85.2946 38.0423 28.3517 0.0009 5.9261 0.0006
# 2 38.0423 124.0068 48.8246 0.0011 6.7813 0.0007
# 3 28.3517 48.8246 110.4553 0.0019 -5.7868 0.0012
# 4 0.0009 0.0011 0.0019 21.5939 0.0011 0.3704
# 5 5.9261 6.7813 -5.7868 0.0011 32.5990 0.0006
# 6 0.0006 0.0007 0.0012 0.3704 0.0006 35.8194
#
#
#
# Elastic Compliance Matrix: (Units=1/GPa)
#
#
# Indices 1 2 3 4 5 6 
#
# 1 0.014116 -0.003308 -0.002281 0.000000 -0.002283 0.000000
# 2 -0.003308 0.010803 -0.004050 0.000000 -0.002365 0.000000
# 3 -0.002281 -0.004050 0.011603 -0.000001 0.003317 0.000000
# 4 0.000000 0.000000 -0.000001 0.046318 -0.000002 -0.000479
# 5 -0.002283 -0.002365 0.003317 -0.000002 0.032171 -0.000001
# 6 0.000000 0.000000 0.000000 -0.000479 -0.000001 0.027923
#
#
# Mechanical properties :
#
#
# Convention : Reuss Voigt Hill
#
# Bulk Modulus (GPa) = 57.98888 61.13266 59.56077
# Shear Modulus (GPa) = 29.76924 31.63834 30.70379
#
# Velocity S-wave (km/s) = 3.79333 3.91060 3.85241
# Velocity P-wave (km/s) = 6.87136 7.06681 6.96977
#
# Compressibility (1/GPa) = 0.01724468
#
# Stress axis : x y z
#
# Youngs Moduli (GPa) = 70.84131 92.56970 86.18544
#
# Poissons Ratio (x) = 0.30618 0.19658
# Poissons Ratio (y) = 0.23431 0.34905
# Poissons Ratio (z) = 0.16158 0.37491
#
# Static dielectric constant tensor:
#      x y z
#    x 3.905550 0.000000 -0.003710 
#    y 0.000000 3.660090 0.000000 
#    z -0.003710 0.000000 3.698610 
# 
# 
# High freq. dielectric constant tensor:
#      x y z
#    x 1.826500 0.000000 0.000750 
#    y 0.000000 1.810840 0.000000 
#    z 0.000750 0.000000 1.806710 
# 
# From -- ./inp_files/54641.got.cif
#   From: 2010.03.12/outbox.cif.g09.slc.cpg/sg5_28_cif.got.tgz:54641.got - 2010.03.31 09:47:26.
