data_PCOD8050977
_publ_section_title
;
Structure prediction by ZEFSAII (Michael W. Deem and Ramdas Pophale) SiO2 
 PCOD8050977
Probable space group: C 2
;
_chemical_formula_sum "Si O2"
_cell_formula_units_Z 22
_cell_length_a 12.675842
_cell_length_b 12.834659
_cell_length_c 12.649729
_cell_angle_alpha 90.000000
_cell_angle_beta 31.027955
_cell_angle_gamma 90.000000
_cell_volume 1060.801603
_symmetry_space_group_name_H-M "C 2"
_symmetry_group_IT_number 5
_symmetry_cell_setting 'monoclinic'
loop_
_space_group_symop_operation_xyz
x,y,z
-x,y,-z
1/2+x,1/2+y,z
1/2-x,1/2+y,-z
loop_
_atom_site_type_symbol
_atom_site_label
_atom_site_fract_x
_atom_site_fract_y
_atom_site_fract_z
Si Si1 0.775088 0.947360 0.159972
Si Si2 0.743216 0.902893 0.960730
Si Si3 0.061654 0.731699 0.659039
Si Si4 0.478830 0.770920 0.697373
Si Si5 0.360939 0.113609 0.022543
Si Si6 0.000000 0.612593 0.500000
O O1 0.613071 0.851982 0.310516
O O2 0.694833 0.045059 0.295727
O O3 0.800430 0.974044 0.013862
O O4 0.000000 0.910414 0.000000
O O5 0.939653 0.840050 0.749776
O O6 0.572334 0.816997 0.141050
O O7 0.658581 0.987704 0.950760
O O8 0.280820 0.758661 0.520432
O O9 0.082710 0.681271 0.525574
O O10 0.959081 0.651413 0.828165
O O11 0.366652 0.661170 0.773222
O O12 0.500000 0.152530 0.000000
#
# Coordination Sequence:
#
# PCOD8050977 Si02
#       6
#     4   4   4   4   4   2
#     4  10  23  39  69  96 128 171 218 268 319 376
#     4   9  23  42  61  93 131 171 208 263 329 385
#     4  11  24  43  64  97 132 163 224 267 322 381
#     4   9  23  40  66  94 127 166 217 275 316 374
#     4  11  23  43  64  91 129 176 215 259 328 389
#     4  12  26  40  72 100 126 174 220 270 322 382
#
# _framework density 20.739035000000001
#
# number of rings (size 3 to 8) (size 9 to 14) (size 15 to 20)
#    1.091    0.727    1.818    0.545    5.091    3.636 
#    0.000    0.000    0.000    0.000    0.000    0.000 
#    0.000    0.000    0.000    0.000    0.000    0.000 
#
# Total GULP energy -136308.551497 kJ/mol
# GULP energy per Si atom -12391.686500 kJ/mol
# Density = 2.069183 g / cm^3
# Si number density = 20.739035 Si / 1000 Ang^3
#
#
#
# Elastic Constant Matrix: (Units=GPa)
#
#
# Indices 1 2 3 4 5 6 
#
# 1 86.8880 38.5157 42.6419 0.0030 -6.8612 -0.0015
# 2 38.5157 124.7821 49.1096 0.0011 -9.5537 -0.0016
# 3 42.6419 49.1096 95.8010 0.0064 -17.6386 -0.0037
# 4 0.0030 0.0011 0.0064 35.1169 -0.0032 0.1940
# 5 -6.8612 -9.5537 -17.6386 -0.0032 43.6198 0.0017
# 6 -0.0015 -0.0016 -0.0037 0.1940 0.0017 25.1641
#
#
#
# Elastic Compliance Matrix: (Units=1/GPa)
#
#
# Indices 1 2 3 4 5 6 
#
# 1 0.015362 -0.002571 -0.005595 0.000000 -0.000409 0.000000
# 2 -0.002571 0.010470 -0.004187 0.000001 0.000196 0.000000
# 3 -0.005595 -0.004187 0.015930 -0.000002 0.004645 0.000001
# 4 0.000000 0.000001 -0.000002 0.028478 0.000001 -0.000220
# 5 -0.000409 0.000196 0.004645 0.000001 0.024782 -0.000001
# 6 0.000000 0.000000 0.000001 -0.000220 -0.000001 0.039741
#
#
# Mechanical properties :
#
#
# Convention : Reuss Voigt Hill
#
# Bulk Modulus (GPa) = 58.62856 63.11173 60.87014
# Shear Modulus (GPa) = 30.27448 32.59375 31.43412
#
# Velocity S-wave (km/s) = 3.82486 3.96866 3.89742
# Velocity P-wave (km/s) = 6.91643 7.17620 7.04751
#
# Compressibility (1/GPa) = 0.01705653
#
# Stress axis : x y z
#
# Youngs Moduli (GPa) = 65.09360 95.50785 62.77346
#
# Poissons Ratio (x) = 0.24556 0.35124
# Poissons Ratio (y) = 0.16736 0.26282
# Poissons Ratio (z) = 0.36422 0.39988
#
# Static dielectric constant tensor:
#      x y z
#    x 3.541610 0.000000 0.043040 
#    y 0.000000 3.597520 0.000000 
#    z 0.043040 0.000000 3.533360 
# 
# 
# High freq. dielectric constant tensor:
#      x y z
#    x 1.799220 0.000000 -0.002950 
#    y 0.000000 1.810210 0.000000 
#    z -0.002950 0.000000 1.804020 
# 
# From -- ./inp_files/39052.got.cif
#   From: 2010.03.12/outbox.cif.g09.slc.cpg/sg5_20_cif.got.tgz:39052.got - 2010.03.31 09:47:26.
