data_PCOD8050235
_publ_section_title
;
Structure prediction by ZEFSAII (Michael W. Deem and Ramdas Pophale) SiO2 
 PCOD8050235
Probable space group: C 2
;
_chemical_formula_sum "Si O2"
_cell_formula_units_Z 22
_cell_length_a 11.377692
_cell_length_b 8.499974
_cell_length_c 10.714741
_cell_angle_alpha 90.000000
_cell_angle_beta 96.407114
_cell_angle_gamma 90.000000
_cell_volume 1029.751347
_symmetry_space_group_name_H-M "C 2"
_symmetry_group_IT_number 5
_symmetry_cell_setting 'monoclinic'
loop_
_space_group_symop_operation_xyz
x,y,z
-x,y,-z
1/2+x,1/2+y,z
1/2-x,1/2+y,-z
loop_
_atom_site_type_symbol
_atom_site_label
_atom_site_fract_x
_atom_site_fract_y
_atom_site_fract_z
Si Si1 0.936643 0.810590 0.371610
Si Si2 0.618626 0.650310 0.082502
Si Si3 0.950532 0.577440 0.797035
Si Si4 0.500000 0.613288 0.500000
Si Si5 0.342751 0.786981 0.661318
Si Si6 0.163196 0.484191 0.981477
O O1 0.798552 0.769206 0.353630
O O2 0.000000 0.732278 0.500000
O O3 0.004707 0.740979 0.258445
O O4 0.951367 0.000575 0.382087
O O5 0.601786 0.670496 0.228303
O O6 0.671953 0.813028 0.040741
O O7 0.500000 0.599180 0.000000
O O8 0.711586 0.514711 0.065362
O O9 0.884366 0.467058 0.687936
O O10 0.866155 0.606876 0.907887
O O11 0.063988 0.482904 0.862678
O O12 0.393876 0.724618 0.535844
#
# Coordination Sequence:
#
# PCOD8050235 Si02
#       6
#     4   4   4   2   4   4
#     4  10  25  43  63  93 128 163 220 258 305 369
#     4  11  22  43  64  96 132 162 205 258 317 380
#     4  10  21  43  68  90 130 166 202 262 320 371
#     4  10  28  40  62  98 118 170 230 244 314 362
#     4  11  23  44  66  87 134 165 209 266 307 371
#     4  10  21  42  66  99 124 165 207 249 328 382
#
# _framework density 21.364381999999999
#
# number of rings (size 3 to 8) (size 9 to 14) (size 15 to 20)
#    0.545    1.091    5.455    0.000    3.818    4.364 
#    3.273    0.000    0.000    0.000    0.000    0.000 
#    0.000    0.000    0.000    0.000    0.000    0.000 
#
# Total GULP energy -136336.339596 kJ/mol
# GULP energy per Si atom -12394.212691 kJ/mol
# Density = 2.131576 g / cm^3
# Si number density = 21.364382 Si / 1000 Ang^3
#
#
#
# Elastic Constant Matrix: (Units=GPa)
#
#
# Indices 1 2 3 4 5 6 
#
# 1 99.5291 20.5050 17.8990 0.0000 7.2881 0.0000
# 2 20.5050 47.5997 18.3569 0.0000 -5.8409 0.0000
# 3 17.8990 18.3569 65.2441 0.0000 12.5216 0.0000
# 4 0.0000 0.0000 0.0000 29.3836 0.0000 -6.0202
# 5 7.2881 -5.8409 12.5216 0.0000 32.4598 0.0000
# 6 0.0000 0.0000 0.0000 -6.0202 0.0000 29.7950
#
#
#
# Elastic Compliance Matrix: (Units=1/GPa)
#
#
# Indices 1 2 3 4 5 6 
#
# 1 0.011482 -0.004843 -0.001215 0.000000 -0.002981 0.000000
# 2 -0.004843 0.027348 -0.008120 0.000000 0.009141 0.000000
# 3 -0.001215 -0.008120 0.019626 0.000000 -0.008759 0.000000
# 4 0.000000 0.000000 0.000000 0.035502 0.000000 0.007173
# 5 -0.002981 0.009141 -0.008759 0.000000 0.036500 0.000000
# 6 0.000000 0.000000 0.000000 0.007173 0.000000 0.035012
#
#
# Mechanical properties :
#
#
# Convention : Reuss Voigt Hill
#
# Bulk Modulus (GPa) = 33.22383 36.21052 34.71717
# Shear Modulus (GPa) = 24.52645 28.70180 26.61412
#
# Velocity S-wave (km/s) = 3.39190 3.66928 3.53331
# Velocity P-wave (km/s) = 5.56101 5.91077 5.73855
#
# Compressibility (1/GPa) = 0.03009888
#
# Stress axis : x y z
#
# Youngs Moduli (GPa) = 87.09328 36.56547 50.95229
#
# Poissons Ratio (x) = 0.17710 0.06192
# Poissons Ratio (y) = 0.42182 0.41374
# Poissons Ratio (z) = 0.10583 0.29692
#
# Static dielectric constant tensor:
#      x y z
#    x 3.826650 0.000000 -0.076280 
#    y 0.000000 3.503160 0.000000 
#    z -0.076280 0.000000 3.905070 
# 
# 
# High freq. dielectric constant tensor:
#      x y z
#    x 1.842330 0.000000 0.000170 
#    y 0.000000 1.815500 0.000000 
#    z 0.000170 0.000000 1.834330 
# 
# From -- ./inp_files/38125.got.cif
#   From: 2010.03.12/outbox.cif.g09.slc.cpg/sg5_20_cif.got.tgz:38125.got - 2010.03.31 09:47:26.
