data_PCOD8050268
_publ_section_title
;
Structure prediction by ZEFSAII (Michael W. Deem and Ramdas Pophale) SiO2 
 PCOD8050268
Probable space group: C 2
;
_chemical_formula_sum "Si O2"
_cell_formula_units_Z 20
_cell_length_a 11.221242
_cell_length_b 7.259069
_cell_length_c 11.671908
_cell_angle_alpha 90.000000
_cell_angle_beta 99.756632
_cell_angle_gamma 90.000000
_cell_volume 936.993116
_symmetry_space_group_name_H-M "C 2"
_symmetry_group_IT_number 5
_symmetry_cell_setting 'monoclinic'
loop_
_space_group_symop_operation_xyz
x,y,z
-x,y,-z
1/2+x,1/2+y,z
1/2-x,1/2+y,-z
loop_
_atom_site_type_symbol
_atom_site_label
_atom_site_fract_x
_atom_site_fract_y
_atom_site_fract_z
Si Si1 0.663562 0.324890 0.858593
Si Si2 0.119787 0.455037 0.956673
Si Si3 0.365535 0.537811 0.461366
Si Si4 0.304045 0.743789 0.670966
Si Si5 0.571363 0.697765 0.754178
O O1 0.721650 0.198031 0.767254
O O2 0.572526 0.482070 0.795952
O O3 0.597317 0.171435 0.924453
O O4 0.765676 0.438118 0.942342
O O5 0.148668 0.328670 0.850016
O O6 0.000000 0.379799 0.000000
O O7 0.500000 0.446155 0.500000
O O8 0.314077 0.587794 0.577130
O O9 0.257978 0.417093 0.396918
O O10 0.381597 0.703867 0.370510
O O11 0.438120 0.786030 0.738044
#
# Coordination Sequence:
#
# PCOD8050268 Si02
#       5
#     4   4   4   4   4
#     4  11  24  41  65  95 129 167 212 259 311 377
#     4  12  24  40  65  95 126 172 214 252 316 374
#     4   9  21  41  63  93 127 163 211 262 316 376
#     4  10  21  43  65  91 129 165 207 267 314 371
#     4  10  22  44  63  93 131 164 213 264 310 371
#
# _framework density 21.344874999999998
#
# number of rings (size 3 to 8) (size 9 to 14) (size 15 to 20)
#    0.000    1.600    4.000    0.000    2.800    2.400 
#   10.800    0.000    0.000    0.000    0.000    0.000 
#    0.000    0.000    0.000    0.000    0.000    0.000 
#
# Total GULP energy -123890.480630 kJ/mol
# GULP energy per Si atom -12389.048063 kJ/mol
# Density = 2.129629 g / cm^3
# Si number density = 21.344875 Si / 1000 Ang^3
#
#
#
# Elastic Constant Matrix: (Units=GPa)
#
#
# Indices 1 2 3 4 5 6 
#
# 1 95.9593 32.2553 35.2099 0.0000 12.1924 0.0000
# 2 32.2553 80.8997 28.4610 0.0000 1.9901 0.0000
# 3 35.2099 28.4610 109.7131 0.0000 10.3209 0.0000
# 4 0.0000 0.0000 0.0000 34.3370 0.0000 8.6382
# 5 12.1924 1.9901 10.3209 0.0000 20.4116 0.0000
# 6 0.0000 0.0000 0.0000 8.6382 0.0000 29.4036
#
#
#
# Elastic Compliance Matrix: (Units=1/GPa)
#
#
# Indices 1 2 3 4 5 6 
#
# 1 0.013674 -0.004360 -0.002655 0.000000 -0.006400 0.000000
# 2 -0.004360 0.014997 -0.002728 0.000000 0.002522 0.000000
# 3 -0.002655 -0.002728 0.011025 0.000000 -0.003723 0.000000
# 4 0.000000 0.000000 0.000000 0.031447 0.000000 -0.009239
# 5 -0.006400 0.002522 -0.003723 0.000000 0.054451 0.000000
# 6 0.000000 0.000000 0.000000 -0.009239 0.000000 0.036724
#
#
# Mechanical properties :
#
#
# Convention : Reuss Voigt Hill
#
# Bulk Modulus (GPa) = 49.48452 53.15827 51.32140
# Shear Modulus (GPa) = 26.51921 29.54017 28.02969
#
# Velocity S-wave (km/s) = 3.52862 3.72418 3.62772
# Velocity P-wave (km/s) = 6.31151 6.59175 6.45315
#
# Compressibility (1/GPa) = 0.02020834
#
# Stress axis : x y z
#
# Youngs Moduli (GPa) = 73.13012 66.67845 90.70491
#
# Poissons Ratio (x) = 0.29075 0.24084
# Poissons Ratio (y) = 0.31888 0.24748
# Poissons Ratio (z) = 0.19417 0.18192
#
# Static dielectric constant tensor:
#      x y z
#    x 3.953460 0.000000 -0.227730 
#    y 0.000000 3.403980 0.000000 
#    z -0.227730 0.000000 4.560900 
# 
# 
# High freq. dielectric constant tensor:
#      x y z
#    x 1.825470 0.000000 0.003810 
#    y 0.000000 1.803220 0.000000 
#    z 0.003810 0.000000 1.873130 
# 
# From -- ./inp_files/34726.got.cif
#   From: 2010.03.12/outbox.cif.g09.slc.cpg/sg5_18_cif.got.tgz:34726.got - 2010.03.31 09:47:26.
