data_PCOD8050939
_publ_section_title
;
Structure prediction by ZEFSAII (Michael W. Deem and Ramdas Pophale) SiO2 
 PCOD8050939
Probable space group: C 2
;
_chemical_formula_sum "Si O2"
_cell_formula_units_Z 32
_cell_length_a 10.670438
_cell_length_b 10.383157
_cell_length_c 21.946852
_cell_angle_alpha 90.000000
_cell_angle_beta 144.942427
_cell_angle_gamma 90.000000
_cell_volume 1396.682771
_symmetry_space_group_name_H-M "C 2"
_symmetry_group_IT_number 5
_symmetry_cell_setting 'monoclinic'
loop_
_space_group_symop_operation_xyz
x,y,z
-x,y,-z
1/2+x,1/2+y,z
1/2-x,1/2+y,-z
loop_
_atom_site_type_symbol
_atom_site_label
_atom_site_fract_x
_atom_site_fract_y
_atom_site_fract_z
Si Si1 0.137934 0.850610 0.188430
Si Si2 0.643685 0.182077 0.611051
Si Si3 0.535803 0.952841 0.854326
Si Si4 0.637996 0.710573 0.825268
Si Si5 0.194461 0.094686 0.126749
Si Si6 0.186435 0.385605 0.616327
Si Si7 0.623492 0.317947 0.724005
Si Si8 0.788833 0.454833 0.949610
O O1 0.187647 0.741305 0.158518
O O2 0.297747 0.825309 0.309667
O O3 0.889907 0.840756 0.115536
O O4 0.153709 0.993761 0.165547
O O5 0.500000 0.245483 0.500000
O O6 0.548044 0.232488 0.636962
O O7 0.895123 0.220987 0.701488
O O8 0.613261 0.030535 0.598363
O O9 0.655432 0.816890 0.885598
O O10 0.277085 0.934492 0.761431
O O11 0.580103 0.053397 0.817410
O O12 0.647033 0.008934 0.958997
O O13 0.688582 0.570309 0.870311
O O14 0.230021 0.233966 0.170872
O O15 0.000000 0.093893 0.000000
O O16 0.417176 0.380499 0.674005
O O17 0.000000 0.317565 0.500000
O O18 0.000000 0.395865 0.000000
#
# Coordination Sequence:
#
# PCOD8050939 Si02
#       8
#     4   4   4   4   4   4   4   4
#     4  11  22  44  65  95 136 168 223 275 315 395
#     4  10  22  46  72  97 131 171 218 279 334 386
#     4  10  24  41  64  96 134 171 224 264 322 390
#     4  10  24  42  70  96 128 181 217 269 336 388
#     4  11  22  43  68  92 135 179 213 267 327 387
#     4  11  24  44  72 100 130 172 218 279 334 386
#     4  11  24  46  66  99 135 169 223 270 327 397
#     4  12  24  39  61  96 135 171 222 260 317 395
#
# _framework density 22.911429999999999
#
# number of rings (size 3 to 8) (size 9 to 14) (size 15 to 20)
#    0.000    1.250    3.750    1.500    3.500    2.500 
#    0.000    0.000    0.000    0.000    0.000    0.000 
#    0.000    0.000    0.000    0.000    0.000    0.000 
#
# Total GULP energy -198392.603530 kJ/mol
# GULP energy per Si atom -12399.537721 kJ/mol
# Density = 2.285928 g / cm^3
# Si number density = 22.911430 Si / 1000 Ang^3
#
#
#
# Elastic Constant Matrix: (Units=GPa)
#
#
# Indices 1 2 3 4 5 6 
#
# 1 136.0057 14.3326 63.9388 0.0000 -4.9652 0.0000
# 2 14.3326 35.2813 20.8792 0.0000 -1.8965 0.0000
# 3 63.9388 20.8792 134.7782 0.0000 -17.8900 0.0000
# 4 0.0000 0.0000 0.0000 19.2627 0.0000 -1.5887
# 5 -4.9652 -1.8965 -17.8900 0.0000 37.2835 0.0000
# 6 0.0000 0.0000 0.0000 -1.5887 0.0000 32.2576
#
#
#
# Elastic Compliance Matrix: (Units=1/GPa)
#
#
# Indices 1 2 3 4 5 6 
#
# 1 0.009548 -0.001294 -0.004453 0.000000 -0.000931 0.000000
# 2 -0.001294 0.031401 -0.004338 0.000000 -0.000657 0.000000
# 3 -0.004453 -0.004338 0.010783 0.000000 0.004360 0.000000
# 4 0.000000 0.000000 0.000000 0.052125 0.000000 0.002567
# 5 -0.000931 -0.000657 0.004360 0.000000 0.028756 0.000000
# 6 0.000000 0.000000 0.000000 0.002567 0.000000 0.031127
#
#
# Mechanical properties :
#
#
# Convention : Reuss Voigt Hill
#
# Bulk Modulus (GPa) = 31.68248 56.04072 43.86160
# Shear Modulus (GPa) = 25.71605 31.55507 28.63556
#
# Velocity S-wave (km/s) = 3.35388 3.71518 3.53914
# Velocity P-wave (km/s) = 5.37180 6.55105 5.99051
#
# Compressibility (1/GPa) = 0.03156319
#
# Stress axis : x y z
#
# Youngs Moduli (GPa) = 104.72985 31.84604 92.74002
#
# Poissons Ratio (x) = 0.04120 0.41296
# Poissons Ratio (y) = 0.13550 0.40230
# Poissons Ratio (z) = 0.46635 0.13814
#
# Static dielectric constant tensor:
#      x y z
#    x 4.514730 0.000000 -0.172570 
#    y 0.000000 3.795070 0.000000 
#    z -0.172570 0.000000 4.417590 
# 
# 
# High freq. dielectric constant tensor:
#      x y z
#    x 1.927920 0.000000 -0.010420 
#    y 0.000000 1.881420 0.000000 
#    z -0.010420 0.000000 1.897070 
# 
# From -- ./inp_files/68404.got.cif
#   From: 2010.03.12/outbox.cif.g09.slc.cpg/sg5_35_cif.got.tgz:68404.got - 2010.03.31 09:47:26.
