data_PCOD8050280
_publ_section_title
;
Structure prediction by ZEFSAII (Michael W. Deem and Ramdas Pophale) SiO2 
 PCOD8050280
Probable space group: C 2
;
_chemical_formula_sum "Si O2"
_cell_formula_units_Z 30
_cell_length_a 14.445067
_cell_length_b 10.774498
_cell_length_c 18.449247
_cell_angle_alpha 90.000000
_cell_angle_beta 150.077148
_cell_angle_gamma 90.000000
_cell_volume 1432.355512
_symmetry_space_group_name_H-M "C 2"
_symmetry_group_IT_number 5
_symmetry_cell_setting 'monoclinic'
loop_
_space_group_symop_operation_xyz
x,y,z
-x,y,-z
1/2+x,1/2+y,z
1/2-x,1/2+y,-z
loop_
_atom_site_type_symbol
_atom_site_label
_atom_site_fract_x
_atom_site_fract_y
_atom_site_fract_z
Si Si1 0.000000 0.082850 0.500000
Si Si2 0.851556 0.875737 0.497657
Si Si3 0.739384 0.490472 0.421212
Si Si4 0.510735 0.161096 0.335283
Si Si5 0.882234 0.111122 0.991186
Si Si6 0.386103 0.321956 0.997432
Si Si7 0.994503 0.229004 0.778720
Si Si8 0.180870 0.753413 0.307879
O O1 0.171060 0.172099 0.636501
O O2 0.047139 0.992868 0.466450
O O3 0.848611 0.899812 0.580560
O O4 0.983990 0.754530 0.591365
O O5 0.652372 0.843653 0.325307
O O6 0.937407 0.531665 0.589560
O O7 0.604492 0.607537 0.320038
O O8 0.754922 0.397805 0.362672
O O9 0.318219 0.158668 0.165188
O O10 0.659342 0.187972 0.371856
O O11 0.876618 0.967527 0.010867
O O12 0.956582 0.200677 0.104836
O O13 0.000000 0.131854 0.000000
O O14 0.177510 0.264563 0.855535
O O15 0.500000 0.300369 0.000000
O O16 0.491607 0.251979 0.133806
#
# Coordination Sequence:
#
# PCOD8050280 Si02
#       8
#     2   4   4   4   4   4   4   4
#     4  12  26  42  64 102 140 168 236 284 344 404
#     4  10  24  40  67  97 135 177 228 282 348 399
#     4  10  21  44  66  97 124 190 221 275 344 408
#     4  10  21  43  68  93 132 177 228 276 344 402
#     4  11  24  42  67 101 135 174 232 279 343 414
#     4  11  25  41  68 102 138 182 231 280 344 410
#     4  11  23  44  74  95 142 184 229 283 347 409
#     4  11  23  41  66  99 137 177 225 287 340 405
#
# _framework density 20.944521000000002
#
# number of rings (size 3 to 8) (size 9 to 14) (size 15 to 20)
#    0.000    1.333    4.000    0.800    3.733    2.133 
#    0.000    0.000    0.000    0.000    0.000    0.000 
#    0.000    0.000    0.000    0.000    0.000    0.000 
#
# Total GULP energy -185836.884303 kJ/mol
# GULP energy per Si atom -12389.125620 kJ/mol
# Density = 2.089685 g / cm^3
# Si number density = 20.944521 Si / 1000 Ang^3
#
#
#
# Elastic Constant Matrix: (Units=GPa)
#
#
# Indices 1 2 3 4 5 6 
#
# 1 77.1397 53.0841 40.8237 -0.0009 8.3230 0.0002
# 2 53.0841 98.1931 42.5220 0.0038 9.8796 0.0010
# 3 40.8237 42.5220 129.1900 0.0012 0.0120 0.0012
# 4 -0.0009 0.0038 0.0012 35.0672 0.0002 -2.6853
# 5 8.3230 9.8796 0.0120 0.0002 25.6744 0.0004
# 6 0.0002 0.0010 0.0012 -2.6853 0.0004 31.3821
#
#
#
# Elastic Compliance Matrix: (Units=1/GPa)
#
#
# Indices 1 2 3 4 5 6 
#
# 1 0.022212 -0.010069 -0.003704 0.000002 -0.003324 0.000001
# 2 -0.010069 0.017003 -0.002414 -0.000002 -0.003277 -0.000001
# 3 -0.003704 -0.002414 0.009706 0.000000 0.002125 0.000000
# 4 0.000002 -0.000002 0.000000 0.028705 0.000000 0.002456
# 5 -0.003324 -0.003277 0.002125 0.000000 0.041287 0.000000
# 6 0.000001 -0.000001 0.000000 0.002456 0.000000 0.032075
#
#
# Mechanical properties :
#
#
# Convention : Reuss Voigt Hill
#
# Bulk Modulus (GPa) = 60.44317 64.15361 62.29839
# Shear Modulus (GPa) = 26.47214 29.63094 28.05154
#
# Velocity S-wave (km/s) = 3.55902 3.76538 3.66365
# Velocity P-wave (km/s) = 6.76832 7.04279 6.90692
#
# Compressibility (1/GPa) = 0.01654447
#
# Stress axis : x y z
#
# Youngs Moduli (GPa) = 45.02112 58.81392 103.03436
#
# Poissons Ratio (x) = 0.59222 0.38167
# Poissons Ratio (y) = 0.45333 0.24874
# Poissons Ratio (z) = 0.16677 0.14199
#
# Static dielectric constant tensor:
#      x y z
#    x 3.792150 0.000000 -0.096190 
#    y 0.000000 3.975970 0.000000 
#    z -0.096190 0.000000 3.819380 
# 
# 
# High freq. dielectric constant tensor:
#      x y z
#    x 1.803220 0.000000 -0.006270 
#    y 0.000000 1.835290 0.000000 
#    z -0.006270 0.000000 1.827190 
# 
# From -- ./inp_files/61621.got.cif
#   From: 2010.03.12/outbox.cif.g09.slc.cpg/sg5_31_cif.got.tgz:61621.got - 2010.03.31 09:47:26.
