data_PCOD8050943
_publ_section_title
;
Structure prediction by ZEFSAII (Michael W. Deem and Ramdas Pophale) SiO2 
 PCOD8050943
Probable space group: C 2
;
_chemical_formula_sum "Si O2"
_cell_formula_units_Z 20
_cell_length_a 17.441282
_cell_length_b 8.626091
_cell_length_c 5.289417
_cell_angle_alpha 90.000000
_cell_angle_beta 92.693299
_cell_angle_gamma 90.000000
_cell_volume 794.914190
_symmetry_space_group_name_H-M "C 2"
_symmetry_group_IT_number 5
_symmetry_cell_setting 'monoclinic'
loop_
_space_group_symop_operation_xyz
x,y,z
-x,y,-z
1/2+x,1/2+y,z
1/2-x,1/2+y,-z
loop_
_atom_site_type_symbol
_atom_site_label
_atom_site_fract_x
_atom_site_fract_y
_atom_site_fract_z
Si Si1 0.115777 0.486810 0.747055
Si Si2 0.131368 0.741647 0.325957
Si Si3 0.500000 0.747621 0.500000
Si Si4 0.000000 0.688551 0.000000
Si Si5 0.782708 0.226287 0.103866
Si Si6 0.353807 0.585223 0.614284
O O1 0.138467 0.593170 0.510555
O O2 0.052889 0.355813 0.679292
O O3 0.188801 0.406401 0.894871
O O4 0.074810 0.590893 0.946098
O O5 0.189968 0.717594 0.096483
O O6 0.041517 0.780553 0.233051
O O7 0.155438 0.903706 0.456860
O O8 0.442702 0.638881 0.654459
O O9 0.812484 0.168116 0.378242
O O10 0.812550 0.129365 0.870678
#
# Coordination Sequence:
#
# PCOD8050943 Si02
#       6
#     4   4   2   2   4   4
#     4  11  24  48  73 110 146 209 250 315 380 472
#     4  12  28  45  77 113 153 200 261 323 381 464
#     4  10  22  46  74 100 156 194 256 298 394 452
#     4  12  26  42  80 102 154 190 262 306 390 444
#     4  11  28  49  78 108 159 200 259 310 396 455
#     4  11  28  48  75 115 151 204 253 327 379 463
#
# _framework density 25.159949999999998
#
# number of rings (size 3 to 8) (size 9 to 14) (size 15 to 20)
#    0.000    0.800    2.000    2.400   14.000    4.000 
#    0.000    0.000    0.000    0.000    0.000    0.000 
#    0.000    0.000    0.000    0.000    0.000    0.000 
#
# Total GULP energy -123904.746887 kJ/mol
# GULP energy per Si atom -12390.474689 kJ/mol
# Density = 2.510269 g / cm^3
# Si number density = 25.159950 Si / 1000 Ang^3
#
#
#
# Elastic Constant Matrix: (Units=GPa)
#
#
# Indices 1 2 3 4 5 6 
#
# 1 139.7905 37.8890 36.2449 0.0000 -17.4484 0.0000
# 2 37.8890 107.7467 16.9621 0.0000 -12.3963 0.0000
# 3 36.2449 16.9621 99.9474 0.0000 -16.2574 0.0000
# 4 0.0000 0.0000 0.0000 17.3958 0.0000 -10.9987
# 5 -17.4484 -12.3963 -16.2574 0.0000 42.0082 0.0000
# 6 0.0000 0.0000 0.0000 -10.9987 0.0000 29.8039
#
#
#
# Elastic Compliance Matrix: (Units=1/GPa)
#
#
# Indices 1 2 3 4 5 6 
#
# 1 0.008688 -0.002450 -0.002418 0.000000 0.001950 0.000000
# 2 -0.002450 0.010446 -0.000585 0.000000 0.001838 0.000000
# 3 -0.002418 -0.000585 0.011515 0.000000 0.003279 0.000000
# 4 0.000000 0.000000 0.000000 0.074980 0.000000 0.027670
# 5 0.001950 0.001838 0.003279 0.000000 0.026426 0.000000
# 6 0.000000 0.000000 0.000000 0.027670 0.000000 0.043764
#
#
# Mechanical properties :
#
#
# Convention : Reuss Voigt Hill
#
# Bulk Modulus (GPa) = 50.65125 58.85295 54.75210
# Shear Modulus (GPa) = 25.86573 34.93417 30.39995
#
# Velocity S-wave (km/s) = 3.20980 3.73028 3.47979
# Velocity P-wave (km/s) = 5.82344 6.48040 6.16069
#
# Compressibility (1/GPa) = 0.01974285
#
# Stress axis : x y z
#
# Youngs Moduli (GPa) = 115.10299 95.72801 86.84536
#
# Poissons Ratio (x) = 0.23455 0.20996
# Poissons Ratio (y) = 0.28202 0.05083
# Poissons Ratio (z) = 0.27827 0.05603
#
# Static dielectric constant tensor:
#      x y z
#    x 5.261160 0.000000 -0.301830 
#    y 0.000000 4.789180 0.000000 
#    z -0.301830 0.000000 4.269270 
# 
# 
# High freq. dielectric constant tensor:
#      x y z
#    x 2.033420 0.000000 -0.008430 
#    y 0.000000 2.014220 0.000000 
#    z -0.008430 0.000000 1.986290 
# 
# From -- ./inp_files/8014.got.cif
#   From: 2010.03.12/outbox.cif.g09.slc.cpg/sg5_5_cif.got.tgz:8014.got - 2010.03.31 09:47:26.
