data_PCOD8050839
_publ_section_title
;
Structure prediction by ZEFSAII (Michael W. Deem and Ramdas Pophale) SiO2 
 PCOD8050839
Probable space group: C 2
;
_chemical_formula_sum "Si O2"
_cell_formula_units_Z 22
_cell_length_a 14.583560
_cell_length_b 12.171687
_cell_length_c 11.352175
_cell_angle_alpha 90.000000
_cell_angle_beta 149.712862
_cell_angle_gamma 90.000000
_cell_volume 1016.275544
_symmetry_space_group_name_H-M "C 2"
_symmetry_group_IT_number 5
_symmetry_cell_setting 'monoclinic'
loop_
_space_group_symop_operation_xyz
x,y,z
-x,y,-z
1/2+x,1/2+y,z
1/2-x,1/2+y,-z
loop_
_atom_site_type_symbol
_atom_site_label
_atom_site_fract_x
_atom_site_fract_y
_atom_site_fract_z
Si Si1 0.210770 0.285350 0.860773
Si Si2 0.554771 0.573692 0.775838
Si Si3 0.000000 0.732094 0.000000
Si Si4 0.002809 0.835069 0.638914
Si Si5 0.572272 0.011874 0.702474
Si Si6 0.319297 0.154144 0.574147
O O1 0.119193 0.164991 0.751651
O O2 0.360719 0.304490 0.924132
O O3 0.056833 0.378994 0.681641
O O4 0.306425 0.294231 0.094790
O O5 0.481015 0.466072 0.626951
O O6 0.391037 0.622616 0.671670
O O7 0.717270 0.542891 0.044645
O O8 0.877468 0.660068 0.775710
O O9 0.000000 0.801261 0.500000
O O10 0.844349 0.769539 0.532807
O O11 0.500000 0.062108 0.500000
O O12 0.446613 0.057947 0.665582
#
# Coordination Sequence:
#
# PCOD8050839 Si02
#       6
#     4   4   2   4   4   4
#     4  10  24  43  69 100 137 180 229 276 346 395
#     4  11  25  43  71 101 132 185 228 270 348 400
#     4  10  22  44  68 102 136 174 232 284 320 424
#     4  10  23  45  67  99 140 171 225 285 328 407
#     4  11  25  45  68  99 144 174 225 289 335 402
#     4  11  25  42  70  99 140 175 231 275 341 402
#
# _framework density 21.647672
#
# number of rings (size 3 to 8) (size 9 to 14) (size 15 to 20)
#    0.000    1.455    3.636    0.545    7.636    3.636 
#    0.000    0.000    0.000    0.000    0.000    0.000 
#    0.000    0.000    0.000    0.000    0.000    0.000 
#
# Total GULP energy -136388.070277 kJ/mol
# GULP energy per Si atom -12398.915480 kJ/mol
# Density = 2.159840 g / cm^3
# Si number density = 21.647672 Si / 1000 Ang^3
#
#
#
# Elastic Constant Matrix: (Units=GPa)
#
#
# Indices 1 2 3 4 5 6 
#
# 1 124.9208 56.3622 64.2921 0.0000 -7.2431 0.0000
# 2 56.3622 160.4845 20.8269 0.0000 13.6154 0.0000
# 3 64.2921 20.8269 95.5856 0.0000 -2.2095 0.0000
# 4 0.0000 0.0000 0.0000 20.2140 0.0000 10.3427
# 5 -7.2431 13.6154 -2.2095 0.0000 45.5660 0.0000
# 6 0.0000 0.0000 0.0000 10.3427 0.0000 30.3121
#
#
#
# Elastic Compliance Matrix: (Units=1/GPa)
#
#
# Indices 1 2 3 4 5 6 
#
# 1 0.014685 -0.004276 -0.008872 0.000000 0.003182 0.000000
# 2 -0.004276 0.007842 0.001099 0.000000 -0.002970 0.000000
# 3 -0.008872 0.001099 0.016168 0.000000 -0.000955 0.000000
# 4 0.000000 0.000000 0.000000 0.059934 0.000000 -0.020450
# 5 0.003182 -0.002970 -0.000955 0.000000 0.023293 0.000000
# 6 0.000000 0.000000 0.000000 -0.020450 0.000000 0.039968
#
#
# Mechanical properties :
#
#
# Convention : Reuss Voigt Hill
#
# Bulk Modulus (GPa) = 68.51020 73.77259 71.14140
# Shear Modulus (GPa) = 26.19803 35.18573 30.69188
#
# Velocity S-wave (km/s) = 3.48257 4.03598 3.76944
# Velocity P-wave (km/s) = 6.92009 7.47473 7.20275
#
# Compressibility (1/GPa) = 0.01459637
#
# Stress axis : x y z
#
# Youngs Moduli (GPa) = 68.09735 127.51530 61.85130
#
# Poissons Ratio (x) = 0.54524 0.54875
# Poissons Ratio (y) = 0.29118 -0.06795
# Poissons Ratio (z) = 0.60416 -0.14010
#
# Static dielectric constant tensor:
#      x y z
#    x 3.709680 0.000000 -0.024140 
#    y 0.000000 4.163170 0.000000 
#    z -0.024140 0.000000 3.917390 
# 
# 
# High freq. dielectric constant tensor:
#      x y z
#    x 1.836960 0.000000 -0.003970 
#    y 0.000000 1.860270 0.000000 
#    z -0.003970 0.000000 1.850970 
# 
# From -- ./inp_files/42641.got.cif
#   From: 2010.03.12/outbox.cif.g09.slc.cpg/sg5_22_cif.got.tgz:42641.got - 2010.03.31 09:47:26.
