data_PCOD8050606
_publ_section_title
;
Structure prediction by ZEFSAII (Michael W. Deem and Ramdas Pophale) SiO2 
 PCOD8050606
Probable space group: C 2
;
_chemical_formula_sum "Si O2"
_cell_formula_units_Z 24
_cell_length_a 16.336870
_cell_length_b 5.112275
_cell_length_c 14.752237
_cell_angle_alpha 90.000000
_cell_angle_beta 53.704803
_cell_angle_gamma 90.000000
_cell_volume 993.033909
_symmetry_space_group_name_H-M "C 2"
_symmetry_group_IT_number 5
_symmetry_cell_setting 'monoclinic'
loop_
_space_group_symop_operation_xyz
x,y,z
-x,y,-z
1/2+x,1/2+y,z
1/2-x,1/2+y,-z
loop_
_atom_site_type_symbol
_atom_site_label
_atom_site_fract_x
_atom_site_fract_y
_atom_site_fract_z
Si Si1 0.187801 0.426580 0.019698
Si Si2 0.269451 0.891833 0.690489
Si Si3 0.880645 0.892590 0.578497
Si Si4 0.392556 0.688723 0.105928
Si Si5 0.471561 0.862398 0.239027
Si Si6 0.374606 0.367405 0.377415
O O1 0.090348 0.407873 0.147833
O O2 0.229838 0.719938 0.998162
O O3 0.158912 0.371703 0.934858
O O4 0.324972 0.618192 0.673361
O O5 0.225132 0.898561 0.617997
O O6 0.353480 0.119982 0.644099
O O7 0.179863 0.942729 0.822418
O O8 0.838196 0.901033 0.504124
O O9 0.000000 0.938835 0.500000
O O10 0.410176 0.865922 0.183770
O O11 0.500000 0.571768 0.000000
O O12 0.458143 0.585338 0.297144
O O13 0.427144 0.087401 0.331338
#
# Coordination Sequence:
#
# PCOD8050606 Si02
#       6
#     4   4   4   4   4   4
#     4  11  24  40  62  96 135 174 215 271 334 394
#     4  11  23  43  68  94 125 175 221 265 325 389
#     4  12  26  42  63  97 134 170 214 272 331 390
#     4   9  22  44  69  98 133 172 225 276 324 393
#     4  10  22  41  65  92 124 173 221 266 324 385
#     4  11  22  42  66  91 124 168 220 272 320 387
#
# _framework density 24.168357
#
# number of rings (size 3 to 8) (size 9 to 14) (size 15 to 20)
#    0.000    1.333    0.000    5.500    0.000    8.000 
#    0.000   13.333    0.000    0.000    0.000    0.000 
#    0.000    0.000    0.000    0.000    0.000    0.000 
#
# Total GULP energy -148883.638551 kJ/mol
# GULP energy per Si atom -12406.969879 kJ/mol
# Density = 2.411335 g / cm^3
# Si number density = 24.168357 Si / 1000 Ang^3
#
#
#
# Elastic Constant Matrix: (Units=GPa)
#
#
# Indices 1 2 3 4 5 6 
#
# 1 47.9084 8.1410 11.8358 -0.0248 -15.0707 0.0235
# 2 8.1410 110.3548 31.5885 -0.0603 -12.1019 0.0737
# 3 11.8358 31.5885 96.2774 -0.0196 -10.9618 0.0214
# 4 -0.0248 -0.0603 -0.0196 40.6111 0.0098 -8.8421
# 5 -15.0707 -12.1019 -10.9618 0.0098 41.5536 -0.0116
# 6 0.0235 0.0737 0.0214 -8.8421 -0.0116 24.4561
#
#
#
# Elastic Compliance Matrix: (Units=1/GPa)
#
#
# Indices 1 2 3 4 5 6 
#
# 1 0.023945 -0.000332 -0.001914 0.000008 0.008083 -0.000013
# 2 -0.000332 0.010188 -0.003070 0.000008 0.002037 -0.000024
# 3 -0.001914 -0.003070 0.011803 0.000000 0.001525 0.000001
# 4 0.000008 0.000008 0.000000 0.026728 0.000002 0.009663
# 5 0.008083 0.002037 0.001525 0.000002 0.027992 -0.000001
# 6 -0.000013 -0.000024 0.000001 0.009663 -0.000001 0.044384
#
#
# Mechanical properties :
#
#
# Convention : Reuss Voigt Hill
#
# Bulk Modulus (GPa) = 28.32594 39.74122 34.03358
# Shear Modulus (GPa) = 29.86127 34.85586 32.35856
#
# Velocity S-wave (km/s) = 3.51886 3.80176 3.66304
# Velocity P-wave (km/s) = 5.31559 5.97916 5.65712
#
# Compressibility (1/GPa) = 0.03530333
#
# Stress axis : x y z
#
# Youngs Moduli (GPa) = 41.76209 98.15126 84.72478
#
# Poissons Ratio (x) = 0.03259 0.16220
# Poissons Ratio (y) = 0.01387 0.26011
# Poissons Ratio (z) = 0.07995 0.30133
#
# Static dielectric constant tensor:
#      x y z
#    x 4.278180 -0.000030 -0.041030 
#    y -0.000030 4.276430 0.000010 
#    z -0.041030 0.000010 4.407000 
# 
# 
# High freq. dielectric constant tensor:
#      x y z
#    x 1.952470 0.000000 -0.008990 
#    y 0.000000 1.960500 0.000000 
#    z -0.008990 0.000000 1.969780 
# 
# From -- ./inp_files/61997.got.cif
#   From: 2010.03.12/outbox.cif.g09.slc.cpg/sg5_31_cif.got.tgz:61997.got - 2010.03.31 09:47:26.
