data_PCOD8050401
_publ_section_title
;
Structure prediction by ZEFSAII (Michael W. Deem and Ramdas Pophale) SiO2 
 PCOD8050401
Probable space group: C 2
;
_chemical_formula_sum "Si O2"
_cell_formula_units_Z 22
_cell_length_a 13.158371
_cell_length_b 4.943442
_cell_length_c 26.175077
_cell_angle_alpha 90.000000
_cell_angle_beta 148.973639
_cell_angle_gamma 90.000000
_cell_volume 877.589151
_symmetry_space_group_name_H-M "C 2"
_symmetry_group_IT_number 5
_symmetry_cell_setting 'monoclinic'
loop_
_space_group_symop_operation_xyz
x,y,z
-x,y,-z
1/2+x,1/2+y,z
1/2-x,1/2+y,-z
loop_
_atom_site_type_symbol
_atom_site_label
_atom_site_fract_x
_atom_site_fract_y
_atom_site_fract_z
Si Si1 0.138386 0.453530 0.798269
Si Si2 0.832029 0.914167 0.562191
Si Si3 0.885833 0.538113 0.054987
Si Si4 0.000000 0.688076 0.000000
Si Si5 0.233853 0.218198 0.732686
Si Si6 0.619548 0.452751 0.304136
O O1 0.207090 0.421095 0.768895
O O2 0.075287 0.762684 0.780211
O O3 0.312763 0.384740 0.912269
O O4 0.950527 0.262280 0.729108
O O5 0.687050 0.113761 0.468931
O O6 0.058651 0.002472 0.654466
O O7 0.765699 0.905920 0.592951
O O8 0.982425 0.487998 0.041024
O O9 0.057358 0.560179 0.171440
O O10 0.731110 0.314844 0.002957
O O11 0.237273 0.388683 0.681608
#
# Coordination Sequence:
#
# PCOD8050401 Si02
#       6
#     4   4   4   2   4   4
#     4  10  23  39  62  96 130 168 215 255 306 379
#     4  11  25  46  67  94 126 162 217 269 318 385
#     4  11  24  40  64  99 132 169 216 253 305 383
#     4  10  22  38  62  92 134 174 208 260 308 358
#     4  10  24  43  68  94 131 171 207 263 321 368
#     4  11  23  43  66  91 126 166 209 263 322 377
#
# _framework density 25.068680000000001
#
# number of rings (size 3 to 8) (size 9 to 14) (size 15 to 20)
#    0.000    1.455    0.000    4.364    0.000   16.727 
#    0.000    5.455    0.000    0.000    0.000    0.000 
#    0.000    0.000    0.000    0.000    0.000    0.000 
#
# Total GULP energy -136472.328843 kJ/mol
# GULP energy per Si atom -12406.575349 kJ/mol
# Density = 2.501162 g / cm^3
# Si number density = 25.068680 Si / 1000 Ang^3
#
#
#
# Elastic Constant Matrix: (Units=GPa)
#
#
# Indices 1 2 3 4 5 6 
#
# 1 108.5222 16.6271 24.8274 -0.0007 -25.5157 0.0023
# 2 16.6271 60.7528 -6.9850 -0.0042 -1.3960 0.0066
# 3 24.8274 -6.9850 111.9364 -0.0086 -20.8701 0.0131
# 4 -0.0007 -0.0042 -0.0086 26.4282 -0.0019 -1.2082
# 5 -25.5157 -1.3960 -20.8701 -0.0019 48.1843 0.0027
# 6 0.0023 0.0066 0.0131 -1.2082 0.0027 24.5266
#
#
#
# Elastic Compliance Matrix: (Units=1/GPa)
#
#
# Indices 1 2 3 4 5 6 
#
# 1 0.011310 -0.003178 -0.001749 0.000000 0.005140 0.000000
# 2 -0.003178 0.017518 0.001718 0.000003 -0.000432 -0.000005
# 3 -0.001749 0.001718 0.010079 0.000004 0.003489 -0.000006
# 4 0.000000 0.000003 0.000004 0.037924 0.000003 0.001868
# 5 0.005140 -0.000432 0.003489 0.000003 0.024974 -0.000005
# 6 0.000000 -0.000005 -0.000006 0.001868 -0.000005 0.040864
#
#
# Mechanical properties :
#
#
# Convention : Reuss Voigt Hill
#
# Bulk Modulus (GPa) = 30.78038 38.90561 34.84299
# Shear Modulus (GPa) = 31.26617 36.27729 33.77173
#
# Velocity S-wave (km/s) = 3.53543 3.80822 3.67436
# Velocity P-wave (km/s) = 5.38245 5.90678 5.65070
#
# Compressibility (1/GPa) = 0.03248823
#
# Stress axis : x y z
#
# Youngs Moduli (GPa) = 88.41593 57.08554 99.21367
#
# Poissons Ratio (x) = 0.18144 0.17349
# Poissons Ratio (y) = 0.28102 -0.17041
# Poissons Ratio (z) = 0.15461 -0.09805
#
# Static dielectric constant tensor:
#      x y z
#    x 4.585870 -0.000010 -0.268010 
#    y -0.000010 4.119950 0.000010 
#    z -0.268010 0.000010 4.560180 
# 
# 
# High freq. dielectric constant tensor:
#      x y z
#    x 2.009840 0.000000 -0.016620 
#    y 0.000000 1.986900 0.000000 
#    z -0.016620 0.000000 2.002120 
# 
# From -- ./inp_files/70475.got.cif
#   From: 2010.03.12/outbox.cif.g09.slc.cpg/sg5_36_cif.got.tgz:70475.got - 2010.03.31 09:47:26.
