data_PCOD8050624
_publ_section_title
;
Structure prediction by ZEFSAII (Michael W. Deem and Ramdas Pophale) SiO2 
 PCOD8050624
Probable space group: C 2
;
_chemical_formula_sum "Si O2"
_cell_formula_units_Z 30
_cell_length_a 20.292359
_cell_length_b 8.318483
_cell_length_c 22.872593
_cell_angle_alpha 90.000000
_cell_angle_beta 159.850262
_cell_angle_gamma 90.000000
_cell_volume 1329.993475
_symmetry_space_group_name_H-M "C 2"
_symmetry_group_IT_number 5
_symmetry_cell_setting 'monoclinic'
loop_
_space_group_symop_operation_xyz
x,y,z
-x,y,-z
1/2+x,1/2+y,z
1/2-x,1/2+y,-z
loop_
_atom_site_type_symbol
_atom_site_label
_atom_site_fract_x
_atom_site_fract_y
_atom_site_fract_z
Si Si1 0.165167 0.489640 0.983812
Si Si2 0.628078 0.065651 0.164836
Si Si3 0.680000 0.821957 0.612680
Si Si4 0.500000 0.381069 0.500000
Si Si5 0.472435 0.315437 0.671550
Si Si6 0.827958 0.158126 0.508816
Si Si7 0.295966 0.159606 0.422251
Si Si8 0.560229 0.770003 0.802361
O O1 0.312305 0.362990 0.135204
O O2 0.249334 0.665807 0.047213
O O3 0.115124 0.441281 0.875351
O O4 0.981321 0.481847 0.872458
O O5 0.658662 0.253258 0.208519
O O6 0.841421 0.989170 0.333150
O O7 0.500000 0.053895 0.000000
O O8 0.500000 0.873771 0.500000
O O9 0.632395 0.675744 0.527338
O O10 0.739447 0.977288 0.626352
O O11 0.365637 0.270685 0.427797
O O12 0.383301 0.229718 0.654564
O O13 0.352309 0.473971 0.549912
O O14 0.456495 0.183464 0.606485
O O15 0.967671 0.278387 0.661152
O O16 0.087425 0.196520 0.273941
#
# Coordination Sequence:
#
# PCOD8050624 Si02
#       8
#     4   4   4   2   4   4   4   4
#     4  11  24  42  66 107 144 185 233 303 366 432
#     4  12  28  47  75 104 143 195 246 299 365 439
#     4  12  26  43  68  99 139 187 243 291 363 427
#     4  12  22  48  78  98 146 182 254 294 362 432
#     4  10  22  41  71 101 141 182 244 291 370 424
#     4  10  22  41  68 101 133 185 237 292 357 436
#     4  11  23  45  67 103 134 189 242 302 354 440
#     4  10  24  40  68 100 143 181 235 296 375 422
#
# _framework density 22.5565
#
# number of rings (size 3 to 8) (size 9 to 14) (size 15 to 20)
#    0.000    1.067    2.667    4.000    9.333    1.067 
#    0.000    2.000    0.000    0.000    0.000    0.000 
#    0.000    0.000    0.000    0.000    0.000    0.000 
#
# Total GULP energy -185881.875244 kJ/mol
# GULP energy per Si atom -12392.125016 kJ/mol
# Density = 2.250516 g / cm^3
# Si number density = 22.556500 Si / 1000 Ang^3
#
#
#
# Elastic Constant Matrix: (Units=GPa)
#
#
# Indices 1 2 3 4 5 6 
#
# 1 75.8218 6.3406 14.1906 -0.0164 -2.1818 -0.0023
# 2 6.3406 67.4335 25.1922 -0.0286 -2.9192 -0.0099
# 3 14.1906 25.1922 104.1289 -0.0217 -0.5429 -0.0091
# 4 -0.0164 -0.0286 -0.0217 32.2452 -0.0088 -5.8153
# 5 -2.1818 -2.9192 -0.5429 -0.0088 38.9527 -0.0015
# 6 -0.0023 -0.0099 -0.0091 -5.8153 -0.0015 37.5168
#
#
#
# Elastic Compliance Matrix: (Units=1/GPa)
#
#
# Indices 1 2 3 4 5 6 
#
# 1 0.013578 -0.000612 -0.001699 0.000006 0.000691 0.000001
# 2 -0.000612 0.016384 -0.003874 0.000013 0.001140 0.000005
# 3 -0.001699 -0.003874 0.010771 0.000003 -0.000235 0.000002
# 4 0.000006 0.000013 0.000003 0.031904 0.000009 0.004945
# 5 0.000691 0.001140 -0.000235 0.000009 0.025793 0.000003
# 6 0.000001 0.000005 0.000002 0.004945 0.000003 0.027421
#
#
# Mechanical properties :
#
#
# Convention : Reuss Voigt Hill
#
# Bulk Modulus (GPa) = 35.25824 37.64791 36.45308
# Shear Modulus (GPa) = 33.85796 35.18698 34.52247
#
# Velocity S-wave (km/s) = 3.87851 3.95390 3.91639
# Velocity P-wave (km/s) = 5.97680 6.12953 6.05365
#
# Compressibility (1/GPa) = 0.02836217
#
# Stress axis : x y z
#
# Youngs Moduli (GPa) = 73.64952 61.03607 92.84108
#
# Poissons Ratio (x) = 0.03737 0.15771
# Poissons Ratio (y) = 0.04509 0.35970
# Poissons Ratio (z) = 0.12511 0.23648
#
# Static dielectric constant tensor:
#      x y z
#    x 4.225000 0.000000 -0.114280 
#    y 0.000000 4.107140 -0.000020 
#    z -0.114280 -0.000020 4.177670 
# 
# 
# High freq. dielectric constant tensor:
#      x y z
#    x 1.896270 0.000000 0.001640 
#    y 0.000000 1.885600 0.000000 
#    z 0.001640 0.000000 1.886490 
# 
# From -- ./inp_files/69459.got.cif
#   From: 2010.03.12/outbox.cif.g09.slc.cpg/sg5_35_cif.got.tgz:69459.got - 2010.03.31 09:47:26.
