data_PCOD8050376
_publ_section_title
;
Structure prediction by ZEFSAII (Michael W. Deem and Ramdas Pophale) SiO2 
 PCOD8050376
Probable space group: C 2
;
_chemical_formula_sum "Si O2"
_cell_formula_units_Z 28
_cell_length_a 15.400630
_cell_length_b 8.405580
_cell_length_c 12.668218
_cell_angle_alpha 90.000000
_cell_angle_beta 56.058963
_cell_angle_gamma 90.000000
_cell_volume 1360.495281
_symmetry_space_group_name_H-M "C 2"
_symmetry_group_IT_number 5
_symmetry_cell_setting 'monoclinic'
loop_
_space_group_symop_operation_xyz
x,y,z
-x,y,-z
1/2+x,1/2+y,z
1/2-x,1/2+y,-z
loop_
_atom_site_type_symbol
_atom_site_label
_atom_site_fract_x
_atom_site_fract_y
_atom_site_fract_z
Si Si1 0.719644 0.604980 0.634107
Si Si2 0.386459 0.145874 0.045086
Si Si3 0.345333 0.561697 0.543228
Si Si4 0.703243 0.836007 0.274092
Si Si5 0.439126 0.236980 0.447901
Si Si6 0.636266 0.910920 0.760616
Si Si7 0.060388 0.541188 0.213444
O O1 0.640578 0.608990 0.588960
O O2 0.734012 0.435448 0.679810
O O3 0.827116 0.660859 0.509117
O O4 0.671584 0.728045 0.751445
O O5 0.291341 0.260804 0.139471
O O6 0.378464 0.979563 0.112742
O O7 0.500000 0.222292 0.000000
O O8 0.373054 0.105939 0.930583
O O9 0.365794 0.703044 0.615246
O O10 0.428667 0.419160 0.495606
O O11 0.226345 0.504995 0.638144
O O12 0.630357 0.947366 0.251379
O O13 0.500000 0.144916 0.500000
O O14 0.508188 0.202353 0.296965
O O15 0.529918 0.922670 0.765354
#
# Coordination Sequence:
#
# PCOD8050376 Si02
#       7
#     4   4   4   4   4   4   4
#     4  11  21  37  65  92 124 158 208 252 311 380
#     4   9  22  43  64  86 123 170 214 251 308 372
#     4  10  22  37  61  92 126 160 203 249 313 382
#     4  11  23  41  65  94 125 166 207 265 313 365
#     4  11  22  39  59  91 123 160 200 259 318 363
#     4   9  20  39  63  88 122 166 205 251 304 374
#     4  11  22  41  67  88 128 166 209 261 315 364
#
# _framework density 20.580739999999999
#
# number of rings (size 3 to 8) (size 9 to 14) (size 15 to 20)
#    0.000    1.714    2.857    1.714    4.000    2.286 
#    2.571    3.571    0.000    0.000    0.000    0.000 
#    0.000    0.000    0.000    0.000    0.000    0.000 
#
# Total GULP energy -173472.615752 kJ/mol
# GULP energy per Si atom -12390.901125 kJ/mol
# Density = 2.053390 g / cm^3
# Si number density = 20.580740 Si / 1000 Ang^3
#
#
#
# Elastic Constant Matrix: (Units=GPa)
#
#
# Indices 1 2 3 4 5 6 
#
# 1 80.3098 27.6246 42.5236 0.0000 8.2905 0.0000
# 2 27.6246 107.5120 66.5035 0.0000 -2.3548 0.0000
# 3 42.5236 66.5035 138.4472 0.0000 10.0880 0.0000
# 4 0.0000 0.0000 0.0000 17.5029 0.0000 5.7613
# 5 8.2905 -2.3548 10.0880 0.0000 27.8584 0.0000
# 6 0.0000 0.0000 0.0000 5.7613 0.0000 23.4297
#
#
#
# Elastic Compliance Matrix: (Units=1/GPa)
#
#
# Indices 1 2 3 4 5 6 
#
# 1 0.015324 -0.001784 -0.003601 0.000000 -0.003407 0.000000
# 2 -0.001784 0.013785 -0.006365 0.000000 0.004001 0.000000
# 3 -0.003601 -0.006365 0.011655 0.000000 -0.003687 0.000000
# 4 0.000000 0.000000 0.000000 0.062165 0.000000 -0.015286
# 5 -0.003407 0.004001 -0.003687 0.000000 0.038583 0.000000
# 6 0.000000 0.000000 0.000000 -0.015286 0.000000 0.046440
#
#
# Mechanical properties :
#
#
# Convention : Reuss Voigt Hill
#
# Bulk Modulus (GPa) = 57.92889 66.61915 62.27402
# Shear Modulus (GPa) = 23.01947 26.39934 24.70941
#
# Velocity S-wave (km/s) = 3.34802 3.58539 3.46874
# Velocity P-wave (km/s) = 6.56916 7.04131 6.80933
#
# Compressibility (1/GPa) = 0.01726254
#
# Stress axis : x y z
#
# Youngs Moduli (GPa) = 65.25624 72.54506 85.79887
#
# Poissons Ratio (x) = 0.12945 0.30900
# Poissons Ratio (y) = 0.11644 0.54610
# Poissons Ratio (z) = 0.23501 0.46174
#
# Static dielectric constant tensor:
#      x y z
#    x 3.698010 0.000000 -0.010080 
#    y 0.000000 3.703480 0.000000 
#    z -0.010080 0.000000 3.781300 
# 
# 
# High freq. dielectric constant tensor:
#      x y z
#    x 1.806840 0.000000 0.005640 
#    y 0.000000 1.793020 0.000000 
#    z 0.005640 0.000000 1.804570 
# 
# From -- ./inp_files/41878.got.cif
#   From: 2010.03.12/outbox.cif.g09.slc.cpg/sg5_21_cif.got.tgz:41878.got - 2010.03.31 09:47:26.
