data_PCOD8050707
_publ_section_title
;
Structure prediction by ZEFSAII (Michael W. Deem and Ramdas Pophale) SiO2 
 PCOD8050707
Probable space group: C 2
;
_chemical_formula_sum "Si O2"
_cell_formula_units_Z 30
_cell_length_a 8.851198
_cell_length_b 10.418885
_cell_length_c 14.899673
_cell_angle_alpha 90.000000
_cell_angle_beta 87.343763
_cell_angle_gamma 90.000000
_cell_volume 1372.565773
_symmetry_space_group_name_H-M "C 2"
_symmetry_group_IT_number 5
_symmetry_cell_setting 'monoclinic'
loop_
_space_group_symop_operation_xyz
x,y,z
-x,y,-z
1/2+x,1/2+y,z
1/2-x,1/2+y,-z
loop_
_atom_site_type_symbol
_atom_site_label
_atom_site_fract_x
_atom_site_fract_y
_atom_site_fract_z
Si Si1 0.157862 0.928010 0.317649
Si Si2 0.282552 0.452486 0.886414
Si Si3 0.518495 0.680027 0.695116
Si Si4 0.332730 0.728402 0.870578
Si Si5 0.991368 0.717430 0.901065
Si Si6 0.500000 0.902659 0.000000
Si Si7 0.535212 0.935395 0.600456
Si Si8 0.631184 0.150013 0.279281
O O1 0.240287 0.934838 0.219161
O O2 0.285708 0.950721 0.388629
O O3 0.075279 0.787755 0.323008
O O4 0.039174 0.041673 0.335639
O O5 0.367760 0.584826 0.904085
O O6 0.384666 0.340163 0.924732
O O7 0.112760 0.475952 0.929159
O O8 0.423749 0.746785 0.776768
O O9 0.498926 0.784975 0.617247
O O10 0.688404 0.654037 0.721135
O O11 0.155142 0.756061 0.858275
O O12 0.383999 0.821168 0.946230
O O13 0.912004 0.633241 0.825206
O O14 0.000000 0.647192 0.000000
O O15 0.500000 0.972802 0.500000
O O16 0.438872 0.031858 0.665032
#
# Coordination Sequence:
#
# PCOD8050707 Si02
#       8
#     4   4   4   4   4   2   4   4
#     4   9  21  44  64  91 132 165 217 267 327 394
#     4  10  23  40  57  84 123 168 214 272 313 373
#     4  10  23  44  67  95 130 176 219 270 333 390
#     4  11  24  38  61  86 124 171 213 268 319 373
#     4  11  22  41  60  92 131 174 224 268 314 379
#     4  12  22  34  56  84 116 162 216 258 314 366
#     4  11  24  43  70 100 131 168 214 273 340 406
#     4  10  22  42  67  94 133 173 218 276 328 392
#
# _framework density 21.856876
#
# number of rings (size 3 to 8) (size 9 to 14) (size 15 to 20)
#    0.000    1.600    1.333    4.000    1.867    6.400 
#    0.000    0.667    0.000    0.000    0.000    0.000 
#    0.000    0.000    0.000    0.000    0.000    0.000 
#
# Total GULP energy -185912.832732 kJ/mol
# GULP energy per Si atom -12394.188849 kJ/mol
# Density = 2.180713 g / cm^3
# Si number density = 21.856876 Si / 1000 Ang^3
#
#
#
# Elastic Constant Matrix: (Units=GPa)
#
#
# Indices 1 2 3 4 5 6 
#
# 1 104.7602 42.2252 42.8834 0.0000 6.2869 0.0000
# 2 42.2252 105.5817 38.3000 0.0000 2.4606 0.0000
# 3 42.8834 38.3000 113.4380 0.0000 20.2170 0.0000
# 4 0.0000 0.0000 0.0000 49.9383 0.0000 -8.7192
# 5 6.2869 2.4606 20.2170 0.0000 30.7886 0.0000
# 6 0.0000 0.0000 0.0000 -8.7192 0.0000 29.6737
#
#
#
# Elastic Compliance Matrix: (Units=1/GPa)
#
#
# Indices 1 2 3 4 5 6 
#
# 1 0.012463 -0.003731 -0.003456 0.000000 0.000022 0.000000
# 2 -0.003731 0.011993 -0.002949 0.000000 0.001740 0.000000
# 3 -0.003456 -0.002949 0.012401 0.000000 -0.007202 0.000000
# 4 0.000000 0.000000 0.000000 0.021108 0.000000 0.006202
# 5 0.000022 0.001740 -0.007202 0.000000 0.037065 0.000000
# 6 0.000000 0.000000 0.000000 0.006202 0.000000 0.035522
#
#
# Mechanical properties :
#
#
# Convention : Reuss Voigt Hill
#
# Bulk Modulus (GPa) = 60.29418 63.39967 61.84692
# Shear Modulus (GPa) = 31.97958 35.43822 33.70890
#
# Velocity S-wave (km/s) = 3.82925 4.03100 3.93142
# Velocity P-wave (km/s) = 6.86998 7.12285 6.99756
#
# Compressibility (1/GPa) = 0.01658535
#
# Stress axis : x y z
#
# Youngs Moduli (GPa) = 80.23936 83.38472 80.64070
#
# Poissons Ratio (x) = 0.31113 0.27866
# Poissons Ratio (y) = 0.29939 0.23777
# Poissons Ratio (z) = 0.27727 0.24586
#
# Static dielectric constant tensor:
#      x y z
#    x 3.921110 0.000000 0.027380 
#    y 0.000000 4.313080 0.000000 
#    z 0.027380 0.000000 3.683870 
# 
# 
# High freq. dielectric constant tensor:
#      x y z
#    x 1.864520 0.000000 0.006090 
#    y 0.000000 1.876690 0.000000 
#    z 0.006090 0.000000 1.839740 
# 
# From -- ./inp_files/50310.got.cif
#   From: 2010.03.12/outbox.cif.g09.slc.cpg/sg5_26_cif.got.tgz:50310.got - 2010.03.31 09:47:26.
