data_PCOD8050184
_publ_section_title
;
Structure prediction by ZEFSAII (Michael W. Deem and Ramdas Pophale) SiO2 
 PCOD8050184
Probable space group: C 2
;
_chemical_formula_sum "Si O2"
_cell_formula_units_Z 32
_cell_length_a 18.406609
_cell_length_b 14.981881
_cell_length_c 11.904643
_cell_angle_alpha 90.000000
_cell_angle_beta 151.514702
_cell_angle_gamma 90.000000
_cell_volume 1565.720001
_symmetry_space_group_name_H-M "C 2"
_symmetry_group_IT_number 5
_symmetry_cell_setting 'monoclinic'
loop_
_space_group_symop_operation_xyz
x,y,z
-x,y,-z
1/2+x,1/2+y,z
1/2-x,1/2+y,-z
loop_
_atom_site_type_symbol
_atom_site_label
_atom_site_fract_x
_atom_site_fract_y
_atom_site_fract_z
Si Si1 0.055953 0.748880 0.414517
Si Si2 0.253486 0.596677 0.318333
Si Si3 0.108371 0.934099 0.388459
Si Si4 0.750272 0.712154 0.122641
Si Si5 0.973043 0.260129 0.596153
Si Si6 0.017852 0.596277 0.198740
Si Si7 0.162647 0.436307 0.491827
Si Si8 0.609483 0.550120 0.054692
O O1 0.026483 0.847468 0.327997
O O2 0.201910 0.760133 0.695610
O O3 0.092293 0.678079 0.367593
O O4 0.906145 0.705439 0.265730
O O5 0.342110 0.501913 0.444223
O O6 0.372376 0.676241 0.497677
O O7 0.128928 0.593472 0.244936
O O8 0.160170 0.610714 0.075347
O O9 0.250254 0.904872 0.502766
O O10 0.985650 0.979063 0.143114
O O11 0.682897 0.616656 0.064717
O O12 0.627410 0.763575 0.879557
O O13 0.887028 0.351090 0.505386
O O14 0.000000 0.252961 0.500000
O O15 0.022035 0.500716 0.267285
O O16 0.261196 0.496832 0.706879
O O17 0.500000 0.597500 0.000000
#
# Coordination Sequence:
#
# PCOD8050184 Si02
#       8
#     4   4   4   4   4   4   4   4
#     4  11  24  43  63  93 129 168 212 256 317 373
#     4  10  22  41  65  96 126 169 209 257 318 371
#     4  10  22  42  66  94 128 162 211 260 314 375
#     4  11  25  44  62  91 125 169 214 254 315 375
#     4  12  26  43  61  93 130 167 212 258 316 376
#     4  10  21  41  67  94 130 163 210 263 313 368
#     4  10  23  40  66  97 122 166 211 261 316 367
#     4  10  21  42  69  94 123 162 211 264 314 369
#
# _framework density 20.437881999999998
#
# number of rings (size 3 to 8) (size 9 to 14) (size 15 to 20)
#    0.000    1.500    2.500    1.500    5.250    2.000 
#    2.250    0.000    0.000    0.000    0.000    0.000 
#    0.000    0.000    0.000    0.000    0.000    0.000 
#
# Total GULP energy -198319.093026 kJ/mol
# GULP energy per Si atom -12394.943314 kJ/mol
# Density = 2.039136 g / cm^3
# Si number density = 20.437882 Si / 1000 Ang^3
#
#
#
# Elastic Constant Matrix: (Units=GPa)
#
#
# Indices 1 2 3 4 5 6 
#
# 1 308.6268 416.9757 382.8376 0.0000 43.7062 0.0000
# 2 416.9757 646.6036 521.4126 0.0000 82.0948 0.0000
# 3 382.8376 521.4126 589.2144 0.0000 64.7861 0.0000
# 4 0.0000 0.0000 0.0000 27.7431 0.0000 -14.1711
# 5 43.7062 82.0948 64.7861 0.0000 39.0839 0.0000
# 6 0.0000 0.0000 0.0000 -14.1711 0.0000 36.1864
#
#
#
# Elastic Compliance Matrix: (Units=1/GPa)
#
#
# Indices 1 2 3 4 5 6 
#
# 1 0.041431 -0.019203 -0.011332 0.000000 0.012790 0.000000
# 2 -0.019203 0.014925 0.000435 0.000000 -0.010596 0.000000
# 3 -0.011332 0.000435 0.009028 0.000000 -0.003206 0.000000
# 4 0.000000 0.000000 0.000000 0.045058 0.000000 0.017645
# 5 0.012790 -0.010596 -0.003206 0.000000 0.038853 0.000000
# 6 0.000000 0.000000 0.000000 0.017645 0.000000 0.034545
#
#
# Mechanical properties :
#
#
# Convention : Reuss Voigt Hill
#
# Bulk Modulus (GPa) = 192.96294 465.21075 329.08684
# Shear Modulus (GPa) = 20.34430 35.48392 27.91411
#
# Velocity S-wave (km/s) = 3.15845 4.17127 3.69969
# Velocity P-wave (km/s) = 10.38848 15.85293 13.40216
#
# Compressibility (1/GPa) = 0.00518234
#
# Stress axis : x y z
#
# Youngs Moduli (GPa) = 24.13645 67.00253 110.76898
#
# Poissons Ratio (x) = 1.28668 1.25525
# Poissons Ratio (y) = 0.46350 -0.04817
# Poissons Ratio (z) = 0.27352 -0.02914
#
# Static dielectric constant tensor:
#      x y z
#    x 3.730930 0.000000 -0.195670 
#    y 0.000000 2.572860 0.000000 
#    z -0.195670 0.000000 4.153590 
# 
# 
# High freq. dielectric constant tensor:
#      x y z
#    x 1.791990 0.000000 -0.011790 
#    y 0.000000 1.793480 0.000000 
#    z -0.011790 0.000000 1.818200 
# 
# From -- ./inp_files/44986.got.cif
#   From: 2010.03.12/outbox.cif.g09.slc.cpg/sg5_23_cif.got.tgz:44986.got - 2010.03.31 09:47:26.
