data_PCOD8050299
_publ_section_title
;
Structure prediction by ZEFSAII (Michael W. Deem and Ramdas Pophale) SiO2 
 PCOD8050299
Probable space group: C 2
;
_chemical_formula_sum "Si O2"
_cell_formula_units_Z 20
_cell_length_a 12.002381
_cell_length_b 8.030773
_cell_length_c 17.430891
_cell_angle_alpha 90.000000
_cell_angle_beta 31.342085
_cell_angle_gamma 90.000000
_cell_volume 873.916828
_symmetry_space_group_name_H-M "C 2"
_symmetry_group_IT_number 5
_symmetry_cell_setting 'monoclinic'
loop_
_space_group_symop_operation_xyz
x,y,z
-x,y,-z
1/2+x,1/2+y,z
1/2-x,1/2+y,-z
loop_
_atom_site_type_symbol
_atom_site_label
_atom_site_fract_x
_atom_site_fract_y
_atom_site_fract_z
Si Si1 0.338878 0.203460 0.204914
Si Si2 0.311774 0.691748 0.872104
Si Si3 0.354400 0.409588 0.340133
Si Si4 0.708066 0.854545 0.699043
Si Si5 0.065807 0.697618 0.567344
O O1 0.228306 0.259187 0.190611
O O2 0.283810 0.346799 0.297997
O O3 0.242189 0.030059 0.291307
O O4 0.591615 0.173656 0.046760
O O5 0.427962 0.514161 0.796411
O O6 0.455601 0.820094 0.836549
O O7 0.163993 0.517812 0.489733
O O8 0.401337 0.244684 0.363133
O O9 0.815729 0.842284 0.551816
O O10 0.814801 0.709205 0.690269
#
# Coordination Sequence:
#
# PCOD8050299 Si02
#       5
#     4   4   4   4   4
#     4  11  22  43  71  91 135 182 215 273 329 387
#     4  10  23  43  66 100 129 174 231 264 327 398
#     4  11  22  44  68 100 133 177 217 277 330 392
#     4  10  21  44  63  95 140 166 220 276 321 397
#     4  10  22  42  66  98 134 173 223 268 338 394
#
# _framework density 22.885473000000001
#
# number of rings (size 3 to 8) (size 9 to 14) (size 15 to 20)
#    0.000    1.600    2.000    2.400    0.000    0.000 
#   39.600    0.000    0.000    0.000    0.000    0.000 
#    0.000    0.000    0.000    0.000    0.000    0.000 
#
# Total GULP energy -123986.038786 kJ/mol
# GULP energy per Si atom -12398.603879 kJ/mol
# Density = 2.283338 g / cm^3
# Si number density = 22.885473 Si / 1000 Ang^3
#
#
#
# Elastic Constant Matrix: (Units=GPa)
#
#
# Indices 1 2 3 4 5 6 
#
# 1 121.9157 48.0979 34.2267 0.0012 -5.9095 0.0006
# 2 48.0979 90.7196 27.3536 0.0007 2.7110 0.0011
# 3 34.2267 27.3536 57.7904 0.0003 -11.8068 0.0017
# 4 0.0012 0.0007 0.0003 33.8979 -0.0002 3.2144
# 5 -5.9095 2.7110 -11.8068 -0.0002 43.6671 -0.0003
# 6 0.0006 0.0011 0.0017 3.2144 -0.0003 34.5713
#
#
#
# Elastic Compliance Matrix: (Units=1/GPa)
#
#
# Indices 1 2 3 4 5 6 
#
# 1 0.011309 -0.004707 -0.004337 0.000000 0.000650 0.000000
# 2 -0.004707 0.015100 -0.004954 0.000000 -0.002914 0.000000
# 3 -0.004337 -0.004954 0.023456 0.000000 0.006063 -0.000001
# 4 0.000000 0.000000 0.000000 0.029763 0.000000 -0.002767
# 5 0.000650 -0.002914 0.006063 0.000000 0.024809 0.000000
# 6 0.000000 0.000000 -0.000001 -0.002767 0.000000 0.029183
#
#
# Mechanical properties :
#
#
# Convention : Reuss Voigt Hill
#
# Bulk Modulus (GPa) = 45.73031 54.42024 50.07528
# Shear Modulus (GPa) = 29.60250 33.14375 31.37313
#
# Velocity S-wave (km/s) = 3.60044 3.80971 3.70655
# Velocity P-wave (km/s) = 6.10818 6.57137 6.34400
#
# Compressibility (1/GPa) = 0.02186733
#
# Stress axis : x y z
#
# Youngs Moduli (GPa) = 88.42893 66.22646 42.63313
#
# Poissons Ratio (x) = 0.31176 0.18488
# Poissons Ratio (y) = 0.41627 0.21122
# Poissons Ratio (z) = 0.38348 0.32811
#
# Static dielectric constant tensor:
#      x y z
#    x 4.398360 0.000000 -0.155110 
#    y 0.000000 3.760560 0.000000 
#    z -0.155110 0.000000 4.017610 
# 
# 
# High freq. dielectric constant tensor:
#      x y z
#    x 1.922070 0.000000 -0.010050 
#    y 0.000000 1.885660 0.000000 
#    z -0.010050 0.000000 1.892460 
# 
# From -- ./inp_files/60283.got.cif
#   From: 2010.03.12/outbox.cif.g09.slc.cpg/sg5_31_cif.got.tgz:60283.got - 2010.03.31 09:47:26.
