data_PCOD8050119
_publ_section_title
;
Structure prediction by ZEFSAII (Michael W. Deem and Ramdas Pophale) SiO2 
 PCOD8050119
Probable space group: C 2
;
_chemical_formula_sum "Si O2"
_cell_formula_units_Z 24
_cell_length_a 33.603308
_cell_length_b 5.117448
_cell_length_c 18.013020
_cell_angle_alpha 90.000000
_cell_angle_beta 157.366940
_cell_angle_gamma 90.000000
_cell_volume 1192.033928
_symmetry_space_group_name_H-M "C 2"
_symmetry_group_IT_number 5
_symmetry_cell_setting 'monoclinic'
loop_
_space_group_symop_operation_xyz
x,y,z
-x,y,-z
1/2+x,1/2+y,z
1/2-x,1/2+y,-z
loop_
_atom_site_type_symbol
_atom_site_label
_atom_site_fract_x
_atom_site_fract_y
_atom_site_fract_z
Si Si1 0.842273 0.539580 0.920782
Si Si2 0.701691 0.541134 0.227746
Si Si3 0.286939 0.857137 0.525052
Si Si4 0.837906 0.471656 0.081984
Si Si5 0.606962 0.471800 0.731814
Si Si6 0.989083 0.329905 0.063667
O O1 0.874897 0.489010 0.061161
O O2 0.945106 0.544443 0.046021
O O3 0.789746 0.820988 0.821210
O O4 0.765406 0.311022 0.757005
O O5 0.772731 0.461338 0.417924
O O6 0.586811 0.577893 0.064991
O O7 0.215790 0.608613 0.424247
O O8 0.399712 0.731099 0.719665
O O9 0.890834 0.703732 0.218999
O O10 0.886082 0.208818 0.198401
O O11 0.712082 0.482439 0.863511
O O12 0.500000 0.488397 0.500000
O O13 0.000000 0.449033 0.000000
#
# Coordination Sequence:
#
# PCOD8050119 Si02
#       6
#     4   4   4   4   4   4
#     4  10  22  41  60  86 127 159 199 256 308 348
#     4  10  22  39  55  85 116 158 204 249 309 354
#     4  12  23  38  61  85 113 156 218 261 303 364
#     4  10  21  41  63  94 129 156 201 252 297 368
#     4  10  21  40  68  94 123 163 198 242 306 373
#     4  10  22  40  60  83 121 165 203 257 301 351
#
# _framework density 20.133655999999998
#
# number of rings (size 3 to 8) (size 9 to 14) (size 15 to 20)
#    1.000    0.667    1.667    3.500    2.333    0.667 
#    6.000    0.000    0.000    0.000    0.000    0.000 
#    0.000    0.000    0.000    0.000    0.000    0.000 
#
# Total GULP energy -148659.275646 kJ/mol
# GULP energy per Si atom -12388.272970 kJ/mol
# Density = 2.008783 g / cm^3
# Si number density = 20.133656 Si / 1000 Ang^3
#
#
#
# Elastic Constant Matrix: (Units=GPa)
#
#
# Indices 1 2 3 4 5 6 
#
# 1 92.2414 11.9371 26.1383 -0.0002 -19.9277 0.0000
# 2 11.9371 88.5496 1.9565 -0.0020 2.8411 -0.0001
# 3 26.1383 1.9565 119.5144 -0.0010 0.5881 -0.0001
# 4 -0.0002 -0.0020 -0.0010 8.6235 0.0003 -4.8290
# 5 -19.9277 2.8411 0.5881 0.0003 22.9124 0.0000
# 6 0.0000 -0.0001 -0.0001 -4.8290 0.0000 5.2227
#
#
#
# Elastic Compliance Matrix: (Units=1/GPa)
#
#
# Indices 1 2 3 4 5 6 
#
# 1 0.014982 -0.002377 -0.003304 -0.000002 0.013410 -0.000003
# 2 -0.002377 0.011719 0.000345 0.000006 -0.003529 0.000006
# 3 -0.003304 0.000345 0.009100 0.000003 -0.003150 0.000003
# 4 -0.000002 0.000006 0.000003 0.240468 -0.000006 0.222339
# 5 0.013410 -0.003529 -0.003150 -0.000006 0.055826 -0.000007
# 6 -0.000003 0.000006 0.000003 0.222339 -0.000007 0.397047
#
#
# Mechanical properties :
#
#
# Convention : Reuss Voigt Hill
#
# Bulk Modulus (GPa) = 39.79289 42.26327 41.02808
# Shear Modulus (GPa) = 6.68281 24.70329 15.69305
#
# Velocity S-wave (km/s) = 1.82385 3.50661 2.79488
# Velocity P-wave (km/s) = 4.92367 6.11817 5.55313
#
# Compressibility (1/GPa) = 0.02513012
#
# Stress axis : x y z
#
# Youngs Moduli (GPa) = 66.74716 85.33053 109.89538
#
# Poissons Ratio (x) = 0.20282 0.36306
# Poissons Ratio (y) = 0.15865 -0.03795
# Poissons Ratio (z) = 0.22051 -0.02947
#
# Static dielectric constant tensor:
#      x y z
#    x 3.500010 0.000000 -0.026560 
#    y 0.000000 3.712170 0.000000 
#    z -0.026560 0.000000 3.503630 
# 
# 
# High freq. dielectric constant tensor:
#      x y z
#    x 1.770490 0.000000 -0.016350 
#    y 0.000000 1.796920 0.000000 
#    z -0.016350 0.000000 1.774290 
# 
# From -- ./inp_files/58331.got.cif
#   From: 2010.03.12/outbox.cif.g09.slc.cpg/sg5_30_cif.got.tgz:58331.got - 2010.03.31 09:47:26.
