data_PCOD8050692
_publ_section_title
;
Structure prediction by ZEFSAII (Michael W. Deem and Ramdas Pophale) SiO2 
 PCOD8050692
Probable space group: C 2
;
_chemical_formula_sum "Si O2"
_cell_formula_units_Z 32
_cell_length_a 10.307760
_cell_length_b 9.127477
_cell_length_c 24.513508
_cell_angle_alpha 90.000000
_cell_angle_beta 38.999199
_cell_angle_gamma 90.000000
_cell_volume 1451.392307
_symmetry_space_group_name_H-M "C 2"
_symmetry_group_IT_number 5
_symmetry_cell_setting 'monoclinic'
loop_
_space_group_symop_operation_xyz
x,y,z
-x,y,-z
1/2+x,1/2+y,z
1/2-x,1/2+y,-z
loop_
_atom_site_type_symbol
_atom_site_label
_atom_site_fract_x
_atom_site_fract_y
_atom_site_fract_z
Si Si1 0.574863 0.453370 0.280057
Si Si2 0.715445 0.745028 0.409794
Si Si3 0.175195 0.548835 0.985652
Si Si4 0.235893 0.917208 0.414486
Si Si5 0.559016 0.486566 0.792234
Si Si6 0.218561 0.875963 0.947158
Si Si7 0.394700 0.758424 0.674889
Si Si8 0.900744 0.312971 0.243970
O O1 0.385312 0.365646 0.370122
O O2 0.565241 0.423498 0.218949
O O3 0.569285 0.626171 0.294835
O O4 0.787224 0.389863 0.231139
O O5 0.500000 0.812364 0.500000
O O6 0.759759 0.588008 0.422597
O O7 0.702316 0.706407 0.349879
O O8 0.402410 0.500264 0.892873
O O9 0.164644 0.723633 0.995081
O O10 0.153162 0.479313 0.053076
O O11 0.000000 0.494157 0.000000
O O12 0.380708 0.830380 0.409533
O O13 0.323617 0.881226 0.325713
O O14 0.000000 0.866159 0.500000
O O15 0.743025 0.379575 0.751159
O O16 0.653324 0.641330 0.741831
O O17 0.357441 0.844410 0.847659
O O18 0.000000 0.948113 0.000000
#
# Coordination Sequence:
#
# PCOD8050692 Si02
#       8
#     4   4   4   4   4   4   4   4
#     4  11  22  41  62  92 123 167 213 259 317 381
#     4  10  24  41  61  92 126 166 213 268 318 376
#     4  10  22  42  65  95 129 167 211 266 320 391
#     4  11  24  42  63  93 128 168 213 260 322 380
#     4  10  23  40  64  92 126 168 211 258 323 382
#     4  10  24  42  65  96 129 167 214 266 326 385
#     4  11  23  40  63  92 122 171 212 259 318 385
#     4  11  22  42  64  91 131 168 207 268 319 380
#
# _framework density 22.047796999999999
#
# number of rings (size 3 to 8) (size 9 to 14) (size 15 to 20)
#    0.000    1.500    2.500    1.500    3.500    3.000 
#    0.000    0.000    0.000    0.000    0.000    0.000 
#    0.000    0.000    0.000    0.000    0.000    0.000 
#
# Total GULP energy -198385.902002 kJ/mol
# GULP energy per Si atom -12399.118875 kJ/mol
# Density = 2.199762 g / cm^3
# Si number density = 22.047797 Si / 1000 Ang^3
#
#
#
# Elastic Constant Matrix: (Units=GPa)
#
#
# Indices 1 2 3 4 5 6 
#
# 1 76.4889 24.6181 13.8080 0.0000 -15.8913 0.0000
# 2 24.6181 86.3535 24.2133 0.0000 -13.6630 0.0000
# 3 13.8080 24.2133 93.1286 -0.0001 -9.2478 0.0001
# 4 0.0000 0.0000 -0.0001 27.2506 0.0001 -4.5428
# 5 -15.8913 -13.6630 -9.2478 0.0001 34.9780 0.0000
# 6 0.0000 0.0000 0.0001 -4.5428 0.0000 35.2208
#
#
#
# Elastic Compliance Matrix: (Units=1/GPa)
#
#
# Indices 1 2 3 4 5 6 
#
# 1 0.015432 -0.003281 -0.000889 0.000000 0.005494 0.000000
# 2 -0.003281 0.013797 -0.002787 0.000000 0.003162 0.000000
# 3 -0.000889 -0.002787 0.011755 0.000000 0.001615 0.000000
# 4 0.000000 0.000000 0.000000 0.037503 0.000000 0.004837
# 5 0.005494 0.003162 0.001615 0.000000 0.032748 0.000000
# 6 0.000000 0.000000 0.000000 0.004837 0.000000 0.029016
#
#
# Mechanical properties :
#
#
# Convention : Reuss Voigt Hill
#
# Bulk Modulus (GPa) = 36.94154 42.36112 39.65133
# Shear Modulus (GPa) = 30.63955 32.37866 31.50911
#
# Velocity S-wave (km/s) = 3.73190 3.83635 3.78448
# Velocity P-wave (km/s) = 5.94651 6.23526 6.09259
#
# Compressibility (1/GPa) = 0.02706979
#
# Stress axis : x y z
#
# Youngs Moduli (GPa) = 64.80145 72.47785 85.07250
#
# Poissons Ratio (x) = 0.23777 0.07567
# Poissons Ratio (y) = 0.21259 0.23709
# Poissons Ratio (z) = 0.05764 0.20199
#
# Static dielectric constant tensor:
#      x y z
#    x 3.923260 0.000000 -0.220390 
#    y 0.000000 3.949590 0.000000 
#    z -0.220390 0.000000 3.899290 
# 
# 
# High freq. dielectric constant tensor:
#      x y z
#    x 1.866440 0.000000 -0.011470 
#    y 0.000000 1.865050 0.000000 
#    z -0.011470 0.000000 1.867230 
# 
# From -- ./inp_files/52450.got.cif
#   From: 2010.03.12/outbox.cif.g09.slc.cpg/sg5_27_cif.got.tgz:52450.got - 2010.03.31 09:47:26.
