data_PCOD8050274
_publ_section_title
;
Structure prediction by ZEFSAII (Michael W. Deem and Ramdas Pophale) SiO2 
 PCOD8050274
Probable space group: C 2
;
_chemical_formula_sum "Si O2"
_cell_formula_units_Z 22
_cell_length_a 7.586006
_cell_length_b 24.263406
_cell_length_c 5.415127
_cell_angle_alpha 90.000000
_cell_angle_beta 70.272170
_cell_angle_gamma 90.000000
_cell_volume 938.220121
_symmetry_space_group_name_H-M "C 2"
_symmetry_group_IT_number 5
_symmetry_cell_setting 'monoclinic'
loop_
_space_group_symop_operation_xyz
x,y,z
-x,y,-z
1/2+x,1/2+y,z
1/2-x,1/2+y,-z
loop_
_atom_site_type_symbol
_atom_site_label
_atom_site_fract_x
_atom_site_fract_y
_atom_site_fract_z
Si Si1 0.781161 0.253250 0.649647
Si Si2 0.883614 0.459474 0.799091
Si Si3 0.222588 0.127577 0.381985
Si Si4 0.500000 0.323722 0.500000
Si Si5 0.789805 0.347517 0.999507
Si Si6 0.785292 0.073820 0.110409
O O1 0.714010 0.190460 0.691198
O O2 0.670745 0.284017 0.489787
O O3 0.734365 0.287759 0.917957
O O4 0.000000 0.257797 0.500000
O O5 0.788407 0.399170 0.809574
O O6 0.731580 0.507971 0.877747
O O7 0.000000 0.471505 0.500000
O O8 0.000000 0.459761 0.000000
O O9 0.305248 0.102475 0.600638
O O10 0.000000 0.122056 0.500000
O O11 0.306394 0.095570 0.103445
O O12 0.387713 0.362852 0.742131
O O13 0.000000 0.343307 0.000000
O O14 0.000000 0.091333 0.000000
#
# Coordination Sequence:
#
# PCOD8050274 Si02
#       6
#     4   4   4   2   4   4
#     4  11  23  44  71 101 147 190 233 301 356 426
#     4  11  25  46  70 100 140 186 231 288 363 418
#     4   9  21  39  69  98 139 184 229 283 359 417
#     4  12  26  44  70 110 132 192 246 282 366 440
#     4  11  25  46  72 101 148 189 238 298 366 424
#     4  10  21  43  67 101 133 182 236 285 345 421
#
# _framework density 23.448657000000001
#
# number of rings (size 3 to 8) (size 9 to 14) (size 15 to 20)
#    0.000    1.455    1.818    2.182    5.091    2.182 
#    9.818    0.000    0.000    0.000    0.000    0.000 
#    0.000    0.000    0.000    0.000    0.000    0.000 
#
# Total GULP energy -136271.196704 kJ/mol
# GULP energy per Si atom -12388.290609 kJ/mol
# Density = 2.339529 g / cm^3
# Si number density = 23.448657 Si / 1000 Ang^3
#
#
#
# Elastic Constant Matrix: (Units=GPa)
#
#
# Indices 1 2 3 4 5 6 
#
# 1 54.0603 8.8487 23.8472 0.0000 -11.6040 0.0000
# 2 8.8487 166.0273 52.0495 0.0000 4.8876 0.0000
# 3 23.8472 52.0495 157.3377 0.0000 20.3911 0.0000
# 4 0.0000 0.0000 0.0000 -49.2056 0.0000 -64.5690
# 5 -11.6040 4.8876 20.3911 0.0000 32.3375 0.0000
# 6 0.0000 0.0000 0.0000 -64.5690 0.0000 -18.1714
#
#
#
# Elastic Compliance Matrix: (Units=1/GPa)
#
#
# Indices 1 2 3 4 5 6 
#
# 1 0.023162 -0.000006 -0.004994 0.000000 0.011461 0.000000
# 2 -0.000006 0.006725 -0.002278 0.000000 0.000418 0.000000
# 3 -0.004994 -0.002278 0.008771 0.000000 -0.006978 0.000000
# 4 0.000000 0.000000 0.000000 0.005548 0.000000 -0.019716
# 5 0.011461 0.000418 -0.006978 0.000000 0.039374 0.000000
# 6 0.000000 0.000000 0.000000 -0.019716 0.000000 0.015025
#
#
# Mechanical properties :
#
#
# Convention : Reuss Voigt Hill
#
# Bulk Modulus (GPa) = 41.49111 60.76845 51.12978
# Shear Modulus (GPa) = 41.25580 12.50409 26.87994
#
# Velocity S-wave (km/s) = 4.19908 2.31173 3.38943
# Velocity P-wave (km/s) = 6.42204 5.75302 6.09672
#
# Compressibility (1/GPa) = 0.02410155
#
# Stress axis : x y z
#
# Youngs Moduli (GPa) = 43.17413 148.69230 114.01660
#
# Poissons Ratio (x) = 0.00093 0.56939
# Poissons Ratio (y) = 0.00027 0.25973
# Poissons Ratio (z) = 0.21561 0.33872
#
# Static dielectric constant tensor:
#      x y z
#    x 3.626400 0.000000 0.362230 
#    y 0.000000 4.408910 0.000000 
#    z 0.362230 0.000000 4.338740 
# 
# 
# High freq. dielectric constant tensor:
#      x y z
#    x 1.920030 0.000000 -0.001690 
#    y 0.000000 1.933380 0.000000 
#    z -0.001690 0.000000 1.934860 
# 
# From -- ./inp_files/3344.got.cif
#   From: 2010.03.12/outbox.cif.g09.slc.cpg/sg5_2_cif.got.tgz:3344.got - 2010.03.31 09:47:26.
