data_PCOD8050088
_publ_section_title
;
Structure prediction by ZEFSAII (Michael W. Deem and Ramdas Pophale) SiO2 
 PCOD8050088
Probable space group: C 2
;
_chemical_formula_sum "Si O2"
_cell_formula_units_Z 24
_cell_length_a 5.185123
_cell_length_b 19.093442
_cell_length_c 11.445732
_cell_angle_alpha 90.000000
_cell_angle_beta 63.059374
_cell_angle_gamma 90.000000
_cell_volume 1010.175341
_symmetry_space_group_name_H-M "C 2"
_symmetry_group_IT_number 5
_symmetry_cell_setting 'monoclinic'
loop_
_space_group_symop_operation_xyz
x,y,z
-x,y,-z
1/2+x,1/2+y,z
1/2-x,1/2+y,-z
loop_
_atom_site_type_symbol
_atom_site_label
_atom_site_fract_x
_atom_site_fract_y
_atom_site_fract_z
Si Si1 0.403942 0.285490 0.846078
Si Si2 0.680720 0.615080 0.275572
Si Si3 0.500000 0.902792 0.000000
Si Si4 0.000000 0.668192 0.000000
Si Si5 0.768028 0.455900 0.275566
Si Si6 0.383897 0.197326 0.645876
Si Si7 0.175519 0.373647 0.354116
O O1 0.263882 0.262952 0.748447
O O2 0.739297 0.308021 0.748458
O O3 0.275150 0.351677 0.940394
O O4 0.344042 0.219308 0.940415
O O5 0.786804 0.619450 0.118667
O O6 0.682298 0.535492 0.317694
O O7 0.352155 0.640171 0.340482
O O8 0.866164 0.661546 0.326731
O O9 0.475883 0.951532 0.118666
O O10 0.480212 0.409461 0.326666
O O11 0.966591 0.430769 0.340529
O O12 0.500000 0.228417 0.500000
O O13 0.000000 0.342556 0.500000
#
# Coordination Sequence:
#
# PCOD8050088 Si02
#       7
#     4   4   2   2   4   4   4
#     4  10  22  40  68  94 130 166 212 270 324 384
#     4  11  24  42  66  94 128 169 213 264 319 382
#     4  10  21  40  64  94 125 164 212 264 324 378
#     4  10  21  40  64  94 125 164 212 264 324 378
#     4  11  24  42  66  94 128 169 213 264 319 382
#     4  11  25  42  65  96 128 170 214 262 322 382
#     4  11  25  42  65  96 128 170 214 262 322 382
#
# _framework density 23.758248999999999
#
# number of rings (size 3 to 8) (size 9 to 14) (size 15 to 20)
#    0.000    1.333    0.000    4.500    0.000   17.333 
#    0.000    6.667    0.000    0.000    0.000    0.000 
#    0.000    0.000    0.000    0.000    0.000    0.000 
#
# Total GULP energy -148701.879416 kJ/mol
# GULP energy per Si atom -12391.823285 kJ/mol
# Density = 2.370417 g / cm^3
# Si number density = 23.758249 Si / 1000 Ang^3
#
#
#
# Elastic Constant Matrix: (Units=GPa)
#
#
# Indices 1 2 3 4 5 6 
#
# 1 118.8818 27.3633 31.7465 0.0000 -0.0113 0.0000
# 2 27.3633 80.9385 -0.8434 0.0000 0.0131 0.0000
# 3 31.7465 -0.8434 144.4435 0.0000 0.0476 0.0000
# 4 0.0000 0.0000 0.0000 15.1997 0.0000 0.0206
# 5 -0.0113 0.0131 0.0476 0.0000 28.2157 0.0000
# 6 0.0000 0.0000 0.0000 0.0206 0.0000 35.4509
#
#
#
# Elastic Compliance Matrix: (Units=1/GPa)
#
#
# Indices 1 2 3 4 5 6 
#
# 1 0.009754 -0.003320 -0.002163 0.000000 0.000009 0.000000
# 2 -0.003320 0.013486 0.000808 0.000000 -0.000009 0.000000
# 3 -0.002163 0.000808 0.007403 0.000000 -0.000014 0.000000
# 4 0.000000 0.000000 0.000000 0.065791 0.000000 -0.000038
# 5 0.000009 -0.000009 -0.000014 0.000000 0.035441 0.000000
# 6 0.000000 0.000000 0.000000 -0.000038 0.000000 0.028208
#
#
# Mechanical properties :
#
#
# Convention : Reuss Voigt Hill
#
# Bulk Modulus (GPa) = 46.96282 51.19963 49.08123
# Shear Modulus (GPa) = 28.32383 34.83976 31.58179
#
# Velocity S-wave (km/s) = 3.45652 3.83355 3.64991
# Velocity P-wave (km/s) = 5.97829 6.41809 6.20209
#
# Compressibility (1/GPa) = 0.02129344
#
# Stress axis : x y z
#
# Youngs Moduli (GPa) = 102.52716 74.15166 135.07571
#
# Poissons Ratio (x) = 0.24618 0.29218
# Poissons Ratio (y) = 0.34039 -0.10920
# Poissons Ratio (z) = 0.22177 -0.05995
#
# Static dielectric constant tensor:
#      x y z
#    x 4.224900 0.000000 0.000190 
#    y 0.000000 4.342170 0.000000 
#    z 0.000190 0.000000 4.991430 
# 
# 
# High freq. dielectric constant tensor:
#      x y z
#    x 1.925100 0.000000 0.000000 
#    y 0.000000 1.937270 0.000000 
#    z 0.000000 0.000000 1.966940 
# 
# From -- ./inp_files/33706.got.cif
#   From: 2010.03.12/outbox.cif.g09.slc.cpg/sg5_17_cif.got.tgz:33706.got - 2010.03.31 09:47:26.
