data_PCOD8050766
_publ_section_title
;
Structure prediction by ZEFSAII (Michael W. Deem and Ramdas Pophale) SiO2 
 PCOD8050766
Probable space group: C 2
;
_chemical_formula_sum "Si O2"
_cell_formula_units_Z 24
_cell_length_a 7.912297
_cell_length_b 9.270816
_cell_length_c 18.686913
_cell_angle_alpha 90.000000
_cell_angle_beta 47.582110
_cell_angle_gamma 90.000000
_cell_volume 1011.948660
_symmetry_space_group_name_H-M "C 2"
_symmetry_group_IT_number 5
_symmetry_cell_setting 'monoclinic'
loop_
_space_group_symop_operation_xyz
x,y,z
-x,y,-z
1/2+x,1/2+y,z
1/2-x,1/2+y,-z
loop_
_atom_site_type_symbol
_atom_site_label
_atom_site_fract_x
_atom_site_fract_y
_atom_site_fract_z
Si Si1 0.864970 0.198440 0.894424
Si Si2 0.233880 0.514017 0.052404
Si Si3 0.476622 0.774880 0.712878
Si Si4 0.095265 0.095478 0.552304
Si Si5 0.001644 0.771359 0.609219
Si Si6 0.367480 0.093451 0.769523
O O1 0.864477 0.354729 0.931903
O O2 0.813245 0.215219 0.824240
O O3 0.103074 0.120003 0.833482
O O4 0.689220 0.100681 0.991057
O O5 0.084492 0.587863 0.158972
O O6 0.500000 0.507956 0.000000
O O7 0.430053 0.681308 0.654958
O O8 0.742611 0.762319 0.657347
O O9 0.425706 0.942408 0.713812
O O10 0.347371 0.165185 0.483168
O O11 0.000000 0.111286 0.500000
O O12 0.107361 0.930252 0.573355
O O13 0.014047 0.718669 0.688756
#
# Coordination Sequence:
#
# PCOD8050766 Si02
#       6
#     4   4   4   4   4   4
#     4   9  19  36  62  88 121 160 197 246 298 354
#     4   9  18  36  58  87 122 157 199 245 295 353
#     4  10  22  43  63  87 122 160 203 249 298 354
#     4  12  25  39  60  89 120 157 202 253 303 357
#     4  11  23  41  62  88 121 159 201 249 302 357
#     4   9  19  39  63  87 121 159 197 246 299 355
#
# _framework density 23.716616999999999
#
# number of rings (size 3 to 8) (size 9 to 14) (size 15 to 20)
#    0.000    2.000    0.000    3.500    0.000    5.333 
#    0.000   21.667    0.000    0.000    0.000    0.000 
#    0.000    0.000    0.000    0.000    0.000    0.000 
#
# Total GULP energy -148727.293009 kJ/mol
# GULP energy per Si atom -12393.941084 kJ/mol
# Density = 2.366264 g / cm^3
# Si number density = 23.716617 Si / 1000 Ang^3
#
#
#
# Elastic Constant Matrix: (Units=GPa)
#
#
# Indices 1 2 3 4 5 6 
#
# 1 43.6818 52.5509 32.8258 0.0000 16.3546 0.0000
# 2 52.5509 176.4756 109.7181 0.0001 39.5507 0.0000
# 3 32.8258 109.7181 170.4141 0.0001 40.9023 -0.0001
# 4 0.0000 0.0001 0.0001 67.4711 -0.0001 5.0285
# 5 16.3546 39.5507 40.9023 -0.0001 25.7200 0.0001
# 6 0.0000 0.0000 -0.0001 5.0285 0.0001 26.8110
#
#
#
# Elastic Compliance Matrix: (Units=1/GPa)
#
#
# Indices 1 2 3 4 5 6 
#
# 1 0.037624 -0.009668 0.001862 0.000000 -0.012018 0.000000
# 2 -0.009668 0.013027 -0.005163 0.000000 -0.005674 0.000000
# 3 0.001862 -0.005163 0.011664 0.000000 -0.011794 0.000000
# 4 0.000000 0.000000 0.000000 0.015031 0.000000 -0.002819
# 5 -0.012018 -0.005674 -0.011794 0.000000 0.074003 0.000000
# 6 0.000000 0.000000 0.000000 -0.002819 0.000000 0.037827
#
#
# Mechanical properties :
#
#
# Convention : Reuss Voigt Hill
#
# Bulk Modulus (GPa) = 27.48982 86.75125 57.12053
# Shear Modulus (GPa) = 22.00312 37.03220 29.51766
#
# Velocity S-wave (km/s) = 3.04921 3.95580 3.53171
# Velocity P-wave (km/s) = 4.90030 7.58433 6.38495
#
# Compressibility (1/GPa) = 0.03637710
#
# Stress axis : x y z
#
# Youngs Moduli (GPa) = 26.57868 76.76404 85.73085
#
# Poissons Ratio (x) = 0.74213 -0.15960
# Poissons Ratio (y) = 0.25695 0.44264
# Poissons Ratio (z) = -0.04948 0.39634
#
# Static dielectric constant tensor:
#      x y z
#    x 3.777060 0.000000 0.326200 
#    y 0.000000 4.337120 0.000000 
#    z 0.326200 0.000000 5.353530 
# 
# 
# High freq. dielectric constant tensor:
#      x y z
#    x 1.902140 0.000000 0.007130 
#    y 0.000000 1.939630 0.000000 
#    z 0.007130 0.000000 1.976230 
# 
# From -- ./inp_files/49927.got.cif
#   From: 2010.03.12/outbox.cif.g09.slc.cpg/sg5_25_cif.got.tgz:49927.got - 2010.03.31 09:47:26.
