data_PCOD8050850
_publ_section_title
;
Structure prediction by ZEFSAII (Michael W. Deem and Ramdas Pophale) SiO2 
 PCOD8050850
Probable space group: C 2
;
_chemical_formula_sum "Si O2"
_cell_formula_units_Z 30
_cell_length_a 22.984039
_cell_length_b 8.597861
_cell_length_c 20.411740
_cell_angle_alpha 90.000000
_cell_angle_beta 161.229842
_cell_angle_gamma 90.000000
_cell_volume 1297.913811
_symmetry_space_group_name_H-M "C 2"
_symmetry_group_IT_number 5
_symmetry_cell_setting 'monoclinic'
loop_
_space_group_symop_operation_xyz
x,y,z
-x,y,-z
1/2+x,1/2+y,z
1/2-x,1/2+y,-z
loop_
_atom_site_type_symbol
_atom_site_label
_atom_site_fract_x
_atom_site_fract_y
_atom_site_fract_z
Si Si1 0.449681 0.316430 0.157248
Si Si2 0.548510 0.815785 0.750103
Si Si3 0.694144 0.442789 0.317013
Si Si4 0.939986 0.467738 0.101368
Si Si5 0.327324 0.528610 0.357957
Si Si6 0.455312 0.482476 0.288139
Si Si7 0.127694 0.261864 0.190398
Si Si8 0.000000 0.751213 0.000000
O O1 0.586460 0.438114 0.270228
O O2 0.495732 0.332277 0.284755
O O3 0.490235 0.148878 0.167577
O O4 0.241519 0.374702 0.927207
O O5 0.391372 0.862703 0.531072
O O6 0.497565 0.883363 0.766090
O O7 0.577103 0.632008 0.792460
O O8 0.724216 0.623964 0.332381
O O9 0.559929 0.357564 0.123756
O O10 0.038515 0.392728 0.143519
O O11 0.724183 0.448877 0.859796
O O12 0.500000 0.569470 0.500000
O O13 0.378190 0.537202 0.489432
O O14 0.265897 0.349729 0.288691
O O15 0.170584 0.642166 0.164361
O O16 0.000000 0.182834 0.000000
#
# Coordination Sequence:
#
# PCOD8050850 Si02
#       8
#     4   4   4   4   4   4   4   2
#     4  10  24  43  72 106 138 183 230 297 350 418
#     4  10  23  43  68 107 140 184 231 292 355 413
#     4  12  26  45  71 102 144 188 233 286 353 416
#     4  10  23  43  74 102 143 180 233 291 352 416
#     4  12  27  46  74 100 137 188 236 288 352 419
#     4  10  22  44  69 104 140 178 235 286 351 413
#     4  12  26  47  68 102 144 185 231 284 347 422
#     4  12  26  48  74 102 140 190 240 290 344 426
#
# _framework density 23.114017
#
# number of rings (size 3 to 8) (size 9 to 14) (size 15 to 20)
#    0.000    1.067    2.667    2.400    7.467    1.067 
#    2.400    0.667    0.000    0.000    0.000    0.000 
#    0.000    0.000    0.000    0.000    0.000    0.000 
#
# Total GULP energy -185857.056341 kJ/mol
# GULP energy per Si atom -12390.470423 kJ/mol
# Density = 2.306141 g / cm^3
# Si number density = 23.114017 Si / 1000 Ang^3
#
#
#
# Elastic Constant Matrix: (Units=GPa)
#
#
# Indices 1 2 3 4 5 6 
#
# 1 70.7084 30.6943 35.5862 -0.0037 11.7901 -0.0010
# 2 30.6943 99.5953 37.7742 -0.0022 5.1587 -0.0012
# 3 35.5862 37.7742 130.6292 -0.0095 -0.4880 -0.0036
# 4 -0.0037 -0.0022 -0.0095 29.5424 -0.0042 -12.3519
# 5 11.7901 5.1587 -0.4880 -0.0042 37.1932 -0.0016
# 6 -0.0010 -0.0012 -0.0036 -12.3519 -0.0016 36.8651
#
#
#
# Elastic Compliance Matrix: (Units=1/GPa)
#
#
# Indices 1 2 3 4 5 6 
#
# 1 0.018793 -0.003998 -0.003984 0.000000 -0.005455 0.000000
# 2 -0.003998 0.012225 -0.002448 0.000000 -0.000460 0.000000
# 3 -0.003984 -0.002448 0.009455 0.000003 0.001726 0.000002
# 4 0.000000 0.000000 0.000003 0.039364 0.000005 0.013189
# 5 -0.005455 -0.000460 0.001726 0.000005 0.028702 0.000003
# 6 0.000000 0.000000 0.000002 0.013189 0.000003 0.031545
#
#
# Mechanical properties :
#
#
# Convention : Reuss Voigt Hill
#
# Bulk Modulus (GPa) = 50.98592 56.56025 53.77309
# Shear Modulus (GPa) = 29.85411 33.84536 31.84973
#
# Velocity S-wave (km/s) = 3.59779 3.83074 3.71609
# Velocity P-wave (km/s) = 6.27416 6.63998 6.45966
#
# Compressibility (1/GPa) = 0.01961326
#
# Stress axis : x y z
#
# Youngs Moduli (GPa) = 53.21203 81.79947 105.76696
#
# Poissons Ratio (x) = 0.32705 0.42135
# Poissons Ratio (y) = 0.21275 0.25888
# Poissons Ratio (z) = 0.21198 0.20021
#
# Static dielectric constant tensor:
#      x y z
#    x 3.998830 0.000000 -0.059870 
#    y 0.000000 4.111290 0.000000 
#    z -0.059870 0.000000 4.429120 
# 
# 
# High freq. dielectric constant tensor:
#      x y z
#    x 1.906200 0.000000 -0.004640 
#    y 0.000000 1.908640 0.000000 
#    z -0.004640 0.000000 1.927110 
# 
# From -- ./inp_files/67402.got.cif
#   From: 2010.03.12/outbox.cif.g09.slc.cpg/sg5_34_cif.got.tgz:67402.got - 2010.03.31 09:47:26.
