data_PCOD8050270
_publ_section_title
;
Structure prediction by ZEFSAII (Michael W. Deem and Ramdas Pophale) SiO2 
 PCOD8050270
Probable space group: C 2
;
_chemical_formula_sum "Si O2"
_cell_formula_units_Z 30
_cell_length_a 29.995656
_cell_length_b 9.510780
_cell_length_c 11.131529
_cell_angle_alpha 90.000000
_cell_angle_beta 152.052361
_cell_angle_gamma 90.000000
_cell_volume 1488.302971
_symmetry_space_group_name_H-M "C 2"
_symmetry_group_IT_number 5
_symmetry_cell_setting 'monoclinic'
loop_
_space_group_symop_operation_xyz
x,y,z
-x,y,-z
1/2+x,1/2+y,z
1/2-x,1/2+y,-z
loop_
_atom_site_type_symbol
_atom_site_label
_atom_site_fract_x
_atom_site_fract_y
_atom_site_fract_z
Si Si1 0.050287 0.585670 0.294274
Si Si2 0.500000 0.543434 0.000000
Si Si3 0.178106 0.196378 0.320034
Si Si4 0.911038 0.093005 0.360519
Si Si5 0.811292 0.248381 0.914312
Si Si6 0.496070 0.881003 0.623526
Si Si7 0.651543 0.020016 0.299111
Si Si8 0.610712 0.383448 0.474615
O O1 0.067230 0.479796 0.444011
O O2 0.135297 0.565974 0.400209
O O3 0.051410 0.740945 0.354689
O O4 0.948276 0.547776 0.000201
O O5 0.423599 0.642582 0.880326
O O6 0.443115 0.453580 0.766070
O O7 0.190002 0.155413 0.208339
O O8 0.270241 0.111908 0.588647
O O9 0.185691 0.359041 0.373757
O O10 0.945591 0.230296 0.512692
O O11 0.000000 0.027193 0.500000
O O12 0.879614 0.978939 0.383432
O O13 0.828861 0.145477 0.071207
O O14 0.718166 0.342959 0.701679
O O15 0.893925 0.361429 0.080370
O O16 0.500000 0.945050 0.500000
#
# Coordination Sequence:
#
# PCOD8050270 Si02
#       8
#     4   2   4   4   4   4   4   4
#     4  11  23  41  62  99 134 176 215 276 335 404
#     4  12  26  40  70 100 138 184 224 272 352 414
#     4  12  24  44  67  96 132 176 224 275 339 408
#     4   9  22  44  69  92 127 178 229 280 339 395
#     4  10  21  43  65  96 130 172 227 282 322 402
#     4   9  20  42  68  88 126 173 224 276 337 394
#     4  11  25  41  67  96 135 172 221 276 339 409
#     4  12  25  41  68 102 141 175 227 286 339 400
#
# _framework density 20.157187
#
# number of rings (size 3 to 8) (size 9 to 14) (size 15 to 20)
#    0.000    1.600    2.667    4.000    3.733    2.667 
#    0.000    0.000    0.000    0.000    0.000    0.000 
#    0.000    0.000    0.000    0.000    0.000    0.000 
#
# Total GULP energy -185852.390077 kJ/mol
# GULP energy per Si atom -12390.159338 kJ/mol
# Density = 2.011131 g / cm^3
# Si number density = 20.157187 Si / 1000 Ang^3
#
#
#
# Elastic Constant Matrix: (Units=GPa)
#
#
# Indices 1 2 3 4 5 6 
#
# 1 116.8281 68.4348 35.5643 0.0000 8.1944 0.0000
# 2 68.4348 137.1846 40.8695 0.0000 7.3083 0.0000
# 3 35.5643 40.8695 67.4699 0.0000 20.2654 0.0000
# 4 0.0000 0.0000 0.0000 16.6273 0.0000 8.8878
# 5 8.1944 7.3083 20.2654 0.0000 34.1933 0.0000
# 6 0.0000 0.0000 0.0000 8.8878 0.0000 28.6015
#
#
#
# Elastic Compliance Matrix: (Units=1/GPa)
#
#
# Indices 1 2 3 4 5 6 
#
# 1 0.012736 -0.005304 -0.003558 0.000000 0.000190 0.000000
# 2 -0.005304 0.011173 -0.004425 0.000000 0.001505 0.000000
# 3 -0.003558 -0.004425 0.022916 0.000000 -0.011784 0.000000
# 4 0.000000 0.000000 0.000000 0.072122 0.000000 -0.022411
# 5 0.000190 0.001505 -0.011784 0.000000 0.035862 0.000000
# 6 0.000000 0.000000 0.000000 -0.022411 0.000000 0.041928
#
#
# Mechanical properties :
#
#
# Convention : Reuss Voigt Hill
#
# Bulk Modulus (GPa) = 49.37414 67.91331 58.64372
# Shear Modulus (GPa) = 21.73350 27.65867 24.69608
#
# Velocity S-wave (km/s) = 3.28716 3.70827 3.50405
# Velocity P-wave (km/s) = 6.24139 7.21804 6.74741
#
# Compressibility (1/GPa) = 0.02025352
#
# Stress axis : x y z
#
# Youngs Moduli (GPa) = 78.51754 89.50057 43.63714
#
# Poissons Ratio (x) = 0.47467 0.15525
# Poissons Ratio (y) = 0.41642 0.19308
# Poissons Ratio (z) = 0.27935 0.39600
#
# Static dielectric constant tensor:
#      x y z
#    x 4.274570 0.000000 -0.733780 
#    y 0.000000 3.599390 0.000000 
#    z -0.733780 0.000000 5.568060 
# 
# 
# High freq. dielectric constant tensor:
#      x y z
#    x 1.789630 0.000000 0.002900 
#    y 0.000000 1.781550 0.000000 
#    z 0.002900 0.000000 1.797910 
# 
# From -- ./inp_files/48364.got.cif
#   From: 2010.03.12/outbox.cif.g09.slc.cpg/sg5_25_cif.got.tgz:48364.got - 2010.03.31 09:47:26.
