data_PCOD8050922
_publ_section_title
;
Structure prediction by ZEFSAII (Michael W. Deem and Ramdas Pophale) SiO2 
 PCOD8050922
Probable space group: C 2
;
_chemical_formula_sum "Si O2"
_cell_formula_units_Z 18
_cell_length_a 4.949097
_cell_length_b 18.483434
_cell_length_c 9.361780
_cell_angle_alpha 90.000000
_cell_angle_beta 72.696471
_cell_angle_gamma 90.000000
_cell_volume 817.623386
_symmetry_space_group_name_H-M "C 2"
_symmetry_group_IT_number 5
_symmetry_cell_setting 'monoclinic'
loop_
_space_group_symop_operation_xyz
x,y,z
-x,y,-z
1/2+x,1/2+y,z
1/2-x,1/2+y,-z
loop_
_atom_site_type_symbol
_atom_site_label
_atom_site_fract_x
_atom_site_fract_y
_atom_site_fract_z
Si Si1 0.700185 0.416530 0.600898
Si Si2 0.772484 0.649065 0.214027
Si Si3 0.301584 0.075479 0.661144
Si Si4 0.500000 0.704917 0.000000
Si Si5 0.480347 0.293968 0.835102
O O1 0.500000 0.435956 0.500000
O O2 0.766034 0.489329 0.678668
O O3 0.525801 0.364107 0.732105
O O4 0.000000 0.383271 0.500000
O O5 0.498058 0.612120 0.325336
O O6 0.724181 0.653462 0.048826
O O7 0.053905 0.604407 0.215211
O O8 0.797356 0.733456 0.254961
O O9 0.500000 0.098733 0.500000
O O10 0.329441 0.757161 0.137309
O O11 0.500000 0.314128 0.000000
#
# Coordination Sequence:
#
# PCOD8050922 Si02
#       5
#     4   4   4   2   4
#     4  11  26  46  69 102 142 181 228 283 346 409
#     4  11  22  42  70  94 134 175 227 277 341 391
#     4  11  23  43  67  98 137 179 222 283 342 405
#     4  10  22  46  68 104 138 176 228 296 332 400
#     4  10  24  45  71 100 139 180 228 286 339 410
#
# _framework density 22.015027
#
# number of rings (size 3 to 8) (size 9 to 14) (size 15 to 20)
#    0.000    1.333    2.222    3.333    6.222    2.667 
#    2.000    0.000    0.000    0.000    0.000    0.000 
#    0.000    0.000    0.000    0.000    0.000    0.000 
#
# Total GULP energy -111523.430864 kJ/mol
# GULP energy per Si atom -12391.492318 kJ/mol
# Density = 2.196492 g / cm^3
# Si number density = 22.015027 Si / 1000 Ang^3
#
#
#
# Elastic Constant Matrix: (Units=GPa)
#
#
# Indices 1 2 3 4 5 6 
#
# 1 118.2414 34.1599 29.6204 0.0000 11.8520 0.0000
# 2 34.1599 125.5590 71.9220 0.0000 4.2055 0.0000
# 3 29.6204 71.9220 85.0314 0.0000 3.2035 0.0000
# 4 0.0000 0.0000 0.0000 31.9363 0.0000 -2.2495
# 5 11.8520 4.2055 3.2035 0.0000 46.7436 0.0000
# 6 0.0000 0.0000 0.0000 -2.2495 0.0000 24.3278
#
#
#
# Elastic Compliance Matrix: (Units=1/GPa)
#
#
# Indices 1 2 3 4 5 6 
#
# 1 0.009591 -0.001299 -0.002160 0.000000 -0.002167 0.000000
# 2 -0.001299 0.015637 -0.012766 0.000000 -0.000203 0.000000
# 3 -0.002160 -0.012766 0.023307 0.000000 0.000099 0.000000
# 4 0.000000 0.000000 0.000000 0.031518 0.000000 0.002914
# 5 -0.002167 -0.000203 0.000099 0.000000 0.021954 0.000000
# 6 0.000000 0.000000 0.000000 0.002914 0.000000 0.041375
#
#
# Mechanical properties :
#
#
# Convention : Reuss Voigt Hill
#
# Bulk Modulus (GPa) = 62.17458 66.69292 64.43375
# Shear Modulus (GPa) = 27.59455 33.47685 30.53570
#
# Velocity S-wave (km/s) = 3.54424 3.90376 3.72834
# Velocity P-wave (km/s) = 6.71208 7.11893 6.91850
#
# Compressibility (1/GPa) = 0.01608374
#
# Stress axis : x y z
#
# Youngs Moduli (GPa) = 104.26405 63.94938 42.90507
#
# Poissons Ratio (x) = 0.08309 0.09269
# Poissons Ratio (y) = 0.13547 0.54774
# Poissons Ratio (z) = 0.22525 0.81640
#
# Static dielectric constant tensor:
#      x y z
#    x 4.440070 0.000000 -0.021800 
#    y 0.000000 3.766030 0.000000 
#    z -0.021800 0.000000 3.796270 
# 
# 
# High freq. dielectric constant tensor:
#      x y z
#    x 1.897210 0.000000 -0.001590 
#    y 0.000000 1.849780 0.000000 
#    z -0.001590 0.000000 1.849390 
# 
# From -- ./inp_files/12285.got.cif
#   From: 2010.03.12/outbox.cif.g09.slc.cpg/sg5_7_cif.got.tgz:12285.got - 2010.03.31 09:47:26.
