data_PCOD8050904
_publ_section_title
;
Structure prediction by ZEFSAII (Michael W. Deem and Ramdas Pophale) SiO2 
 PCOD8050904
Probable space group: C 2
;
_chemical_formula_sum "Si O2"
_cell_formula_units_Z 28
_cell_length_a 11.723226
_cell_length_b 9.000870
_cell_length_c 13.856938
_cell_angle_alpha 90.000000
_cell_angle_beta 59.641790
_cell_angle_gamma 90.000000
_cell_volume 1261.683941
_symmetry_space_group_name_H-M "C 2"
_symmetry_group_IT_number 5
_symmetry_cell_setting 'monoclinic'
loop_
_space_group_symop_operation_xyz
x,y,z
-x,y,-z
1/2+x,1/2+y,z
1/2-x,1/2+y,-z
loop_
_atom_site_type_symbol
_atom_site_label
_atom_site_fract_x
_atom_site_fract_y
_atom_site_fract_z
Si Si1 0.736611 0.509720 0.811676
Si Si2 0.864165 0.353397 0.924545
Si Si3 0.419381 0.755630 0.392118
Si Si4 0.699379 0.329403 0.183265
Si Si5 0.376420 0.984428 0.253036
Si Si6 0.702691 0.760186 0.356135
Si Si7 0.499062 0.564335 0.802327
O O1 0.750109 0.413740 0.902584
O O2 0.829456 0.655653 0.784549
O O3 0.771511 0.422745 0.698096
O O4 0.581667 0.547702 0.866121
O O5 0.889671 0.188748 0.871775
O O6 0.992178 0.461871 0.868049
O O7 0.812841 0.346467 0.054489
O O8 0.563780 0.710941 0.370420
O O9 0.310045 0.760117 0.522369
O O10 0.396454 0.626164 0.322770
O O11 0.412804 0.916716 0.342613
O O12 0.753367 0.396327 0.259582
O O13 0.566138 0.411052 0.205764
O O14 0.327747 0.154479 0.278450
#
# Coordination Sequence:
#
# PCOD8050904 Si02
#       7
#     4   4   4   4   4   4   4
#     4  12  25  43  69 101 139 174 233 287 332 411
#     4  11  24  45  65  98 141 181 223 281 345 395
#     4  10  22  45  70  93 142 179 222 283 347 398
#     4  12  24  41  73  96 135 185 227 277 343 405
#     4  11  22  43  70  97 135 180 221 279 338 410
#     4  11  24  43  71  99 140 180 224 284 348 404
#     4  11  24  46  66  98 140 177 229 285 331 411
#
# _framework density 22.192563
#
# number of rings (size 3 to 8) (size 9 to 14) (size 15 to 20)
#    0.000    0.857    7.143    1.286    4.000    1.714 
#    0.000    0.000    9.429    0.000    0.000    0.000 
#    0.000    0.000    0.000    0.000    0.000    0.000 
#
# Total GULP energy -173538.674311 kJ/mol
# GULP energy per Si atom -12395.619594 kJ/mol
# Density = 2.214205 g / cm^3
# Si number density = 22.192563 Si / 1000 Ang^3
#
#
#
# Elastic Constant Matrix: (Units=GPa)
#
#
# Indices 1 2 3 4 5 6 
#
# 1 97.4747 51.0498 0.3000 0.0000 12.7707 0.0000
# 2 51.0498 150.8038 45.9491 0.0000 -5.5044 0.0000
# 3 0.3000 45.9491 97.6407 0.0000 3.3047 0.0000
# 4 0.0000 0.0000 0.0000 17.9792 0.0000 4.6990
# 5 12.7707 -5.5044 3.3047 0.0000 21.6798 0.0000
# 6 0.0000 0.0000 0.0000 4.6990 0.0000 49.0106
#
#
#
# Elastic Compliance Matrix: (Units=1/GPa)
#
#
# Indices 1 2 3 4 5 6 
#
# 1 0.015150 -0.006578 0.003425 0.000000 -0.011117 0.000000
# 2 -0.006578 0.010738 -0.005284 0.000000 0.007407 0.000000
# 3 0.003425 -0.005284 0.012898 0.000000 -0.005325 0.000000
# 4 0.000000 0.000000 0.000000 0.057049 0.000000 -0.005470
# 5 -0.011117 0.007407 -0.005325 0.000000 0.055366 0.000000
# 6 0.000000 0.000000 0.000000 -0.005470 0.000000 0.020928
#
#
# Mechanical properties :
#
#
# Convention : Reuss Voigt Hill
#
# Bulk Modulus (GPa) = 45.63494 60.05745 52.84620
# Shear Modulus (GPa) = 25.47027 34.30861 29.88944
#
# Velocity S-wave (km/s) = 3.39144 3.93612 3.67389
# Velocity P-wave (km/s) = 5.99530 6.91217 6.47000
#
# Compressibility (1/GPa) = 0.02191303
#
# Stress axis : x y z
#
# Youngs Moduli (GPa) = 66.00659 93.12568 77.53221
#
# Poissons Ratio (x) = 0.61258 -0.26557
# Poissons Ratio (y) = 0.43419 0.40966
# Poissons Ratio (z) = -0.22609 0.49206
#
# Static dielectric constant tensor:
#      x y z
#    x 4.137070 0.000000 0.222630 
#    y 0.000000 3.990440 0.000000 
#    z 0.222630 0.000000 3.941610 
# 
# 
# High freq. dielectric constant tensor:
#      x y z
#    x 1.883320 0.000000 0.019890 
#    y 0.000000 1.871570 0.000000 
#    z 0.019890 0.000000 1.854360 
# 
# From -- ./inp_files/52196.got.cif
#   From: 2010.03.12/outbox.cif.g09.slc.cpg/sg5_27_cif.got.tgz:52196.got - 2010.03.31 09:47:26.
