data_PCOD8050694
_publ_section_title
;
Structure prediction by ZEFSAII (Michael W. Deem and Ramdas Pophale) SiO2 
 PCOD8050694
Probable space group: C 2
;
_chemical_formula_sum "Si O2"
_cell_formula_units_Z 28
_cell_length_a 8.383307
_cell_length_b 14.017742
_cell_length_c 20.281515
_cell_angle_alpha 90.000000
_cell_angle_beta 147.118139
_cell_angle_gamma 90.000000
_cell_volume 1293.959121
_symmetry_space_group_name_H-M "C 2"
_symmetry_group_IT_number 5
_symmetry_cell_setting 'monoclinic'
loop_
_space_group_symop_operation_xyz
x,y,z
-x,y,-z
1/2+x,1/2+y,z
1/2-x,1/2+y,-z
loop_
_atom_site_type_symbol
_atom_site_label
_atom_site_fract_x
_atom_site_fract_y
_atom_site_fract_z
Si Si1 0.915942 0.383970 0.098029
Si Si2 0.242505 0.991007 0.307593
Si Si3 0.959564 0.802499 0.693804
Si Si4 0.207255 0.876267 0.165844
Si Si5 0.131960 0.570262 0.112334
Si Si6 0.283848 0.702358 0.270216
Si Si7 0.728803 0.635402 0.525345
O O1 0.864555 0.418175 0.155562
O O2 0.193926 0.314481 0.196156
O O3 0.980837 0.469309 0.070721
O O4 0.620233 0.337227 0.966101
O O5 0.198019 0.957775 0.217235
O O6 0.219430 0.902700 0.353308
O O7 0.540261 0.052716 0.412988
O O8 0.983676 0.064970 0.230985
O O9 0.932776 0.738903 0.748892
O O10 0.840306 0.739824 0.590484
O O11 0.390057 0.787223 0.258493
O O12 0.071692 0.633105 0.155489
O O13 0.000000 0.616761 0.000000
O O14 0.570839 0.653398 0.400806
O O15 0.500000 0.593407 0.500000
#
# Coordination Sequence:
#
# PCOD8050694 Si02
#       7
#     4   4   4   4   4   4   4
#     4  10  22  42  67  95 133 171 221 285 347 416
#     4  10  22  43  70  95 134 181 220 281 347 400
#     4   9  22  45  70  96 135 181 226 280 351 405
#     4  10  22  42  65  99 133 172 226 276 350 414
#     4  11  23  42  66  99 132 167 224 280 342 416
#     4  10  24  42  62  97 134 170 227 279 332 412
#     4  10  23  46  67  98 140 176 238 280 330 418
#
# _framework density 21.639015000000001
#
# number of rings (size 3 to 8) (size 9 to 14) (size 15 to 20)
#    0.000    2.000    1.429    0.000    8.000    0.571 
#   23.143    1.429    0.000    0.000    0.000    0.000 
#    0.000    0.000    0.000    0.000    0.000    0.000 
#
# Total GULP energy -173477.173763 kJ/mol
# GULP energy per Si atom -12391.226697 kJ/mol
# Density = 2.158976 g / cm^3
# Si number density = 21.639015 Si / 1000 Ang^3
#
#
#
# Elastic Constant Matrix: (Units=GPa)
#
#
# Indices 1 2 3 4 5 6 
#
# 1 86.9417 29.6538 55.8227 -0.0002 4.7436 -0.0001
# 2 29.6538 74.7668 44.5405 0.0002 1.2164 -0.0001
# 3 55.8227 44.5405 117.4779 0.0017 -7.6986 -0.0005
# 4 -0.0002 0.0002 0.0017 38.6798 0.0001 -1.3210
# 5 4.7436 1.2164 -7.6986 0.0001 46.3199 0.0000
# 6 -0.0001 -0.0001 -0.0005 -1.3210 0.0000 17.6016
#
#
#
# Elastic Compliance Matrix: (Units=1/GPa)
#
#
# Indices 1 2 3 4 5 6 
#
# 1 0.017290 -0.002324 -0.007529 0.000000 -0.002961 0.000000
# 2 -0.002324 0.017702 -0.005684 0.000000 -0.001171 0.000000
# 3 -0.007529 -0.005684 0.014462 -0.000001 0.003324 0.000000
# 4 0.000000 0.000000 -0.000001 0.025920 0.000000 0.001945
# 5 -0.002961 -0.001171 0.003324 0.000000 0.022475 0.000000
# 6 0.000000 0.000000 0.000000 0.001945 0.000000 0.056959
#
#
# Mechanical properties :
#
#
# Convention : Reuss Voigt Hill
#
# Bulk Modulus (GPa) = 54.40435 59.91338 57.15887
# Shear Modulus (GPa) = 26.04041 30.46489 28.25265
#
# Velocity S-wave (km/s) = 3.47277 3.75623 3.61728
# Velocity P-wave (km/s) = 6.42468 6.82350 6.62709
#
# Compressibility (1/GPa) = 0.01838088
#
# Stress axis : x y z
#
# Youngs Moduli (GPa) = 57.83606 56.49137 69.14462
#
# Poissons Ratio (x) = 0.13131 0.52057
# Poissons Ratio (y) = 0.13444 0.39300
# Poissons Ratio (z) = 0.43543 0.32108
#
# Static dielectric constant tensor:
#      x y z
#    x 4.087920 0.000000 -0.129200 
#    y 0.000000 3.804720 0.000000 
#    z -0.129200 0.000000 3.942210 
# 
# 
# High freq. dielectric constant tensor:
#      x y z
#    x 1.857610 0.000000 -0.012210 
#    y 0.000000 1.837380 0.000000 
#    z -0.012210 0.000000 1.850920 
# 
# From -- ./inp_files/64690.got.cif
#   From: 2010.03.12/outbox.cif.g09.slc.cpg/sg5_33_cif.got.tgz:64690.got - 2010.03.31 09:47:26.
