data_PCOD8050293
_publ_section_title
;
Structure prediction by ZEFSAII (Michael W. Deem and Ramdas Pophale) SiO2 
 PCOD8050293
Probable space group: C 2
;
_chemical_formula_sum "Si O2"
_cell_formula_units_Z 30
_cell_length_a 11.441295
_cell_length_b 14.988092
_cell_length_c 9.117774
_cell_angle_alpha 90.000000
_cell_angle_beta 111.257903
_cell_angle_gamma 90.000000
_cell_volume 1457.157971
_symmetry_space_group_name_H-M "C 2"
_symmetry_group_IT_number 5
_symmetry_cell_setting 'monoclinic'
loop_
_space_group_symop_operation_xyz
x,y,z
-x,y,-z
1/2+x,1/2+y,z
1/2-x,1/2+y,-z
loop_
_atom_site_type_symbol
_atom_site_label
_atom_site_fract_x
_atom_site_fract_y
_atom_site_fract_z
Si Si1 0.245462 0.341560 0.801654
Si Si2 0.369309 0.007831 0.391066
Si Si3 0.559086 0.541316 0.763550
Si Si4 0.625850 0.294474 0.415330
Si Si5 0.000000 0.911632 0.000000
Si Si6 0.862950 0.703840 0.286380
Si Si7 0.625650 0.716717 0.966880
Si Si8 0.339326 0.496079 0.484298
O O1 0.199814 0.441801 0.751211
O O2 0.268959 0.285805 0.663038
O O3 0.142116 0.293470 0.853607
O O4 0.379650 0.348019 0.940685
O O5 0.500000 0.965088 0.500000
O O6 0.295042 0.019024 0.510141
O O7 0.392209 0.099232 0.314319
O O8 0.613483 0.623522 0.878497
O O9 0.436922 0.563856 0.609143
O O10 0.664934 0.508212 0.694732
O O11 0.513554 0.468487 0.859152
O O12 0.490308 0.256511 0.299363
O O13 0.680924 0.238530 0.575041
O O14 0.610284 0.397112 0.455698
O O15 0.749214 0.717519 0.123112
O O16 0.500000 0.737836 0.000000
#
# Coordination Sequence:
#
# PCOD8050293 Si02
#       8
#     4   4   4   4   2   4   4   4
#     4  11  26  42  66  97 130 172 218 265 330 385
#     4  11  22  43  65  94 135 171 209 267 326 391
#     4  11  21  41  68  95 129 168 222 272 319 380
#     4  10  21  43  72  99 115 170 234 272 310 372
#     4  12  20  44  72  92 130 168 224 282 312 382
#     4  11  22  41  71  94 131 165 221 273 317 379
#     4  12  27  42  60 100 140 174 207 267 339 389
#     4  10  23  41  69 101 123 170 231 267 317 386
#
# _framework density 20.588021000000001
#
# number of rings (size 3 to 8) (size 9 to 14) (size 15 to 20)
#    0.000    1.067    4.667    4.000    3.733    2.133 
#    2.400    0.000    2.933    0.000    0.000    0.000 
#    0.000    0.000    0.000    0.000    0.000    0.000 
#
# Total GULP energy -185942.589807 kJ/mol
# GULP energy per Si atom -12396.172654 kJ/mol
# Density = 2.054116 g / cm^3
# Si number density = 20.588021 Si / 1000 Ang^3
#
#
#
# Elastic Constant Matrix: (Units=GPa)
#
#
# Indices 1 2 3 4 5 6 
#
# 1 129.4217 40.5383 43.8250 0.0000 -17.0833 0.0000
# 2 40.5383 84.2900 27.8172 0.0000 -6.2800 0.0000
# 3 43.8250 27.8172 106.8098 0.0000 -11.8131 0.0000
# 4 0.0000 0.0000 0.0000 22.2800 0.0000 -11.9833
# 5 -17.0833 -6.2800 -11.8131 0.0000 42.2365 0.0000
# 6 0.0000 0.0000 0.0000 -11.9833 0.0000 19.9817
#
#
#
# Elastic Compliance Matrix: (Units=1/GPa)
#
#
# Indices 1 2 3 4 5 6 
#
# 1 0.010262 -0.003764 -0.002923 0.000000 0.002773 0.000000
# 2 -0.003764 0.014402 -0.002206 0.000000 0.000002 0.000000
# 3 -0.002923 -0.002206 0.011320 0.000000 0.001655 0.000000
# 4 0.000000 0.000000 0.000000 0.066254 0.000000 0.039734
# 5 0.002773 0.000002 0.001655 0.000000 0.025261 0.000000
# 6 0.000000 0.000000 0.000000 0.039734 0.000000 0.073875
#
#
# Mechanical properties :
#
#
# Convention : Reuss Voigt Hill
#
# Bulk Modulus (GPa) = 54.95622 60.54251 57.74936
# Shear Modulus (GPa) = 22.19989 30.78903 26.49446
#
# Velocity S-wave (km/s) = 3.28730 3.87134 3.59121
# Velocity P-wave (km/s) = 6.41558 7.03232 6.73102
#
# Compressibility (1/GPa) = 0.01819630
#
# Stress axis : x y z
#
# Youngs Moduli (GPa) = 97.45060 69.43365 88.34177
#
# Poissons Ratio (x) = 0.26133 0.25827
# Poissons Ratio (y) = 0.36678 0.19491
# Poissons Ratio (z) = 0.28490 0.15319
#
# Static dielectric constant tensor:
#      x y z
#    x 3.857150 0.000000 -0.190550 
#    y 0.000000 3.658840 0.000000 
#    z -0.190550 0.000000 3.991710 
# 
# 
# High freq. dielectric constant tensor:
#      x y z
#    x 1.807050 0.000000 -0.009760 
#    y 0.000000 1.797500 0.000000 
#    z -0.009760 0.000000 1.811890 
# 
# From -- ./inp_files/20682.got.cif
#   From: 2010.03.12/outbox.cif.g09.slc.cpg/sg5_11_cif.got.tgz:20682.got - 2010.03.31 09:47:26.
