data_PCOD8050752
_publ_section_title
;
Structure prediction by ZEFSAII (Michael W. Deem and Ramdas Pophale) SiO2 
 PCOD8050752
Probable space group: C 2
;
_chemical_formula_sum "Si O2"
_cell_formula_units_Z 20
_cell_length_a 10.091375
_cell_length_b 14.735604
_cell_length_c 8.362548
_cell_angle_alpha 90.000000
_cell_angle_beta 50.352528
_cell_angle_gamma 90.000000
_cell_volume 957.500674
_symmetry_space_group_name_H-M "C 2"
_symmetry_group_IT_number 5
_symmetry_cell_setting 'monoclinic'
loop_
_space_group_symop_operation_xyz
x,y,z
-x,y,-z
1/2+x,1/2+y,z
1/2-x,1/2+y,-z
loop_
_atom_site_type_symbol
_atom_site_label
_atom_site_fract_x
_atom_site_fract_y
_atom_site_fract_z
Si Si1 0.218494 0.241130 0.107437
Si Si2 0.000000 0.302967 0.000000
Si Si3 0.058329 0.903243 0.130117
Si Si4 0.699097 0.037508 0.871841
Si Si5 0.228259 0.419006 0.591463
Si Si6 0.500000 0.855618 0.500000
O O1 0.074534 0.238076 0.080373
O O2 0.279340 0.140943 0.099036
O O3 0.147889 0.290011 0.320427
O O4 0.378982 0.299894 0.926743
O O5 0.840315 0.358729 0.204107
O O6 0.905958 0.890446 0.374612
O O7 0.207959 0.973052 0.068922
O O8 0.000000 0.938342 0.000000
O O9 0.772165 0.017282 0.636447
O O10 0.500000 0.010533 0.000000
O O11 0.077161 0.421579 0.576039
#
# Coordination Sequence:
#
# PCOD8050752 Si02
#       6
#     4   2   4   4   4   2
#     4  11  24  44  70 105 141 190 236 296 351 424
#     4  10  22  46  72 100 148 190 228 290 364 426
#     4  12  25  45  74 102 145 191 241 291 357 425
#     4  12  26  44  71 104 144 187 243 297 351 419
#     4  11  22  44  76 101 141 191 233 291 355 426
#     4  10  22  42  72  98 144 192 228 290 360 424
#
# _framework density 20.887713999999999
#
# number of rings (size 3 to 8) (size 9 to 14) (size 15 to 20)
#    0.000    0.800    5.000    2.400    4.200    0.000 
#    0.000    0.000    4.400    0.000    0.000    0.000 
#    0.000    0.000    0.000    0.000    0.000    0.000 
#
# Total GULP energy -123908.114204 kJ/mol
# GULP energy per Si atom -12390.811420 kJ/mol
# Density = 2.084017 g / cm^3
# Si number density = 20.887714 Si / 1000 Ang^3
#
#
#
# Elastic Constant Matrix: (Units=GPa)
#
#
# Indices 1 2 3 4 5 6 
#
# 1 142.0200 76.6567 46.4338 0.0000 13.9889 0.0000
# 2 76.6567 152.8579 56.8280 0.0000 4.6476 0.0000
# 3 46.4338 56.8280 151.3751 0.0000 -9.1338 0.0000
# 4 0.0000 0.0000 0.0000 21.6167 0.0000 2.3183
# 5 13.9889 4.6476 -9.1338 0.0000 43.8883 0.0000
# 6 0.0000 0.0000 0.0000 2.3183 0.0000 37.1720
#
#
#
# Elastic Compliance Matrix: (Units=1/GPa)
#
#
# Indices 1 2 3 4 5 6 
#
# 1 0.010302 -0.004445 -0.001682 0.000000 -0.003163 0.000000
# 2 -0.004445 0.009609 -0.002248 0.000000 -0.000069 0.000000
# 3 -0.001682 -0.002248 0.008115 0.000000 0.002463 0.000000
# 4 0.000000 0.000000 0.000000 0.046572 0.000000 -0.002905
# 5 -0.003163 -0.000069 0.002463 0.000000 0.024313 0.000000
# 6 0.000000 0.000000 0.000000 -0.002905 0.000000 0.027083
#
#
# Mechanical properties :
#
#
# Convention : Reuss Voigt Hill
#
# Bulk Modulus (GPa) = 88.68901 89.56555 89.12728
# Shear Modulus (GPa) = 34.12912 38.29103 36.21008
#
# Velocity S-wave (km/s) = 4.04658 4.28622 4.16812
# Velocity P-wave (km/s) = 8.02403 8.21390 8.11952
#
# Compressibility (1/GPa) = 0.01127535
#
# Stress axis : x y z
#
# Youngs Moduli (GPa) = 97.06904 104.07094 123.23294
#
# Poissons Ratio (x) = 0.46256 0.20732
# Poissons Ratio (y) = 0.43144 0.27703
# Poissons Ratio (z) = 0.16330 0.23395
#
# Static dielectric constant tensor:
#      x y z
#    x 4.204290 0.000000 0.168570 
#    y 0.000000 3.509810 0.000000 
#    z 0.168570 0.000000 4.060900 
# 
# 
# High freq. dielectric constant tensor:
#      x y z
#    x 1.846460 0.000000 0.003790 
#    y 0.000000 1.785550 0.000000 
#    z 0.003790 0.000000 1.831840 
# 
# From -- ./inp_files/19937.got.cif
#   From: 2010.03.12/outbox.cif.g09.slc.cpg/sg5_10_cif.got.tgz:19937.got - 2010.03.31 09:47:26.
