data_PCOD8050973
_publ_section_title
;
Structure prediction by ZEFSAII (Michael W. Deem and Ramdas Pophale) SiO2 
 PCOD8050973
Probable space group: C 2
;
_chemical_formula_sum "Si O2"
_cell_formula_units_Z 28
_cell_length_a 8.676896
_cell_length_b 18.647968
_cell_length_c 14.637249
_cell_angle_alpha 90.000000
_cell_angle_beta 34.244293
_cell_angle_gamma 90.000000
_cell_volume 1332.753155
_symmetry_space_group_name_H-M "C 2"
_symmetry_group_IT_number 5
_symmetry_cell_setting 'monoclinic'
loop_
_space_group_symop_operation_xyz
x,y,z
-x,y,-z
1/2+x,1/2+y,z
1/2-x,1/2+y,-z
loop_
_atom_site_type_symbol
_atom_site_label
_atom_site_fract_x
_atom_site_fract_y
_atom_site_fract_z
Si Si1 0.590923 0.145440 0.596241
Si Si2 0.505930 0.687892 0.098529
Si Si3 0.015640 0.244184 0.697439
Si Si4 0.315713 0.979406 0.176833
Si Si5 0.818838 0.395561 0.350617
Si Si6 0.710934 0.993556 0.472480
Si Si7 0.106994 0.639498 0.796980
O O1 0.718276 0.079148 0.479445
O O2 0.696668 0.150878 0.648312
O O3 0.703815 0.213955 0.484820
O O4 0.261599 0.137678 0.758645
O O5 0.490456 0.743045 0.188991
O O6 0.500000 0.725194 0.000000
O O7 0.780959 0.641540 0.972528
O O8 0.755182 0.202504 0.782563
O O9 0.010559 0.330009 0.687614
O O10 0.305080 0.061285 0.215183
O O11 0.005154 0.962205 0.299765
O O12 0.421680 0.923739 0.201653
O O13 0.500000 0.966845 0.000000
O O14 0.500000 0.374229 0.500000
O O15 0.875123 0.462935 0.387689
O O16 0.500000 0.967503 0.500000
#
# Coordination Sequence:
#
# PCOD8050973 Si02
#       7
#     4   4   4   4   4   4   4
#     4  11  22  39  66  97 126 171 223 281 333 388
#     4  10  23  39  60  93 134 168 216 278 336 390
#     4  12  22  40  69  98 126 174 226 275 331 398
#     4  11  23  43  67  95 133 184 224 272 340 400
#     4  10  24  44  65  94 142 180 221 275 341 401
#     4  11  23  41  65  96 131 173 228 279 325 401
#     4  11  23  40  66  97 132 168 227 280 334 396
#
# _framework density 21.009142000000001
#
# number of rings (size 3 to 8) (size 9 to 14) (size 15 to 20)
#    0.000    1.143    2.857    3.857    2.000    1.714 
#    0.000    6.429    0.000    0.000    0.000    0.000 
#    0.000    0.000    0.000    0.000    0.000    0.000 
#
# Total GULP energy -173534.090561 kJ/mol
# GULP energy per Si atom -12395.292183 kJ/mol
# Density = 2.096132 g / cm^3
# Si number density = 21.009142 Si / 1000 Ang^3
#
#
#
# Elastic Constant Matrix: (Units=GPa)
#
#
# Indices 1 2 3 4 5 6 
#
# 1 131.2066 37.2934 62.0172 0.0060 8.5170 -0.0003
# 2 37.2934 102.6994 27.7624 0.0197 0.6397 -0.0024
# 3 62.0172 27.7624 127.3353 0.0298 6.7359 0.0014
# 4 0.0060 0.0197 0.0298 10.5261 -0.0058 3.6655
# 5 8.5170 0.6397 6.7359 -0.0058 42.5080 -0.0029
# 6 -0.0003 -0.0024 0.0014 3.6655 -0.0029 33.5588
#
#
#
# Elastic Compliance Matrix: (Units=1/GPa)
#
#
# Indices 1 2 3 4 5 6 
#
# 1 0.010587 -0.002616 -0.004514 0.000011 -0.001367 -0.000001
# 2 -0.002616 0.010995 -0.001152 -0.000016 0.000541 0.000003
# 3 -0.004514 -0.001152 0.010341 -0.000026 -0.000717 0.000002
# 4 0.000011 -0.000016 -0.000026 0.098758 0.000015 -0.010787
# 5 -0.001367 0.000541 -0.000717 0.000015 0.023904 0.000001
# 6 -0.000001 0.000003 0.000002 -0.010787 0.000001 0.030977
#
#
# Mechanical properties :
#
#
# Convention : Reuss Voigt Hill
#
# Bulk Modulus (GPa) = 65.10358 68.37636 66.73997
# Shear Modulus (GPa) = 24.12600 32.92980 28.52790
#
# Velocity S-wave (km/s) = 3.39242 3.96334 3.68894
# Velocity P-wave (km/s) = 6.81177 7.31852 7.06969
#
# Compressibility (1/GPa) = 0.01536014
#
# Stress axis : x y z
#
# Youngs Moduli (GPa) = 94.45234 90.94992 96.70494
#
# Poissons Ratio (x) = 0.23791 0.43651
# Poissons Ratio (y) = 0.24708 0.11138
# Poissons Ratio (z) = 0.42634 0.10476
#
# Static dielectric constant tensor:
#      x y z
#    x 4.062440 -0.000010 0.076470 
#    y -0.000010 3.422490 0.000030 
#    z 0.076470 0.000030 3.902820 
# 
# 
# High freq. dielectric constant tensor:
#      x y z
#    x 1.837070 0.000000 0.007860 
#    y 0.000000 1.794920 0.000000 
#    z 0.007860 0.000000 1.831790 
# 
# From -- ./inp_files/51615.got.cif
#   From: 2010.03.12/outbox.cif.g09.slc.cpg/sg5_26_cif.got.tgz:51615.got - 2010.03.31 09:47:26.
