data_PCOD8050609
_publ_section_title
;
Structure prediction by ZEFSAII (Michael W. Deem and Ramdas Pophale) SiO2 
 PCOD8050609
Probable space group: C 2
;
_chemical_formula_sum "Si O2"
_cell_formula_units_Z 28
_cell_length_a 12.538986
_cell_length_b 5.040085
_cell_length_c 20.831307
_cell_angle_alpha 90.000000
_cell_angle_beta 119.746858
_cell_angle_gamma 90.000000
_cell_volume 1143.008861
_symmetry_space_group_name_H-M "C 2"
_symmetry_group_IT_number 5
_symmetry_cell_setting 'monoclinic'
loop_
_space_group_symop_operation_xyz
x,y,z
-x,y,-z
1/2+x,1/2+y,z
1/2-x,1/2+y,-z
loop_
_atom_site_type_symbol
_atom_site_label
_atom_site_fract_x
_atom_site_fract_y
_atom_site_fract_z
Si Si1 0.257836 0.590520 0.960709
Si Si2 0.769819 0.291388 0.357709
Si Si3 0.000000 0.370833 0.000000
Si Si4 0.426282 0.077715 0.609027
Si Si5 0.437564 0.572875 0.311246
Si Si6 0.500000 0.009204 0.500000
Si Si7 0.929236 0.115085 0.769491
Si Si8 0.004317 0.612923 0.139437
O O1 0.137754 0.595524 0.878885
O O2 0.273918 0.290829 0.990187
O O3 0.380994 0.681788 0.962280
O O4 0.699626 0.118934 0.390047
O O5 0.687690 0.542588 0.310731
O O6 0.803981 0.127933 0.302714
O O7 0.899978 0.352273 0.428742
O O8 0.007611 0.555269 0.064761
O O9 0.532229 0.263540 0.669695
O O10 0.460188 0.769195 0.626964
O O11 0.419923 0.162506 0.530894
O O12 0.446482 0.617223 0.237052
O O13 0.943762 0.905461 0.831708
O O14 0.913486 0.405220 0.795360
#
# Coordination Sequence:
#
# PCOD8050609 Si02
#       8
#     4   4   2   4   4   2   4   4
#     4  10  22  41  65  96 131 164 212 268 321 395
#     4  10  24  44  68  97 136 180 230 282 335 399
#     4  10  24  44  72 100 132 176 220 272 342 400
#     4  10  23  42  65  95 130 169 222 281 336 397
#     4  10  23  43  65  91 129 176 223 275 335 396
#     4  10  24  42  70 104 134 180 230 282 340 392
#     4  11  24  42  64  96 136 178 225 277 336 400
#     4  11  24  42  68 100 133 174 223 275 334 405
#
# _framework density 24.496748
#
# number of rings (size 3 to 8) (size 9 to 14) (size 15 to 20)
#    0.000    1.714    0.000    3.429    0.000   22.286 
#    0.000    0.000    0.000    0.000    0.000    0.000 
#    0.000    0.000    0.000    0.000    0.000    0.000 
#
# Total GULP energy -173442.702525 kJ/mol
# GULP energy per Si atom -12388.764466 kJ/mol
# Density = 2.444099 g / cm^3
# Si number density = 24.496748 Si / 1000 Ang^3
#
#
#
# Elastic Constant Matrix: (Units=GPa)
#
#
# Indices 1 2 3 4 5 6 
#
# 1 166.7625 15.6930 41.4692 0.0000 -15.1561 0.0000
# 2 15.6930 70.9705 14.4685 -0.0001 0.6189 0.0001
# 3 41.4692 14.4685 88.2163 0.0000 -3.9924 0.0000
# 4 0.0000 -0.0001 0.0000 24.8462 0.0000 -4.1904
# 5 -15.1561 0.6189 -3.9924 0.0000 51.6080 0.0000
# 6 0.0000 0.0001 0.0000 -4.1904 0.0000 28.7127
#
#
#
# Elastic Compliance Matrix: (Units=1/GPa)
#
#
# Indices 1 2 3 4 5 6 
#
# 1 0.007013 -0.000943 -0.003059 0.000000 0.001834 0.000000
# 2 -0.000943 0.014711 -0.001997 0.000000 -0.000608 0.000000
# 3 -0.003059 -0.001997 0.013108 0.000000 0.000140 0.000000
# 4 0.000000 0.000000 0.000000 0.041263 0.000000 0.006022
# 5 0.001834 -0.000608 0.000140 0.000000 0.019934 0.000000
# 6 0.000000 0.000000 0.000000 0.006022 0.000000 0.035707
#
#
# Mechanical properties :
#
#
# Convention : Reuss Voigt Hill
#
# Bulk Modulus (GPa) = 43.79500 52.13451 47.96476
# Shear Modulus (GPa) = 33.03734 37.98797 35.51265
#
# Velocity S-wave (km/s) = 3.67637 3.94221 3.81161
# Velocity P-wave (km/s) = 5.99480 6.48458 6.24449
#
# Compressibility (1/GPa) = 0.02283366
#
# Stress axis : x y z
#
# Youngs Moduli (GPa) = 142.59964 67.97490 76.29190
#
# Poissons Ratio (x) = 0.06410 0.23337
# Poissons Ratio (y) = 0.13448 0.15236
# Poissons Ratio (z) = 0.43619 0.13575
#
# Static dielectric constant tensor:
#      x y z
#    x 4.955390 0.000000 -0.300620 
#    y 0.000000 4.200270 0.000000 
#    z -0.300620 0.000000 4.309880 
# 
# 
# High freq. dielectric constant tensor:
#      x y z
#    x 1.990740 0.000000 -0.011880 
#    y 0.000000 1.967710 0.000000 
#    z -0.011880 0.000000 1.955580 
# 
# From -- ./inp_files/65007.got.cif
#   From: 2010.03.12/outbox.cif.g09.slc.cpg/sg5_33_cif.got.tgz:65007.got - 2010.03.31 09:47:26.
