data_PCOD8050726
_publ_section_title
;
Structure prediction by ZEFSAII (Michael W. Deem and Ramdas Pophale) SiO2 
 PCOD8050726
Probable space group: C 2
;
_chemical_formula_sum "Si O2"
_cell_formula_units_Z 24
_cell_length_a 11.189726
_cell_length_b 10.957322
_cell_length_c 14.197996
_cell_angle_alpha 90.000000
_cell_angle_beta 41.976457
_cell_angle_gamma 90.000000
_cell_volume 1164.296380
_symmetry_space_group_name_H-M "C 2"
_symmetry_group_IT_number 5
_symmetry_cell_setting 'monoclinic'
loop_
_space_group_symop_operation_xyz
x,y,z
-x,y,-z
1/2+x,1/2+y,z
1/2-x,1/2+y,-z
loop_
_atom_site_type_symbol
_atom_site_label
_atom_site_fract_x
_atom_site_fract_y
_atom_site_fract_z
Si Si1 0.676554 0.448060 0.855944
Si Si2 0.749173 0.438827 0.595739
Si Si3 0.054744 0.863476 0.360516
Si Si4 0.000000 0.232018 0.500000
Si Si5 0.000000 0.716407 0.000000
Si Si6 0.015912 0.596880 0.658513
Si Si7 0.793907 0.572069 0.262410
O O1 0.667989 0.449404 0.747526
O O2 0.671303 0.309009 0.902828
O O3 0.855633 0.510020 0.785931
O O4 0.500000 0.517707 0.000000
O O5 0.590205 0.438699 0.613852
O O6 0.883839 0.551532 0.495101
O O7 0.865327 0.315449 0.517424
O O8 0.000000 0.850269 0.500000
O O9 0.069664 0.730298 0.304750
O O10 0.243963 0.937660 0.250340
O O11 0.111231 0.150839 0.360167
O O12 0.033804 0.627900 0.891806
O O13 0.161963 0.580224 0.653717
#
# Coordination Sequence:
#
# PCOD8050726 Si02
#       7
#     4   4   4   2   2   4   4
#     4  10  22  42  69  95 129 182 231 279 347 417
#     4  12  21  41  73  94 133 180 226 292 342 400
#     4  12  25  40  66 105 138 175 229 290 347 402
#     4  12  18  42  68  96 124 182 232 282 344 400
#     4  10  22  46  64  92 132 184 238 264 352 426
#     4  12  23  44  68 101 140 176 239 290 345 412
#     4  12  24  43  66  99 140 181 230 291 342 416
#
# _framework density 20.613308
#
# number of rings (size 3 to 8) (size 9 to 14) (size 15 to 20)
#    0.500    0.000    7.500    1.000    0.000    1.333 
#    1.500    0.000    0.000    0.000    0.000    0.000 
#    0.000    0.000    0.000    0.000    0.000    0.000 
#
# Total GULP energy -148667.378737 kJ/mol
# GULP energy per Si atom -12388.948228 kJ/mol
# Density = 2.056639 g / cm^3
# Si number density = 20.613308 Si / 1000 Ang^3
#
#
#
# Elastic Constant Matrix: (Units=GPa)
#
#
# Indices 1 2 3 4 5 6 
#
# 1 100.0030 46.1795 35.5223 -0.0003 0.4304 0.0001
# 2 46.1795 136.1515 53.6251 -0.0002 -5.6446 0.0001
# 3 35.5223 53.6251 142.0580 -0.0008 1.1737 0.0004
# 4 -0.0003 -0.0002 -0.0008 27.0441 0.0002 -0.7953
# 5 0.4304 -5.6446 1.1737 0.0002 16.1380 -0.0001
# 6 0.0001 0.0001 0.0004 -0.7953 -0.0001 30.9513
#
#
#
# Elastic Compliance Matrix: (Units=1/GPa)
#
#
# Indices 1 2 3 4 5 6 
#
# 1 0.012249 -0.003539 -0.001715 0.000000 -0.001440 0.000000
# 2 -0.003539 0.009824 -0.002855 0.000000 0.003738 0.000000
# 3 -0.001715 -0.002855 0.008559 0.000000 -0.001575 0.000000
# 4 0.000000 0.000000 0.000000 0.037005 -0.000001 0.000951
# 5 -0.001440 0.003738 -0.001575 -0.000001 0.063426 0.000000
# 6 0.000000 0.000000 0.000000 0.000951 0.000000 0.032333
#
#
# Mechanical properties :
#
#
# Convention : Reuss Voigt Hill
#
# Bulk Modulus (GPa) = 69.37076 72.09624 70.73350
# Shear Modulus (GPa) = 27.11222 31.01906 29.06564
#
# Velocity S-wave (km/s) = 3.63061 3.88339 3.75913
# Velocity P-wave (km/s) = 7.16251 7.42692 7.29591
#
# Compressibility (1/GPa) = 0.01441530
#
# Stress axis : x y z
#
# Youngs Moduli (GPa) = 81.63708 101.78814 116.83807
#
# Poissons Ratio (x) = 0.36021 0.20041
# Poissons Ratio (y) = 0.28890 0.33352
# Poissons Ratio (z) = 0.14003 0.29056
#
# Static dielectric constant tensor:
#      x y z
#    x 3.586290 0.000000 -0.068350 
#    y 0.000000 3.970540 0.000000 
#    z -0.068350 0.000000 3.741350 
# 
# 
# High freq. dielectric constant tensor:
#      x y z
#    x 1.790460 0.000000 -0.000450 
#    y 0.000000 1.809290 0.000000 
#    z -0.000450 0.000000 1.800710 
# 
# From -- ./inp_files/52711.got.cif
#   From: 2010.03.12/outbox.cif.g09.slc.cpg/sg5_27_cif.got.tgz:52711.got - 2010.03.31 09:47:26.
