data_PCOD8050587
_publ_section_title
;
Structure prediction by ZEFSAII (Michael W. Deem and Ramdas Pophale) SiO2 
 PCOD8050587
Probable space group: C 2
;
_chemical_formula_sum "Si O2"
_cell_formula_units_Z 20
_cell_length_a 15.781634
_cell_length_b 7.540573
_cell_length_c 8.349561
_cell_angle_alpha 90.000000
_cell_angle_beta 117.697510
_cell_angle_gamma 90.000000
_cell_volume 879.764143
_symmetry_space_group_name_H-M "C 2"
_symmetry_group_IT_number 5
_symmetry_cell_setting 'monoclinic'
loop_
_space_group_symop_operation_xyz
x,y,z
-x,y,-z
1/2+x,1/2+y,z
1/2-x,1/2+y,-z
loop_
_atom_site_type_symbol
_atom_site_label
_atom_site_fract_x
_atom_site_fract_y
_atom_site_fract_z
Si Si1 0.631729 0.122430 0.486427
Si Si2 0.597571 0.329242 0.990535
Si Si3 0.070650 0.506934 0.777783
Si Si4 0.333684 0.475898 0.642708
Si Si5 0.479003 0.619824 0.292939
O O1 0.619270 0.075098 0.659339
O O2 0.542939 0.042736 0.311624
O O3 0.632578 0.332703 0.459295
O O4 0.731107 0.050110 0.501941
O O5 0.620815 0.125854 0.959899
O O6 0.586503 0.454858 0.823659
O O7 0.500000 0.337889 0.000000
O O8 0.677574 0.397559 0.185859
O O9 0.082098 0.295818 0.808062
O O10 0.417609 0.624493 0.706942
O O11 0.500000 0.614410 0.500000
#
# Coordination Sequence:
#
# PCOD8050587 Si02
#       5
#     4   4   4   4   4
#     4  11  22  42  66  94 131 171 221 265 324 394
#     4  10  22  41  63  95 132 166 216 275 319 387
#     4  11  22  43  67  94 125 177 218 264 333 388
#     4  11  24  43  64 101 134 170 225 273 323 389
#     4  11  21  39  70  92 127 172 219 258 332 391
#
# _framework density 22.733367000000001
#
# number of rings (size 3 to 8) (size 9 to 14) (size 15 to 20)
#    0.000    1.200    6.000    2.400    0.000    2.400 
#    7.200    0.000    0.000    0.000    0.000    0.000 
#    0.000    0.000    0.000    0.000    0.000    0.000 
#
# Total GULP energy -123948.062640 kJ/mol
# GULP energy per Si atom -12394.806264 kJ/mol
# Density = 2.268163 g / cm^3
# Si number density = 22.733367 Si / 1000 Ang^3
#
#
#
# Elastic Constant Matrix: (Units=GPa)
#
#
# Indices 1 2 3 4 5 6 
#
# 1 58.3413 21.9619 19.2937 0.0000 0.8346 0.0000
# 2 21.9619 141.7146 42.8543 0.0000 -24.1604 0.0000
# 3 19.2937 42.8543 62.6741 0.0000 -17.7318 0.0000
# 4 0.0000 0.0000 0.0000 25.6309 0.0000 -5.7152
# 5 0.8346 -24.1604 -17.7318 0.0000 23.1805 0.0000
# 6 0.0000 0.0000 0.0000 -5.7152 0.0000 29.8615
#
#
#
# Elastic Compliance Matrix: (Units=1/GPa)
#
#
# Indices 1 2 3 4 5 6 
#
# 1 0.020568 -0.002548 -0.007083 0.000000 -0.008815 0.000000
# 2 -0.002548 0.009891 -0.003874 0.000000 0.007437 0.000000
# 3 -0.007083 -0.003874 0.025160 0.000000 0.015463 0.000000
# 4 0.000000 0.000000 0.000000 0.040755 0.000000 0.007800
# 5 -0.008815 0.007437 0.015463 0.000000 0.063037 0.000000
# 6 0.000000 0.000000 0.000000 0.007800 0.000000 0.034981
#
#
# Mechanical properties :
#
#
# Convention : Reuss Voigt Hill
#
# Bulk Modulus (GPa) = 34.95629 47.88329 41.41979
# Shear Modulus (GPa) = 21.65068 27.64257 24.64662
#
# Velocity S-wave (km/s) = 3.08940 3.49083 3.29623
# Velocity P-wave (km/s) = 5.30433 6.11200 5.72243
#
# Compressibility (1/GPa) = 0.02860715
#
# Stress axis : x y z
#
# Youngs Moduli (GPa) = 48.61831 101.10292 39.74553
#
# Poissons Ratio (x) = 0.25765 0.28153
# Poissons Ratio (y) = 0.12390 0.15399
# Poissons Ratio (z) = 0.34438 0.39172
#
# Static dielectric constant tensor:
#      x y z
#    x 3.862800 0.000000 -0.043920 
#    y 0.000000 4.348360 0.000000 
#    z -0.043920 0.000000 4.430610 
# 
# 
# High freq. dielectric constant tensor:
#      x y z
#    x 1.880790 0.000000 -0.010840 
#    y 0.000000 1.901690 0.000000 
#    z -0.010840 0.000000 1.881470 
# 
# From -- ./inp_files/26589.got.cif
#   From: 2010.03.12/outbox.cif.g09.slc.cpg/sg5_14_cif.got.tgz:26589.got - 2010.03.31 09:47:26.
