data_PCOD8050453
_publ_section_title
;
Structure prediction by ZEFSAII (Michael W. Deem and Ramdas Pophale) SiO2 
 PCOD8050453
Probable space group: C 2
;
_chemical_formula_sum "Si O2"
_cell_formula_units_Z 24
_cell_length_a 10.938993
_cell_length_b 9.137579
_cell_length_c 28.141932
_cell_angle_alpha 90.000000
_cell_angle_beta 155.475280
_cell_angle_gamma 90.000000
_cell_volume 1167.616646
_symmetry_space_group_name_H-M "C 2"
_symmetry_group_IT_number 5
_symmetry_cell_setting 'monoclinic'
loop_
_space_group_symop_operation_xyz
x,y,z
-x,y,-z
1/2+x,1/2+y,z
1/2-x,1/2+y,-z
loop_
_atom_site_type_symbol
_atom_site_label
_atom_site_fract_x
_atom_site_fract_y
_atom_site_fract_z
Si Si1 0.230977 0.521490 0.200673
Si Si2 0.789370 0.226424 0.465157
Si Si3 0.606329 0.771427 0.811417
Si Si4 0.454008 0.515024 0.036025
Si Si5 0.773803 0.201022 0.786219
Si Si6 0.916938 0.979301 0.369762
O O1 0.398881 0.629986 0.224351
O O2 0.323688 0.354098 0.223619
O O3 0.321772 0.557369 0.286823
O O4 0.882726 0.529374 0.068727
O O5 0.507922 0.142579 0.342774
O O6 0.683015 0.363106 0.459031
O O7 0.000000 0.295585 0.500000
O O8 0.982896 0.108491 0.561220
O O9 0.539579 0.726023 0.842451
O O10 0.362068 0.889830 0.707915
O O11 0.927678 0.847574 0.923074
O O12 0.645063 0.593727 0.143369
O O13 0.500000 0.586206 0.000000
#
# Coordination Sequence:
#
# PCOD8050453 Si02
#       6
#     4   4   4   4   4   4
#     4  10  22  40  64  90 125 164 200 252 305 361
#     4  10  22  39  63  87 124 159 206 256 302 364
#     4  10  22  44  62  90 132 158 205 254 303 370
#     4  12  21  40  66  88 128 161 202 254 304 364
#     4  10  24  42  60  93 123 164 205 254 309 356
#     4  10  23  41  61  93 123 163 204 255 308 355
#
# _framework density 20.554691999999999
#
# number of rings (size 3 to 8) (size 9 to 14) (size 15 to 20)
#    0.000    2.000    3.333    2.000    0.000    8.000 
#    6.000    0.000    0.000    0.000    0.000    0.000 
#    0.000    0.000    0.000    0.000    0.000    0.000 
#
# Total GULP energy -148728.359815 kJ/mol
# GULP energy per Si atom -12394.029985 kJ/mol
# Density = 2.050791 g / cm^3
# Si number density = 20.554692 Si / 1000 Ang^3
#
#
#
# Elastic Constant Matrix: (Units=GPa)
#
#
# Indices 1 2 3 4 5 6 
#
# 1 82.5243 55.1107 24.0642 0.0003 1.5507 0.0009
# 2 55.1107 86.1671 26.4391 -0.0001 -6.9639 0.0029
# 3 24.0642 26.4391 63.3985 0.0006 -4.2266 -0.0070
# 4 0.0003 -0.0001 0.0006 34.5743 -0.0020 -1.5982
# 5 1.5507 -6.9639 -4.2266 -0.0020 32.1487 -0.0008
# 6 0.0009 0.0029 -0.0070 -1.5982 -0.0008 37.6067
#
#
#
# Elastic Compliance Matrix: (Units=1/GPa)
#
#
# Indices 1 2 3 4 5 6 
#
# 1 0.022172 -0.013606 -0.003036 0.000000 -0.004416 0.000000
# 2 -0.013606 0.021810 -0.003604 0.000000 0.004907 -0.000002
# 3 -0.003036 -0.003604 0.018549 0.000000 0.001804 0.000004
# 4 0.000000 0.000000 0.000000 0.028980 0.000002 0.001232
# 5 -0.004416 0.004907 0.001804 0.000002 0.032619 0.000001
# 6 0.000000 -0.000002 0.000004 0.001232 0.000001 0.026643
#
#
# Mechanical properties :
#
#
# Convention : Reuss Voigt Hill
#
# Bulk Modulus (GPa) = 45.37443 49.25753 47.31598
# Shear Modulus (GPa) = 25.17469 29.29767 27.23618
#
# Velocity S-wave (km/s) = 3.50346 3.77948 3.64409
# Velocity P-wave (km/s) = 6.20392 6.56217 6.38556
#
# Compressibility (1/GPa) = 0.02203884
#
# Stress axis : x y z
#
# Youngs Moduli (GPa) = 45.10100 45.85050 53.91168
#
# Poissons Ratio (x) = 0.62386 0.16369
# Poissons Ratio (y) = 0.61366 0.19428
# Poissons Ratio (z) = 0.13693 0.16523
#
# Static dielectric constant tensor:
#      x y z
#    x 3.666980 0.000000 0.046090 
#    y 0.000000 3.541590 0.000000 
#    z 0.046090 0.000000 3.916980 
# 
# 
# High freq. dielectric constant tensor:
#      x y z
#    x 1.796740 0.000000 0.005690 
#    y 0.000000 1.786650 0.000000 
#    z 0.005690 0.000000 1.821260 
# 
# From -- ./inp_files/67985.got.cif
#   From: 2010.03.12/outbox.cif.g09.slc.cpg/sg5_34_cif.got.tgz:67985.got - 2010.03.31 09:47:26.
