data_PCOD8050312
_publ_section_title
;
Structure prediction by ZEFSAII (Michael W. Deem and Ramdas Pophale) SiO2 
 PCOD8050312
Probable space group: C 2
;
_chemical_formula_sum "Si O2"
_cell_formula_units_Z 30
_cell_length_a 14.588760
_cell_length_b 10.169795
_cell_length_c 9.125645
_cell_angle_alpha 90.000000
_cell_angle_beta 84.809633
_cell_angle_gamma 90.000000
_cell_volume 1348.371971
_symmetry_space_group_name_H-M "C 2"
_symmetry_group_IT_number 5
_symmetry_cell_setting 'monoclinic'
loop_
_space_group_symop_operation_xyz
x,y,z
-x,y,-z
1/2+x,1/2+y,z
1/2-x,1/2+y,-z
loop_
_atom_site_type_symbol
_atom_site_label
_atom_site_fract_x
_atom_site_fract_y
_atom_site_fract_z
Si Si1 0.650705 0.250000 0.183548
Si Si2 0.183874 0.378637 0.399569
Si Si3 0.881919 0.023055 0.880949
Si Si4 0.774186 0.133212 0.408834
Si Si5 0.918138 0.001598 0.202689
Si Si6 0.500000 0.016338 0.500000
Si Si7 0.449282 0.207557 0.253559
Si Si8 0.265942 0.233568 0.132874
O O1 0.636081 0.401916 0.225666
O O2 0.689264 0.176958 0.319035
O O3 0.548750 0.191073 0.158659
O O4 0.724293 0.251572 0.041881
O O5 0.202212 0.237925 0.470933
O O6 0.240295 0.492617 0.477674
O O7 0.075925 0.419856 0.413037
O O8 0.231995 0.363699 0.230175
O O9 0.817395 0.135612 0.832659
O O10 0.985563 0.072441 0.843689
O O11 0.868037 0.973236 0.052500
O O12 0.865577 0.111774 0.301738
O O13 0.930331 0.863296 0.288012
O O14 0.448324 0.114239 0.395456
O O15 0.361557 0.165000 0.169933
#
# Coordination Sequence:
#
# PCOD8050312 Si02
#       8
#     4   4   4   4   4   2   4   4
#     4  11  23  42  73 104 136 185 240 300 351 429
#     4  12  29  47  70 102 149 192 240 299 357 440
#     4  10  22  40  69 107 139 176 235 295 361 423
#     4  12  25  48  71 101 143 187 239 293 362 426
#     4  10  21  44  70 102 141 181 235 294 352 436
#     4  12  28  50  66 106 154 192 246 298 368 432
#     4  11  23  44  74 101 143 187 245 294 353 430
#     4  12  24  44  72 106 141 188 235 304 358 427
#
# _framework density 22.249053
#
# number of rings (size 3 to 8) (size 9 to 14) (size 15 to 20)
#    0.000    0.800    5.333    1.200    5.600    0.000 
#    2.400    0.000    0.000    0.000    0.000    0.000 
#    0.000    0.000    0.000    0.000    0.000    0.000 
#
# Total GULP energy -185861.189254 kJ/mol
# GULP energy per Si atom -12390.745950 kJ/mol
# Density = 2.219841 g / cm^3
# Si number density = 22.249053 Si / 1000 Ang^3
#
#
#
# Elastic Constant Matrix: (Units=GPa)
#
#
# Indices 1 2 3 4 5 6 
#
# 1 111.5737 26.2349 16.0221 0.0000 -8.7387 0.0000
# 2 26.2349 86.6783 17.3296 0.0000 2.3265 0.0000
# 3 16.0221 17.3296 53.1949 0.0000 -9.5275 0.0000
# 4 0.0000 0.0000 0.0000 29.7527 0.0000 1.0477
# 5 -8.7387 2.3265 -9.5275 0.0000 35.1874 0.0000
# 6 0.0000 0.0000 0.0000 1.0477 0.0000 42.1454
#
#
#
# Elastic Compliance Matrix: (Units=1/GPa)
#
#
# Indices 1 2 3 4 5 6 
#
# 1 0.010030 -0.002749 -0.001731 0.000000 0.002204 0.000000
# 2 -0.002749 0.013230 -0.003953 0.000000 -0.002628 0.000000
# 3 -0.001731 -0.003953 0.021626 0.000000 0.005687 0.000000
# 4 0.000000 0.000000 0.000000 0.033640 0.000000 -0.000836
# 5 0.002204 -0.002628 0.005687 0.000000 0.030680 0.000000
# 6 0.000000 0.000000 0.000000 -0.000836 0.000000 0.023748
#
#
# Mechanical properties :
#
#
# Convention : Reuss Voigt Hill
#
# Bulk Modulus (GPa) = 35.68661 41.18001 38.43331
# Shear Modulus (GPa) = 31.41498 34.20779 32.81138
#
# Velocity S-wave (km/s) = 3.76169 3.92534 3.84439
# Velocity P-wave (km/s) = 5.91114 6.25246 6.08419
#
# Compressibility (1/GPa) = 0.02802172
#
# Stress axis : x y z
#
# Youngs Moduli (GPa) = 99.69858 75.58742 46.23986
#
# Poissons Ratio (x) = 0.20779 0.08003
# Poissons Ratio (y) = 0.27407 0.18277
# Poissons Ratio (z) = 0.17255 0.29876
#
# Static dielectric constant tensor:
#      x y z
#    x 4.342000 0.000000 -0.207690 
#    y 0.000000 3.919060 0.000000 
#    z -0.207690 0.000000 3.814760 
# 
# 
# High freq. dielectric constant tensor:
#      x y z
#    x 1.900420 0.000000 -0.019490 
#    y 0.000000 1.865040 0.000000 
#    z -0.019490 0.000000 1.853950 
# 
# From -- ./inp_files/23640.got.cif
#   From: 2010.03.12/outbox.cif.g09.slc.cpg/sg5_12_cif.got.tgz:23640.got - 2010.03.31 09:47:26.
