data_PCOD8050693
_publ_section_title
;
Structure prediction by ZEFSAII (Michael W. Deem and Ramdas Pophale) SiO2 
 PCOD8050693
Probable space group: C 2
;
_chemical_formula_sum "Si O2"
_cell_formula_units_Z 18
_cell_length_a 6.839761
_cell_length_b 21.278370
_cell_length_c 5.086781
_cell_angle_alpha 90.000000
_cell_angle_beta 85.257113
_cell_angle_gamma 90.000000
_cell_volume 737.789805
_symmetry_space_group_name_H-M "C 2"
_symmetry_group_IT_number 5
_symmetry_cell_setting 'monoclinic'
loop_
_space_group_symop_operation_xyz
x,y,z
-x,y,-z
1/2+x,1/2+y,z
1/2-x,1/2+y,-z
loop_
_atom_site_type_symbol
_atom_site_label
_atom_site_fract_x
_atom_site_fract_y
_atom_site_fract_z
Si Si1 0.195587 0.113880 0.609749
Si Si2 0.273744 0.036580 0.090835
Si Si3 0.500000 0.212745 0.500000
Si Si4 0.267933 0.821162 0.556509
Si Si5 0.731024 0.896639 0.946684
O O1 0.271260 0.066796 0.378136
O O2 0.354686 0.166777 0.679402
O O3 0.000000 0.144629 0.500000
O O4 0.152411 0.074714 0.879805
O O5 0.500000 0.033440 0.000000
O O6 0.184851 0.966285 0.113771
O O7 0.651460 0.256924 0.643180
O O8 0.500000 0.808029 0.500000
O O9 0.196876 0.870441 0.783139
O O10 0.195298 0.849614 0.288673
O O11 0.500000 0.898339 0.000000
#
# Coordination Sequence:
#
# PCOD8050693 Si02
#       5
#     4   4   2   4   4
#     4  12  26  44  67 102 138 181 228 286 339 401
#     4  11  21  45  72 100 137 180 227 282 346 406
#     4  12  26  46  68  96 144 178 242 260 348 412
#     4  10  22  42  65  98 130 177 222 278 335 401
#     4   9  20  40  69  96 134 171 219 281 343 394
#
# _framework density 24.397192
#
# number of rings (size 3 to 8) (size 9 to 14) (size 15 to 20)
#    0.000    1.333    2.222    2.667    0.000    8.000 
#   12.000    4.444    0.000    0.000    0.000    0.000 
#    0.000    0.000    0.000    0.000    0.000    0.000 
#
# Total GULP energy -111502.036357 kJ/mol
# GULP energy per Si atom -12389.115151 kJ/mol
# Density = 2.434166 g / cm^3
# Si number density = 24.397192 Si / 1000 Ang^3
#
#
#
# Elastic Constant Matrix: (Units=GPa)
#
#
# Indices 1 2 3 4 5 6 
#
# 1 95.7394 52.5151 28.4744 0.0000 15.2110 0.0000
# 2 52.5151 176.7938 56.3298 0.0000 -6.2814 0.0000
# 3 28.4744 56.3298 134.1951 0.0000 -1.7823 0.0000
# 4 0.0000 0.0000 0.0000 13.7835 0.0000 11.5561
# 5 15.2110 -6.2814 -1.7823 0.0000 28.2996 0.0000
# 6 0.0000 0.0000 0.0000 11.5561 0.0000 13.6909
#
#
#
# Elastic Compliance Matrix: (Units=1/GPa)
#
#
# Indices 1 2 3 4 5 6 
#
# 1 0.014578 -0.004181 -0.001456 0.000000 -0.008856 0.000000
# 2 -0.004181 0.007775 -0.002326 0.000000 0.003827 0.000000
# 3 -0.001456 -0.002326 0.008748 0.000000 0.000817 0.000000
# 4 0.000000 0.000000 0.000000 0.248180 0.000000 -0.209481
# 5 -0.008856 0.003827 0.000817 0.000000 0.040997 0.000000
# 6 0.000000 0.000000 0.000000 -0.209481 0.000000 0.249857
#
#
# Mechanical properties :
#
#
# Convention : Reuss Voigt Hill
#
# Bulk Modulus (GPa) = 65.89345 75.70744 70.80045
# Shear Modulus (GPa) = 8.45852 29.11540 18.78696
#
# Velocity S-wave (km/s) = 1.86401 3.45830 2.77798
# Velocity P-wave (km/s) = 5.63027 6.85894 6.27475
#
# Compressibility (1/GPa) = 0.01517601
#
# Stress axis : x y z
#
# Youngs Moduli (GPa) = 68.59430 128.61280 114.31362
#
# Poissons Ratio (x) = 0.53775 0.16643
# Poissons Ratio (y) = 0.28680 0.26586
# Poissons Ratio (z) = 0.09987 0.29912
#
# Static dielectric constant tensor:
#      x y z
#    x 4.719780 0.000000 -0.002920 
#    y 0.000000 4.599520 0.000000 
#    z -0.002920 0.000000 4.324330 
# 
# 
# High freq. dielectric constant tensor:
#      x y z
#    x 2.000650 0.000000 -0.003430 
#    y 0.000000 1.968210 0.000000 
#    z -0.003430 0.000000 1.950640 
# 
# From -- ./inp_files/2170.got.cif
#   From: 2010.03.12/outbox.cif.g09.slc.cpg/sg5_2_cif.got.tgz:2170.got - 2010.03.31 09:47:26.
