data_PCOD8050178
_publ_section_title
;
Structure prediction by ZEFSAII (Michael W. Deem and Ramdas Pophale) SiO2 
 PCOD8050178
Probable space group: C 2
;
_chemical_formula_sum "Si O2"
_cell_formula_units_Z 28
_cell_length_a 11.875175
_cell_length_b 7.402143
_cell_length_c 15.716294
_cell_angle_alpha 90.000000
_cell_angle_beta 112.019185
_cell_angle_gamma 90.000000
_cell_volume 1280.721536
_symmetry_space_group_name_H-M "C 2"
_symmetry_group_IT_number 5
_symmetry_cell_setting 'monoclinic'
loop_
_space_group_symop_operation_xyz
x,y,z
-x,y,-z
1/2+x,1/2+y,z
1/2-x,1/2+y,-z
loop_
_atom_site_type_symbol
_atom_site_label
_atom_site_fract_x
_atom_site_fract_y
_atom_site_fract_z
Si Si1 0.225139 0.307800 0.398459
Si Si2 0.999473 0.445260 0.238023
Si Si3 0.143130 0.175578 0.553554
Si Si4 0.652487 0.210431 0.997633
Si Si5 0.280494 0.977732 0.297021
Si Si6 0.927817 0.789386 0.844068
Si Si7 0.583879 0.804461 0.950522
O O1 0.089607 0.359578 0.331979
O O2 0.218212 0.243457 0.493410
O O3 0.318637 0.471566 0.415430
O O4 0.282865 0.150041 0.358210
O O5 0.065916 0.617923 0.216263
O O6 0.874463 0.510363 0.246461
O O7 0.972195 0.288071 0.159906
O O8 0.177806 0.298299 0.642961
O O9 0.000000 0.182846 0.500000
O O10 0.562846 0.345727 0.917835
O O11 0.593476 0.017750 0.966144
O O12 0.657118 0.248976 0.098598
O O13 0.787158 0.210054 0.999192
O O14 0.141980 0.950785 0.224023
O O15 0.500000 0.717268 0.000000
#
# Coordination Sequence:
#
# PCOD8050178 Si02
#       7
#     4   4   4   4   4   4   4
#     4  12  27  44  73 103 135 180 231 282 356 422
#     4  11  23  43  68 102 139 179 234 286 338 410
#     4  12  26  46  72 103 137 178 225 290 358 415
#     4  10  21  41  66  96 140 187 224 284 343 395
#     4  12  25  44  73 103 140 181 232 288 345 418
#     4  10  21  44  65  96 146 182 227 293 341 397
#     4  11  22  41  66  97 140 184 230 280 336 403
#
# _framework density 21.862674999999999
#
# number of rings (size 3 to 8) (size 9 to 14) (size 15 to 20)
#    0.000    0.857    8.571    0.000    0.000    6.286 
#    2.571    0.000    0.000    0.000    0.000    0.000 
#    0.000    0.000    0.000    0.000    0.000    0.000 
#
# Total GULP energy -173612.735427 kJ/mol
# GULP energy per Si atom -12400.909673 kJ/mol
# Density = 2.181291 g / cm^3
# Si number density = 21.862675 Si / 1000 Ang^3
#
#
#
# Elastic Constant Matrix: (Units=GPa)
#
#
# Indices 1 2 3 4 5 6 
#
# 1 143.8200 26.0560 35.2826 0.0000 -5.6220 0.0000
# 2 26.0560 75.9728 25.9955 0.0000 -0.6050 0.0000
# 3 35.2826 25.9955 93.4756 0.0000 -4.9821 0.0000
# 4 0.0000 0.0000 0.0000 3.9645 0.0000 1.4474
# 5 -5.6220 -0.6050 -4.9821 0.0000 35.1392 0.0000
# 6 0.0000 0.0000 0.0000 1.4474 0.0000 28.3900
#
#
#
# Elastic Compliance Matrix: (Units=1/GPa)
#
#
# Indices 1 2 3 4 5 6 
#
# 1 0.007923 -0.001882 -0.002419 0.000000 0.000892 0.000000
# 2 -0.001882 0.014998 -0.003489 0.000000 -0.000538 0.000000
# 3 -0.002419 -0.003489 0.012653 0.000000 0.001347 0.000000
# 4 0.000000 0.000000 0.000000 0.257020 0.000000 -0.013104
# 5 0.000892 -0.000538 0.001347 0.000000 0.028783 0.000000
# 6 0.000000 0.000000 0.000000 -0.013104 0.000000 0.035892
#
#
# Mechanical properties :
#
#
# Convention : Reuss Voigt Hill
#
# Bulk Modulus (GPa) = 50.01951 54.21517 52.11734
# Shear Modulus (GPa) = 13.17477 28.56103 20.86790
#
# Velocity S-wave (km/s) = 2.45748 3.61831 3.09285
# Velocity P-wave (km/s) = 5.56605 6.50447 6.05347
#
# Compressibility (1/GPa) = 0.01999220
#
# Stress axis : x y z
#
# Youngs Moduli (GPa) = 126.22206 66.67683 79.03095
#
# Poissons Ratio (x) = 0.12550 0.19121
# Poissons Ratio (y) = 0.23758 0.27574
# Poissons Ratio (z) = 0.30538 0.23264
#
# Static dielectric constant tensor:
#      x y z
#    x 4.618050 0.000000 -0.330590 
#    y 0.000000 3.718790 0.000000 
#    z -0.330590 0.000000 4.433390 
# 
# 
# High freq. dielectric constant tensor:
#      x y z
#    x 1.866780 0.000000 0.002000 
#    y 0.000000 1.847360 0.000000 
#    z 0.002000 0.000000 1.875260 
# 
# From -- ./inp_files/52221.got.cif
#   From: 2010.03.12/outbox.cif.g09.slc.cpg/sg5_27_cif.got.tgz:52221.got - 2010.03.31 09:47:26.
