data_PCOD8050529
_publ_section_title
;
Structure prediction by ZEFSAII (Michael W. Deem and Ramdas Pophale) SiO2 
 PCOD8050529
Probable space group: C 2
;
_chemical_formula_sum "Si O2"
_cell_formula_units_Z 26
_cell_length_a 15.561449
_cell_length_b 14.452368
_cell_length_c 8.685316
_cell_angle_alpha 90.000000
_cell_angle_beta 141.404667
_cell_angle_gamma 90.000000
_cell_volume 1218.515715
_symmetry_space_group_name_H-M "C 2"
_symmetry_group_IT_number 5
_symmetry_cell_setting 'monoclinic'
loop_
_space_group_symop_operation_xyz
x,y,z
-x,y,-z
1/2+x,1/2+y,z
1/2-x,1/2+y,-z
loop_
_atom_site_type_symbol
_atom_site_label
_atom_site_fract_x
_atom_site_fract_y
_atom_site_fract_z
Si Si1 0.202498 0.879010 0.837955
Si Si2 0.885967 0.618887 0.651380
Si Si3 0.125073 0.113638 0.077593
Si Si4 0.319133 0.073714 0.900651
Si Si5 0.568867 0.322574 0.358250
Si Si6 0.500000 0.441650 0.000000
Si Si7 0.362825 0.723686 0.211218
O O1 0.191800 0.829120 0.655064
O O2 0.065716 0.862185 0.744820
O O3 0.232094 0.987570 0.847199
O O4 0.323223 0.826628 0.099198
O O5 0.776937 0.620641 0.361499
O O6 0.818031 0.579891 0.712811
O O7 0.945760 0.722519 0.738898
O O8 0.025369 0.559912 0.816023
O O9 0.098294 0.003618 0.028571
O O10 0.112005 0.156053 0.894031
O O11 0.000000 0.160391 0.000000
O O12 0.256530 0.172875 0.860307
O O13 0.599783 0.384366 0.251729
O O14 0.500000 0.734607 0.500000
#
# Coordination Sequence:
#
# PCOD8050529 Si02
#       7
#     4   4   4   4   4   2   4
#     4  11  25  45  66 105 135 185 232 291 353 413
#     4  11  22  46  70 101 141 184 234 287 349 418
#     4  10  23  43  67 100 134 179 231 285 352 417
#     4  11  25  43  72 102 138 186 233 291 351 417
#     4  11  22  43  73  97 141 178 235 286 347 426
#     4  10  22  40  66 104 124 180 222 278 346 424
#     4  12  25  46  66  96 139 184 231 292 354 416
#
# _framework density 21.337433999999998
#
# number of rings (size 3 to 8) (size 9 to 14) (size 15 to 20)
#    0.462    0.615    3.077    3.692    4.308    0.615 
#    8.308    0.000    0.000    0.000    0.000    0.000 
#    0.000    0.000    0.000    0.000    0.000    0.000 
#
# Total GULP energy -161055.794220 kJ/mol
# GULP energy per Si atom -12388.907248 kJ/mol
# Density = 2.128887 g / cm^3
# Si number density = 21.337434 Si / 1000 Ang^3
#
#
#
# Elastic Constant Matrix: (Units=GPa)
#
#
# Indices 1 2 3 4 5 6 
#
# 1 57.3200 24.9055 31.0952 0.0000 -1.2865 0.0000
# 2 24.9055 112.8104 27.5166 0.0000 -6.3094 0.0000
# 3 31.0952 27.5166 157.3252 0.0000 -9.9541 0.0000
# 4 0.0000 0.0000 0.0000 22.3112 0.0000 -7.2281
# 5 -1.2865 -6.3094 -9.9541 0.0000 30.0289 0.0000
# 6 0.0000 0.0000 0.0000 -7.2281 0.0000 38.7909
#
#
#
# Elastic Compliance Matrix: (Units=1/GPa)
#
#
# Indices 1 2 3 4 5 6 
#
# 1 0.021014 -0.003834 -0.003551 0.000000 -0.001082 0.000000
# 2 -0.003834 0.010020 -0.000891 0.000000 0.001646 0.000000
# 3 -0.003551 -0.000891 0.007347 0.000000 0.002096 0.000000
# 4 0.000000 0.000000 0.000000 0.047700 0.000000 0.008888
# 5 -0.001082 0.001646 0.002096 0.000000 0.034295 0.000000
# 6 0.000000 0.000000 0.000000 0.008888 0.000000 0.027435
#
#
# Mechanical properties :
#
#
# Convention : Reuss Voigt Hill
#
# Bulk Modulus (GPa) = 45.81011 54.94336 50.37673
# Shear Modulus (GPa) = 29.13088 34.48875 31.80982
#
# Velocity S-wave (km/s) = 3.69893 4.02475 3.86527
# Velocity P-wave (km/s) = 6.30546 6.88504 6.60161
#
# Compressibility (1/GPa) = 0.02182924
#
# Stress axis : x y z
#
# Youngs Moduli (GPa) = 47.58759 99.79944 136.11765
#
# Poissons Ratio (x) = 0.38259 0.48340
# Poissons Ratio (y) = 0.18243 0.12124
# Poissons Ratio (z) = 0.16900 0.08889
#
# Static dielectric constant tensor:
#      x y z
#    x 4.143190 0.000000 -0.137850 
#    y 0.000000 3.835900 0.000000 
#    z -0.137850 0.000000 3.981030 
# 
# 
# High freq. dielectric constant tensor:
#      x y z
#    x 1.834330 0.000000 -0.010270 
#    y 0.000000 1.835660 0.000000 
#    z -0.010270 0.000000 1.842990 
# 
# From -- ./inp_files/24834.got.cif
#   From: 2010.03.12/outbox.cif.g09.slc.cpg/sg5_13_cif.got.tgz:24834.got - 2010.03.31 09:47:26.
