data_PCOD8050949
_publ_section_title
;
Structure prediction by ZEFSAII (Michael W. Deem and Ramdas Pophale) SiO2 
 PCOD8050949
Probable space group: C 2
;
_chemical_formula_sum "Si O2"
_cell_formula_units_Z 22
_cell_length_a 13.552510
_cell_length_b 12.976696
_cell_length_c 8.659529
_cell_angle_alpha 90.000000
_cell_angle_beta 41.254726
_cell_angle_gamma 90.000000
_cell_volume 1004.227792
_symmetry_space_group_name_H-M "C 2"
_symmetry_group_IT_number 5
_symmetry_cell_setting 'monoclinic'
loop_
_space_group_symop_operation_xyz
x,y,z
-x,y,-z
1/2+x,1/2+y,z
1/2-x,1/2+y,-z
loop_
_atom_site_type_symbol
_atom_site_label
_atom_site_fract_x
_atom_site_fract_y
_atom_site_fract_z
Si Si1 0.231517 0.835430 0.171630
Si Si2 0.345347 0.137711 0.898091
Si Si3 0.500000 0.237929 0.000000
Si Si4 0.946816 0.030641 0.722599
Si Si5 0.183642 0.893189 0.572801
Si Si6 0.496324 0.922747 0.676032
O O1 0.137790 0.734644 0.233799
O O2 0.229576 0.841082 0.357488
O O3 0.136549 0.924678 0.208784
O O4 0.398959 0.848575 0.903440
O O5 0.438718 0.039775 0.734865
O O6 0.394250 0.166255 0.016372
O O7 0.169105 0.113517 0.077366
O O8 0.394053 0.308385 0.229203
O O9 0.000000 0.079884 0.500000
O O10 0.083395 0.997799 0.674275
O O11 0.334606 0.932087 0.469792
O O12 0.500000 0.874665 0.500000
#
# Coordination Sequence:
#
# PCOD8050949 Si02
#       6
#     4   4   2   4   4   4
#     4  10  22  47  66  98 135 180 222 284 338 402
#     4  11  25  42  68 102 136 178 234 278 337 406
#     4  12  26  40  70 100 136 190 228 276 340 412
#     4   9  21  41  68  93 134 172 220 281 335 395
#     4  11  24  46  71  95 138 184 225 282 349 397
#     4  11  26  44  72 100 140 178 230 285 340 404
#
# _framework density 21.90738
#
# number of rings (size 3 to 8) (size 9 to 14) (size 15 to 20)
#    0.000    1.455    1.818    1.636   12.727    2.182 
#    0.000    1.818    0.000    0.000    0.000    0.000 
#    0.000    0.000    0.000    0.000    0.000    0.000 
#
# Total GULP energy -136336.707057 kJ/mol
# GULP energy per Si atom -12394.246096 kJ/mol
# Density = 2.185752 g / cm^3
# Si number density = 21.907380 Si / 1000 Ang^3
#
#
#
# Elastic Constant Matrix: (Units=GPa)
#
#
# Indices 1 2 3 4 5 6 
#
# 1 142.4252 13.5090 52.0140 0.0000 -10.7441 0.0000
# 2 13.5090 50.1138 23.7289 0.0000 15.7581 0.0000
# 3 52.0140 23.7289 134.0185 0.0000 1.5473 0.0000
# 4 0.0000 0.0000 0.0000 4.8886 0.0000 41.4418
# 5 -10.7441 15.7581 1.5473 0.0000 31.8977 0.0000
# 6 0.0000 0.0000 0.0000 41.4418 0.0000 250.0201
#
#
#
# Elastic Compliance Matrix: (Units=1/GPa)
#
#
# Indices 1 2 3 4 5 6 
#
# 1 0.008643 -0.002209 -0.003011 0.000000 0.004149 0.000000
# 2 -0.002209 0.026612 -0.003696 0.000000 -0.013711 0.000000
# 3 -0.003011 -0.003696 0.009281 0.000000 0.000362 0.000000
# 4 0.000000 0.000000 0.000000 -0.504908 0.000000 0.083690
# 5 0.004149 -0.013711 0.000362 0.000000 0.039504 0.000000
# 6 0.000000 0.000000 0.000000 0.083690 0.000000 -0.009872
#
#
# Mechanical properties :
#
#
# Convention : Reuss Voigt Hill
#
# Bulk Modulus (GPa) = 37.44882 56.11794 46.78338
# Shear Modulus (GPa) = -12.37603 73.18164 30.40280
#
# Velocity S-wave (km/s) = -2.37939 5.78598 3.72934
# Velocity P-wave (km/s) = 3.09557 8.38501 6.32024
#
# Compressibility (1/GPa) = 0.02670311
#
# Stress axis : x y z
#
# Youngs Moduli (GPa) = 115.69444 37.57761 107.75024
#
# Poissons Ratio (x) = 0.08299 0.32449
# Poissons Ratio (y) = 0.25552 0.39828
# Poissons Ratio (z) = 0.34841 0.13890
#
# Static dielectric constant tensor:
#      x y z
#    x 3.762410 0.000000 -2.231400 
#    y 0.000000 3.899390 0.000000 
#    z -2.231400 0.000000 -5.812020 
# 
# 
# High freq. dielectric constant tensor:
#      x y z
#    x 1.864530 0.000000 -0.008960 
#    y 0.000000 1.851970 0.000000 
#    z -0.008960 0.000000 1.875640 
# 
# From -- ./inp_files/19920.got.cif
#   From: 2010.03.12/outbox.cif.g09.slc.cpg/sg5_10_cif.got.tgz:19920.got - 2010.03.31 09:47:26.
