data_PCOD8050149
_publ_section_title
;
Structure prediction by ZEFSAII (Michael W. Deem and Ramdas Pophale) SiO2 
 PCOD8050149
Probable space group: C 2
;
_chemical_formula_sum "Si O2"
_cell_formula_units_Z 24
_cell_length_a 11.136807
_cell_length_b 8.933460
_cell_length_c 11.648420
_cell_angle_alpha 90.000000
_cell_angle_beta 97.333292
_cell_angle_gamma 90.000000
_cell_volume 1149.424547
_symmetry_space_group_name_H-M "C 2"
_symmetry_group_IT_number 5
_symmetry_cell_setting 'monoclinic'
loop_
_space_group_symop_operation_xyz
x,y,z
-x,y,-z
1/2+x,1/2+y,z
1/2-x,1/2+y,-z
loop_
_atom_site_type_symbol
_atom_site_label
_atom_site_fract_x
_atom_site_fract_y
_atom_site_fract_z
Si Si1 0.362311 0.818390 0.448271
Si Si2 0.676617 0.477250 0.863241
Si Si3 0.961331 0.183550 0.870054
Si Si4 0.207043 0.647388 0.925107
Si Si5 0.786359 0.526604 0.637046
Si Si6 0.035049 0.469961 0.746676
O O1 0.500000 0.776384 0.500000
O O2 0.288608 0.669966 0.410518
O O3 0.287311 0.901782 0.538100
O O4 0.367148 0.928913 0.339058
O O5 0.542083 0.543435 0.841205
O O6 0.671059 0.320967 0.930268
O O7 0.724972 0.453306 0.741317
O O8 0.766074 0.589073 0.943148
O O9 0.823675 0.126687 0.857546
O O10 0.973870 0.316529 0.781650
O O11 0.000000 0.243845 0.000000
O O12 0.096879 0.555463 0.858530
O O13 0.926101 0.571317 0.681937
#
# Coordination Sequence:
#
# PCOD8050149 Si02
#       6
#     4   4   4   4   4   4
#     4  10  25  46  66  93 129 173 222 273 323 376
#     4  11  23  42  67  97 134 174 214 262 330 385
#     4  10  21  41  62  93 134 173 208 258 318 388
#     4  11  24  41  65  99 136 171 211 264 325 397
#     4  11  24  45  69  95 128 172 220 272 325 380
#     4  11  23  42  70  93 133 171 214 270 328 383
#
# _framework density 20.880013999999999
#
# number of rings (size 3 to 8) (size 9 to 14) (size 15 to 20)
#    0.000    1.333    3.333    2.000    2.333    1.333 
#    9.000    0.000    0.000    0.000    0.000    0.000 
#    0.000    0.000    0.000    0.000    0.000    0.000 
#
# Total GULP energy -148830.752306 kJ/mol
# GULP energy per Si atom -12402.562692 kJ/mol
# Density = 2.083249 g / cm^3
# Si number density = 20.880014 Si / 1000 Ang^3
#
#
#
# Elastic Constant Matrix: (Units=GPa)
#
#
# Indices 1 2 3 4 5 6 
#
# 1 91.1114 43.2675 14.3519 0.0000 2.2148 0.0000
# 2 43.2675 102.1000 25.3762 0.0000 -1.8733 0.0000
# 3 14.3519 25.3762 90.8531 0.0000 -22.1348 0.0000
# 4 0.0000 0.0000 0.0000 34.8000 0.0000 2.6643
# 5 2.2148 -1.8733 -22.1348 0.0000 31.7451 0.0000
# 6 0.0000 0.0000 0.0000 2.6643 0.0000 39.1734
#
#
#
# Elastic Compliance Matrix: (Units=1/GPa)
#
#
# Indices 1 2 3 4 5 6 
#
# 1 0.013883 -0.005642 -0.001126 0.000000 -0.002086 0.000000
# 2 -0.005642 0.012896 -0.002927 0.000000 -0.000886 0.000000
# 3 -0.001126 -0.002927 0.014431 0.000000 0.009968 0.000000
# 4 0.000000 0.000000 0.000000 0.028886 0.000000 -0.001965
# 5 -0.002086 -0.000886 0.009968 0.000000 0.038544 0.000000
# 6 0.000000 0.000000 0.000000 -0.001965 0.000000 0.025661
#
#
# Mechanical properties :
#
#
# Convention : Reuss Voigt Hill
#
# Bulk Modulus (GPa) = 45.82616 50.00619 47.91617
# Shear Modulus (GPa) = 31.06303 34.54830 32.80566
#
# Velocity S-wave (km/s) = 3.86125 4.07210 3.96808
# Velocity P-wave (km/s) = 6.47101 6.79048 6.63267
#
# Compressibility (1/GPa) = 0.02182160
#
# Stress axis : x y z
#
# Youngs Moduli (GPa) = 72.03182 77.54165 69.29755
#
# Poissons Ratio (x) = 0.43747 0.07800
# Poissons Ratio (y) = 0.40638 0.20282
# Poissons Ratio (z) = 0.08108 0.22694
#
# Static dielectric constant tensor:
#      x y z
#    x 3.926840 0.000000 -0.051580 
#    y 0.000000 3.599270 0.000000 
#    z -0.051580 0.000000 3.912720 
# 
# 
# High freq. dielectric constant tensor:
#      x y z
#    x 1.823100 0.000000 -0.003370 
#    y 0.000000 1.805890 0.000000 
#    z -0.003370 0.000000 1.826240 
# 
# From -- ./inp_files/38328.got.cif
#   From: 2010.03.12/outbox.cif.g09.slc.cpg/sg5_20_cif.got.tgz:38328.got - 2010.03.31 09:47:26.
