data_PCOD8050099
_publ_section_title
;
Structure prediction by ZEFSAII (Michael W. Deem and Ramdas Pophale) SiO2 
 PCOD8050099
Probable space group: C 2
;
_chemical_formula_sum "Si O2"
_cell_formula_units_Z 24
_cell_length_a 12.940459
_cell_length_b 7.510077
_cell_length_c 11.667600
_cell_angle_alpha 90.000000
_cell_angle_beta 64.637898
_cell_angle_gamma 90.000000
_cell_volume 1024.615370
_symmetry_space_group_name_H-M "C 2"
_symmetry_group_IT_number 5
_symmetry_cell_setting 'monoclinic'
loop_
_space_group_symop_operation_xyz
x,y,z
-x,y,-z
1/2+x,1/2+y,z
1/2-x,1/2+y,-z
loop_
_atom_site_type_symbol
_atom_site_label
_atom_site_fract_x
_atom_site_fract_y
_atom_site_fract_z
Si Si1 0.250510 0.603320 0.192513
Si Si2 0.066184 0.855825 0.281913
Si Si3 0.879187 0.825770 0.993956
Si Si4 0.306314 0.433095 0.387458
Si Si5 0.238056 0.068100 0.348826
Si Si6 0.872107 0.451042 0.079819
O O1 0.116230 0.653283 0.276612
O O2 0.309999 0.591115 0.290608
O O3 0.295668 0.775224 0.097753
O O4 0.276422 0.426106 0.108593
O O5 0.101032 0.916688 0.137738
O O6 0.930881 0.858182 0.362169
O O7 0.123269 0.993884 0.343844
O O8 0.844652 0.615053 0.005275
O O9 0.000000 0.842914 0.000000
O O10 0.229462 0.280931 0.364144
O O11 0.243962 0.492737 0.532328
O O12 0.350053 0.021140 0.220022
O O13 0.000000 0.385710 0.000000
#
# Coordination Sequence:
#
# PCOD8050099 Si02
#       6
#     4   4   4   4   4   4
#     4  11  24  41  73 106 141 199 233 300 367 424
#     4  11  26  44  73 106 144 194 240 301 364 434
#     4  11  21  44  69 103 155 189 237 308 355 427
#     4  12  24  51  73 103 154 187 248 305 364 434
#     4  11  24  45  74 104 142 197 239 302 361 435
#     4  10  21  40  66 107 141 183 240 284 360 425
#
# _framework density 23.423423
#
# number of rings (size 3 to 8) (size 9 to 14) (size 15 to 20)
#    0.000    1.000    3.333    4.000    4.667    0.000 
#    0.000    6.667    0.000    0.000    0.000    0.000 
#    0.000    0.000    0.000    0.000    0.000    0.000 
#
# Total GULP energy -148725.753632 kJ/mol
# GULP energy per Si atom -12393.812803 kJ/mol
# Density = 2.337011 g / cm^3
# Si number density = 23.423423 Si / 1000 Ang^3
#
#
#
# Elastic Constant Matrix: (Units=GPa)
#
#
# Indices 1 2 3 4 5 6 
#
# 1 74.0796 19.2622 -5.1987 0.0000 -2.4178 0.0000
# 2 19.2622 91.3540 4.4192 0.0000 3.5902 0.0000
# 3 -5.1987 4.4192 100.1453 0.0000 1.6540 0.0000
# 4 0.0000 0.0000 0.0000 38.3754 0.0000 5.4884
# 5 -2.4178 3.5902 1.6540 0.0000 35.8322 0.0000
# 6 0.0000 0.0000 0.0000 5.4884 0.0000 33.1238
#
#
#
# Elastic Compliance Matrix: (Units=1/GPa)
#
#
# Indices 1 2 3 4 5 6 
#
# 1 0.014414 -0.003130 0.000866 0.000000 0.001246 0.000000
# 2 -0.003130 0.011691 -0.000656 0.000000 -0.001352 0.000000
# 3 0.000866 -0.000656 0.010065 0.000000 -0.000340 0.000000
# 4 0.000000 0.000000 0.000000 0.026691 0.000000 -0.004423
# 5 0.001246 -0.001352 -0.000340 0.000000 0.028143 0.000000
# 6 0.000000 0.000000 0.000000 -0.004423 0.000000 0.030923
#
#
# Mechanical properties :
#
#
# Convention : Reuss Voigt Hill
#
# Bulk Modulus (GPa) = 32.97083 33.61602 33.29342
# Shear Modulus (GPa) = 36.26392 37.93935 37.10164
#
# Velocity S-wave (km/s) = 3.93897 4.02894 3.98421
# Velocity P-wave (km/s) = 5.89864 6.00214 5.95062
#
# Compressibility (1/GPa) = 0.03032984
#
# Stress axis : x y z
#
# Youngs Moduli (GPa) = 69.37533 85.53355 99.35409
#
# Poissons Ratio (x) = 0.26773 -0.08602
# Poissons Ratio (y) = 0.21716 0.06518
# Poissons Ratio (z) = -0.06007 0.05612
#
# Static dielectric constant tensor:
#      x y z
#    x 4.254810 0.000000 0.093410 
#    y 0.000000 4.456600 0.000000 
#    z 0.093410 0.000000 4.373020 
# 
# 
# High freq. dielectric constant tensor:
#      x y z
#    x 1.912660 0.000000 0.010610 
#    y 0.000000 1.921160 0.000000 
#    z 0.010610 0.000000 1.941380 
# 
# From -- ./inp_files/41431.got.cif
#   From: 2010.03.12/outbox.cif.g09.slc.cpg/sg5_21_cif.got.tgz:41431.got - 2010.03.31 09:47:26.
