data_PCOD8050682
_publ_section_title
;
Structure prediction by ZEFSAII (Michael W. Deem and Ramdas Pophale) SiO2 
 PCOD8050682
Probable space group: C 2
;
_chemical_formula_sum "Si O2"
_cell_formula_units_Z 26
_cell_length_a 12.189808
_cell_length_b 13.280931
_cell_length_c 9.591839
_cell_angle_alpha 90.000000
_cell_angle_beta 55.633070
_cell_angle_gamma 90.000000
_cell_volume 1281.777036
_symmetry_space_group_name_H-M "C 2"
_symmetry_group_IT_number 5
_symmetry_cell_setting 'monoclinic'
loop_
_space_group_symop_operation_xyz
x,y,z
-x,y,-z
1/2+x,1/2+y,z
1/2-x,1/2+y,-z
loop_
_atom_site_type_symbol
_atom_site_label
_atom_site_fract_x
_atom_site_fract_y
_atom_site_fract_z
Si Si1 0.826620 0.960790 0.885943
Si Si2 0.656736 0.602789 0.381063
Si Si3 0.181512 0.488253 0.503297
Si Si4 0.120354 0.535799 0.239251
Si Si5 0.945253 0.756546 0.695835
Si Si6 0.500000 0.424222 0.000000
Si Si7 0.193218 0.799967 0.692514
O O1 0.851592 0.851201 0.799823
O O2 0.953296 0.987780 0.896934
O O3 0.802979 0.039922 0.782001
O O4 0.692215 0.968864 0.071223
O O5 0.500000 0.601672 0.500000
O O6 0.719496 0.555203 0.475321
O O7 0.705616 0.716494 0.323710
O O8 0.191593 0.519414 0.335418
O O9 0.229661 0.372451 0.471991
O O10 0.030917 0.498643 0.661842
O O11 0.135531 0.655770 0.209021
O O12 0.000000 0.761109 0.500000
O O13 0.074379 0.747150 0.697594
O O14 0.629793 0.357419 0.870624
#
# Coordination Sequence:
#
# PCOD8050682 Si02
#       7
#     4   4   4   4   4   2   4
#     4  11  25  39  69  99 135 172 233 284 332 403
#     4  12  26  41  65 104 135 173 224 292 338 401
#     4  11  23  45  67  98 134 182 226 273 347 412
#     4  11  23  42  73  96 133 184 229 278 334 426
#     4  11  21  45  70  97 134 190 226 269 348 424
#     4  10  22  42  64  92 130 186 214 270 338 416
#     4  11  23  39  69  93 134 173 226 272 342 407
#
# _framework density 20.284338999999999
#
# number of rings (size 3 to 8) (size 9 to 14) (size 15 to 20)
#    0.000    0.923    4.615    3.231    6.462    0.615 
#    0.000    0.000    0.000    0.000    0.000    0.000 
#    0.000    0.000    0.000    0.000    0.000    0.000 
#
# Total GULP energy -161150.150357 kJ/mol
# GULP energy per Si atom -12396.165412 kJ/mol
# Density = 2.023817 g / cm^3
# Si number density = 20.284339 Si / 1000 Ang^3
#
#
#
# Elastic Constant Matrix: (Units=GPa)
#
#
# Indices 1 2 3 4 5 6 
#
# 1 110.3647 34.2283 41.9883 0.0000 -2.0501 0.0000
# 2 34.2283 106.3733 43.0682 0.0000 -18.0405 0.0000
# 3 41.9883 43.0682 114.0047 0.0000 -19.3462 0.0000
# 4 0.0000 0.0000 0.0000 32.6112 0.0000 -4.0592
# 5 -2.0501 -18.0405 -19.3462 0.0000 25.7063 0.0000
# 6 0.0000 0.0000 0.0000 -4.0592 0.0000 36.0086
#
#
#
# Elastic Compliance Matrix: (Units=1/GPa)
#
#
# Indices 1 2 3 4 5 6 
#
# 1 0.011279 -0.002760 -0.003769 0.000000 -0.003874 0.000000
# 2 -0.002760 0.012445 -0.002568 0.000000 0.006581 0.000000
# 3 -0.003769 -0.002568 0.012350 0.000000 0.007192 0.000000
# 4 0.000000 0.000000 0.000000 0.031101 0.000000 0.003506
# 5 -0.003874 0.006581 0.007192 0.000000 0.048623 0.000000
# 6 0.000000 0.000000 0.000000 0.003506 0.000000 0.028166
#
#
# Mechanical properties :
#
#
# Convention : Reuss Voigt Hill
#
# Bulk Modulus (GPa) = 55.92876 63.25691 59.59283
# Shear Modulus (GPa) = 29.74108 32.96243 31.35175
#
# Velocity S-wave (km/s) = 3.83326 4.03553 3.93569
# Velocity P-wave (km/s) = 6.87198 7.27783 7.07781
#
# Compressibility (1/GPa) = 0.01787989
#
# Stress axis : x y z
#
# Youngs Moduli (GPa) = 88.66211 80.35418 80.97115
#
# Poissons Ratio (x) = 0.22181 0.30515
# Poissons Ratio (y) = 0.24475 0.20793
# Poissons Ratio (z) = 0.33413 0.20634
#
# Static dielectric constant tensor:
#      x y z
#    x 3.869550 0.000000 0.154940 
#    y 0.000000 3.781030 0.000000 
#    z 0.154940 0.000000 4.030120 
# 
# 
# High freq. dielectric constant tensor:
#      x y z
#    x 1.801160 0.000000 0.004790 
#    y 0.000000 1.789550 0.000000 
#    z 0.004790 0.000000 1.798200 
# 
# From -- ./inp_files/20270.got.cif
#   From: 2010.03.12/outbox.cif.g09.slc.cpg/sg5_11_cif.got.tgz:20270.got - 2010.03.31 09:47:26.
