data_PCOD8050151
_publ_section_title
;
Structure prediction by ZEFSAII (Michael W. Deem and Ramdas Pophale) SiO2 
 PCOD8050151
Probable space group: C 2
;
_chemical_formula_sum "Si O2"
_cell_formula_units_Z 32
_cell_length_a 24.419735
_cell_length_b 14.294804
_cell_length_c 8.956203
_cell_angle_alpha 90.000000
_cell_angle_beta 29.884112
_cell_angle_gamma 90.000000
_cell_volume 1557.715216
_symmetry_space_group_name_H-M "C 2"
_symmetry_group_IT_number 5
_symmetry_cell_setting 'monoclinic'
loop_
_space_group_symop_operation_xyz
x,y,z
-x,y,-z
1/2+x,1/2+y,z
1/2-x,1/2+y,-z
loop_
_atom_site_type_symbol
_atom_site_label
_atom_site_fract_x
_atom_site_fract_y
_atom_site_fract_z
Si Si1 0.244226 0.480650 0.201616
Si Si2 0.712772 0.193116 0.755704
Si Si3 0.299025 0.536001 0.741327
Si Si4 0.912568 0.318943 0.333746
Si Si5 0.998891 0.162345 0.680426
Si Si6 0.582874 0.364645 0.033494
Si Si7 0.750262 0.663198 0.656998
Si Si8 0.150894 0.859379 0.530822
O O1 0.145071 0.409705 0.462193
O O2 0.358111 0.447269 0.012741
O O3 0.199183 0.579810 0.365474
O O4 0.267283 0.493860 0.974090
O O5 0.717901 0.118377 0.877270
O O6 0.823940 0.252170 0.465647
O O7 0.615297 0.264405 0.028312
O O8 0.696911 0.146742 0.630999
O O9 0.422424 0.578703 0.447321
O O10 0.279313 0.451520 0.671513
O O11 0.963808 0.264272 0.352393
O O12 0.000000 0.347399 0.000000
O O13 0.000000 0.162701 0.500000
O O14 0.879991 0.145885 0.031452
O O15 0.621233 0.366924 0.772587
O O16 0.451191 0.368595 0.344225
O O17 0.783040 0.763042 0.652943
#
# Coordination Sequence:
#
# PCOD8050151 Si02
#       8
#     4   4   4   4   4   4   4   4
#     4  11  23  38  61  90 125 157 206 252 318 364
#     4   9  20  39  63  87 120 157 211 255 304 364
#     4  11  23  36  59  95 121 157 201 258 310 367
#     4  10  21  41  63  91 117 161 206 256 307 369
#     4  11  22  38  63  90 125 157 206 253 313 364
#     4   9  20  41  60  86 117 164 205 254 301 370
#     4  11  21  38  60  89 121 163 206 254 301 369
#     4  10  22  37  61  88 123 159 210 249 306 363
#
# _framework density 20.542905999999999
#
# number of rings (size 3 to 8) (size 9 to 14) (size 15 to 20)
#    0.000    1.750    2.500    1.500    1.750    2.000 
#    4.500    0.000    0.000    0.000    0.000    0.000 
#    0.000    0.000    0.000    0.000    0.000    0.000 
#
# Total GULP energy -198342.213207 kJ/mol
# GULP energy per Si atom -12396.388325 kJ/mol
# Density = 2.049615 g / cm^3
# Si number density = 20.542906 Si / 1000 Ang^3
#
#
#
# Elastic Constant Matrix: (Units=GPa)
#
#
# Indices 1 2 3 4 5 6 
#
# 1 72.0807 44.9662 6.9360 0.0000 0.7922 0.0000
# 2 44.9662 149.7628 31.6456 0.0000 3.4567 0.0000
# 3 6.9360 31.6456 47.3755 0.0000 2.0114 0.0000
# 4 0.0000 0.0000 0.0000 22.1254 0.0000 0.9269
# 5 0.7922 3.4567 2.0114 0.0000 15.4713 0.0000
# 6 0.0000 0.0000 0.0000 0.9269 0.0000 41.7535
#
#
#
# Elastic Compliance Matrix: (Units=1/GPa)
#
#
# Indices 1 2 3 4 5 6 
#
# 1 0.017119 -0.005371 0.001074 0.000000 0.000184 0.000000
# 2 -0.005371 0.009477 -0.005496 0.000000 -0.001128 0.000000
# 3 0.001074 -0.005496 0.024709 0.000000 -0.002039 0.000000
# 4 0.000000 0.000000 0.000000 0.045239 0.000000 -0.001004
# 5 0.000184 -0.001128 -0.002039 0.000000 0.065144 0.000000
# 6 0.000000 0.000000 0.000000 -0.001004 0.000000 0.023972
#
#
# Mechanical properties :
#
#
# Convention : Reuss Voigt Hill
#
# Bulk Modulus (GPa) = 31.52859 48.47942 40.00401
# Shear Modulus (GPa) = 23.16752 28.24813 25.70782
#
# Velocity S-wave (km/s) = 3.36186 3.71223 3.54138
# Velocity P-wave (km/s) = 5.51819 6.48263 6.01976
#
# Compressibility (1/GPa) = 0.03171724
#
# Stress axis : x y z
#
# Youngs Moduli (GPa) = 58.41610 105.51539 40.47138
#
# Poissons Ratio (x) = 0.56672 -0.04345
# Poissons Ratio (y) = 0.31375 0.22245
# Poissons Ratio (z) = -0.06272 0.57995
#
# Static dielectric constant tensor:
#      x y z
#    x 3.791520 0.000000 -0.181740 
#    y 0.000000 3.984480 0.000000 
#    z -0.181740 0.000000 3.508160 
# 
# 
# High freq. dielectric constant tensor:
#      x y z
#    x 1.804730 0.000000 0.003660 
#    y 0.000000 1.818150 0.000000 
#    z 0.003660 0.000000 1.776340 
# 
# From -- ./inp_files/31066.got.cif
#   From: 2010.03.12/outbox.cif.g09.slc.cpg/sg5_16_cif.got.tgz:31066.got - 2010.03.31 09:47:26.
