data_PCOD8050551
_publ_section_title
;
Structure prediction by ZEFSAII (Michael W. Deem and Ramdas Pophale) SiO2 
 PCOD8050551
Probable space group: C 2
;
_chemical_formula_sum "Si O2"
_cell_formula_units_Z 28
_cell_length_a 10.683676
_cell_length_b 11.143668
_cell_length_c 11.777439
_cell_angle_alpha 90.000000
_cell_angle_beta 81.593868
_cell_angle_gamma 90.000000
_cell_volume 1387.103075
_symmetry_space_group_name_H-M "C 2"
_symmetry_group_IT_number 5
_symmetry_cell_setting 'monoclinic'
loop_
_space_group_symop_operation_xyz
x,y,z
-x,y,-z
1/2+x,1/2+y,z
1/2-x,1/2+y,-z
loop_
_atom_site_type_symbol
_atom_site_label
_atom_site_fract_x
_atom_site_fract_y
_atom_site_fract_z
Si Si1 0.699811 0.897620 0.843330
Si Si2 0.686047 0.261629 0.738859
Si Si3 0.996074 0.591903 0.872740
Si Si4 0.360382 0.411686 0.045968
Si Si5 0.640568 0.497761 0.612238
Si Si6 0.221101 0.120766 0.813770
Si Si7 0.652566 0.545653 0.355062
O O1 0.680091 0.756814 0.833814
O O2 0.563216 0.961377 0.864500
O O3 0.780987 0.943895 0.727444
O O4 0.776335 0.927476 0.946389
O O5 0.563732 0.178089 0.772876
O O6 0.713639 0.324249 0.856521
O O7 0.656846 0.358459 0.644892
O O8 0.804541 0.179641 0.686393
O O9 0.853383 0.583386 0.851585
O O10 0.000000 0.645090 0.000000
O O11 0.381159 0.539906 0.105314
O O12 0.500000 0.361001 0.000000
O O13 0.723458 0.584506 0.681232
O O14 0.691478 0.517393 0.479076
O O15 0.496175 0.537959 0.643351
#
# Coordination Sequence:
#
# PCOD8050551 Si02
#       7
#     4   4   4   4   4   4   4
#     4  11  23  38  64  92 127 168 209 261 320 391
#     4  10  22  40  68  90 126 169 208 269 318 382
#     4  11  21  40  60  94 130 166 205 261 329 380
#     4  11  22  39  62  92 125 166 211 260 327 386
#     4  10  23  43  64  93 123 165 220 264 318 379
#     4  11  23  38  61  93 127 164 213 260 314 385
#     4  10  23  43  66  91 123 169 215 262 324 374
#
# _framework density 20.185953999999999
#
# number of rings (size 3 to 8) (size 9 to 14) (size 15 to 20)
#    0.000    1.429    1.429    4.714    4.000    2.857 
#    0.000    2.143    0.000    0.000    0.000    0.000 
#    0.000    0.000    0.000    0.000    0.000    0.000 
#
# Total GULP energy -173614.765701 kJ/mol
# GULP energy per Si atom -12401.054693 kJ/mol
# Density = 2.014001 g / cm^3
# Si number density = 20.185954 Si / 1000 Ang^3
#
#
#
# Elastic Constant Matrix: (Units=GPa)
#
#
# Indices 1 2 3 4 5 6 
#
# 1 62.9097 33.0567 27.9493 0.0000 6.0786 0.0000
# 2 33.0567 163.6282 60.3402 0.0000 -3.7658 0.0000
# 3 27.9493 60.3402 137.6419 0.0000 5.1399 0.0000
# 4 0.0000 0.0000 0.0000 6.5608 0.0000 -20.0409
# 5 6.0786 -3.7658 5.1399 0.0000 35.0437 0.0000
# 6 0.0000 0.0000 0.0000 -20.0409 0.0000 15.3401
#
#
#
# Elastic Compliance Matrix: (Units=1/GPa)
#
#
# Indices 1 2 3 4 5 6 
#
# 1 0.018848 -0.003001 -0.002391 0.000000 -0.003241 0.000000
# 2 -0.003001 0.007823 -0.002887 0.000000 0.001785 0.000000
# 3 -0.002391 -0.002887 0.009062 0.000000 -0.001225 0.000000
# 4 0.000000 0.000000 0.000000 -0.050965 0.000000 -0.066582
# 5 -0.003241 0.001785 -0.001225 0.000000 0.029469 0.000000
# 6 0.000000 0.000000 0.000000 -0.066582 0.000000 -0.021797
#
#
# Mechanical properties :
#
#
# Convention : Reuss Voigt Hill
#
# Bulk Modulus (GPa) = 52.14729 67.43024 59.78877
# Shear Modulus (GPa) = 324.89549 27.57782 176.23665
#
# Velocity S-wave (km/s) = 12.70042 3.70021 9.35394
# Velocity P-wave (km/s) = 15.52279 7.19253 12.09730
#
# Compressibility (1/GPa) = 0.01917645
#
# Stress axis : x y z
#
# Youngs Moduli (GPa) = 53.05644 127.82335 110.35073
#
# Poissons Ratio (x) = 0.38356 0.26382
# Poissons Ratio (y) = 0.15921 0.31858
# Poissons Ratio (z) = 0.12684 0.36902
#
# Static dielectric constant tensor:
#      x y z
#    x 3.503170 0.000000 -0.017880 
#    y 0.000000 3.783400 0.000000 
#    z -0.017880 0.000000 3.932260 
# 
# 
# High freq. dielectric constant tensor:
#      x y z
#    x 1.776360 0.000000 0.000220 
#    y 0.000000 1.801200 0.000000 
#    z 0.000220 0.000000 1.798000 
# 
# From -- ./inp_files/38804.got.cif
#   From: 2010.03.12/outbox.cif.g09.slc.cpg/sg5_20_cif.got.tgz:38804.got - 2010.03.31 09:47:26.
