data_PCOD8050908
_publ_section_title
;
Structure prediction by ZEFSAII (Michael W. Deem and Ramdas Pophale) SiO2 
 PCOD8050908
Probable space group: C 2
;
_chemical_formula_sum "Si O2"
_cell_formula_units_Z 26
_cell_length_a 13.722353
_cell_length_b 8.605305
_cell_length_c 12.970456
_cell_angle_alpha 90.000000
_cell_angle_beta 132.661708
_cell_angle_gamma 90.000000
_cell_volume 1126.301405
_symmetry_space_group_name_H-M "C 2"
_symmetry_group_IT_number 5
_symmetry_cell_setting 'monoclinic'
loop_
_space_group_symop_operation_xyz
x,y,z
-x,y,-z
1/2+x,1/2+y,z
1/2-x,1/2+y,-z
loop_
_atom_site_type_symbol
_atom_site_label
_atom_site_fract_x
_atom_site_fract_y
_atom_site_fract_z
Si Si1 0.500000 0.817730 0.500000
Si Si2 0.732992 0.022783 0.740730
Si Si3 0.605580 0.892840 0.950804
Si Si4 0.667580 0.194516 0.901336
Si Si5 0.816828 0.342776 0.757781
Si Si6 0.807424 0.093309 0.466055
Si Si7 0.604933 0.354229 0.301374
O O1 0.428175 0.708577 0.530659
O O2 0.598055 0.930960 0.629840
O O3 0.729028 0.082887 0.855695
O O4 0.742068 0.181468 0.679938
O O5 0.854346 0.909125 0.787368
O O6 0.713823 0.795497 0.962861
O O7 0.647571 0.858528 0.097380
O O8 0.611859 0.078655 0.946840
O O9 0.461360 0.839602 0.807443
O O10 0.550432 0.318259 0.791169
O O11 0.722108 0.479957 0.651528
O O12 0.677315 0.197193 0.390008
O O13 0.843790 0.994600 0.591650
#
# Coordination Sequence:
#
# PCOD8050908 Si02
#       7
#     2   4   4   4   4   4   4
#     4  10  26  40  66 104 134 178 230 282 352 430
#     4  10  25  43  65 102 137 180 226 287 354 418
#     4  10  24  44  67  99 129 181 237 277 348 415
#     4  11  25  45  70  98 136 181 234 289 347 420
#     4  10  22  45  71  92 140 177 229 291 346 416
#     4  11  24  42  68 102 135 179 227 288 355 425
#     4  11  25  44  68 104 137 184 223 291 364 417
#
# _framework density 23.084408
#
# number of rings (size 3 to 8) (size 9 to 14) (size 15 to 20)
#    0.000    1.538    1.538    0.923   12.923    3.692 
#    0.000    0.000    0.000    0.000    0.000    0.000 
#    0.000    0.000    0.000    0.000    0.000    0.000 
#
# Total GULP energy -161051.092982 kJ/mol
# GULP energy per Si atom -12388.545614 kJ/mol
# Density = 2.303187 g / cm^3
# Si number density = 23.084408 Si / 1000 Ang^3
#
#
#
# Elastic Constant Matrix: (Units=GPa)
#
#
# Indices 1 2 3 4 5 6 
#
# 1 72.2166 37.4113 26.1813 0.0000 23.3740 0.0000
# 2 37.4113 153.8998 48.1410 0.0000 18.9703 0.0000
# 3 26.1813 48.1410 58.7348 0.0000 19.6009 0.0000
# 4 0.0000 0.0000 0.0000 36.9903 0.0000 1.4813
# 5 23.3740 18.9703 19.6009 0.0000 29.8846 0.0000
# 6 0.0000 0.0000 0.0000 1.4813 0.0000 54.2490
#
#
#
# Elastic Compliance Matrix: (Units=1/GPa)
#
#
# Indices 1 2 3 4 5 6 
#
# 1 0.020154 -0.002496 -0.002824 0.000000 -0.012326 0.000000
# 2 -0.002496 0.009075 -0.006471 0.000000 0.000436 0.000000
# 3 -0.002824 -0.006471 0.027499 0.000000 -0.011720 0.000000
# 4 0.000000 0.000000 0.000000 0.027064 0.000000 -0.000739
# 5 -0.012326 0.000436 -0.011720 0.000000 0.050513 0.000000
# 6 0.000000 0.000000 0.000000 -0.000739 0.000000 0.018454
#
#
# Mechanical properties :
#
#
# Convention : Reuss Voigt Hill
#
# Bulk Modulus (GPa) = 30.16979 56.47980 43.32480
# Shear Modulus (GPa) = 26.68229 35.76595 31.22412
#
# Velocity S-wave (km/s) = 3.40348 3.94046 3.68177
# Velocity P-wave (km/s) = 5.34253 6.72478 6.07311
#
# Compressibility (1/GPa) = 0.03314574
#
# Stress axis : x y z
#
# Youngs Moduli (GPa) = 49.61816 110.19323 36.36437
#
# Poissons Ratio (x) = 0.27509 0.10269
# Poissons Ratio (y) = 0.12387 0.23531
# Poissons Ratio (z) = 0.14012 0.71305
#
# Static dielectric constant tensor:
#      x y z
#    x 4.560630 0.000000 0.447550 
#    y 0.000000 4.748400 0.000000 
#    z 0.447550 0.000000 4.010550 
# 
# 
# High freq. dielectric constant tensor:
#      x y z
#    x 1.915960 0.000000 0.015860 
#    y 0.000000 1.939760 0.000000 
#    z 0.015860 0.000000 1.885450 
# 
# From -- ./inp_files/54272.got.cif
#   From: 2010.03.12/outbox.cif.g09.slc.cpg/sg5_28_cif.got.tgz:54272.got - 2010.03.31 09:47:26.
