data_PCOD8050282
_publ_section_title
;
Structure prediction by ZEFSAII (Michael W. Deem and Ramdas Pophale) SiO2 
 PCOD8050282
Probable space group: C 2
;
_chemical_formula_sum "Si O2"
_cell_formula_units_Z 24
_cell_length_a 8.535941
_cell_length_b 16.967046
_cell_length_c 14.695698
_cell_angle_alpha 90.000000
_cell_angle_beta 146.916207
_cell_angle_gamma 90.000000
_cell_volume 1161.804599
_symmetry_space_group_name_H-M "C 2"
_symmetry_group_IT_number 5
_symmetry_cell_setting 'monoclinic'
loop_
_space_group_symop_operation_xyz
x,y,z
-x,y,-z
1/2+x,1/2+y,z
1/2-x,1/2+y,-z
loop_
_atom_site_type_symbol
_atom_site_label
_atom_site_fract_x
_atom_site_fract_y
_atom_site_fract_z
Si Si1 0.007857 0.965020 0.272429
Si Si2 0.000000 0.351522 0.500000
Si Si3 0.352059 0.733332 0.274694
Si Si4 0.694293 0.103248 0.503885
Si Si5 0.500000 0.855814 0.000000
Si Si6 0.117421 0.066116 0.152850
Si Si7 0.795510 0.226441 0.040559
O O1 0.256401 0.906158 0.421256
O O2 0.051789 0.039409 0.360076
O O3 0.025352 0.997825 0.177842
O O4 0.722188 0.916373 0.153745
O O5 0.872095 0.305880 0.352068
O O6 0.624816 0.679811 0.435701
O O7 0.372355 0.757610 0.178844
O O8 0.033103 0.696756 0.132019
O O9 0.500000 0.114246 0.500000
O O10 0.464380 0.077924 0.315104
O O11 0.643954 0.800409 0.994834
O O12 0.991853 0.151613 0.116147
O O13 0.000000 0.036158 0.000000
#
# Coordination Sequence:
#
# PCOD8050282 Si02
#       7
#     4   2   4   4   2   4   4
#     4  11  24  45  66  94 140 181 218 287 343 392
#     4  12  24  44  66 100 138 176 228 288 340 390
#     4  11  25  41  72  98 140 181 231 276 339 415
#     4  10  21  43  68  96 129 182 223 274 337 405
#     4  12  26  44  70 102 142 176 230 292 342 398
#     4  11  23  41  72  97 139 179 231 273 343 410
#     4  11  24  44  67 105 135 184 230 278 342 408
#
# _framework density 20.657520000000002
#
# number of rings (size 3 to 8) (size 9 to 14) (size 15 to 20)
#    0.000    1.000    8.333    0.000    7.000    1.333 
#    0.000    0.000    0.000    0.000    0.000    0.000 
#    0.000    0.000    0.000    0.000    0.000    0.000 
#
# Total GULP energy -148720.293308 kJ/mol
# GULP energy per Si atom -12393.357776 kJ/mol
# Density = 2.061050 g / cm^3
# Si number density = 20.657520 Si / 1000 Ang^3
#
#
#
# Elastic Constant Matrix: (Units=GPa)
#
#
# Indices 1 2 3 4 5 6 
#
# 1 49.2330 15.3408 26.3477 0.0005 1.1572 0.0020
# 2 15.3408 65.9700 12.0483 0.0023 7.4207 0.0021
# 3 26.3477 12.0483 119.2659 0.0159 4.1184 -0.0147
# 4 0.0005 0.0023 0.0159 48.0390 0.0034 12.7909
# 5 1.1572 7.4207 4.1184 0.0034 43.6882 -0.0051
# 6 0.0020 0.0021 -0.0147 12.7909 -0.0051 13.3759
#
#
#
# Elastic Compliance Matrix: (Units=1/GPa)
#
#
# Indices 1 2 3 4 5 6 
#
# 1 0.024450 -0.004857 -0.004933 0.000005 0.000642 -0.000013
# 2 -0.004857 0.016682 -0.000520 0.000001 -0.002656 -0.000004
# 3 -0.004933 -0.000520 0.009550 -0.000008 -0.000681 0.000019
# 4 0.000005 0.000001 -0.000008 0.027927 -0.000005 -0.026706
# 5 0.000642 -0.002656 -0.000681 -0.000005 0.023388 0.000013
# 6 -0.000013 -0.000004 0.000019 -0.026706 0.000013 0.100299
#
#
# Mechanical properties :
#
#
# Convention : Reuss Voigt Hill
#
# Bulk Modulus (GPa) = 33.26541 37.99361 35.62951
# Shear Modulus (GPa) = 21.46501 33.06941 27.26721
#
# Velocity S-wave (km/s) = 3.22699 4.00539 3.63707
# Velocity P-wave (km/s) = 5.47931 6.31054 5.90956
#
# Compressibility (1/GPa) = 0.03006126
#
# Stress axis : x y z
#
# Youngs Moduli (GPa) = 40.90011 59.94607 104.70672
#
# Poissons Ratio (x) = 0.29116 0.51651
# Poissons Ratio (y) = 0.19865 0.05450
# Poissons Ratio (z) = 0.20176 0.03120
#
# Static dielectric constant tensor:
#      x y z
#    x 3.577310 0.000000 -0.015750 
#    y 0.000000 3.709440 -0.000010 
#    z -0.015750 -0.000010 4.175650 
# 
# 
# High freq. dielectric constant tensor:
#      x y z
#    x 1.783560 0.000000 0.007720 
#    y 0.000000 1.806680 0.000000 
#    z 0.007720 0.000000 1.835120 
# 
# From -- ./inp_files/15703.got.cif
#   From: 2010.03.12/outbox.cif.g09.slc.cpg/sg5_8_cif.got.tgz:15703.got - 2010.03.31 09:47:26.
