data_PCOD8050339
_publ_section_title
;
Structure prediction by ZEFSAII (Michael W. Deem and Ramdas Pophale) SiO2 
 PCOD8050339
Probable space group: C 2
;
_chemical_formula_sum "Si O2"
_cell_formula_units_Z 24
_cell_length_a 9.655633
_cell_length_b 11.299235
_cell_length_c 8.861183
_cell_angle_alpha 90.000000
_cell_angle_beta 85.895123
_cell_angle_gamma 90.000000
_cell_volume 964.286235
_symmetry_space_group_name_H-M "C 2"
_symmetry_group_IT_number 5
_symmetry_cell_setting 'monoclinic'
loop_
_space_group_symop_operation_xyz
x,y,z
-x,y,-z
1/2+x,1/2+y,z
1/2-x,1/2+y,-z
loop_
_atom_site_type_symbol
_atom_site_label
_atom_site_fract_x
_atom_site_fract_y
_atom_site_fract_z
Si Si1 0.212498 0.848150 0.123393
Si Si2 0.500000 0.499873 0.000000
Si Si3 0.293780 0.396982 0.531864
Si Si4 0.000000 0.307175 0.500000
Si Si5 0.000000 0.694118 0.500000
Si Si6 0.592109 0.595641 0.686216
Si Si7 0.000000 0.409747 0.000000
Si Si8 0.392516 0.108356 0.791628
O O1 0.202460 0.913959 0.286941
O O2 0.118932 0.729783 0.112088
O O3 0.144826 0.928514 0.998086
O O4 0.376822 0.827729 0.075493
O O5 0.502576 0.567411 0.841232
O O6 0.360375 0.269930 0.495316
O O7 0.393307 0.496109 0.447313
O O8 0.136828 0.391522 0.473657
O O9 0.974823 0.219670 0.360929
O O10 0.993303 0.614875 0.349799
O O11 0.747757 0.612259 0.720383
O O12 0.928383 0.493512 0.882772
#
# Coordination Sequence:
#
# PCOD8050339 Si02
#       8
#     4   2   4   2   2   4   2   4
#     4  11  25  49  70 109 147 189 251 294 366 440
#     4  12  25  47  74 102 152 194 231 317 360 444
#     4  11  26  46  75 106 141 195 247 303 358 433
#     4  12  25  49  78 108 146 194 245 311 356 430
#     4  10  21  47  70 100 142 178 247 303 342 446
#     4  12  25  46  71 110 143 188 247 296 372 427
#     4  12  27  47  74 106 148 196 231 309 362 440
#     4  11  25  45  70 107 141 187 245 293 369 428
#
# _framework density 24.888877999999998
#
# number of rings (size 3 to 8) (size 9 to 14) (size 15 to 20)
#    0.000    0.667    5.000    4.000    4.667    2.000 
#    3.000    0.000    0.000    0.000    0.000    0.000 
#    0.000    0.000    0.000    0.000    0.000    0.000 
#
# Total GULP energy -148677.700400 kJ/mol
# GULP energy per Si atom -12389.808367 kJ/mol
# Density = 2.483223 g / cm^3
# Si number density = 24.888878 Si / 1000 Ang^3
#
#
#
# Elastic Constant Matrix: (Units=GPa)
#
#
# Indices 1 2 3 4 5 6 
#
# 1 117.3572 -2.1039 26.6136 0.0000 2.1103 0.0000
# 2 -2.1039 34.8825 1.6340 0.0000 -4.9153 0.0000
# 3 26.6136 1.6340 84.8014 0.0000 -24.4626 0.0000
# 4 0.0000 0.0000 0.0000 44.5480 0.0000 8.1394
# 5 2.1103 -4.9153 -24.4626 0.0000 47.6450 0.0000
# 6 0.0000 0.0000 0.0000 8.1394 0.0000 41.9075
#
#
#
# Elastic Compliance Matrix: (Units=1/GPa)
#
#
# Indices 1 2 3 4 5 6 
#
# 1 0.009383 0.000422 -0.003592 0.000000 -0.002216 0.000000
# 2 0.000422 0.029119 0.000197 0.000000 0.003086 0.000000
# 3 -0.003592 0.000197 0.015222 0.000000 0.007995 0.000000
# 4 0.000000 0.000000 0.000000 0.023274 0.000000 -0.004520
# 5 -0.002216 0.003086 0.007995 0.000000 0.025510 0.000000
# 6 0.000000 0.000000 0.000000 -0.004520 0.000000 0.024740
#
#
# Mechanical properties :
#
#
# Convention : Reuss Voigt Hill
#
# Bulk Modulus (GPa) = 20.93058 32.14761 26.53909
# Shear Modulus (GPa) = 33.53000 40.87993 37.20497
#
# Velocity S-wave (km/s) = 3.67439 4.05717 3.87051
# Velocity P-wave (km/s) = 5.14095 5.90695 5.53721
#
# Compressibility (1/GPa) = 0.04777699
#
# Stress axis : x y z
#
# Youngs Moduli (GPa) = 106.57533 34.34212 65.69379
#
# Poissons Ratio (x) = -0.01449 0.23599
# Poissons Ratio (y) = -0.04496 -0.01293
# Poissons Ratio (z) = 0.38284 -0.00676
#
# Static dielectric constant tensor:
#      x y z
#    x 4.323690 0.000000 0.549280 
#    y 0.000000 4.998410 0.000000 
#    z 0.549280 0.000000 3.238060 
# 
# 
# High freq. dielectric constant tensor:
#      x y z
#    x 2.006610 0.000000 0.004500 
#    y 0.000000 1.983200 0.000000 
#    z 0.004500 0.000000 1.994490 
# 
# From -- ./inp_files/14991.got.cif
#   From: 2010.03.12/outbox.cif.g09.slc.cpg/sg5_8_cif.got.tgz:14991.got - 2010.03.31 09:47:26.
