data_PCOD8050332
_publ_section_title
;
Structure prediction by ZEFSAII (Michael W. Deem and Ramdas Pophale) SiO2 
 PCOD8050332
Probable space group: C 2
;
_chemical_formula_sum "Si O2"
_cell_formula_units_Z 16
_cell_length_a 11.772892
_cell_length_b 7.107968
_cell_length_c 13.193562
_cell_angle_alpha 90.000000
_cell_angle_beta 145.342388
_cell_angle_gamma 90.000000
_cell_volume 627.844180
_symmetry_space_group_name_H-M "C 2"
_symmetry_group_IT_number 5
_symmetry_cell_setting 'monoclinic'
loop_
_space_group_symop_operation_xyz
x,y,z
-x,y,-z
1/2+x,1/2+y,z
1/2-x,1/2+y,-z
loop_
_atom_site_type_symbol
_atom_site_label
_atom_site_fract_x
_atom_site_fract_y
_atom_site_fract_z
Si Si1 0.095227 0.565160 0.329645
Si Si2 0.300739 0.936131 0.808349
Si Si3 0.171925 0.040176 0.066811
Si Si4 0.477512 0.495449 0.721309
O O1 0.201931 0.460520 0.314643
O O2 0.253473 0.571517 0.538194
O O3 0.027140 0.775081 0.251789
O O4 0.893372 0.448934 0.214739
O O5 0.296645 0.717751 0.836002
O O6 0.107387 0.034639 0.715705
O O7 0.500000 0.032261 0.000000
O O8 0.000000 0.915642 0.000000
O O9 0.083665 0.101462 0.892620
#
# Coordination Sequence:
#
# PCOD8050332 Si02
#       4
#     4   4   4   4
#     4  11  25  45  73 105 141 182 232 292 345 413
#     4  10  21  45  75  96 139 186 228 287 347 402
#     4  10  24  45  70 101 139 187 231 281 349 410
#     4  11  25  44  73 106 139 184 233 284 353 414
#
# _framework density 25.484029
#
# number of rings (size 3 to 8) (size 9 to 14) (size 15 to 20)
#    0.000    1.500    2.500    0.750    7.000    2.000 
#    9.000    0.000    0.000    0.000    0.000    0.000 
#    0.000    0.000    0.000    0.000    0.000    0.000 
#
# Total GULP energy -99136.729419 kJ/mol
# GULP energy per Si atom -12392.091177 kJ/mol
# Density = 2.542603 g / cm^3
# Si number density = 25.484029 Si / 1000 Ang^3
#
#
#
# Elastic Constant Matrix: (Units=GPa)
#
#
# Indices 1 2 3 4 5 6 
#
# 1 224.1417 3.9290 72.7565 0.0000 22.0458 0.0000
# 2 3.9290 42.5238 -16.1353 0.0001 -7.6081 0.0000
# 3 72.7565 -16.1353 166.6371 0.0001 29.6807 0.0001
# 4 0.0000 0.0001 0.0001 27.6861 0.0001 -6.4664
# 5 22.0458 -7.6081 29.6807 0.0001 44.2678 0.0000
# 6 0.0000 0.0000 0.0001 -6.4664 0.0000 22.9629
#
#
#
# Elastic Compliance Matrix: (Units=1/GPa)
#
#
# Indices 1 2 3 4 5 6 
#
# 1 0.005358 -0.001602 -0.002237 0.000000 -0.001444 0.000000
# 2 -0.001602 0.025240 0.002531 0.000000 0.003439 0.000000
# 3 -0.002237 0.002531 0.007889 0.000000 -0.003740 0.000000
# 4 0.000000 0.000000 0.000000 0.038662 0.000000 0.010887
# 5 -0.001444 0.003439 -0.003740 0.000000 0.026408 0.000000
# 6 0.000000 0.000000 0.000000 0.010887 0.000000 0.046614
#
#
# Mechanical properties :
#
#
# Convention : Reuss Voigt Hill
#
# Bulk Modulus (GPa) = 27.87861 61.60031 44.73946
# Shear Modulus (GPa) = 30.35004 43.83352 37.09178
#
# Velocity S-wave (km/s) = 3.45475 4.15183 3.81923
# Velocity P-wave (km/s) = 5.18431 6.87083 6.08627
#
# Compressibility (1/GPa) = 0.03586980
#
# Stress axis : x y z
#
# Youngs Moduli (GPa) = 186.64514 39.61984 126.75549
#
# Poissons Ratio (x) = 0.06348 0.28359
# Poissons Ratio (y) = 0.29905 -0.32082
# Poissons Ratio (z) = 0.41758 -0.10028
#
# Static dielectric constant tensor:
#      x y z
#    x 5.501800 0.000000 0.515490 
#    y 0.000000 4.002660 0.000000 
#    z 0.515490 0.000000 4.500480 
# 
# 
# High freq. dielectric constant tensor:
#      x y z
#    x 2.039650 0.000000 0.017570 
#    y 0.000000 1.977830 0.000000 
#    z 0.017570 0.000000 2.019260 
# 
# From -- ./inp_files/17800.got.cif
#   From: 2010.03.12/outbox.cif.g09.slc.cpg/sg5_9_cif.got.tgz:17800.got - 2010.03.31 09:47:26.
