data_PCOD8050247
_publ_section_title
;
Structure prediction by ZEFSAII (Michael W. Deem and Ramdas Pophale) SiO2 
 PCOD8050247
Probable space group: C 2
;
_chemical_formula_sum "Si O2"
_cell_formula_units_Z 26
_cell_length_a 16.617428
_cell_length_b 9.574126
_cell_length_c 8.696668
_cell_angle_alpha 90.000000
_cell_angle_beta 120.962445
_cell_angle_gamma 90.000000
_cell_volume 1186.457937
_symmetry_space_group_name_H-M "C 2"
_symmetry_group_IT_number 5
_symmetry_cell_setting 'monoclinic'
loop_
_space_group_symop_operation_xyz
x,y,z
-x,y,-z
1/2+x,1/2+y,z
1/2-x,1/2+y,-z
loop_
_atom_site_type_symbol
_atom_site_label
_atom_site_fract_x
_atom_site_fract_y
_atom_site_fract_z
Si Si1 0.329810 0.518840 0.753641
Si Si2 0.685214 0.214257 0.746689
Si Si3 0.000000 0.568931 0.500000
Si Si4 0.067620 0.331287 0.774232
Si Si5 0.000000 0.098110 0.500000
Si Si6 0.301078 0.501019 0.375896
Si Si7 0.500000 0.701663 0.000000
Si Si8 0.226271 0.762989 0.123641
O O1 0.262478 0.594892 0.808174
O O2 0.283361 0.517837 0.539539
O O3 0.428995 0.597058 0.843370
O O4 0.335902 0.361299 0.826146
O O5 0.589886 0.168146 0.567271
O O6 0.731659 0.349238 0.711737
O O7 0.666771 0.237129 0.910263
O O8 0.985156 0.471123 0.334979
O O9 0.056771 0.308820 0.945676
O O10 0.174838 0.335792 0.822739
O O11 0.014425 0.195531 0.660533
O O12 0.911017 0.001334 0.442680
O O13 0.243053 0.618323 0.228801
#
# Coordination Sequence:
#
# PCOD8050247 Si02
#       8
#     4   4   2   4   2   4   2   4
#     4  12  25  44  69 105 141 183 248 301 355 426
#     4  12  25  42  71 101 141 192 240 293 360 433
#     4  11  25  44  70 102 148 190 240 292 366 426
#     4  10  21  42  69  99 138 188 230 287 354 430
#     4   9  19  38  66  92 126 184 226 270 348 428
#     4  11  24  41  68 100 141 184 236 295 365 418
#     4  12  24  40  74 108 140 188 248 298 352 430
#     4  11  24  45  70 100 142 191 238 294 363 432
#
# _framework density 21.913967
#
# number of rings (size 3 to 8) (size 9 to 14) (size 15 to 20)
#    0.000    0.923    4.615    2.308    2.154    2.462 
#    0.000    1.538    0.000    0.923    0.000    0.000 
#    0.000    0.000    0.000    0.000    0.000    0.000 
#
# Total GULP energy -161224.574273 kJ/mol
# GULP energy per Si atom -12401.890329 kJ/mol
# Density = 2.186409 g / cm^3
# Si number density = 21.913967 Si / 1000 Ang^3
#
#
#
# Elastic Constant Matrix: (Units=GPa)
#
#
# Indices 1 2 3 4 5 6 
#
# 1 49.6746 31.8395 19.2174 0.0000 -5.3139 0.0000
# 2 31.8395 119.4219 41.6159 0.0000 -7.3751 0.0000
# 3 19.2174 41.6159 109.1605 0.0000 -15.0905 0.0000
# 4 0.0000 0.0000 0.0000 32.2110 0.0000 -3.1285
# 5 -5.3139 -7.3751 -15.0905 0.0000 42.5080 0.0000
# 6 0.0000 0.0000 0.0000 -3.1285 0.0000 29.2343
#
#
#
# Elastic Compliance Matrix: (Units=1/GPa)
#
#
# Indices 1 2 3 4 5 6 
#
# 1 0.024776 -0.005843 -0.001941 0.000000 0.001394 0.000000
# 2 -0.005843 0.011041 -0.003172 0.000000 0.000059 0.000000
# 3 -0.001941 -0.003172 0.011150 0.000000 0.003165 0.000000
# 4 0.000000 0.000000 0.000000 0.031371 0.000000 0.003357
# 5 0.001394 0.000059 0.003165 0.000000 0.024833 0.000000
# 6 0.000000 0.000000 0.000000 0.003357 0.000000 0.034566
#
#
# Mechanical properties :
#
#
# Convention : Reuss Voigt Hill
#
# Bulk Modulus (GPa) = 39.91548 51.51137 45.71343
# Shear Modulus (GPa) = 29.76166 33.16294 31.46230
#
# Velocity S-wave (km/s) = 3.68926 3.89437 3.79320
# Velocity P-wave (km/s) = 6.03338 6.61655 6.33168
#
# Compressibility (1/GPa) = 0.02505294
#
# Stress axis : x y z
#
# Youngs Moduli (GPa) = 40.36096 90.57463 89.68982
#
# Poissons Ratio (x) = 0.52923 0.17413
# Poissons Ratio (y) = 0.23583 0.28452
# Poissons Ratio (z) = 0.07836 0.28733
#
# Static dielectric constant tensor:
#      x y z
#    x 3.746540 0.000000 -0.018420 
#    y 0.000000 3.901050 0.000000 
#    z -0.018420 0.000000 4.010140 
# 
# 
# High freq. dielectric constant tensor:
#      x y z
#    x 1.841240 0.000000 -0.002940 
#    y 0.000000 1.868310 0.000000 
#    z -0.002940 0.000000 1.867460 
# 
# From -- ./inp_files/28688.got.cif
#   From: 2010.03.12/outbox.cif.g09.slc.cpg/sg5_15_cif.got.tgz:28688.got - 2010.03.31 09:47:26.
