data_PCOD8050297
_publ_section_title
;
Structure prediction by ZEFSAII (Michael W. Deem and Ramdas Pophale) SiO2 
 PCOD8050297
Probable space group: C 2
;
_chemical_formula_sum "Si O2"
_cell_formula_units_Z 20
_cell_length_a 19.228973
_cell_length_b 5.883954
_cell_length_c 12.094855
_cell_angle_alpha 90.000000
_cell_angle_beta 143.394302
_cell_angle_gamma 90.000000
_cell_volume 816.007716
_symmetry_space_group_name_H-M "C 2"
_symmetry_group_IT_number 5
_symmetry_cell_setting 'monoclinic'
loop_
_space_group_symop_operation_xyz
x,y,z
-x,y,-z
1/2+x,1/2+y,z
1/2-x,1/2+y,-z
loop_
_atom_site_type_symbol
_atom_site_label
_atom_site_fract_x
_atom_site_fract_y
_atom_site_fract_z
Si Si1 0.090735 0.267740 0.833423
Si Si2 0.211578 0.503684 0.810786
Si Si3 0.919975 0.949903 0.728812
Si Si4 0.765896 0.272428 0.668939
Si Si5 0.121366 0.634794 0.053386
O O1 0.092660 0.416548 0.721407
O O2 0.208101 0.115709 0.991092
O O3 0.084324 0.435700 0.926204
O O4 0.979148 0.103840 0.707324
O O5 0.197059 0.681632 0.691195
O O6 0.265362 0.270998 0.836689
O O7 0.827481 0.795888 0.547016
O O8 0.858603 0.086517 0.748641
O O9 0.010301 0.801021 0.915462
O O10 0.839172 0.505926 0.783051
#
# Coordination Sequence:
#
# PCOD8050297 Si02
#       5
#     4   4   4   4   4
#     4  10  21  43  78 108 142 191 239 303 375 449
#     4  10  21  43  78 108 142 191 239 303 375 449
#     4  11  28  48  73 108 153 197 249 312 370 447
#     4  11  28  48  73 108 153 197 249 312 370 447
#     4  10  24  47  76 104 141 192 242 304 373 452
#
# _framework density 24.509571000000001
#
# number of rings (size 3 to 8) (size 9 to 14) (size 15 to 20)
#    0.000    1.600    2.000    0.000    5.600    8.800 
#    0.000    6.000    0.000    0.000    0.000    0.000 
#    0.000    0.000    0.000    0.000    0.000    0.000 
#
# Total GULP energy -123921.757452 kJ/mol
# GULP energy per Si atom -12392.175745 kJ/mol
# Density = 2.445379 g / cm^3
# Si number density = 24.509571 Si / 1000 Ang^3
#
#
#
# Elastic Constant Matrix: (Units=GPa)
#
#
# Indices 1 2 3 4 5 6 
#
# 1 101.3883 21.5143 28.8385 0.0000 -10.6892 0.0000
# 2 21.5143 76.4037 10.9109 0.0000 -4.5163 0.0000
# 3 28.8385 10.9109 68.9258 0.0000 -11.9944 0.0000
# 4 0.0000 0.0000 0.0000 46.7284 0.0000 -3.1562
# 5 -10.6892 -4.5163 -11.9944 0.0000 26.0310 0.0000
# 6 0.0000 0.0000 0.0000 -3.1562 0.0000 50.7179
#
#
#
# Elastic Compliance Matrix: (Units=1/GPa)
#
#
# Indices 1 2 3 4 5 6 
#
# 1 0.011849 -0.002601 -0.004107 0.000000 0.002522 0.000000
# 2 -0.002601 0.014014 -0.000971 0.000000 0.000916 0.000000
# 3 -0.004107 -0.000971 0.017457 0.000000 0.006189 0.000000
# 4 0.000000 0.000000 0.000000 0.021491 0.000000 0.001337
# 5 0.002522 0.000916 0.006189 0.000000 0.042462 0.000000
# 6 0.000000 0.000000 0.000000 0.001337 0.000000 0.019800
#
#
# Mechanical properties :
#
#
# Convention : Reuss Voigt Hill
#
# Bulk Modulus (GPa) = 35.76205 41.02724 38.39465
# Shear Modulus (GPa) = 32.94871 37.05906 35.00388
#
# Velocity S-wave (km/s) = 3.67047 3.89269 3.78322
# Velocity P-wave (km/s) = 5.70841 6.08109 5.89769
#
# Compressibility (1/GPa) = 0.02796260
#
# Stress axis : x y z
#
# Youngs Moduli (GPa) = 84.39485 71.35957 57.28232
#
# Poissons Ratio (x) = 0.18560 0.23526
# Poissons Ratio (y) = 0.21951 0.05560
# Poissons Ratio (z) = 0.34661 0.06927
#
# Static dielectric constant tensor:
#      x y z
#    x 4.375790 0.000000 -0.065860 
#    y 0.000000 4.892840 0.000000 
#    z -0.065860 0.000000 4.147740 
# 
# 
# High freq. dielectric constant tensor:
#      x y z
#    x 1.979950 0.000000 -0.011060 
#    y 0.000000 1.998820 0.000000 
#    z -0.011060 0.000000 1.942620 
# 
# From -- ./inp_files/45561.got.cif
#   From: 2010.03.12/outbox.cif.g09.slc.cpg/sg5_23_cif.got.tgz:45561.got - 2010.03.31 09:47:26.
