data_PCOD8050395
_publ_section_title
;
Structure prediction by ZEFSAII (Michael W. Deem and Ramdas Pophale) SiO2 
 PCOD8050395
Probable space group: C 2
;
_chemical_formula_sum "Si O2"
_cell_formula_units_Z 28
_cell_length_a 24.847396
_cell_length_b 8.951064
_cell_length_c 6.156039
_cell_angle_alpha 90.000000
_cell_angle_beta 111.910664
_cell_angle_gamma 90.000000
_cell_volume 1270.269123
_symmetry_space_group_name_H-M "C 2"
_symmetry_group_IT_number 5
_symmetry_cell_setting 'monoclinic'
loop_
_space_group_symop_operation_xyz
x,y,z
-x,y,-z
1/2+x,1/2+y,z
1/2-x,1/2+y,-z
loop_
_atom_site_type_symbol
_atom_site_label
_atom_site_fract_x
_atom_site_fract_y
_atom_site_fract_z
Si Si1 0.656489 0.176510 0.309348
Si Si2 0.663605 0.850994 0.413746
Si Si3 0.000000 0.978512 0.500000
Si Si4 0.264112 0.670212 0.174947
Si Si5 0.545449 0.228226 0.871587
Si Si6 0.000000 0.478364 0.500000
Si Si7 0.954665 0.227726 0.735169
Si Si8 0.225512 0.846931 0.725378
O O1 0.718519 0.151908 0.297322
O O2 0.667656 0.306366 0.502375
O O3 0.639223 0.020175 0.398219
O O4 0.609179 0.232215 0.068119
O O5 0.687190 0.791395 0.681959
O O6 0.610133 0.742509 0.263073
O O7 0.713847 0.843897 0.311590
O O8 0.040346 0.080633 0.406910
O O9 0.039276 0.875527 0.714812
O O10 0.289902 0.504027 0.183622
O O11 0.231932 0.717498 0.910533
O O12 0.540089 0.081841 0.713081
O O13 0.500000 0.225478 0.000000
O O14 0.038514 0.374323 0.403730
O O15 0.000000 0.221629 0.000000
#
# Coordination Sequence:
#
# PCOD8050395 Si02
#       8
#     4   4   2   4   4   2   4   4
#     4  10  22  40  62  88 120 160 206 255 308 364
#     4  10  22  40  62  89 120 160 205 254 309 367
#     4  10  26  42  60  92 126 166 210 250 322 382
#     4  10  22  38  60  89 124 160 204 254 303 372
#     4  11  23  42  64  91 127 164 208 262 312 375
#     4  10  22  38  64  96 118 162 212 252 320 376
#     4  11  23  42  64  91 127 163 207 262 312 374
#     4  10  22  40  62  90 122 163 205 252 313 365
#
# _framework density 22.042573000000001
#
# number of rings (size 3 to 8) (size 9 to 14) (size 15 to 20)
#    0.000    1.714    0.000    3.429    0.000   12.571 
#    0.000    0.000    0.000    0.000    0.000    0.000 
#    0.000    0.000    0.000    0.000    0.000    0.000 
#
# Total GULP energy -173567.812925 kJ/mol
# GULP energy per Si atom -12397.700923 kJ/mol
# Density = 2.199240 g / cm^3
# Si number density = 22.042573 Si / 1000 Ang^3
#
#
#
# Elastic Constant Matrix: (Units=GPa)
#
#
# Indices 1 2 3 4 5 6 
#
# 1 43.3420 31.0197 27.9172 0.0000 16.5209 0.0000
# 2 31.0197 177.1386 86.2209 0.0000 9.5191 0.0000
# 3 27.9172 86.2209 163.5842 0.0000 24.6817 0.0000
# 4 0.0000 0.0000 0.0000 39.6294 0.0000 -1.0146
# 5 16.5209 9.5191 24.6817 0.0000 39.8201 0.0000
# 6 0.0000 0.0000 0.0000 -1.0146 0.0000 21.0892
#
#
#
# Elastic Compliance Matrix: (Units=1/GPa)
#
#
# Indices 1 2 3 4 5 6 
#
# 1 0.031201 -0.004156 -0.001469 0.000000 -0.011041 0.000000
# 2 -0.004156 0.008166 -0.003928 0.000000 0.002207 0.000000
# 3 -0.001469 -0.003928 0.009046 0.000000 -0.004059 0.000000
# 4 0.000000 0.000000 0.000000 0.025265 0.000000 0.001216
# 5 -0.011041 0.002207 -0.004059 0.000000 0.031682 0.000000
# 6 0.000000 0.000000 0.000000 0.001216 0.000000 0.047476
#
#
# Mechanical properties :
#
#
# Convention : Reuss Voigt Hill
#
# Bulk Modulus (GPa) = 34.11865 74.93115 54.52490
# Shear Modulus (GPa) = 27.51618 36.03487 31.77552
#
# Velocity S-wave (km/s) = 3.53699 4.04763 3.80090
# Velocity P-wave (km/s) = 5.67385 7.47744 6.63719
#
# Compressibility (1/GPa) = 0.02930949
#
# Stress axis : x y z
#
# Youngs Moduli (GPa) = 32.05025 122.45348 110.54061
#
# Poissons Ratio (x) = 0.50887 0.16233
# Poissons Ratio (y) = 0.13319 0.43420
# Poissons Ratio (z) = 0.04707 0.48100
#
# Static dielectric constant tensor:
#      x y z
#    x 3.761250 0.000000 0.014200 
#    y 0.000000 4.333480 0.000000 
#    z 0.014200 0.000000 4.038810 
# 
# 
# High freq. dielectric constant tensor:
#      x y z
#    x 1.850170 0.000000 0.004090 
#    y 0.000000 1.882630 0.000000 
#    z 0.004090 0.000000 1.873520 
# 
# From -- ./inp_files/11212.got.cif
#   From: 2010.03.12/outbox.cif.g09.slc.cpg/sg5_6_cif.got.tgz:11212.got - 2010.03.31 09:47:26.
