data_PCOD8050455
_publ_section_title
;
Structure prediction by ZEFSAII (Michael W. Deem and Ramdas Pophale) SiO2 
 PCOD8050455
Probable space group: C 2
;
_chemical_formula_sum "Si O2"
_cell_formula_units_Z 24
_cell_length_a 17.865708
_cell_length_b 7.589496
_cell_length_c 24.074853
_cell_angle_alpha 90.000000
_cell_angle_beta 20.323069
_cell_angle_gamma 90.000000
_cell_volume 1133.752241
_symmetry_space_group_name_H-M "C 2"
_symmetry_group_IT_number 5
_symmetry_cell_setting 'monoclinic'
loop_
_space_group_symop_operation_xyz
x,y,z
-x,y,-z
1/2+x,1/2+y,z
1/2-x,1/2+y,-z
loop_
_atom_site_type_symbol
_atom_site_label
_atom_site_fract_x
_atom_site_fract_y
_atom_site_fract_z
Si Si1 0.592705 0.015940 0.657632
Si Si2 0.070561 0.745870 0.887413
Si Si3 0.994946 0.073476 0.568340
Si Si4 0.484967 0.337594 0.351618
Si Si5 0.234798 0.446460 0.940574
Si Si6 0.164645 0.040089 0.010102
O O1 0.479495 0.135582 0.688885
O O2 0.764612 0.125077 0.576876
O O3 0.397155 0.952226 0.832362
O O4 0.722803 0.862824 0.535428
O O5 0.327814 0.727309 0.700545
O O6 0.000000 0.750748 0.000000
O O7 0.962860 0.579105 0.931478
O O8 0.015469 0.932350 0.897725
O O9 0.000000 0.031355 0.500000
O O10 0.921975 0.894386 0.652700
O O11 0.598833 0.460947 0.226302
O O12 0.147390 0.246514 0.007565
O O13 0.366771 0.507802 0.902770
#
# Coordination Sequence:
#
# PCOD8050455 Si02
#       6
#     4   4   4   4   4   4
#     4   9  21  40  64  90 119 170 219 251 310 397
#     4  12  24  42  65  95 136 168 207 274 334 366
#     4  10  22  39  63  92 129 166 203 270 333 366
#     4   9  21  37  62  88 123 167 211 259 315 386
#     4  11  22  42  62  96 125 170 217 264 314 391
#     4  11  24  39  70  94 125 170 225 256 314 398
#
# _framework density 21.168645999999999
#
# number of rings (size 3 to 8) (size 9 to 14) (size 15 to 20)
#    1.000    0.667    3.333    1.000    7.000    0.667 
#    0.000    0.000    0.000    2.000    0.000    0.000 
#    0.000    0.000    0.000    0.000    0.000    0.000 
#
# Total GULP energy -148678.811382 kJ/mol
# GULP energy per Si atom -12389.900949 kJ/mol
# Density = 2.112047 g / cm^3
# Si number density = 21.168646 Si / 1000 Ang^3
#
#
#
# Elastic Constant Matrix: (Units=GPa)
#
#
# Indices 1 2 3 4 5 6 
#
# 1 140.1385 28.9041 10.4487 0.0029 18.4580 0.0029
# 2 28.9041 69.1397 -13.5333 -0.0293 -3.1521 -0.0148
# 3 10.4487 -13.5333 58.0373 0.0015 5.9090 -0.0131
# 4 0.0029 -0.0293 0.0015 22.8712 -0.0006 -4.7997
# 5 18.4580 -3.1521 5.9090 -0.0006 37.1536 0.0015
# 6 0.0029 -0.0148 -0.0131 -4.7997 0.0015 32.3106
#
#
#
# Elastic Compliance Matrix: (Units=1/GPa)
#
#
# Indices 1 2 3 4 5 6 
#
# 1 0.008752 -0.004274 -0.002127 -0.000008 -0.004372 -0.000005
# 2 -0.004274 0.017263 0.004503 0.000025 0.002872 0.000014
# 3 -0.002127 0.004503 0.018821 0.000007 -0.001555 0.000011
# 4 -0.000008 0.000025 0.000007 0.045130 0.000005 0.006704
# 5 -0.004372 0.002872 -0.001555 0.000005 0.029578 0.000001
# 6 -0.000005 0.000014 0.000011 0.006704 0.000001 0.031945
#
#
# Mechanical properties :
#
#
# Convention : Reuss Voigt Hill
#
# Bulk Modulus (GPa) = 24.36784 35.43937 29.90360
# Shear Modulus (GPa) = 29.59148 34.56681 32.07914
#
# Velocity S-wave (km/s) = 3.74290 4.04533 3.89705
# Velocity P-wave (km/s) = 5.49684 6.21268 5.86569
#
# Compressibility (1/GPa) = 0.04103770
#
# Stress axis : x y z
#
# Youngs Moduli (GPa) = 114.26067 57.92840 53.13079
#
# Poissons Ratio (x) = 0.24761 0.11302
# Poissons Ratio (y) = 0.48840 -0.23922
# Poissons Ratio (z) = 0.24306 -0.26082
#
# Static dielectric constant tensor:
#      x y z
#    x 3.872380 0.000010 0.174000 
#    y 0.000010 3.529620 0.000000 
#    z 0.174000 0.000000 3.872460 
# 
# 
# High freq. dielectric constant tensor:
#      x y z
#    x 1.835340 0.000000 0.017020 
#    y 0.000000 1.804490 0.000000 
#    z 0.017020 0.000000 1.827690 
# 
# From -- ./inp_files/70851.got.cif
#   From: 2010.03.12/outbox.cif.g09.slc.cpg/sg5_36_cif.got.tgz:70851.got - 2010.03.31 09:47:26.
