data_PCOD8050924
_publ_section_title
;
Structure prediction by ZEFSAII (Michael W. Deem and Ramdas Pophale) SiO2 
 PCOD8050924
Probable space group: C 2
;
_chemical_formula_sum "Si O2"
_cell_formula_units_Z 26
_cell_length_a 7.844967
_cell_length_b 12.127559
_cell_length_c 13.661331
_cell_angle_alpha 90.000000
_cell_angle_beta 116.342914
_cell_angle_gamma 90.000000
_cell_volume 1164.770426
_symmetry_space_group_name_H-M "C 2"
_symmetry_group_IT_number 5
_symmetry_cell_setting 'monoclinic'
loop_
_space_group_symop_operation_xyz
x,y,z
-x,y,-z
1/2+x,1/2+y,z
1/2-x,1/2+y,-z
loop_
_atom_site_type_symbol
_atom_site_label
_atom_site_fract_x
_atom_site_fract_y
_atom_site_fract_z
Si Si1 0.097925 0.992250 0.229943
Si Si2 0.516198 0.716194 0.269598
Si Si3 0.814687 0.770809 0.671799
Si Si4 0.000000 0.934287 0.000000
Si Si5 0.921128 0.374492 0.088804
Si Si6 0.779342 0.851840 0.451349
Si Si7 0.981177 0.527900 0.709745
O O1 0.046044 0.870309 0.256506
O O2 0.027331 0.010537 0.101528
O O3 0.991852 0.084290 0.268331
O O4 0.320431 0.018970 0.296304
O O5 0.359754 0.773529 0.297385
O O6 0.495889 0.759685 0.153148
O O7 0.722231 0.755227 0.361062
O O8 0.729859 0.804252 0.545619
O O9 0.924933 0.655914 0.703569
O O10 0.191389 0.863021 0.032168
O O11 0.997941 0.475270 0.176219
O O12 0.000000 0.392260 0.000000
O O13 0.000000 0.877863 0.500000
O O14 0.671791 0.965025 0.396905
#
# Coordination Sequence:
#
# PCOD8050924 Si02
#       7
#     4   4   4   2   4   4   4
#     4  11  25  47  70 101 149 178 236 299 350 429
#     4  11  25  47  69 107 141 186 235 295 361 417
#     4  12  25  46  72 100 143 187 228 301 346 432
#     4  10  22  46  68 108 140 190 236 296 362 404
#     4  10  23  47  73 105 149 187 244 295 353 435
#     4  11  25  44  72 104 140 189 238 284 361 425
#     4  10  25  48  66 108 141 183 243 289 356 425
#
# _framework density 22.321994
#
# number of rings (size 3 to 8) (size 9 to 14) (size 15 to 20)
#    0.000    1.231    4.615    1.385    7.538    2.462 
#    4.154    0.000    0.000    0.000    0.000    0.000 
#    0.000    0.000    0.000    0.000    0.000    0.000 
#
# Total GULP energy -161164.997848 kJ/mol
# GULP energy per Si atom -12397.307527 kJ/mol
# Density = 2.227119 g / cm^3
# Si number density = 22.321994 Si / 1000 Ang^3
#
#
#
# Elastic Constant Matrix: (Units=GPa)
#
#
# Indices 1 2 3 4 5 6 
#
# 1 63.0527 29.4403 54.4925 0.0000 -2.7281 0.0000
# 2 29.4403 196.3500 66.0304 0.0000 -0.4005 0.0000
# 3 54.4925 66.0304 135.8732 0.0000 1.5769 0.0000
# 4 0.0000 0.0000 0.0000 18.8039 0.0000 -5.3925
# 5 -2.7281 -0.4005 1.5769 0.0000 40.1568 0.0000
# 6 0.0000 0.0000 0.0000 -5.3925 0.0000 26.8493
#
#
#
# Elastic Compliance Matrix: (Units=1/GPa)
#
#
# Indices 1 2 3 4 5 6 
#
# 1 0.024470 -0.000426 -0.009630 0.000000 0.002036 0.000000
# 2 -0.000426 0.006097 -0.002793 0.000000 0.000142 0.000000
# 3 -0.009630 -0.002793 0.012593 0.000000 -0.001177 0.000000
# 4 0.000000 0.000000 0.000000 0.056431 0.000000 0.011334
# 5 0.002036 0.000142 -0.001177 0.000000 0.025088 0.000000
# 6 0.000000 0.000000 0.000000 0.011334 0.000000 0.039521
#
#
# Mechanical properties :
#
#
# Convention : Reuss Voigt Hill
#
# Bulk Modulus (GPa) = 57.27472 77.24469 67.25970
# Shear Modulus (GPa) = 25.54680 33.51618 29.53149
#
# Velocity S-wave (km/s) = 3.38667 3.87911 3.64122
# Velocity P-wave (km/s) = 6.40366 7.39886 6.91918
#
# Compressibility (1/GPa) = 0.01745971
#
# Stress axis : x y z
#
# Youngs Moduli (GPa) = 40.86702 164.02724 79.40801
#
# Poissons Ratio (x) = 0.06992 0.76471
# Poissons Ratio (y) = 0.01742 0.22182
# Poissons Ratio (z) = 0.39355 0.45820
#
# Static dielectric constant tensor:
#      x y z
#    x 3.917120 0.000000 0.041260 
#    y 0.000000 3.968850 0.000000 
#    z 0.041260 0.000000 4.269880 
# 
# 
# High freq. dielectric constant tensor:
#      x y z
#    x 1.875180 0.000000 0.002130 
#    y 0.000000 1.876730 0.000000 
#    z 0.002130 0.000000 1.891480 
# 
# From -- ./inp_files/50378.got.cif
#   From: 2010.03.12/outbox.cif.g09.slc.cpg/sg5_26_cif.got.tgz:50378.got - 2010.03.31 09:47:26.
