data_PCOD8050221
_publ_section_title
;
Structure prediction by ZEFSAII (Michael W. Deem and Ramdas Pophale) SiO2 
 PCOD8050221
Probable space group: C 2
;
_chemical_formula_sum "Si O2"
_cell_formula_units_Z 24
_cell_length_a 11.174017
_cell_length_b 11.517598
_cell_length_c 20.537734
_cell_angle_alpha 90.000000
_cell_angle_beta 25.916277
_cell_angle_gamma 90.000000
_cell_volume 1155.213274
_symmetry_space_group_name_H-M "C 2"
_symmetry_group_IT_number 5
_symmetry_cell_setting 'monoclinic'
loop_
_space_group_symop_operation_xyz
x,y,z
-x,y,-z
1/2+x,1/2+y,z
1/2-x,1/2+y,-z
loop_
_atom_site_type_symbol
_atom_site_label
_atom_site_fract_x
_atom_site_fract_y
_atom_site_fract_z
Si Si1 0.460839 0.046900 0.880315
Si Si2 0.803463 0.359104 0.862200
Si Si3 0.345091 0.724086 0.643577
Si Si4 0.970817 0.045696 0.352064
Si Si5 0.588383 0.959834 0.329331
Si Si6 0.512929 0.621855 0.798861
O O1 0.557048 0.152622 0.785130
O O2 0.735069 0.986543 0.775612
O O3 0.280795 0.952930 0.930709
O O4 0.283152 0.096423 0.026207
O O5 0.902502 0.428631 0.750731
O O6 0.016665 0.258849 0.779249
O O7 0.500000 0.305681 0.000000
O O8 0.500000 0.706723 0.500000
O O9 0.533548 0.672606 0.610411
O O10 0.280289 0.857831 0.690826
O O11 0.935243 0.052769 0.292591
O O12 0.730463 0.966949 0.497497
O O13 0.747885 0.080334 0.268343
#
# Coordination Sequence:
#
# PCOD8050221 Si02
#       6
#     4   4   4   4   4   4
#     4  10  24  41  72  96 134 188 231 284 351 416
#     4  12  23  46  72  99 141 185 232 295 346 417
#     4  10  21  42  64  94 136 178 228 285 341 403
#     4  10  23  41  65 102 132 179 226 286 338 418
#     4  12  24  42  71 101 138 184 231 287 352 415
#     4  12  23  44  70 101 134 184 232 280 364 407
#
# _framework density 20.775386000000001
#
# number of rings (size 3 to 8) (size 9 to 14) (size 15 to 20)
#    1.000    0.000    3.333    5.000    0.000    1.333 
#    3.000    1.667    3.667    0.000    0.000    0.000 
#    0.000    0.000    0.000    0.000    0.000    0.000 
#
# Total GULP energy -148738.617418 kJ/mol
# GULP energy per Si atom -12394.884785 kJ/mol
# Density = 2.072810 g / cm^3
# Si number density = 20.775386 Si / 1000 Ang^3
#
#
#
# Elastic Constant Matrix: (Units=GPa)
#
#
# Indices 1 2 3 4 5 6 
#
# 1 83.9159 45.2296 33.4083 -0.0017 13.4167 -0.0108
# 2 45.2296 91.0463 16.6124 0.0037 1.0088 -0.0042
# 3 33.4083 16.6124 109.1505 -0.0609 14.6024 0.0059
# 4 -0.0017 0.0037 -0.0609 28.6964 -0.0159 -2.4413
# 5 13.4167 1.0088 14.6024 -0.0159 42.9051 0.0094
# 6 -0.0108 -0.0042 0.0059 -2.4413 0.0094 40.7874
#
#
#
# Elastic Compliance Matrix: (Units=1/GPa)
#
#
# Indices 1 2 3 4 5 6 
#
# 1 0.018769 -0.008572 -0.003857 -0.000008 -0.004355 0.000005
# 2 -0.008572 0.015216 -0.000003 -0.000001 0.002324 -0.000001
# 3 -0.003857 -0.000003 0.010667 0.000021 -0.002424 -0.000001
# 4 -0.000008 -0.000001 0.000021 0.035026 0.000008 0.002096
# 5 -0.004355 0.002324 -0.002424 0.000008 0.025439 -0.000006
# 6 0.000005 -0.000001 -0.000001 0.002096 -0.000006 0.024643
#
#
# Mechanical properties :
#
#
# Convention : Reuss Voigt Hill
#
# Bulk Modulus (GPa) = 50.53686 52.73481 51.63583
# Shear Modulus (GPa) = 31.01328 35.06860 33.04094
#
# Velocity S-wave (km/s) = 3.86786 4.11297 3.99229
# Velocity P-wave (km/s) = 6.65772 6.92775 6.79408
#
# Compressibility (1/GPa) = 0.01978754
#
# Stress axis : x y z
#
# Youngs Moduli (GPa) = 53.28015 65.71815 93.74578
#
# Poissons Ratio (x) = 0.56332 0.36162
# Poissons Ratio (y) = 0.45670 0.00030
# Poissons Ratio (z) = 0.20553 0.00021
#
# Static dielectric constant tensor:
#      x y z
#    x 3.590520 0.000030 0.117770 
#    y 0.000030 3.567000 -0.000010 
#    z 0.117770 -0.000010 3.746510 
# 
# 
# High freq. dielectric constant tensor:
#      x y z
#    x 1.802570 0.000000 0.017230 
#    y 0.000000 1.798880 0.000000 
#    z 0.017230 0.000000 1.825580 
# 
# From -- ./inp_files/65216.got.cif
#   From: 2010.03.12/outbox.cif.g09.slc.cpg/sg5_33_cif.got.tgz:65216.got - 2010.03.31 09:47:26.
