data_PCOD8050845
_publ_section_title
;
Structure prediction by ZEFSAII (Michael W. Deem and Ramdas Pophale) SiO2 
 PCOD8050845
Probable space group: C 2
;
_chemical_formula_sum "Si O2"
_cell_formula_units_Z 30
_cell_length_a 9.137184
_cell_length_b 10.287631
_cell_length_c 25.153151
_cell_angle_alpha 90.000000
_cell_angle_beta 144.533583
_cell_angle_gamma 90.000000
_cell_volume 1371.883048
_symmetry_space_group_name_H-M "C 2"
_symmetry_group_IT_number 5
_symmetry_cell_setting 'monoclinic'
loop_
_space_group_symop_operation_xyz
x,y,z
-x,y,-z
1/2+x,1/2+y,z
1/2-x,1/2+y,-z
loop_
_atom_site_type_symbol
_atom_site_label
_atom_site_fract_x
_atom_site_fract_y
_atom_site_fract_z
Si Si1 0.657457 0.761720 0.669485
Si Si2 0.015659 0.787182 0.330282
Si Si3 0.495353 0.158951 0.860896
Si Si4 0.705244 0.550946 0.403391
Si Si5 0.735366 0.549136 0.290551
Si Si6 0.500000 0.808539 0.000000
Si Si7 0.027809 0.368131 0.125637
Si Si8 0.756458 0.651343 0.899628
O O1 0.869744 0.701401 0.769260
O O2 0.402521 0.677437 0.598642
O O3 0.738572 0.752221 0.631906
O O4 0.619271 0.912738 0.675348
O O5 0.936047 0.665173 0.342533
O O6 0.796822 0.817286 0.223817
O O7 0.079634 0.913964 0.385924
O O8 0.326656 0.201946 0.861592
O O9 0.533703 0.005663 0.867281
O O10 0.768694 0.218457 0.946997
O O11 0.631957 0.560126 0.319710
O O12 0.000000 0.546672 0.500000
O O13 0.491151 0.558292 0.178984
O O14 0.549538 0.891014 0.068322
O O15 0.810391 0.270996 0.081316
O O16 0.000000 0.581641 0.000000
#
# Coordination Sequence:
#
# PCOD8050845 Si02
#       8
#     4   4   4   4   4   2   4   4
#     4  11  22  43  66  97 130 170 213 267 327 390
#     4  10  22  44  68  95 130 169 213 267 327 386
#     4  12  24  40  62  91 131 172 218 268 314 379
#     4  11  24  45  70  96 129 169 215 268 330 393
#     4  10  24  42  67  99 129 172 218 264 329 385
#     4  12  26  36  60  96 126 172 224 260 310 380
#     4  11  24  41  61  91 127 173 220 263 319 375
#     4  11  23  42  60  91 133 172 214 269 316 374
#
# _framework density 21.867753
#
# number of rings (size 3 to 8) (size 9 to 14) (size 15 to 20)
#    0.000    1.067    5.333    0.800    1.867    4.267 
#    0.000    0.667    0.000    0.000    0.000    0.000 
#    0.000    0.000    0.000    0.000    0.000    0.000 
#
# Total GULP energy -185982.128388 kJ/mol
# GULP energy per Si atom -12398.808559 kJ/mol
# Density = 2.181798 g / cm^3
# Si number density = 21.867753 Si / 1000 Ang^3
#
#
#
# Elastic Constant Matrix: (Units=GPa)
#
#
# Indices 1 2 3 4 5 6 
#
# 1 71.2881 45.9929 7.6115 0.0000 11.1349 0.0000
# 2 45.9929 151.0066 22.7920 0.0000 16.6994 0.0000
# 3 7.6115 22.7920 59.2020 0.0000 22.4833 0.0000
# 4 0.0000 0.0000 0.0000 25.8374 0.0000 5.9996
# 5 11.1349 16.6994 22.4833 0.0000 32.7462 0.0000
# 6 0.0000 0.0000 0.0000 5.9996 0.0000 30.7649
#
#
#
# Elastic Compliance Matrix: (Units=1/GPa)
#
#
# Indices 1 2 3 4 5 6 
#
# 1 0.017905 -0.005173 0.001353 0.000000 -0.004379 0.000000
# 2 -0.005173 0.008660 -0.002245 0.000000 -0.001116 0.000000
# 3 0.001353 -0.002245 0.023431 0.000000 -0.015403 0.000000
# 4 0.000000 0.000000 0.000000 0.040539 0.000000 -0.007906
# 5 -0.004379 -0.001116 -0.015403 0.000000 0.043171 0.000000
# 6 0.000000 0.000000 0.000000 -0.007906 0.000000 0.034046
#
#
# Mechanical properties :
#
#
# Convention : Reuss Voigt Hill
#
# Bulk Modulus (GPa) = 26.40997 48.25438 37.33218
# Shear Modulus (GPa) = 25.97315 31.54303 28.75809
#
# Velocity S-wave (km/s) = 3.45010 3.80207 3.63035
# Velocity P-wave (km/s) = 5.28907 6.43341 5.88910
#
# Compressibility (1/GPa) = 0.03786448
#
# Stress axis : x y z
#
# Youngs Moduli (GPa) = 55.85109 115.47161 42.67790
#
# Poissons Ratio (x) = 0.59736 -0.05773
# Poissons Ratio (y) = 0.28893 0.09582
# Poissons Ratio (z) = -0.07554 0.25926
#
# Static dielectric constant tensor:
#      x y z
#    x 4.041930 0.000000 0.035160 
#    y 0.000000 4.161040 0.000000 
#    z 0.035160 0.000000 3.826260 
# 
# 
# High freq. dielectric constant tensor:
#      x y z
#    x 1.850550 0.000000 0.005170 
#    y 0.000000 1.868620 0.000000 
#    z 0.005170 0.000000 1.856780 
# 
# From -- ./inp_files/64478.got.cif
#   From: 2010.03.12/outbox.cif.g09.slc.cpg/sg5_33_cif.got.tgz:64478.got - 2010.03.31 09:47:26.
