data_PCOD8050016
_publ_section_title
;
Structure prediction by ZEFSAII (Michael W. Deem and Ramdas Pophale) SiO2 
 PCOD8050016
Probable space group: C 2
;
_chemical_formula_sum "Si O2"
_cell_formula_units_Z 18
_cell_length_a 7.429043
_cell_length_b 22.837837
_cell_length_c 5.300229
_cell_angle_alpha 90.000000
_cell_angle_beta 123.239029
_cell_angle_gamma 90.000000
_cell_volume 752.128235
_symmetry_space_group_name_H-M "C 2"
_symmetry_group_IT_number 5
_symmetry_cell_setting 'monoclinic'
loop_
_space_group_symop_operation_xyz
x,y,z
-x,y,-z
1/2+x,1/2+y,z
1/2-x,1/2+y,-z
loop_
_atom_site_type_symbol
_atom_site_label
_atom_site_fract_x
_atom_site_fract_y
_atom_site_fract_z
Si Si1 0.764292 0.323690 0.849208
Si Si2 0.757823 0.880316 0.668533
Si Si3 0.500000 0.485987 0.000000
Si Si4 0.636222 0.200851 0.855450
Si Si5 0.858621 0.570937 0.137828
O O1 0.657511 0.336605 0.491555
O O2 0.797962 0.255317 0.948298
O O3 0.646291 0.357863 0.987366
O O4 0.000000 0.351637 0.000000
O O5 0.500000 0.880643 0.500000
O O6 0.851676 0.945848 0.700706
O O7 0.340103 0.526720 0.036929
O O8 0.500000 0.202625 0.500000
O O9 0.744266 0.136630 0.954031
O O10 0.500000 0.212506 0.000000
O O11 0.000000 0.562286 0.500000
O O12 0.000000 0.559284 0.000000
#
# Coordination Sequence:
#
# PCOD8050016 Si02
#       5
#     4   4   2   4   4
#     4  10  22  40  63  92 134 165 212 273 328 385
#     4  10  24  41  61 100 132 170 218 274 321 390
#     4  12  26  44  76  92 138 186 226 262 340 412
#     4  10  21  39  66  95 130 166 213 276 328 388
#     4  10  25  46  67 102 135 172 227 282 328 390
#
# _framework density 23.932089000000001
#
# number of rings (size 3 to 8) (size 9 to 14) (size 15 to 20)
#    0.000    1.778    0.000    2.000    6.222    7.111 
#    0.000    0.000    0.000    0.000    0.000    0.000 
#    0.000    0.000    0.000    0.000    0.000    0.000 
#
# Total GULP energy -111536.122337 kJ/mol
# GULP energy per Si atom -12392.902482 kJ/mol
# Density = 2.387762 g / cm^3
# Si number density = 23.932089 Si / 1000 Ang^3
#
#
#
# Elastic Constant Matrix: (Units=GPa)
#
#
# Indices 1 2 3 4 5 6 
#
# 1 139.9784 85.3881 63.3260 0.0000 -36.6213 0.0000
# 2 85.3881 188.2163 41.7439 0.0000 -20.6210 0.0000
# 3 63.3260 41.7439 140.4391 0.0000 -42.1733 0.0000
# 4 0.0000 0.0000 0.0000 19.8696 0.0000 2.1585
# 5 -36.6213 -20.6210 -42.1733 0.0000 33.0933 0.0000
# 6 0.0000 0.0000 0.0000 2.1585 0.0000 45.7468
#
#
#
# Elastic Compliance Matrix: (Units=1/GPa)
#
#
# Indices 1 2 3 4 5 6 
#
# 1 0.013214 -0.004563 -0.001725 0.000000 0.009582 0.000000
# 2 -0.004563 0.007369 -0.000438 0.000000 -0.001015 0.000000
# 3 -0.001725 -0.000438 0.011944 0.000000 0.013040 0.000000
# 4 0.000000 0.000000 0.000000 0.050587 0.000000 -0.002387
# 5 0.009582 -0.001015 0.013040 0.000000 0.056806 0.000000
# 6 0.000000 0.000000 0.000000 -0.002387 0.000000 0.021972
#
#
# Mechanical properties :
#
#
# Convention : Reuss Voigt Hill
#
# Bulk Modulus (GPa) = 52.42037 94.39444 73.40740
# Shear Modulus (GPa) = 27.51751 38.28700 32.90225
#
# Velocity S-wave (km/s) = 3.39457 4.00411 3.71188
# Velocity P-wave (km/s) = 6.10864 7.80420 7.00789
#
# Compressibility (1/GPa) = 0.01907655
#
# Stress axis : x y z
#
# Youngs Moduli (GPa) = 75.67517 135.70689 83.72190
#
# Poissons Ratio (x) = 0.61918 0.14442
# Poissons Ratio (y) = 0.34528 0.03666
# Poissons Ratio (z) = 0.13054 0.05942
#
# Static dielectric constant tensor:
#      x y z
#    x 4.285620 0.000000 -0.230120 
#    y 0.000000 4.954830 0.000000 
#    z -0.230120 0.000000 4.454610 
# 
# 
# High freq. dielectric constant tensor:
#      x y z
#    x 1.973220 0.000000 -0.008710 
#    y 0.000000 1.954980 0.000000 
#    z -0.008710 0.000000 1.951340 
# 
# From -- ./inp_files/2582.got.cif
#   From: 2010.03.12/outbox.cif.g09.slc.cpg/sg5_2_cif.got.tgz:2582.got - 2010.03.31 09:47:26.
