data_PCOD8050568
_publ_section_title
;
Structure prediction by ZEFSAII (Michael W. Deem and Ramdas Pophale) SiO2 
 PCOD8050568
Probable space group: C 2
;
_chemical_formula_sum "Si O2"
_cell_formula_units_Z 26
_cell_length_a 19.654337
_cell_length_b 9.536959
_cell_length_c 8.020524
_cell_angle_alpha 90.000000
_cell_angle_beta 128.424055
_cell_angle_gamma 90.000000
_cell_volume 1177.803117
_symmetry_space_group_name_H-M "C 2"
_symmetry_group_IT_number 5
_symmetry_cell_setting 'monoclinic'
loop_
_space_group_symop_operation_xyz
x,y,z
-x,y,-z
1/2+x,1/2+y,z
1/2-x,1/2+y,-z
loop_
_atom_site_type_symbol
_atom_site_label
_atom_site_fract_x
_atom_site_fract_y
_atom_site_fract_z
Si Si1 0.685391 0.360250 0.903402
Si Si2 0.971714 0.536155 0.641508
Si Si3 0.791661 0.575944 0.230151
Si Si4 0.494754 0.348781 0.295335
Si Si5 0.686560 0.722759 0.332315
Si Si6 0.500000 0.852039 0.000000
Si Si7 0.675775 0.454785 0.516453
O O1 0.683953 0.191397 0.874607
O O2 0.602568 0.403920 0.894696
O O3 0.683245 0.438824 0.724147
O O4 0.770390 0.423323 0.121287
O O5 0.867436 0.549418 0.479550
O O6 0.000000 0.483441 0.500000
O O7 0.008791 0.685185 0.747443
O O8 0.008680 0.437782 0.841864
O O9 0.709747 0.639652 0.200302
O O10 0.500000 0.374277 0.500000
O O11 0.574666 0.418020 0.314868
O O12 0.587121 0.763803 0.153979
O O13 0.694619 0.615822 0.499762
O O14 0.753743 0.851915 0.465945
#
# Coordination Sequence:
#
# PCOD8050568 Si02
#       7
#     4   4   4   4   4   2   4
#     4  10  22  40  71 100 134 174 236 281 340 412
#     4  11  22  48  72  98 138 184 230 283 344 419
#     4  11  23  42  68  99 136 178 229 285 339 416
#     4   9  17  41  69  97 129 176 230 278 329 416
#     4  11  25  44  64  98 144 176 229 285 349 413
#     4  12  30  44  66 108 142 176 234 292 348 414
#     4  10  22  43  69  92 137 179 222 284 341 409
#
# _framework density 22.074998999999998
#
# number of rings (size 3 to 8) (size 9 to 14) (size 15 to 20)
#    0.000    1.538    6.154    0.923    6.462    2.462 
#    2.769    0.000    0.000    0.000    0.000    0.000 
#    0.000    0.000    0.000    0.000    0.000    0.000 
#
# Total GULP energy -161052.821479 kJ/mol
# GULP energy per Si atom -12388.678575 kJ/mol
# Density = 2.202475 g / cm^3
# Si number density = 22.074999 Si / 1000 Ang^3
#
#
#
# Elastic Constant Matrix: (Units=GPa)
#
#
# Indices 1 2 3 4 5 6 
#
# 1 119.9752 36.1176 27.6466 0.0000 25.6857 0.0000
# 2 36.1176 89.3012 56.6564 0.0000 14.6903 0.0000
# 3 27.6466 56.6564 65.7675 0.0000 14.6715 0.0000
# 4 0.0000 0.0000 0.0000 39.9696 0.0000 0.5570
# 5 25.6857 14.6903 14.6715 0.0000 34.1880 0.0000
# 6 0.0000 0.0000 0.0000 0.5570 0.0000 24.4186
#
#
#
# Elastic Compliance Matrix: (Units=1/GPa)
#
#
# Indices 1 2 3 4 5 6 
#
# 1 0.010749 -0.002931 -0.000523 0.000000 -0.006592 0.000000
# 2 -0.002931 0.025578 -0.020836 0.000000 0.000154 0.000000
# 3 -0.000523 -0.020836 0.034602 0.000000 -0.005503 0.000000
# 4 0.000000 0.000000 0.000000 0.025027 0.000000 -0.000571
# 5 -0.006592 0.000154 -0.005503 0.000000 0.036498 0.000000
# 6 0.000000 0.000000 0.000000 -0.000571 0.000000 0.040965
#
#
# Mechanical properties :
#
#
# Convention : Reuss Voigt Hill
#
# Bulk Modulus (GPa) = 44.74619 57.32058 51.03339
# Shear Modulus (GPa) = 21.79113 30.02347 25.90730
#
# Velocity S-wave (km/s) = 3.14529 3.69191 3.42951
# Velocity P-wave (km/s) = 5.78831 6.64803 6.23301
#
# Compressibility (1/GPa) = 0.02234827
#
# Stress axis : x y z
#
# Youngs Moduli (GPa) = 93.02911 39.09620 28.89974
#
# Poissons Ratio (x) = 0.11461 0.01511
# Poissons Ratio (y) = 0.27271 0.60217
# Poissons Ratio (z) = 0.04863 0.81463
#
# Static dielectric constant tensor:
#      x y z
#    x 4.444860 0.000000 0.375520 
#    y 0.000000 3.905960 0.000000 
#    z 0.375520 0.000000 3.794090 
# 
# 
# High freq. dielectric constant tensor:
#      x y z
#    x 1.886190 0.000000 0.021200 
#    y 0.000000 1.856100 0.000000 
#    z 0.021200 0.000000 1.847940 
# 
# From -- ./inp_files/29151.got.cif
#   From: 2010.03.12/outbox.cif.g09.slc.cpg/sg5_15_cif.got.tgz:29151.got - 2010.03.31 09:47:26.
