data_PCOD8050001
_publ_section_title
;
Structure prediction by ZEFSAII (Michael W. Deem and Ramdas Pophale) SiO2 
 PCOD8050001
Probable space group: C 2
;
_chemical_formula_sum "Si O2"
_cell_formula_units_Z 32
_cell_length_a 14.775191
_cell_length_b 23.771896
_cell_length_c 8.776761
_cell_angle_alpha 90.000000
_cell_angle_beta 150.139048
_cell_angle_gamma 90.000000
_cell_volume 1534.866297
_symmetry_space_group_name_H-M "C 2"
_symmetry_group_IT_number 5
_symmetry_cell_setting 'monoclinic'
loop_
_space_group_symop_operation_xyz
x,y,z
-x,y,-z
1/2+x,1/2+y,z
1/2-x,1/2+y,-z
loop_
_atom_site_type_symbol
_atom_site_label
_atom_site_fract_x
_atom_site_fract_y
_atom_site_fract_z
Si Si1 0.326085 0.721490 0.849350
Si Si2 0.459675 0.944705 0.117817
Si Si3 0.699382 0.341272 0.716702
Si Si4 0.662386 0.645418 0.844148
Si Si5 0.477448 0.205638 0.147382
Si Si6 0.668190 0.513580 0.847797
Si Si7 0.320369 0.438755 0.841635
Si Si8 0.040252 0.827787 0.887836
O O1 0.279830 0.779765 0.869110
O O2 0.171418 0.699534 0.510270
O O3 0.500000 0.731713 0.000000
O O4 0.358998 0.674362 0.023914
O O5 0.644995 0.943665 0.481654
O O6 0.500000 0.953775 0.000000
O O7 0.342780 0.888247 0.976960
O O8 0.349376 0.998135 0.019390
O O9 0.500000 0.349308 0.500000
O O10 0.654202 0.345731 0.470604
O O11 0.500000 0.666478 0.500000
O O12 0.654806 0.579180 0.859682
O O13 0.849974 0.658494 0.032963
O O14 0.392317 0.266819 0.073450
O O15 0.500000 0.195937 0.000000
O O16 0.500000 0.491736 0.500000
O O17 0.669551 0.486181 0.016530
O O18 0.500000 0.441163 0.000000
O O19 0.313224 0.377847 0.917621
O O20 0.000000 0.814579 0.000000
#
# Coordination Sequence:
#
# PCOD8050001 Si02
#       8
#     4   4   4   4   4   4   4   4
#     4  11  23  40  64  94 128 165 205 252 308 369
#     4  12  24  39  64  96 127 165 205 252 311 370
#     4  11  22  39  63  93 129 166 202 249 306 367
#     4  11  25  43  64  89 119 161 212 261 310 365
#     4  10  21  39  64  92 125 162 201 250 309 366
#     4  11  25  45  64  86 120 162 211 263 310 365
#     4  11  23  40  64  93 125 162 204 254 310 367
#     4   9  18  35  58  87 121 155 191 239 295 355
#
# _framework density 20.848721000000001
#
# number of rings (size 3 to 8) (size 9 to 14) (size 15 to 20)
#    0.000    1.250    0.000    7.500    0.000    7.000 
#    0.000    0.000    0.000    0.000    0.000    0.000 
#    0.000    0.000    0.000    0.000    0.000    0.000 
#
# Total GULP energy -198342.640154 kJ/mol
# GULP energy per Si atom -12396.415010 kJ/mol
# Density = 2.080127 g / cm^3
# Si number density = 20.848721 Si / 1000 Ang^3
#
#
#
# Elastic Constant Matrix: (Units=GPa)
#
#
# Indices 1 2 3 4 5 6 
#
# 1 120.6717 39.8260 55.9320 0.0000 0.0648 0.0000
# 2 39.8260 78.1170 47.7359 0.0000 -12.3337 0.0000
# 3 55.9320 47.7359 169.2610 0.0000 -9.2354 0.0000
# 4 0.0000 0.0000 0.0000 31.9434 0.0000 -2.2000
# 5 0.0648 -12.3337 -9.2354 0.0000 41.3793 0.0000
# 6 0.0000 0.0000 0.0000 -2.2000 0.0000 35.1492
#
#
#
# Elastic Compliance Matrix: (Units=1/GPa)
#
#
# Indices 1 2 3 4 5 6 
#
# 1 0.010859 -0.004319 -0.002472 0.000000 -0.001856 0.000000
# 2 -0.004319 0.017759 -0.003333 0.000000 0.004556 0.000000
# 3 -0.002472 -0.003333 0.007705 0.000000 0.000730 0.000000
# 4 0.000000 0.000000 0.000000 0.031441 0.000000 0.001968
# 5 -0.001856 0.004556 0.000730 0.000000 0.025691 0.000000
# 6 0.000000 0.000000 0.000000 0.001968 0.000000 0.028573
#
#
# Mechanical properties :
#
#
# Convention : Reuss Voigt Hill
#
# Bulk Modulus (GPa) = 62.20361 72.78195 67.49278
# Shear Modulus (GPa) = 33.86789 36.66476 35.26633
#
# Velocity S-wave (km/s) = 4.03483 4.19813 4.11729
# Velocity P-wave (km/s) = 7.18380 7.64751 7.41928
#
# Compressibility (1/GPa) = 0.01607624
#
# Stress axis : x y z
#
# Youngs Moduli (GPa) = 92.09042 56.30898 129.79405
#
# Poissons Ratio (x) = 0.24319 0.32079
# Poissons Ratio (y) = 0.39772 0.43257
# Poissons Ratio (z) = 0.22761 0.18767
#
# Static dielectric constant tensor:
#      x y z
#    x 3.836580 0.000000 -0.230320 
#    y 0.000000 3.862930 0.000000 
#    z -0.230320 0.000000 3.704610 
# 
# 
# High freq. dielectric constant tensor:
#      x y z
#    x 1.823240 0.000000 -0.015640 
#    y 0.000000 1.816490 0.000000 
#    z -0.015640 0.000000 1.829930 
# 
# From -- ./inp_files/25643.got.cif
#   From: 2010.03.12/outbox.cif.g09.slc.cpg/sg5_13_cif.got.tgz:25643.got - 2010.03.31 09:47:26.
