data_PCOD8050196
_publ_section_title
;
Structure prediction by ZEFSAII (Michael W. Deem and Ramdas Pophale) SiO2 
 PCOD8050196
Probable space group: C 2
;
_chemical_formula_sum "Si O2"
_cell_formula_units_Z 28
_cell_length_a 7.780842
_cell_length_b 13.679656
_cell_length_c 16.371530
_cell_angle_alpha 90.000000
_cell_angle_beta 47.875185
_cell_angle_gamma 90.000000
_cell_volume 1292.441145
_symmetry_space_group_name_H-M "C 2"
_symmetry_group_IT_number 5
_symmetry_cell_setting 'monoclinic'
loop_
_space_group_symop_operation_xyz
x,y,z
-x,y,-z
1/2+x,1/2+y,z
1/2-x,1/2+y,-z
loop_
_atom_site_type_symbol
_atom_site_label
_atom_site_fract_x
_atom_site_fract_y
_atom_site_fract_z
Si Si1 0.517753 0.572040 0.806122
Si Si2 0.123275 0.710715 0.881816
Si Si3 0.174661 0.953945 0.509823
Si Si4 0.223501 0.198422 0.880117
Si Si5 0.258791 0.139199 0.572719
Si Si6 0.499877 0.372527 0.725159
Si Si7 0.439673 0.803621 0.655657
O O1 0.263985 0.618433 0.873025
O O2 0.637222 0.603763 0.854520
O O3 0.695804 0.612774 0.684270
O O4 0.485923 0.455110 0.801845
O O5 0.297933 0.791058 0.786738
O O6 0.935938 0.672632 0.873986
O O7 0.000000 0.760206 0.000000
O O8 0.994962 0.911930 0.634999
O O9 0.358433 0.883810 0.406484
O O10 0.000000 0.996927 0.500000
O O11 0.317290 0.043305 0.501680
O O12 0.302545 0.290399 0.799180
O O13 0.000000 0.236292 0.000000
O O14 0.500000 0.200130 0.500000
O O15 0.056484 0.200828 0.595289
O O16 0.756707 0.325716 0.643896
#
# Coordination Sequence:
#
# PCOD8050196 Si02
#       7
#     4   4   4   4   4   4   4
#     4  10  22  44  65  95 140 173 228 287 334 404
#     4  10  21  41  69  96 136 174 227 281 336 406
#     4  11  23  38  62  98 133 173 223 271 339 412
#     4  11  23  42  71  97 131 187 225 279 357 402
#     4  10  22  42  64  91 130 175 211 279 338 394
#     4  10  24  44  63  98 137 173 230 283 335 417
#     4  10  22  41  65  94 129 175 215 273 335 401
#
# _framework density 21.664429999999999
#
# number of rings (size 3 to 8) (size 9 to 14) (size 15 to 20)
#    0.000    1.714    1.429    2.571    6.000    1.714 
#   18.000    2.857    0.000    0.000    0.000    0.000 
#    0.000    0.000    0.000    0.000    0.000    0.000 
#
# Total GULP energy -173451.940159 kJ/mol
# GULP energy per Si atom -12389.424297 kJ/mol
# Density = 2.161512 g / cm^3
# Si number density = 21.664430 Si / 1000 Ang^3
#
#
#
# Elastic Constant Matrix: (Units=GPa)
#
#
# Indices 1 2 3 4 5 6 
#
# 1 123.7822 27.0773 46.5518 0.0004 3.5194 0.0001
# 2 27.0773 75.3074 44.3839 -0.0009 -0.5330 0.0003
# 3 46.5518 44.3839 114.2138 -0.0043 -10.3160 0.0007
# 4 0.0004 -0.0009 -0.0043 25.7404 0.0013 -0.8665
# 5 3.5194 -0.5330 -10.3160 0.0013 33.5281 -0.0001
# 6 0.0001 0.0003 0.0007 -0.8665 -0.0001 23.7738
#
#
#
# Elastic Compliance Matrix: (Units=1/GPa)
#
#
# Indices 1 2 3 4 5 6 
#
# 1 0.009821 -0.001390 -0.003660 -0.000001 -0.002179 0.000000
# 2 -0.001390 0.017531 -0.006385 0.000000 -0.001540 0.000000
# 3 -0.003660 -0.006385 0.013119 0.000002 0.004319 0.000000
# 4 -0.000001 0.000000 0.000002 0.038897 -0.000001 0.001418
# 5 -0.002179 -0.001540 0.004319 -0.000001 0.031359 0.000000
# 6 0.000000 0.000000 0.000000 0.001418 0.000000 0.042115
#
#
# Mechanical properties :
#
#
# Convention : Reuss Voigt Hill
#
# Bulk Modulus (GPa) = 56.81422 61.03659 58.92540
# Shear Modulus (GPa) = 27.53644 29.62783 28.58213
#
# Velocity S-wave (km/s) = 3.56904 3.70209 3.63617
# Velocity P-wave (km/s) = 6.57766 6.81973 6.69979
#
# Compressibility (1/GPa) = 0.01760123
#
# Stress axis : x y z
#
# Youngs Moduli (GPa) = 101.82289 57.04190 76.22795
#
# Poissons Ratio (x) = 0.07927 0.27897
# Poissons Ratio (y) = 0.14151 0.48673
# Poissons Ratio (z) = 0.37263 0.36423
#
# Static dielectric constant tensor:
#      x y z
#    x 3.911650 0.000000 -0.089410 
#    y 0.000000 3.872490 0.000000 
#    z -0.089410 0.000000 4.096030 
# 
# 
# High freq. dielectric constant tensor:
#      x y z
#    x 1.855220 0.000000 -0.010280 
#    y 0.000000 1.827980 0.000000 
#    z -0.010280 0.000000 1.862730 
# 
# From -- ./inp_files/59701.got.cif
#   From: 2010.03.12/outbox.cif.g09.slc.cpg/sg5_30_cif.got.tgz:59701.got - 2010.03.31 09:47:26.
