data_PCOD8050515
_publ_section_title
;
Structure prediction by ZEFSAII (Michael W. Deem and Ramdas Pophale) SiO2 
 PCOD8050515
Probable space group: C 2
;
_chemical_formula_sum "Si O2"
_cell_formula_units_Z 26
_cell_length_a 15.243593
_cell_length_b 8.579994
_cell_length_c 14.209857
_cell_angle_alpha 90.000000
_cell_angle_beta 133.781462
_cell_angle_gamma 90.000000
_cell_volume 1341.812055
_symmetry_space_group_name_H-M "C 2"
_symmetry_group_IT_number 5
_symmetry_cell_setting 'monoclinic'
loop_
_space_group_symop_operation_xyz
x,y,z
-x,y,-z
1/2+x,1/2+y,z
1/2-x,1/2+y,-z
loop_
_atom_site_type_symbol
_atom_site_label
_atom_site_fract_x
_atom_site_fract_y
_atom_site_fract_z
Si Si1 0.307046 0.169630 0.802804
Si Si2 0.700303 0.791876 0.542308
Si Si3 0.500000 0.915700 0.000000
Si Si4 0.500000 0.408468 0.000000
Si Si5 0.500000 0.345549 0.500000
Si Si6 0.015164 0.159841 0.155270
Si Si7 0.538648 0.620437 0.666707
Si Si8 0.722373 0.155956 0.595296
O O1 0.291117 0.200065 0.679796
O O2 0.378631 0.310437 0.901186
O O3 0.174172 0.175128 0.748635
O O4 0.382019 0.013349 0.880495
O O5 0.562752 0.731164 0.455905
O O6 0.753585 0.755599 0.480114
O O7 0.696147 0.976457 0.553011
O O8 0.460771 0.812024 0.061802
O O9 0.531537 0.508112 0.932138
O O10 0.518174 0.448494 0.607896
O O11 0.614407 0.233344 0.573118
O O12 0.160397 0.168951 0.251664
O O13 0.976430 0.133224 0.233085
#
# Coordination Sequence:
#
# PCOD8050515 Si02
#       8
#     4   4   2   2   2   4   4   4
#     4  11  22  41  63  90 129 163 213 260 308 376
#     4  11  23  41  66  93 128 170 204 266 323 376
#     4  10  24  40  66  88 124 180 210 248 314 374
#     4  10  22  40  64  82 122 176 210 256 308 370
#     4  12  24  38  62 104 124 166 200 268 330 370
#     4  10  22  42  62  91 124 169 214 256 310 377
#     4  11  24  40  66  93 133 158 211 266 320 366
#     4  11  24  39  66  94 130 162 214 260 325 373
#
# _framework density 19.376783
#
# number of rings (size 3 to 8) (size 9 to 14) (size 15 to 20)
#    0.000    1.231    3.077    2.769    6.462    1.231 
#    0.000    0.000    0.000    0.000    0.000    0.000 
#    0.000    0.000    0.000    0.000    0.000    0.000 
#
# Total GULP energy -161166.884983 kJ/mol
# GULP energy per Si atom -12397.452691 kJ/mol
# Density = 1.933268 g / cm^3
# Si number density = 19.376783 Si / 1000 Ang^3
#
#
#
# Elastic Constant Matrix: (Units=GPa)
#
#
# Indices 1 2 3 4 5 6 
#
# 1 80.1415 43.7731 38.3058 0.0000 2.2257 0.0000
# 2 43.7731 142.9721 58.2519 0.0000 -7.8586 0.0000
# 3 38.3058 58.2519 121.6361 0.0000 -3.2173 0.0000
# 4 0.0000 0.0000 0.0000 41.8814 0.0000 -8.4003
# 5 2.2257 -7.8586 -3.2173 0.0000 39.0610 0.0000
# 6 0.0000 0.0000 0.0000 -8.4003 0.0000 29.9700
#
#
#
# Elastic Compliance Matrix: (Units=1/GPa)
#
#
# Indices 1 2 3 4 5 6 
#
# 1 0.016154 -0.003676 -0.003378 0.000000 -0.001938 0.000000
# 2 -0.003676 0.009605 -0.003393 0.000000 0.001862 0.000000
# 3 -0.003378 -0.003393 0.010921 0.000000 0.000409 0.000000
# 4 0.000000 0.000000 0.000000 0.025299 0.000000 0.007091
# 5 -0.001938 0.001862 0.000409 0.000000 0.026120 0.000000
# 6 0.000000 0.000000 0.000000 0.007091 0.000000 0.035354
#
#
# Mechanical properties :
#
#
# Convention : Reuss Voigt Hill
#
# Bulk Modulus (GPa) = 63.34836 69.49015 66.41925
# Shear Modulus (GPa) = 33.42056 35.81040 34.61548
#
# Velocity S-wave (km/s) = 4.15754 4.30363 4.23122
# Velocity P-wave (km/s) = 7.47066 7.78687 7.63041
#
# Compressibility (1/GPa) = 0.01578573
#
# Stress axis : x y z
#
# Youngs Moduli (GPa) = 61.90305 104.11752 91.56923
#
# Poissons Ratio (x) = 0.38274 0.30933
# Poissons Ratio (y) = 0.22756 0.31067
# Poissons Ratio (z) = 0.20912 0.35324
#
# Static dielectric constant tensor:
#      x y z
#    x 3.424100 0.000000 -0.056460 
#    y 0.000000 3.688720 0.000000 
#    z -0.056460 0.000000 3.877950 
# 
# 
# High freq. dielectric constant tensor:
#      x y z
#    x 1.744060 0.000000 -0.002870 
#    y 0.000000 1.766650 0.000000 
#    z -0.002870 0.000000 1.774950 
# 
# From -- ./inp_files/41461.got.cif
#   From: 2010.03.12/outbox.cif.g09.slc.cpg/sg5_21_cif.got.tgz:41461.got - 2010.03.31 09:47:26.
