data_PCOD8050471
_publ_section_title
;
Structure prediction by ZEFSAII (Michael W. Deem and Ramdas Pophale) SiO2 
 PCOD8050471
Probable space group: C 2
;
_chemical_formula_sum "Si O2"
_cell_formula_units_Z 24
_cell_length_a 9.420687
_cell_length_b 10.096615
_cell_length_c 11.917248
_cell_angle_alpha 90.000000
_cell_angle_beta 114.937656
_cell_angle_gamma 90.000000
_cell_volume 1027.850863
_symmetry_space_group_name_H-M "C 2"
_symmetry_group_IT_number 5
_symmetry_cell_setting 'monoclinic'
loop_
_space_group_symop_operation_xyz
x,y,z
-x,y,-z
1/2+x,1/2+y,z
1/2-x,1/2+y,-z
loop_
_atom_site_type_symbol
_atom_site_label
_atom_site_fract_x
_atom_site_fract_y
_atom_site_fract_z
Si Si1 0.644402 0.125000 0.772667
Si Si2 0.812135 0.721410 0.618593
Si Si3 0.519936 0.915685 0.133045
Si Si4 0.813114 0.022621 0.609848
Si Si5 0.676479 0.545782 0.753372
Si Si6 0.872228 0.146685 0.031555
O O1 0.501695 0.217438 0.684865
O O2 0.756970 0.081313 0.708945
O O3 0.584437 0.992325 0.812080
O O4 0.741147 0.203055 0.901683
O O5 0.754260 0.615757 0.508576
O O6 0.738292 0.679228 0.713197
O O7 0.755123 0.870852 0.572873
O O8 0.467105 0.764945 0.122152
O O9 0.702419 0.926631 0.235249
O O10 0.500000 0.972823 0.000000
O O11 0.000062 0.016613 0.660246
O O12 0.697549 0.558040 0.894304
O O13 0.000000 0.064095 0.000000
#
# Coordination Sequence:
#
# PCOD8050471 Si02
#       6
#     4   4   4   4   4   4
#     4  11  24  45  70 105 142 182 233 291 349 424
#     4  11  29  47  72 102 139 189 245 297 349 412
#     4  10  22  39  67 102 143 177 223 272 347 422
#     4  12  27  49  72 101 140 189 245 296 351 412
#     4  11  24  45  70 102 141 182 230 287 351 419
#     4  11  22  40  69 105 139 180 218 279 353 423
#
# _framework density 23.349689999999999
#
# number of rings (size 3 to 8) (size 9 to 14) (size 15 to 20)
#    0.000    1.000    3.333    2.000    4.667    8.000 
#    0.000    0.000    0.000    0.000    0.000    0.000 
#    0.000    0.000    0.000    0.000    0.000    0.000 
#
# Total GULP energy -148744.027791 kJ/mol
# GULP energy per Si atom -12395.335649 kJ/mol
# Density = 2.329655 g / cm^3
# Si number density = 23.349690 Si / 1000 Ang^3
#
#
#
# Elastic Constant Matrix: (Units=GPa)
#
#
# Indices 1 2 3 4 5 6 
#
# 1 122.9084 19.5731 29.0908 0.0000 8.5012 0.0000
# 2 19.5731 99.9117 26.6952 0.0000 -0.6927 0.0000
# 3 29.0908 26.6952 107.9565 0.0000 10.5182 0.0000
# 4 0.0000 0.0000 0.0000 39.6965 0.0000 1.5316
# 5 8.5012 -0.6927 10.5182 0.0000 45.0824 0.0000
# 6 0.0000 0.0000 0.0000 1.5316 0.0000 21.8976
#
#
#
# Elastic Compliance Matrix: (Units=1/GPa)
#
#
# Indices 1 2 3 4 5 6 
#
# 1 0.008883 -0.001222 -0.001971 0.000000 -0.001234 0.000000
# 2 -0.001222 0.010913 -0.002464 0.000000 0.000973 0.000000
# 3 -0.001971 -0.002464 0.010612 0.000000 -0.002142 0.000000
# 4 0.000000 0.000000 0.000000 0.025259 0.000000 -0.001767
# 5 -0.001234 0.000973 -0.002142 0.000000 0.022929 0.000000
# 6 0.000000 0.000000 0.000000 -0.001767 0.000000 0.045791
#
#
# Mechanical properties :
#
#
# Convention : Reuss Voigt Hill
#
# Bulk Modulus (GPa) = 52.37383 53.49943 52.93663
# Shear Modulus (GPa) = 35.19481 38.36312 36.77897
#
# Velocity S-wave (km/s) = 3.88660 4.05777 3.97311
# Velocity P-wave (km/s) = 6.52838 6.70194 6.61573
#
# Compressibility (1/GPa) = 0.01909351
#
# Stress axis : x y z
#
# Youngs Moduli (GPa) = 112.57901 91.63073 94.23117
#
# Poissons Ratio (x) = 0.11197 0.18575
# Poissons Ratio (y) = 0.13757 0.23220
# Poissons Ratio (z) = 0.22192 0.22579
#
# Static dielectric constant tensor:
#      x y z
#    x 4.623750 0.000000 -0.001540 
#    y 0.000000 3.846540 0.000000 
#    z -0.001540 0.000000 4.393650 
# 
# 
# High freq. dielectric constant tensor:
#      x y z
#    x 1.949630 0.000000 -0.000190 
#    y 0.000000 1.901300 0.000000 
#    z -0.000190 0.000000 1.928860 
# 
# From -- ./inp_files/35490.got.cif
#   From: 2010.03.12/outbox.cif.g09.slc.cpg/sg5_18_cif.got.tgz:35490.got - 2010.03.31 09:47:26.
