data_PCOD8050650
_publ_section_title
;
Structure prediction by ZEFSAII (Michael W. Deem and Ramdas Pophale) SiO2 
 PCOD8050650
Probable space group: C 2
;
_chemical_formula_sum "Si O2"
_cell_formula_units_Z 20
_cell_length_a 9.839939
_cell_length_b 9.527916
_cell_length_c 8.772559
_cell_angle_alpha 90.000000
_cell_angle_beta 113.434141
_cell_angle_gamma 90.000000
_cell_volume 754.624895
_symmetry_space_group_name_H-M "C 2"
_symmetry_group_IT_number 5
_symmetry_cell_setting 'monoclinic'
loop_
_space_group_symop_operation_xyz
x,y,z
-x,y,-z
1/2+x,1/2+y,z
1/2-x,1/2+y,-z
loop_
_atom_site_type_symbol
_atom_site_label
_atom_site_fract_x
_atom_site_fract_y
_atom_site_fract_z
Si Si1 0.841404 0.850420 0.137001
Si Si2 0.000000 0.959222 0.500000
Si Si3 0.074263 0.567341 0.749904
Si Si4 0.000000 0.053274 0.000000
Si Si5 0.233350 0.626248 0.519871
Si Si6 0.087646 0.311602 0.221163
O O1 0.671515 0.879160 0.112797
O O2 0.853925 0.682797 0.101760
O O3 0.870191 0.949826 0.003908
O O4 0.953863 0.868410 0.331086
O O5 0.139669 0.052943 0.519157
O O6 0.911311 0.631145 0.647496
O O7 0.051985 0.408660 0.801393
O O8 0.183773 0.550542 0.655248
O O9 0.039014 0.151272 0.161149
O O10 0.293929 0.785366 0.587767
#
# Coordination Sequence:
#
# PCOD8050650 Si02
#       6
#     4   2   4   2   4   4
#     4  11  25  47  71 102 139 184 232 291 349 412
#     4  12  20  46  74 104 138 176 232 290 344 412
#     4  10  23  44  71 107 142 179 230 295 348 409
#     4  12  28  46  66 102 142 190 234 282 346 418
#     4  10  22  41  73 108 139 175 231 290 350 409
#     4  11  24  46  69 104 135 189 238 281 343 422
#
# _framework density 26.503233999999999
#
# number of rings (size 3 to 8) (size 9 to 14) (size 15 to 20)
#    0.000    1.200    4.000    2.400    0.000    7.200 
#    3.600    0.000    0.000    0.000    0.000    0.000 
#    0.000    0.000    0.000    0.000    0.000    0.000 
#
# Total GULP energy -123883.938498 kJ/mol
# GULP energy per Si atom -12388.393850 kJ/mol
# Density = 2.644291 g / cm^3
# Si number density = 26.503234 Si / 1000 Ang^3
#
#
#
# Elastic Constant Matrix: (Units=GPa)
#
#
# Indices 1 2 3 4 5 6 
#
# 1 152.9613 60.1763 -8.0553 0.0000 -46.1263 0.0000
# 2 60.1763 146.2801 27.6480 0.0000 -38.4641 0.0000
# 3 -8.0553 27.6480 43.3575 0.0000 -11.4685 0.0000
# 4 0.0000 0.0000 0.0000 38.7684 0.0000 -10.7929
# 5 -46.1263 -38.4641 -11.4685 0.0000 31.0068 0.0000
# 6 0.0000 0.0000 0.0000 -10.7929 0.0000 49.7875
#
#
#
# Elastic Compliance Matrix: (Units=1/GPa)
#
#
# Indices 1 2 3 4 5 6 
#
# 1 0.014972 -0.001844 0.010246 0.000000 0.023775 0.000000
# 2 -0.001844 0.010870 -0.004914 0.000000 0.008923 0.000000
# 3 0.010246 -0.004914 0.033830 0.000000 0.021660 0.000000
# 4 0.000000 0.000000 0.000000 0.027451 0.000000 0.005951
# 5 0.023775 0.008923 0.021660 0.000000 0.086700 0.000000
# 6 0.000000 0.000000 0.000000 0.005951 0.000000 0.021375
#
#
# Mechanical properties :
#
#
# Convention : Reuss Voigt Hill
#
# Bulk Modulus (GPa) = 15.00392 55.79301 35.39846
# Shear Modulus (GPa) = 23.75988 41.43454 32.59721
#
# Velocity S-wave (km/s) = 2.99739 3.95825 3.51085
# Velocity P-wave (km/s) = 4.20150 6.47977 5.46077
#
# Compressibility (1/GPa) = 0.06664925
#
# Stress axis : x y z
#
# Youngs Moduli (GPa) = 66.79022 91.99637 29.55915
#
# Poissons Ratio (x) = 0.16967 -0.30288
# Poissons Ratio (y) = 0.12318 0.14525
# Poissons Ratio (z) = -0.68436 0.45206
#
# Static dielectric constant tensor:
#      x y z
#    x 5.180390 0.000000 0.241480 
#    y 0.000000 5.034930 0.000000 
#    z 0.241480 0.000000 4.620560 
# 
# 
# High freq. dielectric constant tensor:
#      x y z
#    x 2.087380 0.000000 0.013720 
#    y 0.000000 2.062580 0.000000 
#    z 0.013720 0.000000 2.034010 
# 
# From -- ./inp_files/18329.got.cif
#   From: 2010.03.12/outbox.cif.g09.slc.cpg/sg5_10_cif.got.tgz:18329.got - 2010.03.31 09:47:26.
