data_PCOD8050738
_publ_section_title
;
Structure prediction by ZEFSAII (Michael W. Deem and Ramdas Pophale) SiO2 
 PCOD8050738
Probable space group: C 2
;
_chemical_formula_sum "Si O2"
_cell_formula_units_Z 26
_cell_length_a 21.499103
_cell_length_b 7.996072
_cell_length_c 11.162429
_cell_angle_alpha 90.000000
_cell_angle_beta 144.815052
_cell_angle_gamma 90.000000
_cell_volume 1105.712668
_symmetry_space_group_name_H-M "C 2"
_symmetry_group_IT_number 5
_symmetry_cell_setting 'monoclinic'
loop_
_space_group_symop_operation_xyz
x,y,z
-x,y,-z
1/2+x,1/2+y,z
1/2-x,1/2+y,-z
loop_
_atom_site_type_symbol
_atom_site_label
_atom_site_fract_x
_atom_site_fract_y
_atom_site_fract_z
Si Si1 0.891248 0.760340 0.944613
Si Si2 0.500000 0.946287 0.500000
Si Si3 0.315138 0.937401 0.729570
Si Si4 0.694711 0.569618 0.328963
Si Si5 0.928655 0.666281 0.594039
Si Si6 0.790530 0.229169 0.145633
Si Si7 0.192632 0.875659 0.766840
O O1 0.892836 0.601368 0.853562
O O2 0.788006 0.753331 0.866524
O O3 0.882943 0.939605 0.863701
O O4 0.003363 0.748021 0.191775
O O5 0.389303 0.850291 0.316355
O O6 0.499188 0.037773 0.627589
O O7 0.359915 0.757021 0.749596
O O8 0.290883 0.902993 0.829945
O O9 0.210286 0.990755 0.485968
O O10 0.815136 0.587164 0.460489
O O11 0.909118 0.812155 0.467254
O O12 0.840346 0.044952 0.219505
O O13 0.727650 0.243160 0.921743
#
# Coordination Sequence:
#
# PCOD8050738 Si02
#       7
#     4   2   4   4   4   4   4
#     4  11  23  44  68  98 136 186 223 298 340 416
#     4  12  22  40  62 104 132 182 230 288 344 432
#     4  10  22  42  70  97 135 181 234 276 354 404
#     4  11  22  44  72  95 138 189 226 291 343 411
#     4  11  24  43  68  99 139 179 239 277 359 415
#     4  11  23  41  68  92 137 174 232 283 355 405
#     4  10  23  43  64  99 130 183 223 289 344 423
#
# _framework density 23.514244999999999
#
# number of rings (size 3 to 8) (size 9 to 14) (size 15 to 20)
#    0.000    1.231    3.077    3.692    2.154    2.462 
#    2.769    0.000    6.769    0.000    0.000    0.000 
#    0.000    0.000    0.000    0.000    0.000    0.000 
#
# Total GULP energy -161063.661541 kJ/mol
# GULP energy per Si atom -12389.512426 kJ/mol
# Density = 2.346073 g / cm^3
# Si number density = 23.514245 Si / 1000 Ang^3
#
#
#
# Elastic Constant Matrix: (Units=GPa)
#
#
# Indices 1 2 3 4 5 6 
#
# 1 59.6545 10.2102 9.0937 0.0000 1.4421 0.0000
# 2 10.2102 187.4004 79.1278 0.0000 -17.5384 0.0000
# 3 9.0937 79.1278 166.8237 0.0000 -17.1785 0.0000
# 4 0.0000 0.0000 0.0000 40.3302 0.0000 -13.5942
# 5 1.4421 -17.5384 -17.1785 0.0000 39.0202 0.0000
# 6 0.0000 0.0000 0.0000 -13.5942 0.0000 18.9492
#
#
#
# Elastic Compliance Matrix: (Units=1/GPa)
#
#
# Indices 1 2 3 4 5 6 
#
# 1 0.017030 -0.000750 -0.000704 0.000000 -0.001276 0.000000
# 2 -0.000750 0.006813 -0.003009 0.000000 0.001765 0.000000
# 3 -0.000704 -0.003009 0.007671 0.000000 0.002051 0.000000
# 4 0.000000 0.000000 0.000000 0.032704 0.000000 0.023462
# 5 -0.001276 0.001765 0.002051 0.000000 0.027371 0.000000
# 6 0.000000 0.000000 0.000000 0.023462 0.000000 0.069604
#
#
# Mechanical properties :
#
#
# Convention : Reuss Voigt Hill
#
# Bulk Modulus (GPa) = 44.27152 67.86023 56.06588
# Shear Modulus (GPa) = 28.14570 40.68972 34.41771
#
# Velocity S-wave (km/s) = 3.46347 4.16436 3.82998
# Velocity P-wave (km/s) = 5.90445 7.21418 6.59192
#
# Compressibility (1/GPa) = 0.02258789
#
# Stress axis : x y z
#
# Youngs Moduli (GPa) = 58.72083 146.78615 130.36108
#
# Poissons Ratio (x) = 0.11010 0.09177
# Poissons Ratio (y) = 0.04404 0.39222
# Poissons Ratio (z) = 0.04134 0.44164
#
# Static dielectric constant tensor:
#      x y z
#    x 4.263890 0.000000 -0.414040 
#    y 0.000000 4.844770 0.000000 
#    z -0.414040 0.000000 4.172990 
# 
# 
# High freq. dielectric constant tensor:
#      x y z
#    x 1.919000 0.000000 -0.023880 
#    y 0.000000 1.947450 0.000000 
#    z -0.023880 0.000000 1.933240 
# 
# From -- ./inp_files/41561.got.cif
#   From: 2010.03.12/outbox.cif.g09.slc.cpg/sg5_21_cif.got.tgz:41561.got - 2010.03.31 09:47:26.
