data_PCOD8050813
_publ_section_title
;
Structure prediction by ZEFSAII (Michael W. Deem and Ramdas Pophale) SiO2 
 PCOD8050813
Probable space group: C 2
;
_chemical_formula_sum "Si O2"
_cell_formula_units_Z 24
_cell_length_a 9.580609
_cell_length_b 9.589113
_cell_length_c 13.465924
_cell_angle_alpha 90.000000
_cell_angle_beta 78.530881
_cell_angle_gamma 90.000000
_cell_volume 1212.405717
_symmetry_space_group_name_H-M "C 2"
_symmetry_group_IT_number 5
_symmetry_cell_setting 'monoclinic'
loop_
_space_group_symop_operation_xyz
x,y,z
-x,y,-z
1/2+x,1/2+y,z
1/2-x,1/2+y,-z
loop_
_atom_site_type_symbol
_atom_site_label
_atom_site_fract_x
_atom_site_fract_y
_atom_site_fract_z
Si Si1 0.779892 0.738370 0.225964
Si Si2 0.629847 0.946336 0.110451
Si Si3 0.103333 0.729112 0.225448
Si Si4 0.160835 0.342193 0.440946
Si Si5 0.343119 0.159105 0.563025
Si Si6 0.813182 0.450300 0.119484
O O1 0.734302 0.828217 0.137146
O O2 0.672844 0.768337 0.331962
O O3 0.769899 0.577539 0.196588
O O4 0.939786 0.775891 0.236824
O O5 0.468095 0.889157 0.126701
O O6 0.630742 0.074236 0.184894
O O7 0.685298 0.997835 0.995525
O O8 0.154156 0.734423 0.331379
O O9 0.197140 0.831420 0.146652
O O10 0.251318 0.256819 0.506558
O O11 0.218716 0.501248 0.424616
O O12 0.000000 0.337848 0.500000
O O13 0.500000 0.147771 0.500000
#
# Coordination Sequence:
#
# PCOD8050813 Si02
#       6
#     4   4   4   4   4   4
#     4  11  23  42  64  95 125 161 211 253 307 368
#     4  10  22  44  60  92 128 163 207 254 310 362
#     4  11  23  40  67  91 125 166 202 256 310 366
#     4  11  26  41  66  92 126 164 204 258 305 370
#     4  11  24  43  62  92 127 161 205 255 312 367
#     4  10  24  39  67  90 125 166 205 257 308 366
#
# _framework density 19.795352000000001
#
# number of rings (size 3 to 8) (size 9 to 14) (size 15 to 20)
#    0.000    1.333    3.333    1.000    4.667    5.333 
#    0.000    0.000    0.000    0.000    0.000    0.000 
#    0.000    0.000    0.000    0.000    0.000    0.000 
#
# Total GULP energy -148842.436897 kJ/mol
# GULP energy per Si atom -12403.536408 kJ/mol
# Density = 1.975030 g / cm^3
# Si number density = 19.795352 Si / 1000 Ang^3
#
#
#
# Elastic Constant Matrix: (Units=GPa)
#
#
# Indices 1 2 3 4 5 6 
#
# 1 83.0854 53.5885 32.8733 0.0000 7.2523 0.0000
# 2 53.5885 67.9229 19.7388 0.0000 4.2464 0.0000
# 3 32.8733 19.7388 102.2019 0.0000 7.9955 0.0000
# 4 0.0000 0.0000 0.0000 38.6554 0.0000 3.9401
# 5 7.2523 4.2464 7.9955 0.0000 38.6176 0.0000
# 6 0.0000 0.0000 0.0000 3.9401 0.0000 36.1779
#
#
#
# Elastic Compliance Matrix: (Units=1/GPa)
#
#
# Indices 1 2 3 4 5 6 
#
# 1 0.026658 -0.019563 -0.004648 0.000000 -0.001893 0.000000
# 2 -0.019563 0.030001 0.000476 0.000000 0.000276 0.000000
# 3 -0.004648 0.000476 0.011307 0.000000 -0.001520 0.000000
# 4 0.000000 0.000000 0.000000 0.026160 0.000000 -0.002849
# 5 -0.001893 0.000276 -0.001520 0.000000 0.026535 0.000000
# 6 0.000000 0.000000 0.000000 -0.002849 0.000000 0.027951
#
#
# Mechanical properties :
#
#
# Convention : Reuss Voigt Hill
#
# Bulk Modulus (GPa) = 48.78878 51.73462 50.26170
# Shear Modulus (GPa) = 24.64117 32.49082 28.56599
#
# Velocity S-wave (km/s) = 3.53199 4.05574 3.80289
# Velocity P-wave (km/s) = 6.42911 6.93711 6.68793
#
# Compressibility (1/GPa) = 0.02049652
#
# Stress axis : x y z
#
# Youngs Moduli (GPa) = 37.51267 33.33215 88.44438
#
# Poissons Ratio (x) = 0.65207 0.41110
# Poissons Ratio (y) = 0.73385 -0.04214
# Poissons Ratio (z) = 0.17436 -0.01588
#
# Static dielectric constant tensor:
#      x y z
#    x 3.586330 0.000000 0.013460 
#    y 0.000000 3.613170 0.000000 
#    z 0.013460 0.000000 3.753410 
# 
# 
# High freq. dielectric constant tensor:
#      x y z
#    x 1.772970 0.000000 0.004140 
#    y 0.000000 1.770840 0.000000 
#    z 0.004140 0.000000 1.791660 
# 
# From -- ./inp_files/49864.got.cif
#   From: 2010.03.12/outbox.cif.g09.slc.cpg/sg5_25_cif.got.tgz:49864.got - 2010.03.31 09:47:26.
