data_PCOD8050947
_publ_section_title
;
Structure prediction by ZEFSAII (Michael W. Deem and Ramdas Pophale) SiO2 
 PCOD8050947
Probable space group: C 2
;
_chemical_formula_sum "Si O2"
_cell_formula_units_Z 18
_cell_length_a 5.315133
_cell_length_b 24.404666
_cell_length_c 5.331260
_cell_angle_alpha 90.000000
_cell_angle_beta 91.960691
_cell_angle_gamma 90.000000
_cell_volume 691.134431
_symmetry_space_group_name_H-M "C 2"
_symmetry_group_IT_number 5
_symmetry_cell_setting 'monoclinic'
loop_
_space_group_symop_operation_xyz
x,y,z
-x,y,-z
1/2+x,1/2+y,z
1/2-x,1/2+y,-z
loop_
_atom_site_type_symbol
_atom_site_label
_atom_site_fract_x
_atom_site_fract_y
_atom_site_fract_z
Si Si1 0.761911 0.066540 0.153040
Si Si2 0.000000 0.877741 0.000000
Si Si3 0.660173 0.181761 0.256927
Si Si4 0.257291 0.799192 0.348777
Si Si5 0.152297 0.452454 0.266804
O O1 0.825733 0.125723 0.279474
O O2 0.731408 0.015115 0.341723
O O3 0.500000 0.074538 0.000000
O O4 0.000000 0.048740 0.000000
O O5 0.223514 0.839055 0.109839
O O6 0.896257 0.914614 0.226950
O O7 0.500000 0.182030 0.500000
O O8 0.826004 0.237279 0.259958
O O9 0.500000 0.183052 0.000000
O O10 0.500000 0.822339 0.500000
O O11 0.000000 0.799769 0.500000
O O12 0.000000 0.428769 0.500000
O O13 0.000000 0.453186 0.000000
#
# Coordination Sequence:
#
# PCOD8050947 Si02
#       5
#     4   2   4   4   4
#     4  10  22  46  76 114 155 204 259 329 401 481
#     4  12  28  50  80 116 164 216 278 332 402 484
#     4  10  22  47  76 114 157 206 262 328 402 478
#     4  11  28  49  78 114 159 213 272 331 401 477
#     4  11  27  49  78 116 159 210 271 331 406 479
#
# _framework density 26.044138
#
# number of rings (size 3 to 8) (size 9 to 14) (size 15 to 20)
#    0.000    1.333    2.222    0.667    6.222    7.111 
#    0.000    6.667    0.000    0.000    0.000    0.000 
#    0.000    0.000    0.000    0.000    0.000    0.000 
#
# Total GULP energy -111548.674885 kJ/mol
# GULP energy per Si atom -12394.297209 kJ/mol
# Density = 2.598486 g / cm^3
# Si number density = 26.044138 Si / 1000 Ang^3
#
#
#
# Elastic Constant Matrix: (Units=GPa)
#
#
# Indices 1 2 3 4 5 6 
#
# 1 133.2422 34.0760 40.4881 0.0000 -4.1528 0.0000
# 2 34.0760 218.3493 40.4518 0.0000 -5.2035 0.0000
# 3 40.4881 40.4518 144.0649 0.0000 -11.2439 0.0000
# 4 0.0000 0.0000 0.0000 12.9841 0.0000 -13.6075
# 5 -4.1528 -5.2035 -11.2439 0.0000 51.2806 0.0000
# 6 0.0000 0.0000 0.0000 -13.6075 0.0000 10.8431
#
#
#
# Elastic Compliance Matrix: (Units=1/GPa)
#
#
# Indices 1 2 3 4 5 6 
#
# 1 0.008378 -0.000918 -0.002087 0.000000 0.000128 0.000000
# 2 -0.000918 0.004934 -0.001113 0.000000 0.000182 0.000000
# 3 -0.002087 -0.001113 0.007954 0.000000 0.001462 0.000000
# 4 0.000000 0.000000 0.000000 -0.244339 0.000000 -0.306633
# 5 0.000128 0.000182 0.001462 0.000000 0.019850 0.000000
# 6 0.000000 0.000000 0.000000 -0.306633 0.000000 -0.292584
#
#
# Mechanical properties :
#
#
# Convention : Reuss Voigt Hill
#
# Bulk Modulus (GPa) = 76.74341 80.63198 78.68769
# Shear Modulus (GPa) = -10.34710 40.39758 15.02524
#
# Velocity S-wave (km/s) = -1.99538 3.94270 2.40451
# Velocity P-wave (km/s) = 4.92158 7.19399 6.16342
#
# Compressibility (1/GPa) = 0.01303044
#
# Stress axis : x y z
#
# Youngs Moduli (GPa) = 119.36062 202.69096 125.71524
#
# Poissons Ratio (x) = 0.18603 0.26235
# Poissons Ratio (y) = 0.10955 0.13994
# Poissons Ratio (z) = 0.24909 0.22562
#
# Static dielectric constant tensor:
#      x y z
#    x 4.299570 0.000000 -0.025560 
#    y 0.000000 6.039060 0.000000 
#    z -0.025560 0.000000 4.351470 
# 
# 
# High freq. dielectric constant tensor:
#      x y z
#    x 2.023710 0.000000 -0.004020 
#    y 0.000000 2.088530 0.000000 
#    z -0.004020 0.000000 2.024720 
# 
# From -- ./inp_files/877.got.cif
#   From: 2010.03.12/outbox.cif.g09.slc.cpg/sg5_1_cif.got.tgz:877.got - 2010.03.31 09:47:26.
