data_PCOD8050753
_publ_section_title
;
Structure prediction by ZEFSAII (Michael W. Deem and Ramdas Pophale) SiO2 
 PCOD8050753
Probable space group: C 2
;
_chemical_formula_sum "Si O2"
_cell_formula_units_Z 30
_cell_length_a 18.570035
_cell_length_b 5.208899
_cell_length_c 14.258713
_cell_angle_alpha 90.000000
_cell_angle_beta 72.260189
_cell_angle_gamma 90.000000
_cell_volume 1313.654543
_symmetry_space_group_name_H-M "C 2"
_symmetry_group_IT_number 5
_symmetry_cell_setting 'monoclinic'
loop_
_space_group_symop_operation_xyz
x,y,z
-x,y,-z
1/2+x,1/2+y,z
1/2-x,1/2+y,-z
loop_
_atom_site_type_symbol
_atom_site_label
_atom_site_fract_x
_atom_site_fract_y
_atom_site_fract_z
Si Si1 0.500000 0.398190 0.000000
Si Si2 0.632192 0.758114 0.694835
Si Si3 0.705817 0.889957 0.997286
Si Si4 0.733798 0.955948 0.285479
Si Si5 0.484474 0.532802 0.804281
Si Si6 0.141359 0.618052 0.851509
Si Si7 0.399125 0.025034 0.798132
Si Si8 0.208770 0.248541 0.488988
O O1 0.528554 0.566582 0.077682
O O2 0.430583 0.232196 0.066577
O O3 0.718575 0.683843 0.686294
O O4 0.574171 0.532064 0.745889
O O5 0.633228 0.811898 0.581890
O O6 0.611626 0.009507 0.763832
O O7 0.638935 0.001989 0.086157
O O8 0.773810 0.099443 0.981114
O O9 0.676119 0.888556 0.901869
O O10 0.789198 0.811567 0.191196
O O11 0.697996 0.776262 0.381485
O O12 0.663638 0.068496 0.256173
O O13 0.452494 0.270704 0.776224
O O14 0.448182 0.769306 0.761745
O O15 0.271635 0.452760 0.497926
#
# Coordination Sequence:
#
# PCOD8050753 Si02
#       8
#     2   4   4   4   4   4   4   4
#     4  12  26  44  64 102 138 194 232 274 340 424
#     4  11  25  44  75 100 140 183 243 288 356 415
#     4  12  25  40  62  95 136 177 223 278 341 411
#     4  11  24  45  74 102 139 178 240 298 351 415
#     4  12  28  45  67  98 147 187 232 283 346 430
#     4  12  24  41  68 100 139 181 236 284 346 409
#     4  12  27  44  66 104 144 184 229 286 357 413
#     4  10  22  42  73 108 133 170 237 304 352 402
#
# _framework density 22.837057000000001
#
# number of rings (size 3 to 8) (size 9 to 14) (size 15 to 20)
#    0.000    0.533    5.333    2.400    3.733    0.533 
#    0.000    0.667    0.000    3.200    0.000    0.000 
#    0.000    0.000    0.000    0.000    0.000    0.000 
#
# Total GULP energy -185957.093823 kJ/mol
# GULP energy per Si atom -12397.139588 kJ/mol
# Density = 2.278508 g / cm^3
# Si number density = 22.837057 Si / 1000 Ang^3
#
#
#
# Elastic Constant Matrix: (Units=GPa)
#
#
# Indices 1 2 3 4 5 6 
#
# 1 110.2277 38.1675 40.9667 0.0000 0.7170 0.0000
# 2 38.1675 92.7634 12.8561 0.0000 -4.5432 0.0000
# 3 40.9667 12.8561 141.1560 0.0000 -17.2032 0.0000
# 4 0.0000 0.0000 0.0000 29.4783 0.0000 0.2817
# 5 0.7170 -4.5432 -17.2032 0.0000 23.5801 0.0000
# 6 0.0000 0.0000 0.0000 0.2817 0.0000 31.8756
#
#
#
# Elastic Compliance Matrix: (Units=1/GPa)
#
#
# Indices 1 2 3 4 5 6 
#
# 1 0.012018 -0.004643 -0.003533 0.000000 -0.003837 0.000000
# 2 -0.004643 0.012761 0.000551 0.000000 0.003002 0.000000
# 3 -0.003533 0.000551 0.008875 0.000000 0.006688 0.000000
# 4 0.000000 0.000000 0.000000 0.033926 0.000000 -0.000300
# 5 -0.003837 0.003002 0.006688 0.000000 0.047983 0.000000
# 6 0.000000 0.000000 0.000000 -0.000300 0.000000 0.031375
#
#
# Mechanical properties :
#
#
# Convention : Reuss Voigt Hill
#
# Bulk Modulus (GPa) = 54.33501 58.68086 56.50794
# Shear Modulus (GPa) = 29.70514 33.79724 31.75119
#
# Velocity S-wave (km/s) = 3.61049 3.85116 3.73277
# Velocity P-wave (km/s) = 6.42067 6.74733 6.58603
#
# Compressibility (1/GPa) = 0.01840434
#
# Stress axis : x y z
#
# Youngs Moduli (GPa) = 83.21060 78.36290 112.68217
#
# Poissons Ratio (x) = 0.36384 0.39806
# Poissons Ratio (y) = 0.38635 -0.06210
# Poissons Ratio (z) = 0.29395 -0.04319
#
# Static dielectric constant tensor:
#      x y z
#    x 4.114730 0.000000 0.016970 
#    y 0.000000 4.008890 0.000000 
#    z 0.016970 0.000000 4.590200 
# 
# 
# High freq. dielectric constant tensor:
#      x y z
#    x 1.883170 0.000000 -0.005460 
#    y 0.000000 1.902080 0.000000 
#    z -0.005460 0.000000 1.907650 
# 
# From -- ./inp_files/55297.got.cif
#   From: 2010.03.12/outbox.cif.g09.slc.cpg/sg5_28_cif.got.tgz:55297.got - 2010.03.31 09:47:26.
