data_PCOD8050399
_publ_section_title
;
Structure prediction by ZEFSAII (Michael W. Deem and Ramdas Pophale) SiO2 
 PCOD8050399
Probable space group: C 2
;
_chemical_formula_sum "Si O2"
_cell_formula_units_Z 32
_cell_length_a 8.434283
_cell_length_b 13.898613
_cell_length_c 14.193836
_cell_angle_alpha 90.000000
_cell_angle_beta 109.819334
_cell_angle_gamma 90.000000
_cell_volume 1565.313091
_symmetry_space_group_name_H-M "C 2"
_symmetry_group_IT_number 5
_symmetry_cell_setting 'monoclinic'
loop_
_space_group_symop_operation_xyz
x,y,z
-x,y,-z
1/2+x,1/2+y,z
1/2-x,1/2+y,-z
loop_
_atom_site_type_symbol
_atom_site_label
_atom_site_fract_x
_atom_site_fract_y
_atom_site_fract_z
Si Si1 0.356315 0.807780 0.177436
Si Si2 0.665563 0.511644 0.879965
Si Si3 0.117528 0.661699 0.764191
Si Si4 0.904559 0.483838 0.771013
Si Si5 0.815676 0.177587 0.992432
Si Si6 0.541420 0.478879 0.613739
Si Si7 0.561038 0.640055 0.287599
Si Si8 0.456736 0.353807 0.764840
O O1 0.275661 0.749242 0.072341
O O2 0.454133 0.737388 0.267856
O O3 0.208321 0.858362 0.204963
O O4 0.491277 0.889592 0.177356
O O5 0.834530 0.529366 0.853582
O O6 0.699881 0.562050 0.987069
O O7 0.506189 0.570931 0.808381
O O8 0.608959 0.399255 0.861783
O O9 0.245501 0.662209 0.701434
O O10 0.986340 0.748214 0.727993
O O11 0.023844 0.559996 0.743343
O O12 0.196419 0.690870 0.880322
O O13 0.741521 0.462840 0.672106
O O14 0.000000 0.207989 0.000000
O O15 0.500000 0.447269 0.500000
O O16 0.473347 0.588235 0.618634
O O17 0.433680 0.416423 0.665876
#
# Coordination Sequence:
#
# PCOD8050399 Si02
#       8
#     4   4   4   4   4   4   4   4
#     4  11  21  40  59  90 126 168 204 246 301 355
#     4   9  19  37  53  83 117 160 203 251 296 342
#     4  12  21  39  60  89 126 168 202 248 299 358
#     4  10  22  38  63  86 124 162 200 253 320 354
#     4  11  23  36  59  86 127 168 221 247 277 358
#     4  10  22  44  68  92 116 151 205 262 317 387
#     4   9  18  37  60  83 121 153 190 250 314 350
#     4  10  22  38  62  86 123 163 198 252 321 354
#
# _framework density 20.443193999999998
#
# number of rings (size 3 to 8) (size 9 to 14) (size 15 to 20)
#    0.000    2.000    2.500    5.250    0.000    3.000 
#    0.000    7.500    0.000    0.000    0.000    0.000 
#    0.000    0.000    0.000    0.000    0.000    0.000 
#
# Total GULP energy -198235.777532 kJ/mol
# GULP energy per Si atom -12389.736096 kJ/mol
# Density = 2.039666 g / cm^3
# Si number density = 20.443194 Si / 1000 Ang^3
#
#
#
# Elastic Constant Matrix: (Units=GPa)
#
#
# Indices 1 2 3 4 5 6 
#
# 1 103.7529 13.6441 28.9521 0.0000 -11.2286 0.0000
# 2 13.6441 87.9521 17.2101 0.0000 -2.9601 0.0000
# 3 28.9521 17.2101 79.0550 0.0000 -11.0701 0.0000
# 4 0.0000 0.0000 0.0000 -7.3364 0.0000 17.6120
# 5 -11.2286 -2.9601 -11.0701 0.0000 19.5076 0.0000
# 6 0.0000 0.0000 0.0000 17.6120 0.0000 19.8925
#
#
#
# Elastic Compliance Matrix: (Units=1/GPa)
#
#
# Indices 1 2 3 4 5 6 
#
# 1 0.011151 -0.000943 -0.003259 0.000000 0.004426 0.000000
# 2 -0.000943 0.011958 -0.002259 0.000000 -0.000010 0.000000
# 3 -0.003259 -0.002259 0.015235 0.000000 0.006427 0.000000
# 4 0.000000 0.000000 0.000000 -0.043612 0.000000 0.038612
# 5 0.004426 -0.000010 0.006427 0.000000 0.057455 0.000000
# 6 0.000000 0.000000 0.000000 0.038612 0.000000 0.016084
#
#
# Mechanical properties :
#
#
# Convention : Reuss Voigt Hill
#
# Bulk Modulus (GPa) = 39.33748 43.37475 41.35612
# Shear Modulus (GPa) = 55.76249 20.47630 38.11940
#
# Velocity S-wave (km/s) = 5.22839 3.16827 4.32284
# Velocity P-wave (km/s) = 7.46540 5.88619 6.72233
#
# Compressibility (1/GPa) = 0.02542105
#
# Stress axis : x y z
#
# Youngs Moduli (GPa) = 89.68104 83.62685 65.64019
#
# Poissons Ratio (x) = 0.07888 0.21389
# Poissons Ratio (y) = 0.08459 0.14830
# Poissons Ratio (z) = 0.29223 0.18893
#
# Static dielectric constant tensor:
#      x y z
#    x 3.881350 0.000000 0.057700 
#    y 0.000000 4.133230 0.000000 
#    z 0.057700 0.000000 3.522290 
# 
# 
# High freq. dielectric constant tensor:
#      x y z
#    x 1.805980 0.000000 -0.015340 
#    y 0.000000 1.813170 0.000000 
#    z -0.015340 0.000000 1.746730 
# 
# From -- ./inp_files/50761.got.cif
#   From: 2010.03.12/outbox.cif.g09.slc.cpg/sg5_26_cif.got.tgz:50761.got - 2010.03.31 09:47:26.
