data_PCOD8050610
_publ_section_title
;
Structure prediction by ZEFSAII (Michael W. Deem and Ramdas Pophale) SiO2 
 PCOD8050610
Probable space group: C 2
;
_chemical_formula_sum "Si O2"
_cell_formula_units_Z 28
_cell_length_a 5.053081
_cell_length_b 20.563052
_cell_length_c 12.951306
_cell_angle_alpha 90.000000
_cell_angle_beta 101.892812
_cell_angle_gamma 90.000000
_cell_volume 1316.842074
_symmetry_space_group_name_H-M "C 2"
_symmetry_group_IT_number 5
_symmetry_cell_setting 'monoclinic'
loop_
_space_group_symop_operation_xyz
x,y,z
-x,y,-z
1/2+x,1/2+y,z
1/2-x,1/2+y,-z
loop_
_atom_site_type_symbol
_atom_site_label
_atom_site_fract_x
_atom_site_fract_y
_atom_site_fract_z
Si Si1 0.557106 0.258380 0.114324
Si Si2 0.366246 0.524371 0.790846
Si Si3 0.291017 0.594049 0.573364
Si Si4 0.290298 0.741844 0.571141
Si Si5 0.417420 0.952725 0.873084
Si Si6 0.700690 0.125820 0.939549
Si Si7 0.626481 0.813265 0.221538
O O1 0.526818 0.181021 0.098759
O O2 0.343845 0.269878 0.184256
O O3 0.842194 0.282533 0.172855
O O4 0.500000 0.293709 0.000000
O O5 0.333197 0.540945 0.667475
O O6 0.674008 0.504495 0.841708
O O7 0.270883 0.588265 0.842406
O O8 0.171560 0.468527 0.819649
O O9 0.500000 0.577616 0.500000
O O10 0.333690 0.668145 0.619003
O O11 0.000000 0.584797 0.500000
O O12 0.500000 0.757157 0.500000
O O13 0.326586 0.800946 0.654160
O O14 0.000000 0.747601 0.500000
O O15 0.320642 0.885482 0.814563
O O16 0.500000 0.943625 0.000000
O O17 0.500000 0.081809 0.000000
O O18 0.000000 0.150677 0.000000
#
# Coordination Sequence:
#
# PCOD8050610 Si02
#       7
#     4   4   4   4   4   4   4
#     4  11  22  37  61  93 126 160 206 268 331 392
#     4  12  24  42  64  90 127 175 217 262 320 381
#     4  10  22  41  66  95 125 159 206 267 330 388
#     4  10  22  42  67  95 125 158 205 268 333 389
#     4  12  26  43  64  92 130 177 222 261 308 379
#     4  11  22  37  60  94 130 163 208 269 335 399
#     4  12  24  42  64  91 126 172 217 261 320 384
#
# _framework density 21.262989999999999
#
# number of rings (size 3 to 8) (size 9 to 14) (size 15 to 20)
#    0.000    0.857    0.000    9.000    0.000    3.429 
#    0.000    4.286    0.000    0.000    0.000    0.000 
#    0.000    0.000    0.000    0.000    0.000    0.000 
#
# Total GULP energy -173449.851533 kJ/mol
# GULP energy per Si atom -12389.275110 kJ/mol
# Density = 2.121459 g / cm^3
# Si number density = 21.262990 Si / 1000 Ang^3
#
#
#
# Elastic Constant Matrix: (Units=GPa)
#
#
# Indices 1 2 3 4 5 6 
#
# 1 154.7942 15.5779 51.4216 0.0000 -15.1130 0.0000
# 2 15.5779 66.9303 50.1586 0.0000 -8.8227 0.0000
# 3 51.4216 50.1586 146.9658 0.0000 -20.4210 0.0000
# 4 0.0000 0.0000 0.0000 41.7491 0.0000 28.0357
# 5 -15.1130 -8.8227 -20.4210 0.0000 24.5007 0.0000
# 6 0.0000 0.0000 0.0000 28.0357 0.0000 64.8999
#
#
#
# Elastic Compliance Matrix: (Units=1/GPa)
#
#
# Indices 1 2 3 4 5 6 
#
# 1 0.007478 0.000400 -0.002366 0.000000 0.002785 0.000000
# 2 0.000400 0.020161 -0.006761 0.000000 0.001872 0.000000
# 3 -0.002366 -0.006761 0.010629 0.000000 0.004966 0.000000
# 4 0.000000 0.000000 0.000000 0.033740 0.000000 -0.014575
# 5 0.002785 0.001872 0.004966 0.000000 0.047346 0.000000
# 6 0.000000 0.000000 0.000000 -0.014575 0.000000 0.021705
#
#
# Mechanical properties :
#
#
# Convention : Reuss Voigt Hill
#
# Bulk Modulus (GPa) = 48.04321 67.00075 57.52198
# Shear Modulus (GPa) = 30.22045 42.99874 36.60959
#
# Velocity S-wave (km/s) = 3.77406 4.50180 4.15390
# Velocity P-wave (km/s) = 6.45254 7.65510 7.07940
#
# Compressibility (1/GPa) = 0.02081460
#
# Stress axis : x y z
#
# Youngs Moduli (GPa) = 133.72984 49.60033 94.07831
#
# Poissons Ratio (x) = -0.01982 0.22258
# Poissons Ratio (y) = -0.05344 0.63603
# Poissons Ratio (z) = 0.31639 0.33533
#
# Static dielectric constant tensor:
#      x y z
#    x 4.275270 0.000000 -0.136490 
#    y 0.000000 3.825710 0.000000 
#    z -0.136490 0.000000 3.570670 
# 
# 
# High freq. dielectric constant tensor:
#      x y z
#    x 1.866590 0.000000 -0.010640 
#    y 0.000000 1.821040 0.000000 
#    z -0.010640 0.000000 1.832170 
# 
# From -- ./inp_files/33976.got.cif
#   From: 2010.03.12/outbox.cif.g09.slc.cpg/sg5_17_cif.got.tgz:33976.got - 2010.03.31 09:47:26.
