data_PCOD8050483
_publ_section_title
;
Structure prediction by ZEFSAII (Michael W. Deem and Ramdas Pophale) SiO2 
 PCOD8050483
Probable space group: C 2
;
_chemical_formula_sum "Si O2"
_cell_formula_units_Z 26
_cell_length_a 12.521155
_cell_length_b 5.053732
_cell_length_c 20.903782
_cell_angle_alpha 90.000000
_cell_angle_beta 65.351332
_cell_angle_gamma 90.000000
_cell_volume 1202.234144
_symmetry_space_group_name_H-M "C 2"
_symmetry_group_IT_number 5
_symmetry_cell_setting 'monoclinic'
loop_
_space_group_symop_operation_xyz
x,y,z
-x,y,-z
1/2+x,1/2+y,z
1/2-x,1/2+y,-z
loop_
_atom_site_type_symbol
_atom_site_label
_atom_site_fract_x
_atom_site_fract_y
_atom_site_fract_z
Si Si1 0.238884 0.625000 0.460991
Si Si2 0.466038 0.262326 0.161518
Si Si3 0.322863 0.761360 0.159291
Si Si4 0.000000 0.413046 0.500000
Si Si5 0.221459 0.768374 0.046438
Si Si6 0.932709 0.756204 0.725131
Si Si7 0.021722 0.251194 0.634155
O O1 0.273958 0.339630 0.480146
O O2 0.112799 0.599191 0.458519
O O3 0.339830 0.703723 0.384138
O O4 0.421438 0.552981 0.154699
O O5 0.586130 0.202598 0.094210
O O6 0.488251 0.252087 0.231372
O O7 0.367940 0.052026 0.166000
O O8 0.202820 0.699086 0.226403
O O9 0.301564 0.745575 0.089070
O O10 0.985026 0.227836 0.441365
O O11 0.230698 0.065745 0.018072
O O12 0.983354 0.541340 0.664304
O O13 0.939906 0.041170 0.689889
#
# Coordination Sequence:
#
# PCOD8050483 Si02
#       7
#     4   4   4   2   4   4   4
#     4  10  22  40  60  87 120 154 196 249 310 378
#     4  11  24  43  65  91 129 170 212 259 304 363
#     4  11  24  43  67  94 127 170 212 251 308 368
#     4  10  24  42  64  90 124 160 200 260 324 384
#     4  11  24  41  65 100 135 165 207 259 305 362
#     4  11  25  43  62  92 125 161 213 263 305 368
#     4  11  23  41  65  90 122 161 206 259 320 378
#
# _framework density 21.626401999999999
#
# number of rings (size 3 to 8) (size 9 to 14) (size 15 to 20)
#    0.000    1.231    0.000    5.538    0.000   17.846 
#    0.000    4.615    0.000    0.000    0.000    0.000 
#    0.000    0.000    0.000    0.000    0.000    0.000 
#
# Total GULP energy -161261.689685 kJ/mol
# GULP energy per Si atom -12404.745360 kJ/mol
# Density = 2.157718 g / cm^3
# Si number density = 21.626402 Si / 1000 Ang^3
#
#
#
# Elastic Constant Matrix: (Units=GPa)
#
#
# Indices 1 2 3 4 5 6 
#
# 1 113.3242 25.4445 41.4109 0.0006 -2.7281 0.0005
# 2 25.4445 84.6522 21.4884 -0.0046 -2.9972 -0.0049
# 3 41.4109 21.4884 105.0705 -0.0005 5.6888 -0.0010
# 4 0.0006 -0.0046 -0.0005 38.3347 0.0003 -5.8957
# 5 -2.7281 -2.9972 5.6888 0.0003 18.9616 0.0008
# 6 0.0005 -0.0049 -0.0010 -5.8957 0.0008 36.2075
#
#
#
# Elastic Compliance Matrix: (Units=1/GPa)
#
#
# Indices 1 2 3 4 5 6 
#
# 1 0.010810 -0.002162 -0.003948 -0.000001 0.002398 -0.000001
# 2 -0.002162 0.013038 -0.001941 0.000002 0.002332 0.000002
# 3 -0.003948 -0.001941 0.011708 0.000000 -0.004387 0.000000
# 4 -0.000001 0.000002 0.000000 0.026756 0.000000 0.004357
# 5 0.002398 0.002332 -0.004387 0.000000 0.054768 -0.000001
# 6 -0.000001 0.000002 0.000000 0.004357 -0.000001 0.028328
#
#
# Mechanical properties :
#
#
# Convention : Reuss Voigt Hill
#
# Bulk Modulus (GPa) = 51.40244 53.30383 52.35313
# Shear Modulus (GPa) = 29.76279 33.01429 31.38854
#
# Velocity S-wave (km/s) = 3.71378 3.91138 3.81386
# Velocity P-wave (km/s) = 6.49688 6.71562 6.60716
#
# Compressibility (1/GPa) = 0.01945433
#
# Stress axis : x y z
#
# Youngs Moduli (GPa) = 92.50526 76.69821 85.41221
#
# Poissons Ratio (x) = 0.16583 0.33723
# Poissons Ratio (y) = 0.20001 0.16575
# Poissons Ratio (z) = 0.36523 0.14884
#
# Static dielectric constant tensor:
#      x y z
#    x 4.071340 0.000000 -0.125560 
#    y 0.000000 3.806110 0.000000 
#    z -0.125560 0.000000 3.868130 
# 
# 
# High freq. dielectric constant tensor:
#      x y z
#    x 1.859270 0.000000 -0.011720 
#    y 0.000000 1.859330 0.000000 
#    z -0.011720 0.000000 1.852600 
# 
# From -- ./inp_files/64937.got.cif
#   From: 2010.03.12/outbox.cif.g09.slc.cpg/sg5_33_cif.got.tgz:64937.got - 2010.03.31 09:47:26.
