data_PCOD8050412
_publ_section_title
;
Structure prediction by ZEFSAII (Michael W. Deem and Ramdas Pophale) SiO2 
 PCOD8050412
Probable space group: C 2
;
_chemical_formula_sum "Si O2"
_cell_formula_units_Z 22
_cell_length_a 12.241583
_cell_length_b 8.722436
_cell_length_c 11.676079
_cell_angle_alpha 90.000000
_cell_angle_beta 66.991894
_cell_angle_gamma 90.000000
_cell_volume 1147.552054
_symmetry_space_group_name_H-M "C 2"
_symmetry_group_IT_number 5
_symmetry_cell_setting 'monoclinic'
loop_
_space_group_symop_operation_xyz
x,y,z
-x,y,-z
1/2+x,1/2+y,z
1/2-x,1/2+y,-z
loop_
_atom_site_type_symbol
_atom_site_label
_atom_site_fract_x
_atom_site_fract_y
_atom_site_fract_z
Si Si1 0.347291 0.414090 0.228444
Si Si2 0.000000 0.117463 0.000000
Si Si3 0.069769 0.795028 0.572468
Si Si4 0.138101 0.660973 0.949694
Si Si5 0.331627 0.165675 0.673508
Si Si6 0.279590 0.821482 0.079125
O O1 0.384179 0.400631 0.345630
O O2 0.325226 0.247636 0.182331
O O3 0.220630 0.498655 0.278006
O O4 0.449706 0.508353 0.120798
O O5 0.103014 0.227799 0.007235
O O6 0.175614 0.705300 0.460663
O O7 0.000000 0.893152 0.500000
O O8 0.969728 0.672592 0.659042
O O9 0.206799 0.502777 0.938631
O O10 0.170577 0.771935 0.042205
O O11 0.000000 0.625163 0.000000
O O12 0.252751 0.288311 0.775934
#
# Coordination Sequence:
#
# PCOD8050412 Si02
#       6
#     4   2   4   4   4   4
#     4  11  20  38  64  89 122 163 202 251 313 360
#     4  10  22  38  64  94 130 158 208 252 304 388
#     4   8  20  38  61  83 121 157 206 250 301 352
#     4  12  25  37  63  92 127 165 204 251 314 373
#     4   8  20  37  61  85 117 163 200 257 292 359
#     4  11  22  41  60  94 129 162 207 253 311 367
#
# _framework density 19.171244999999999
#
# number of rings (size 3 to 8) (size 9 to 14) (size 15 to 20)
#    1.091    0.727    1.818    3.273    2.545    1.455 
#    0.000    0.000    4.000    4.364    0.000    0.000 
#    0.000    0.000    0.000    0.000    0.000    0.000 
#
# Total GULP energy -136275.206303 kJ/mol
# GULP energy per Si atom -12388.655118 kJ/mol
# Density = 1.912761 g / cm^3
# Si number density = 19.171245 Si / 1000 Ang^3
#
#
#
# Elastic Constant Matrix: (Units=GPa)
#
#
# Indices 1 2 3 4 5 6 
#
# 1 79.7978 39.8121 38.2314 0.0000 -1.2394 0.0000
# 2 39.8121 124.4323 50.7529 0.0000 1.6602 0.0000
# 3 38.2314 50.7529 107.8896 0.0000 -4.7386 0.0000
# 4 0.0000 0.0000 0.0000 15.3036 0.0000 5.5616
# 5 -1.2394 1.6602 -4.7386 0.0000 32.1715 0.0000
# 6 0.0000 0.0000 0.0000 5.5616 0.0000 32.3268
#
#
#
# Elastic Compliance Matrix: (Units=1/GPa)
#
#
# Indices 1 2 3 4 5 6 
#
# 1 0.016258 -0.003537 -0.004088 0.000000 0.000207 0.000000
# 2 -0.003537 0.010761 -0.003864 0.000000 -0.001261 0.000000
# 3 -0.004088 -0.003864 0.012619 0.000000 0.001901 0.000000
# 4 0.000000 0.000000 0.000000 0.069702 0.000000 -0.011992
# 5 0.000207 -0.001261 0.001901 0.000000 0.031436 0.000000
# 6 0.000000 0.000000 0.000000 -0.011992 0.000000 0.032997
#
#
# Mechanical properties :
#
#
# Convention : Reuss Voigt Hill
#
# Bulk Modulus (GPa) = 60.02748 63.30137 61.66443
# Shear Modulus (GPa) = 24.71503 28.18192 26.44848
#
# Velocity S-wave (km/s) = 3.59440 3.83823 3.71831
# Velocity P-wave (km/s) = 6.97176 7.26177 7.11824
#
# Compressibility (1/GPa) = 0.01665904
#
# Stress axis : x y z
#
# Youngs Moduli (GPa) = 61.50717 92.92717 79.24765
#
# Poissons Ratio (x) = 0.32869 0.32398
# Poissons Ratio (y) = 0.21756 0.30623
# Poissons Ratio (z) = 0.25146 0.35909
#
# Static dielectric constant tensor:
#      x y z
#    x 3.443020 0.000000 -0.136880 
#    y 0.000000 3.341720 0.000000 
#    z -0.136880 0.000000 3.633320 
# 
# 
# High freq. dielectric constant tensor:
#      x y z
#    x 1.738750 0.000000 -0.006810 
#    y 0.000000 1.725610 0.000000 
#    z -0.006810 0.000000 1.750470 
# 
# From -- ./inp_files/38130.got.cif
#   From: 2010.03.12/outbox.cif.g09.slc.cpg/sg5_20_cif.got.tgz:38130.got - 2010.03.31 09:47:26.
