data_PCOD8050435
_publ_section_title
;
Structure prediction by ZEFSAII (Michael W. Deem and Ramdas Pophale) SiO2 
 PCOD8050435
Probable space group: C 2
;
_chemical_formula_sum "Si O2"
_cell_formula_units_Z 32
_cell_length_a 28.696367
_cell_length_b 8.915205
_cell_length_c 11.736210
_cell_angle_alpha 90.000000
_cell_angle_beta 35.245520
_cell_angle_gamma 90.000000
_cell_volume 1732.699105
_symmetry_space_group_name_H-M "C 2"
_symmetry_group_IT_number 5
_symmetry_cell_setting 'monoclinic'
loop_
_space_group_symop_operation_xyz
x,y,z
-x,y,-z
1/2+x,1/2+y,z
1/2-x,1/2+y,-z
loop_
_atom_site_type_symbol
_atom_site_label
_atom_site_fract_x
_atom_site_fract_y
_atom_site_fract_z
Si Si1 0.161407 0.419680 0.923329
Si Si2 0.490113 0.444283 0.385826
Si Si3 0.839555 0.808860 0.565604
Si Si4 0.830433 0.442153 0.349002
Si Si5 0.828786 0.785679 0.331206
Si Si6 0.578555 0.214807 0.062440
Si Si7 0.488966 0.784764 0.655782
Si Si8 0.423489 0.014612 0.371194
O O1 0.250570 0.363701 0.779987
O O2 0.143207 0.376975 0.827159
O O3 0.149883 0.600830 0.961386
O O4 0.099829 0.335384 0.129029
O O5 0.500000 0.428663 0.500000
O O6 0.401666 0.394051 0.522883
O O7 0.559631 0.337878 0.195561
O O8 0.500812 0.614502 0.323422
O O9 0.855919 0.851602 0.399989
O O10 0.851864 0.627886 0.555681
O O11 0.805588 0.613524 0.388007
O O12 0.751480 0.362583 0.555427
O O13 0.901350 0.424775 0.300047
O O14 0.898692 0.805584 0.097686
O O15 0.501024 0.114896 0.187450
O O16 0.500000 0.800329 0.500000
O O17 0.558019 0.891006 0.570659
#
# Coordination Sequence:
#
# PCOD8050435 Si02
#       8
#     4   4   4   4   4   4   4   4
#     4   9  19  36  56  79 109 140 173 216 264 321
#     4  10  22  39  54  75 107 140 182 230 267 308
#     4   9  19  36  56  79 109 140 173 216 264 321
#     4   9  18  32  52  81 112 137 168 212 262 317
#     4   9  18  32  52  81 112 137 168 212 262 317
#     4   9  19  34  56  79 107 144 178 212 263 320
#     4  10  22  39  54  75 107 140 182 230 267 308
#     4   9  19  34  56  79 107 144 178 212 263 320
#
# _framework density 18.468295000000001
#
# number of rings (size 3 to 8) (size 9 to 14) (size 15 to 20)
#    0.000    2.750    0.000    0.000    0.000   22.000 
#    0.000    7.500    0.000    0.000    0.000    0.000 
#    0.000    0.000    0.000    0.000    0.000    0.000 
#
# Total GULP energy -198317.393689 kJ/mol
# GULP energy per Si atom -12394.837106 kJ/mol
# Density = 1.842626 g / cm^3
# Si number density = 18.468295 Si / 1000 Ang^3
#
#
#
# Elastic Constant Matrix: (Units=GPa)
#
#
# Indices 1 2 3 4 5 6 
#
# 1 67.8047 55.2159 83.5966 0.0000 9.1504 0.0000
# 2 55.2159 89.2049 60.0156 0.0000 0.8376 0.0000
# 3 83.5966 60.0156 83.3257 0.0000 -9.8495 0.0000
# 4 0.0000 0.0000 0.0000 34.1161 0.0000 -3.1399
# 5 9.1504 0.8376 -9.8495 0.0000 16.2481 0.0000
# 6 0.0000 0.0000 0.0000 -3.1399 0.0000 31.4053
#
#
#
# Elastic Compliance Matrix: (Units=1/GPa)
#
#
# Indices 1 2 3 4 5 6 
#
# 1 -0.021997 -0.007894 0.031525 0.000000 0.031905 0.000000
# 2 -0.007894 0.021086 -0.007402 0.000000 -0.001129 0.000000
# 3 0.031525 -0.007402 -0.017611 0.000000 -0.028048 0.000000
# 4 0.000000 0.000000 0.000000 0.029584 0.000000 0.002958
# 5 0.031905 -0.001129 -0.028048 0.000000 0.026633 0.000000
# 6 0.000000 0.000000 0.000000 0.002958 0.000000 0.032137
#
#
# Mechanical properties :
#
#
# Convention : Reuss Voigt Hill
#
# Bulk Modulus (GPa) = 71.74428 70.88794 71.31611
# Shear Modulus (GPa) = 118.99285 19.12106 69.05695
#
# Velocity S-wave (km/s) = 8.03559 3.22117 6.12155
# Velocity P-wave (km/s) = 11.18150 7.23198 9.41614
#
# Compressibility (1/GPa) = 0.01393839
#
# Stress axis : x y z
#
# Youngs Moduli (GPa) = -45.46076 47.42377 -56.78306
#
# Poissons Ratio (x) = 0.37434 1.79010
# Poissons Ratio (y) = -0.35885 -0.42030
# Poissons Ratio (z) = 1.43316 0.35102
#
# Static dielectric constant tensor:
#      x y z
#    x 3.396570 0.000000 0.001200 
#    y 0.000000 3.579840 0.000000 
#    z 0.001200 0.000000 3.402770 
# 
# 
# High freq. dielectric constant tensor:
#      x y z
#    x 1.709170 0.000000 0.000390 
#    y 0.000000 1.715220 0.000000 
#    z 0.000390 0.000000 1.709700 
# 
# From -- ./inp_files/47878.got.cif
#   From: 2010.03.12/outbox.cif.g09.slc.cpg/sg5_24_cif.got.tgz:47878.got - 2010.03.31 09:47:26.
