data_PCOD8050046
_publ_section_title
;
Structure prediction by ZEFSAII (Michael W. Deem and Ramdas Pophale) SiO2 
 PCOD8050046
Probable space group: C 2
;
_chemical_formula_sum "Si O2"
_cell_formula_units_Z 20
_cell_length_a 8.861863
_cell_length_b 5.224239
_cell_length_c 18.627175
_cell_angle_alpha 90.000000
_cell_angle_beta 66.413721
_cell_angle_gamma 90.000000
_cell_volume 790.328974
_symmetry_space_group_name_H-M "C 2"
_symmetry_group_IT_number 5
_symmetry_cell_setting 'monoclinic'
loop_
_space_group_symop_operation_xyz
x,y,z
-x,y,-z
1/2+x,1/2+y,z
1/2-x,1/2+y,-z
loop_
_atom_site_type_symbol
_atom_site_label
_atom_site_fract_x
_atom_site_fract_y
_atom_site_fract_z
Si Si1 0.570947 0.263580 0.064172
Si Si2 0.520842 0.330926 0.288869
Si Si3 0.658592 0.763435 0.091169
Si Si4 0.267303 0.831316 0.767797
Si Si5 0.855847 0.861834 0.471155
O O1 0.552622 0.502929 0.123008
O O2 0.530817 0.001877 0.115154
O O3 0.500000 0.306746 0.000000
O O4 0.765228 0.235170 0.003501
O O5 0.595555 0.616442 0.274001
O O6 0.389566 0.287552 0.251081
O O7 0.428966 0.287219 0.380799
O O8 0.660800 0.114523 0.256203
O O9 0.784796 0.795594 0.136413
O O10 0.749068 0.620734 0.517852
O O11 0.000000 0.916516 0.500000
#
# Coordination Sequence:
#
# PCOD8050046 Si02
#       5
#     4   4   4   4   4
#     4  10  21  40  60  87 119 158 226 276 324 394
#     4  12  26  47  68 105 140 179 227 276 334 411
#     4  10  23  37  60  89 118 170 217 274 334 387
#     4  12  26  44  69  98 141 183 223 280 342 407
#     4  12  24  44  74 104 138 181 225 278 332 395
#
# _framework density 25.305918999999999
#
# number of rings (size 3 to 8) (size 9 to 14) (size 15 to 20)
#    0.000    0.800    0.000    7.200    5.600    0.000 
#    0.000    0.000    0.000    0.000    0.000    0.000 
#    0.000    0.000    0.000    0.000    0.000    0.000 
#
# Total GULP energy -123970.981070 kJ/mol
# GULP energy per Si atom -12397.098107 kJ/mol
# Density = 2.524832 g / cm^3
# Si number density = 25.305919 Si / 1000 Ang^3
#
#
#
# Elastic Constant Matrix: (Units=GPa)
#
#
# Indices 1 2 3 4 5 6 
#
# 1 93.5202 32.3572 18.4228 0.0000 23.0044 0.0000
# 2 32.3572 178.5387 3.0068 0.0001 21.4165 0.0001
# 3 18.4228 3.0068 122.9136 0.0000 5.8056 0.0000
# 4 0.0000 0.0001 0.0000 29.8838 0.0000 5.0198
# 5 23.0044 21.4165 5.8056 0.0000 30.7675 0.0000
# 6 0.0000 0.0001 0.0000 5.0198 0.0000 31.6567
#
#
#
# Elastic Compliance Matrix: (Units=1/GPa)
#
#
# Indices 1 2 3 4 5 6 
#
# 1 0.013692 -0.001378 -0.001594 0.000000 -0.008977 0.000000
# 2 -0.001378 0.006250 0.000212 0.000000 -0.003361 0.000000
# 3 -0.001594 0.000212 0.008395 0.000000 -0.000540 0.000000
# 4 0.000000 0.000000 0.000000 0.034379 0.000000 -0.005451
# 5 -0.008977 -0.003361 -0.000540 0.000000 0.041655 0.000000
# 6 0.000000 0.000000 0.000000 -0.005451 0.000000 0.032453
#
#
# Mechanical properties :
#
#
# Convention : Reuss Voigt Hill
#
# Bulk Modulus (GPa) = 43.82583 55.83843 49.83213
# Shear Modulus (GPa) = 33.34446 41.20733 37.27590
#
# Velocity S-wave (km/s) = 3.63389 4.03968 3.84215
# Velocity P-wave (km/s) = 5.91294 6.62359 6.27833
#
# Compressibility (1/GPa) = 0.02281760
#
# Stress axis : x y z
#
# Youngs Moduli (GPa) = 73.03556 159.99337 119.11734
#
# Poissons Ratio (x) = 0.22042 0.18993
# Poissons Ratio (y) = 0.10062 -0.02529
# Poissons Ratio (z) = 0.11645 -0.03397
#
# Static dielectric constant tensor:
#      x y z
#    x 4.812550 0.000000 -0.636720 
#    y 0.000000 5.556810 0.000000 
#    z -0.636720 0.000000 5.886060 
# 
# 
# High freq. dielectric constant tensor:
#      x y z
#    x 2.022160 0.000000 0.001770 
#    y 0.000000 2.039510 0.000000 
#    z 0.001770 0.000000 2.016420 
# 
# From -- ./inp_files/59135.got.cif
#   From: 2010.03.12/outbox.cif.g09.slc.cpg/sg5_30_cif.got.tgz:59135.got - 2010.03.31 09:47:26.
