data_PCOD8050056
_publ_section_title
;
Structure prediction by ZEFSAII (Michael W. Deem and Ramdas Pophale) SiO2 
 PCOD8050056
Probable space group: C 2
;
_chemical_formula_sum "Si O2"
_cell_formula_units_Z 22
_cell_length_a 26.063433
_cell_length_b 7.727081
_cell_length_c 6.630668
_cell_angle_alpha 90.000000
_cell_angle_beta 123.050538
_cell_angle_gamma 90.000000
_cell_volume 1119.300660
_symmetry_space_group_name_H-M "C 2"
_symmetry_group_IT_number 5
_symmetry_cell_setting 'monoclinic'
loop_
_space_group_symop_operation_xyz
x,y,z
-x,y,-z
1/2+x,1/2+y,z
1/2-x,1/2+y,-z
loop_
_atom_site_type_symbol
_atom_site_label
_atom_site_fract_x
_atom_site_fract_y
_atom_site_fract_z
Si Si1 0.378165 0.419100 0.793788
Si Si2 0.392654 0.734960 0.580020
Si Si3 0.500000 0.582678 0.000000
Si Si4 0.317303 0.883792 0.072491
Si Si5 0.231438 0.049986 0.219029
Si Si6 0.657869 0.042818 0.271296
O O1 0.358653 0.554000 0.572053
O O2 0.448742 0.464671 0.004025
O O3 0.331677 0.445814 0.881061
O O4 0.374920 0.218724 0.722593
O O5 0.466019 0.701015 0.756777
O O6 0.372502 0.791773 0.313811
O O7 0.377326 0.882225 0.708694
O O8 0.268424 0.965736 0.116467
O O9 0.282707 0.747656 0.858665
O O10 0.344622 0.027170 0.978106
O O11 0.271612 0.045787 0.507798
#
# Coordination Sequence:
#
# PCOD8050056 Si02
#       6
#     4   4   2   4   4   4
#     4  10  21  40  62  87 126 163 204 253 311 363
#     4   9  22  42  60  89 121 167 211 251 306 368
#     4   8  20  42  64  82 118 170 204 264 306 352
#     4  11  22  37  62  94 128 167 204 252 314 379
#     4  11  23  35  61  93 130 159 204 255 313 374
#     4  11  22  39  62  93 127 158 201 265 314 367
#
# _framework density 19.65513
#
# number of rings (size 3 to 8) (size 9 to 14) (size 15 to 20)
#    1.091    0.727    1.818    2.182    7.636    0.727 
#    0.000    3.636    0.000    2.182    0.000    0.000 
#    0.000    0.000    0.000    0.000    0.000    0.000 
#
# Total GULP energy -136308.333732 kJ/mol
# GULP energy per Si atom -12391.666703 kJ/mol
# Density = 1.961039 g / cm^3
# Si number density = 19.655130 Si / 1000 Ang^3
#
#
#
# Elastic Constant Matrix: (Units=GPa)
#
#
# Indices 1 2 3 4 5 6 
#
# 1 107.6034 44.6284 56.8613 0.0000 23.1274 0.0000
# 2 44.6284 127.9993 52.0745 0.0000 5.6132 0.0000
# 3 56.8613 52.0745 105.0169 0.0000 -5.5932 0.0000
# 4 0.0000 0.0000 0.0000 27.6016 0.0000 3.5229
# 5 23.1274 5.6132 -5.5932 0.0000 26.6976 0.0000
# 6 0.0000 0.0000 0.0000 3.5229 0.0000 19.5181
#
#
#
# Elastic Compliance Matrix: (Units=1/GPa)
#
#
# Indices 1 2 3 4 5 6 
#
# 1 0.019905 -0.001625 -0.010995 0.000000 -0.019205 0.000000
# 2 -0.001625 0.010182 -0.004255 0.000000 -0.001625 0.000000
# 3 -0.010995 -0.004255 0.018345 0.000000 0.014262 0.000000
# 4 0.000000 0.000000 0.000000 0.037084 0.000000 -0.006693
# 5 -0.019205 -0.001625 0.014262 0.000000 0.057423 0.000000
# 6 0.000000 0.000000 0.000000 -0.006693 0.000000 0.052443
#
#
# Mechanical properties :
#
#
# Convention : Reuss Voigt Hill
#
# Bulk Modulus (GPa) = 68.11221 71.97200 70.04211
# Shear Modulus (GPa) = 21.36526 27.23384 24.29955
#
# Velocity S-wave (km/s) = 3.30056 3.72638 3.51991
# Velocity P-wave (km/s) = 7.01810 7.43044 7.22721
#
# Compressibility (1/GPa) = 0.01468165
#
# Stress axis : x y z
#
# Youngs Moduli (GPa) = 50.23869 98.21652 54.51063
#
# Poissons Ratio (x) = 0.15959 0.59932
# Poissons Ratio (y) = 0.08163 0.23197
# Poissons Ratio (z) = 0.55236 0.41795
#
# Static dielectric constant tensor:
#      x y z
#    x 3.422420 0.000000 0.060290 
#    y 0.000000 3.685250 0.000000 
#    z 0.060290 0.000000 3.462040 
# 
# 
# High freq. dielectric constant tensor:
#      x y z
#    x 1.751450 0.000000 0.003700 
#    y 0.000000 1.777390 0.000000 
#    z 0.003700 0.000000 1.746000 
# 
# From -- ./inp_files/10194.got.cif
#   From: 2010.03.12/outbox.cif.g09.slc.cpg/sg5_6_cif.got.tgz:10194.got - 2010.03.31 09:47:26.
