data_PCOD8050058
_publ_section_title
;
Structure prediction by ZEFSAII (Michael W. Deem and Ramdas Pophale) SiO2 
 PCOD8050058
Probable space group: C 2
;
_chemical_formula_sum "Si O2"
_cell_formula_units_Z 32
_cell_length_a 24.162005
_cell_length_b 9.964549
_cell_length_c 17.708583
_cell_angle_alpha 90.000000
_cell_angle_beta 157.994765
_cell_angle_gamma 90.000000
_cell_volume 1597.526406
_symmetry_space_group_name_H-M "C 2"
_symmetry_group_IT_number 5
_symmetry_cell_setting 'monoclinic'
loop_
_space_group_symop_operation_xyz
x,y,z
-x,y,-z
1/2+x,1/2+y,z
1/2-x,1/2+y,-z
loop_
_atom_site_type_symbol
_atom_site_label
_atom_site_fract_x
_atom_site_fract_y
_atom_site_fract_z
Si Si1 0.961997 0.819470 0.603825
Si Si2 0.541321 0.605971 0.735271
Si Si3 0.910915 0.830376 0.709947
Si Si4 0.311449 0.612738 0.573459
Si Si5 0.336498 0.091276 0.190995
Si Si6 0.041053 0.354842 0.466468
Si Si7 0.674390 0.472081 0.129862
Si Si8 0.351574 0.709029 0.793326
O O1 0.982502 0.793464 0.719577
O O2 0.796243 0.783980 0.367425
O O3 0.081588 0.735622 0.706674
O O4 0.985643 0.976466 0.618818
O O5 0.456320 0.632705 0.705967
O O6 0.516059 0.728812 0.649849
O O7 0.713773 0.588761 0.970853
O O8 0.828971 0.695913 0.637989
O O9 0.787500 0.950758 0.546397
O O10 0.041553 0.881502 0.929376
O O11 0.343832 0.673981 0.695751
O O12 0.265946 0.054300 0.182286
O O13 0.462865 0.984097 0.330340
O O14 0.217553 0.373405 0.686516
O O15 0.000000 0.331873 0.500000
O O16 0.615606 0.577395 0.115245
O O17 0.500000 0.797317 0.000000
#
# Coordination Sequence:
#
# PCOD8050058 Si02
#       8
#     4   4   4   4   4   4   4   4
#     4  10  22  38  60  91 123 161 208 255 307 376
#     4  11  22  41  60  91 130 161 198 262 316 368
#     4  10  21  40  62  90 128 162 208 261 304 373
#     4  10  22  38  62  91 123 162 209 254 308 372
#     4  11  20  40  66  88 119 172 208 247 305 382
#     4  10  24  39  62  92 124 158 207 258 309 371
#     4  11  21  40  64  93 120 161 214 258 300 370
#     4  11  20  37  63  90 118 160 208 259 299 362
#
# _framework density 20.030968000000001
#
# number of rings (size 3 to 8) (size 9 to 14) (size 15 to 20)
#    0.000    1.500    5.000    0.750    3.500    0.000 
#    2.250    3.750    0.000    0.000    0.000    0.000 
#    0.000    0.000    0.000    0.000    0.000    0.000 
#
# Total GULP energy -198305.595693 kJ/mol
# GULP energy per Si atom -12394.099731 kJ/mol
# Density = 1.998538 g / cm^3
# Si number density = 20.030968 Si / 1000 Ang^3
#
#
#
# Elastic Constant Matrix: (Units=GPa)
#
#
# Indices 1 2 3 4 5 6 
#
# 1 39.0775 39.2120 37.6565 0.0000 -0.7509 0.0000
# 2 39.2120 93.6148 39.3724 0.0000 -1.2051 0.0000
# 3 37.6565 39.3724 136.6345 0.0000 -5.3323 0.0000
# 4 0.0000 0.0000 0.0000 35.4184 0.0000 -6.7230
# 5 -0.7509 -1.2051 -5.3323 0.0000 25.9341 0.0000
# 6 0.0000 0.0000 0.0000 -6.7230 0.0000 27.4263
#
#
#
# Elastic Compliance Matrix: (Units=1/GPa)
#
#
# Indices 1 2 3 4 5 6 
#
# 1 0.052887 -0.018227 -0.009372 0.000000 -0.001243 0.000000
# 2 -0.018227 0.018438 -0.000279 0.000000 0.000272 0.000000
# 3 -0.009372 -0.000279 0.010052 0.000000 0.001782 0.000000
# 4 0.000000 0.000000 0.000000 0.029612 0.000000 0.007259
# 5 -0.001243 0.000272 0.001782 0.000000 0.038902 0.000000
# 6 0.000000 0.000000 0.000000 0.007259 0.000000 0.038241
#
#
# Mechanical properties :
#
#
# Convention : Reuss Voigt Hill
#
# Bulk Modulus (GPa) = 39.03116 55.75653 47.39384
# Shear Modulus (GPa) = 19.80771 27.96148 23.88459
#
# Velocity S-wave (km/s) = 3.14802 3.74024 3.45684
# Velocity P-wave (km/s) = 5.72198 6.82262 6.29640
#
# Compressibility (1/GPa) = 0.02562055
#
# Stress axis : x y z
#
# Youngs Moduli (GPa) = 18.90821 54.23720 99.48612
#
# Poissons Ratio (x) = 0.98858 0.93238
# Poissons Ratio (y) = 0.34464 0.02776
# Poissons Ratio (z) = 0.17721 0.01513
#
# Static dielectric constant tensor:
#      x y z
#    x 3.635140 0.000000 -0.024070 
#    y 0.000000 3.778380 0.000000 
#    z -0.024070 0.000000 4.382940 
# 
# 
# High freq. dielectric constant tensor:
#      x y z
#    x 1.772300 0.000000 0.005790 
#    y 0.000000 1.768110 0.000000 
#    z 0.005790 0.000000 1.794910 
# 
# From -- ./inp_files/67605.got.cif
#   From: 2010.03.12/outbox.cif.g09.slc.cpg/sg5_34_cif.got.tgz:67605.got - 2010.03.31 09:47:26.
