data_PCOD8050470
_publ_section_title
;
Structure prediction by ZEFSAII (Michael W. Deem and Ramdas Pophale) SiO2 
 PCOD8050470
Probable space group: C 2
;
_chemical_formula_sum "Si O2"
_cell_formula_units_Z 16
_cell_length_a 17.800516
_cell_length_b 8.553708
_cell_length_c 8.906958
_cell_angle_alpha 90.000000
_cell_angle_beta 146.125186
_cell_angle_gamma 90.000000
_cell_volume 755.906280
_symmetry_space_group_name_H-M "C 2"
_symmetry_group_IT_number 5
_symmetry_cell_setting 'monoclinic'
loop_
_space_group_symop_operation_xyz
x,y,z
-x,y,-z
1/2+x,1/2+y,z
1/2-x,1/2+y,-z
loop_
_atom_site_type_symbol
_atom_site_label
_atom_site_fract_x
_atom_site_fract_y
_atom_site_fract_z
Si Si1 0.884781 0.783930 0.117652
Si Si2 0.645294 0.146723 0.606951
Si Si3 0.936275 0.100996 0.047263
Si Si4 0.602037 0.782731 0.544379
O O1 0.860131 0.753685 0.252965
O O2 0.023145 0.699416 0.294574
O O3 0.754022 0.713993 0.813794
O O4 0.908588 0.966835 0.123812
O O5 0.617662 0.966563 0.595792
O O6 0.789763 0.176935 0.768546
O O7 0.040006 0.231387 0.282060
O O8 0.000000 0.033485 0.000000
O O9 0.500000 0.715622 0.500000
#
# Coordination Sequence:
#
# PCOD8050470 Si02
#       4
#     4   4   4   4
#     4  10  22  39  66  94 123 161 213 259 303 369
#     4  10  22  40  65  96 122 160 214 259 304 367
#     4  11  26  42  62  95 132 164 203 260 320 367
#     4  11  21  38  67  94 122 163 213 254 305 372
#
# _framework density 21.166644999999999
#
# number of rings (size 3 to 8) (size 9 to 14) (size 15 to 20)
#    0.000    1.500    5.000    0.000    3.500    6.000 
#    0.000    1.250    0.000    0.000    0.000    0.000 
#    0.000    0.000    0.000    0.000    0.000    0.000 
#
# Total GULP energy -99126.945399 kJ/mol
# GULP energy per Si atom -12390.868175 kJ/mol
# Density = 2.111847 g / cm^3
# Si number density = 21.166645 Si / 1000 Ang^3
#
#
#
# Elastic Constant Matrix: (Units=GPa)
#
#
# Indices 1 2 3 4 5 6 
#
# 1 97.8108 46.3814 59.1505 0.0000 20.7038 0.0000
# 2 46.3814 64.4372 44.3000 0.0000 1.4702 0.0000
# 3 59.1505 44.3000 205.8015 0.0000 55.7825 0.0000
# 4 0.0000 0.0000 0.0000 31.8887 0.0000 5.1444
# 5 20.7038 1.4702 55.7825 0.0000 37.8691 0.0000
# 6 0.0000 0.0000 0.0000 5.1444 0.0000 17.8333
#
#
#
# Elastic Compliance Matrix: (Units=1/GPa)
#
#
# Indices 1 2 3 4 5 6 
#
# 1 0.018446 -0.013207 0.000226 0.000000 -0.009905 0.000000
# 2 -0.013207 0.029447 -0.006975 0.000000 0.016351 0.000000
# 3 0.000226 -0.006975 0.010413 0.000000 -0.015192 0.000000
# 4 0.000000 0.000000 0.000000 0.032890 0.000000 -0.009488
# 5 -0.009905 0.016351 -0.015192 0.000000 0.053565 0.000000
# 6 0.000000 0.000000 0.000000 -0.009488 0.000000 0.058812
#
#
# Mechanical properties :
#
#
# Convention : Reuss Voigt Hill
#
# Bulk Modulus (GPa) = 54.36248 74.19035 64.27642
# Shear Modulus (GPa) = 20.03068 32.06607 26.04837
#
# Velocity S-wave (km/s) = 3.07959 3.89644 3.51184
# Velocity P-wave (km/s) = 6.19548 7.44108 6.84667
#
# Compressibility (1/GPa) = 0.01839504
#
# Stress axis : x y z
#
# Youngs Moduli (GPa) = 54.21084 33.95902 96.03125
#
# Poissons Ratio (x) = 0.44849 -0.02168
# Poissons Ratio (y) = 0.71595 0.66981
# Poissons Ratio (z) = -0.01224 0.23686
#
# Static dielectric constant tensor:
#      x y z
#    x 3.529260 0.000000 0.585510 
#    y 0.000000 3.548320 0.000000 
#    z 0.585510 0.000000 4.742340 
# 
# 
# High freq. dielectric constant tensor:
#      x y z
#    x 1.797190 0.000000 0.037720 
#    y 0.000000 1.810610 0.000000 
#    z 0.037720 0.000000 1.856250 
# 
# From -- ./inp_files/13622.got.cif
#   From: 2010.03.12/outbox.cif.g09.slc.cpg/sg5_7_cif.got.tgz:13622.got - 2010.03.31 09:47:26.
