data_PCOD8050387
_publ_section_title
;
Structure prediction by ZEFSAII (Michael W. Deem and Ramdas Pophale) SiO2 
 PCOD8050387
Probable space group: C 2
;
_chemical_formula_sum "Si O2"
_cell_formula_units_Z 14
_cell_length_a 11.530252
_cell_length_b 8.832575
_cell_length_c 7.254952
_cell_angle_alpha 90.000000
_cell_angle_beta 69.416454
_cell_angle_gamma 90.000000
_cell_volume 691.689219
_symmetry_space_group_name_H-M "C 2"
_symmetry_group_IT_number 5
_symmetry_cell_setting 'monoclinic'
loop_
_space_group_symop_operation_xyz
x,y,z
-x,y,-z
1/2+x,1/2+y,z
1/2-x,1/2+y,-z
loop_
_atom_site_type_symbol
_atom_site_label
_atom_site_fract_x
_atom_site_fract_y
_atom_site_fract_z
Si Si1 0.462544 0.506980 0.221679
Si Si2 0.502922 0.162118 0.214333
Si Si3 0.000000 0.238481 0.500000
Si Si4 0.829648 0.512394 0.587157
O O1 0.517527 0.341670 0.232819
O O2 0.527339 0.630322 0.312958
O O3 0.316225 0.509056 0.331292
O O4 0.500000 0.560480 0.000000
O O5 0.376968 0.107771 0.384297
O O6 0.619543 0.083381 0.249703
O O7 0.500000 0.117462 0.000000
O O8 0.878647 0.341109 0.538845
#
# Coordination Sequence:
#
# PCOD8050387 Si02
#       4
#     4   4   2   4
#     4  11  23  37  58  86 113 147 187 228 278 331
#     4   9  20  40  60  80 112 151 185 227 280 328
#     4  10  22  38  58  84 112 146 188 232 276 326
#     4  10  22  39  58  83 114 147 186 230 276 330
#
# _framework density 20.240303000000001
#
# number of rings (size 3 to 8) (size 9 to 14) (size 15 to 20)
#    0.000    2.286    0.000    3.429    0.000   11.429 
#    0.000    0.000    0.000    0.000    0.000    0.000 
#    0.000    0.000    0.000    0.000    0.000    0.000 
#
# Total GULP energy -86802.383887 kJ/mol
# GULP energy per Si atom -12400.340555 kJ/mol
# Density = 2.019424 g / cm^3
# Si number density = 20.240303 Si / 1000 Ang^3
#
#
#
# Elastic Constant Matrix: (Units=GPa)
#
#
# Indices 1 2 3 4 5 6 
#
# 1 18.9334 -12.6090 1.6164 0.0000 -5.8590 0.0000
# 2 -12.6090 112.5356 61.2215 0.0000 17.0511 0.0000
# 3 1.6164 61.2215 156.4273 0.0000 14.1450 0.0000
# 4 0.0000 0.0000 0.0000 -2.1047 0.0000 -0.8139
# 5 -5.8590 17.0511 14.1450 0.0000 27.3587 0.0000
# 6 0.0000 0.0000 0.0000 -0.8139 0.0000 17.7465
#
#
#
# Elastic Compliance Matrix: (Units=1/GPa)
#
#
# Indices 1 2 3 4 5 6 
#
# 1 0.061764 0.007834 -0.004678 0.000000 0.010763 0.000000
# 2 0.007834 0.012971 -0.004803 0.000000 -0.003923 0.000000
# 3 -0.004678 -0.004803 0.008540 0.000000 -0.002424 0.000000
# 4 0.000000 0.000000 0.000000 -0.466853 0.000000 -0.021411
# 5 0.010763 -0.003923 -0.002424 0.000000 0.042555 0.000000
# 6 0.000000 0.000000 0.000000 -0.021411 0.000000 0.055367
#
#
# Mechanical properties :
#
#
# Convention : Reuss Voigt Hill
#
# Bulk Modulus (GPa) = 12.50269 43.15047 27.82658
# Shear Modulus (GPa) = -19.55390 24.44460 2.44535
#
# Velocity S-wave (km/s) = -3.11157 3.47900 1.10035
# Velocity P-wave (km/s) = 2.59202 6.12399 3.92331
#
# Compressibility (1/GPa) = 0.07998278
#
# Stress axis : x y z
#
# Youngs Moduli (GPa) = 16.19067 77.09461 117.09719
#
# Poissons Ratio (x) = -0.60398 0.54773
# Poissons Ratio (y) = -0.12684 0.56239
# Poissons Ratio (z) = 0.07573 0.37026
#
# Static dielectric constant tensor:
#      x y z
#    x 3.388670 0.000000 0.037430 
#    y 0.000000 3.885010 0.000000 
#    z 0.037430 0.000000 3.859690 
# 
# 
# High freq. dielectric constant tensor:
#      x y z
#    x 1.775080 0.000000 0.002570 
#    y 0.000000 1.808030 0.000000 
#    z 0.002570 0.000000 1.800300 
# 
# From -- ./inp_files/4149.got.cif
#   From: 2010.03.12/outbox.cif.g09.slc.cpg/sg5_3_cif.got.tgz:4149.got - 2010.03.31 09:47:26.
