data_PCOD8050960
_publ_section_title
;
Structure prediction by ZEFSAII (Michael W. Deem and Ramdas Pophale) SiO2 
 PCOD8050960
Probable space group: C 2
;
_chemical_formula_sum "Si O2"
_cell_formula_units_Z 24
_cell_length_a 15.848683
_cell_length_b 8.661808
_cell_length_c 7.811073
_cell_angle_alpha 90.000000
_cell_angle_beta 82.522742
_cell_angle_gamma 90.000000
_cell_volume 1063.172303
_symmetry_space_group_name_H-M "C 2"
_symmetry_group_IT_number 5
_symmetry_cell_setting 'monoclinic'
loop_
_space_group_symop_operation_xyz
x,y,z
-x,y,-z
1/2+x,1/2+y,z
1/2-x,1/2+y,-z
loop_
_atom_site_type_symbol
_atom_site_label
_atom_site_fract_x
_atom_site_fract_y
_atom_site_fract_z
Si Si1 0.093508 0.971190 0.530566
Si Si2 0.885815 0.632084 0.402769
Si Si3 0.547276 0.991318 0.273934
Si Si4 0.185750 0.377625 0.012852
Si Si5 0.777719 0.094479 0.767507
Si Si6 0.444076 0.708987 0.175969
O O1 0.139202 0.807101 0.544852
O O2 0.000000 0.927717 0.500000
O O3 0.139006 0.064854 0.366948
O O4 0.090876 0.066732 0.705811
O O5 0.903870 0.520459 0.560304
O O6 0.805731 0.566399 0.323891
O O7 0.972896 0.620252 0.266237
O O8 0.617043 0.001111 0.105382
O O9 0.501752 0.822390 0.278101
O O10 0.215721 0.265254 0.156952
O O11 0.268559 0.470134 0.924053
O O12 0.141485 0.289290 0.868280
O O13 0.500000 0.649640 0.000000
#
# Coordination Sequence:
#
# PCOD8050960 Si02
#       6
#     4   4   4   4   4   4
#     4  12  27  47  71 108 141 186 246 294 363 425
#     4  11  26  45  72 107 138 189 240 303 355 430
#     4  10  22  48  75  99 139 192 243 288 360 436
#     4  11  27  46  70 108 146 191 238 295 366 425
#     4  12  30  44  73 106 148 194 235 308 353 431
#     4  10  23  46  75 102 138 192 240 292 358 435
#
# _framework density 22.573951999999998
#
# number of rings (size 3 to 8) (size 9 to 14) (size 15 to 20)
#    0.000    1.000    3.333    2.000   16.333    0.000 
#    3.000    0.000    0.000    0.000    0.000    0.000 
#    0.000    0.000    0.000    0.000    0.000    0.000 
#
# Total GULP energy -148791.312664 kJ/mol
# GULP energy per Si atom -12399.276055 kJ/mol
# Density = 2.252257 g / cm^3
# Si number density = 22.573952 Si / 1000 Ang^3
#
#
#
# Elastic Constant Matrix: (Units=GPa)
#
#
# Indices 1 2 3 4 5 6 
#
# 1 78.2609 17.6345 32.0531 0.0000 -4.0572 0.0000
# 2 17.6345 92.3097 62.7793 0.0000 -7.9540 0.0000
# 3 32.0531 62.7793 112.0501 0.0000 -13.6160 0.0000
# 4 0.0000 0.0000 0.0000 48.5080 0.0000 -3.2350
# 5 -4.0572 -7.9540 -13.6160 0.0000 46.0141 0.0000
# 6 0.0000 0.0000 0.0000 -3.2350 0.0000 27.2973
#
#
#
# Elastic Compliance Matrix: (Units=1/GPa)
#
#
# Indices 1 2 3 4 5 6 
#
# 1 0.014474 0.000082 -0.004180 0.000000 0.000054 0.000000
# 2 0.000082 0.017503 -0.009815 0.000000 0.000129 0.000000
# 3 -0.004180 -0.009815 0.015942 0.000000 0.002652 0.000000
# 4 0.000000 0.000000 0.000000 0.020779 0.000000 0.002463
# 5 0.000054 0.000129 0.002652 0.000000 0.022544 0.000000
# 6 0.000000 0.000000 0.000000 0.002463 0.000000 0.036926
#
#
# Mechanical properties :
#
#
# Convention : Reuss Voigt Hill
#
# Bulk Modulus (GPa) = 49.76570 56.39496 53.08033
# Shear Modulus (GPa) = 30.73309 35.70746 33.22028
#
# Velocity S-wave (km/s) = 3.69377 3.98150 3.84033
# Velocity P-wave (km/s) = 6.34708 6.79507 6.57489
#
# Compressibility (1/GPa) = 0.02009416
#
# Stress axis : x y z
#
# Youngs Moduli (GPa) = 69.08934 57.13179 62.72887
#
# Poissons Ratio (x) = -0.00471 0.26221
# Poissons Ratio (y) = -0.00570 0.61567
# Poissons Ratio (z) = 0.28880 0.56073
#
# Static dielectric constant tensor:
#      x y z
#    x 4.136840 0.000000 -0.115740 
#    y 0.000000 3.883860 0.000000 
#    z -0.115740 0.000000 4.146990 
# 
# 
# High freq. dielectric constant tensor:
#      x y z
#    x 1.893420 0.000000 -0.000480 
#    y 0.000000 1.879120 0.000000 
#    z -0.000480 0.000000 1.892990 
# 
# From -- ./inp_files/22848.got.cif
#   From: 2010.03.12/outbox.cif.g09.slc.cpg/sg5_12_cif.got.tgz:22848.got - 2010.03.31 09:47:26.
