data_PCOD8050064
_publ_section_title
;
Structure prediction by ZEFSAII (Michael W. Deem and Ramdas Pophale) SiO2 
 PCOD8050064
Probable space group: C 2
;
_chemical_formula_sum "Si O2"
_cell_formula_units_Z 30
_cell_length_a 16.723918
_cell_length_b 8.667822
_cell_length_c 19.205621
_cell_angle_alpha 90.000000
_cell_angle_beta 35.138439
_cell_angle_gamma 90.000000
_cell_volume 1602.368693
_symmetry_space_group_name_H-M "C 2"
_symmetry_group_IT_number 5
_symmetry_cell_setting 'monoclinic'
loop_
_space_group_symop_operation_xyz
x,y,z
-x,y,-z
1/2+x,1/2+y,z
1/2-x,1/2+y,-z
loop_
_atom_site_type_symbol
_atom_site_label
_atom_site_fract_x
_atom_site_fract_y
_atom_site_fract_z
Si Si1 0.863872 0.392500 0.132476
Si Si2 0.714148 0.315578 0.943004
Si Si3 0.124487 0.269409 0.723592
Si Si4 0.421144 0.143123 0.484022
Si Si5 0.616656 0.544821 0.127907
Si Si6 0.481528 0.978833 0.712868
Si Si7 0.418762 0.309555 0.736088
Si Si8 0.500000 0.189221 0.000000
O O1 0.844190 0.353109 0.226837
O O2 0.739141 0.326901 0.175845
O O3 0.879141 0.579625 0.118837
O O4 0.000000 0.315574 0.000000
O O5 0.753349 0.143918 0.938631
O O6 0.840190 0.380855 0.806305
O O7 0.570232 0.305116 0.004323
O O8 0.687963 0.422635 0.027255
O O9 0.257725 0.168606 0.608314
O O10 0.997043 0.153213 0.827027
O O11 0.086889 0.396655 0.691661
O O12 0.500000 0.111608 0.500000
O O13 0.446977 0.994731 0.414723
O O14 0.484610 0.297237 0.401753
O O15 0.540921 0.456172 0.245753
O O16 0.438730 0.152564 0.767773
#
# Coordination Sequence:
#
# PCOD8050064 Si02
#       8
#     4   4   4   4   4   4   4   2
#     4  10  22  37  61  93 125 162 199 246 317 379
#     4  11  23  40  59  93 124 162 200 256 316 371
#     4  11  23  41  64  93 123 162 212 256 309 365
#     4  10  22  41  64  88 119 167 210 254 299 370
#     4  11  24  37  64  91 125 160 204 257 316 367
#     4   9  24  37  66  88 125 157 212 254 304 364
#     4  10  21  40  63  86 125 161 204 250 303 367
#     4  10  24  34  60  90 134 150 202 252 312 368
#
# _framework density 18.722283999999998
#
# number of rings (size 3 to 8) (size 9 to 14) (size 15 to 20)
#    1.200    0.533    2.667    0.800   13.067    2.133 
#    0.000    0.000    2.933    3.200    0.000    0.000 
#    0.000    0.000    0.000    0.000    0.000    0.000 
#
# Total GULP energy -185896.291272 kJ/mol
# GULP energy per Si atom -12393.086085 kJ/mol
# Density = 1.867967 g / cm^3
# Si number density = 18.722284 Si / 1000 Ang^3
#
#
#
# Elastic Constant Matrix: (Units=GPa)
#
#
# Indices 1 2 3 4 5 6 
#
# 1 96.7220 44.0494 30.0201 0.0000 -0.0251 0.0000
# 2 44.0494 86.3744 17.3542 0.0000 9.2728 0.0000
# 3 30.0201 17.3542 78.2217 0.0000 5.8447 0.0000
# 4 0.0000 0.0000 0.0000 34.1354 0.0000 2.5861
# 5 -0.0251 9.2728 5.8447 0.0000 36.2510 0.0000
# 6 0.0000 0.0000 0.0000 2.5861 0.0000 16.2016
#
#
#
# Elastic Compliance Matrix: (Units=1/GPa)
#
#
# Indices 1 2 3 4 5 6 
#
# 1 0.014865 -0.006976 -0.004344 0.000000 0.002495 0.000000
# 2 -0.006976 0.015658 -0.000503 0.000000 -0.003929 0.000000
# 3 -0.004344 -0.000503 0.014731 0.000000 -0.002249 0.000000
# 4 0.000000 0.000000 0.000000 0.029654 0.000000 -0.004733
# 5 0.002495 -0.003929 -0.002249 0.000000 0.028955 0.000000
# 6 0.000000 0.000000 0.000000 -0.004733 0.000000 0.062478
#
#
# Mechanical properties :
#
#
# Convention : Reuss Voigt Hill
#
# Bulk Modulus (GPa) = 46.27819 49.35170 47.81495
# Shear Modulus (GPa) = 25.35659 28.64391 27.00025
#
# Velocity S-wave (km/s) = 3.68415 3.91568 3.80168
# Velocity P-wave (km/s) = 6.54745 6.84548 6.69812
#
# Compressibility (1/GPa) = 0.02160845
#
# Stress axis : x y z
#
# Youngs Moduli (GPa) = 67.27376 63.86548 67.88480
#
# Poissons Ratio (x) = 0.44552 0.29486
# Poissons Ratio (y) = 0.46929 0.03415
# Poissons Ratio (z) = 0.29221 0.03213
#
# Static dielectric constant tensor:
#      x y z
#    x 3.346230 0.000000 0.001600 
#    y 0.000000 3.349710 0.000000 
#    z 0.001600 0.000000 3.338600 
# 
# 
# High freq. dielectric constant tensor:
#      x y z
#    x 1.730650 0.000000 -0.003570 
#    y 0.000000 1.718990 0.000000 
#    z -0.003570 0.000000 1.720800 
# 
# From -- ./inp_files/66599.got.cif
#   From: 2010.03.12/outbox.cif.g09.slc.cpg/sg5_34_cif.got.tgz:66599.got - 2010.03.31 09:47:26.
