data_PCOD8050562
_publ_section_title
;
Structure prediction by ZEFSAII (Michael W. Deem and Ramdas Pophale) SiO2 
 PCOD8050562
Probable space group: C 2
;
_chemical_formula_sum "Si O2"
_cell_formula_units_Z 28
_cell_length_a 14.074932
_cell_length_b 9.479161
_cell_length_c 11.461263
_cell_angle_alpha 90.000000
_cell_angle_beta 119.782544
_cell_angle_gamma 90.000000
_cell_volume 1327.170715
_symmetry_space_group_name_H-M "C 2"
_symmetry_group_IT_number 5
_symmetry_cell_setting 'monoclinic'
loop_
_space_group_symop_operation_xyz
x,y,z
-x,y,-z
1/2+x,1/2+y,z
1/2-x,1/2+y,-z
loop_
_atom_site_type_symbol
_atom_site_label
_atom_site_fract_x
_atom_site_fract_y
_atom_site_fract_z
Si Si1 0.882088 0.797260 0.385757
Si Si2 0.676481 0.260295 0.896265
Si Si3 0.885256 0.177067 0.880719
Si Si4 0.673340 0.891148 0.350858
Si Si5 0.530318 0.115621 0.140168
Si Si6 0.127824 0.463473 0.578965
Si Si7 0.820048 0.873285 0.849221
O O1 0.873716 0.842195 0.245025
O O2 0.802142 0.903805 0.404283
O O3 0.852100 0.631945 0.393172
O O4 0.000000 0.837633 0.500000
O O5 0.792427 0.199714 0.923177
O O6 0.585477 0.141020 0.867037
O O7 0.694431 0.357888 0.019882
O O8 0.865441 0.253493 0.744747
O O9 0.888532 0.011415 0.857235
O O10 0.000000 0.231655 0.000000
O O11 0.668355 0.889215 0.486041
O O12 0.604050 0.024262 0.268794
O O13 0.602758 0.252505 0.155571
O O14 0.500000 0.037619 0.000000
O O15 0.197079 0.381811 0.721044
O O16 0.000000 0.428892 0.500000
#
# Coordination Sequence:
#
# PCOD8050562 Si02
#       7
#     4   4   4   4   4   4   4
#     4  10  22  45  68  97 130 179 216 269 335 395
#     4  10  22  40  69  94 128 178 215 262 332 398
#     4  11  24  43  67 101 132 168 224 284 326 380
#     4  11  24  40  70  97 130 173 223 278 323 390
#     4  10  22  41  67  97 130 178 222 268 332 400
#     4  11  24  42  68  95 134 178 218 264 338 396
#     4  11  24  43  68  98 133 178 221 266 335 393
#
# _framework density 21.097511999999998
#
# number of rings (size 3 to 8) (size 9 to 14) (size 15 to 20)
#    0.000    1.429    2.857    3.429    6.000    4.571 
#    0.000    0.714    0.000    0.000    0.000    0.000 
#    0.000    0.000    0.000    0.000    0.000    0.000 
#
# Total GULP energy -173464.624462 kJ/mol
# GULP energy per Si atom -12390.330319 kJ/mol
# Density = 2.104949 g / cm^3
# Si number density = 21.097512 Si / 1000 Ang^3
#
#
#
# Elastic Constant Matrix: (Units=GPa)
#
#
# Indices 1 2 3 4 5 6 
#
# 1 136.1626 19.0471 84.8617 0.0000 8.3428 0.0000
# 2 19.0471 63.1829 43.9690 0.0000 -6.0108 0.0000
# 3 84.8617 43.9690 175.5602 0.0000 5.0280 0.0000
# 4 0.0000 0.0000 0.0000 88.9104 0.0000 -41.7292
# 5 8.3428 -6.0108 5.0280 0.0000 50.6390 0.0000
# 6 0.0000 0.0000 0.0000 -41.7292 0.0000 61.8224
#
#
#
# Elastic Compliance Matrix: (Units=1/GPa)
#
#
# Indices 1 2 3 4 5 6 
#
# 1 0.010592 0.000281 -0.005156 0.000000 -0.001200 0.000000
# 2 0.000281 0.019568 -0.005116 0.000000 0.002784 0.000000
# 3 -0.005156 -0.005116 0.009490 0.000000 -0.000700 0.000000
# 4 0.000000 0.000000 0.000000 0.016463 0.000000 0.011112
# 5 -0.001200 0.002784 -0.000700 0.000000 0.020345 0.000000
# 6 0.000000 0.000000 0.000000 0.011112 0.000000 0.023676
#
#
# Mechanical properties :
#
#
# Convention : Reuss Voigt Hill
#
# Bulk Modulus (GPa) = 50.84747 74.51790 62.68269
# Shear Modulus (GPa) = 39.47256 55.40957 47.44107
#
# Velocity S-wave (km/s) = 4.33015 5.13036 4.74715
# Velocity P-wave (km/s) = 7.01097 8.39592 7.73451
#
# Compressibility (1/GPa) = 0.01966666
#
# Stress axis : x y z
#
# Youngs Moduli (GPa) = 94.41429 51.10476 105.37864
#
# Poissons Ratio (x) = -0.01435 0.54330
# Poissons Ratio (y) = -0.02651 0.53914
# Poissons Ratio (z) = 0.48677 0.26146
#
# Static dielectric constant tensor:
#      x y z
#    x 2.982520 0.000000 0.592620 
#    y 0.000000 3.560690 0.000000 
#    z 0.592620 0.000000 4.027080 
# 
# 
# High freq. dielectric constant tensor:
#      x y z
#    x 1.839040 0.000000 0.011190 
#    y 0.000000 1.796830 0.000000 
#    z 0.011190 0.000000 1.851930 
# 
# From -- ./inp_files/42027.got.cif
#   From: 2010.03.12/outbox.cif.g09.slc.cpg/sg5_22_cif.got.tgz:42027.got - 2010.03.31 09:47:26.
