data_PCOD8050176
_publ_section_title
;
Structure prediction by ZEFSAII (Michael W. Deem and Ramdas Pophale) SiO2 
 PCOD8050176
Probable space group: C 2
;
_chemical_formula_sum "Si O2"
_cell_formula_units_Z 20
_cell_length_a 12.774726
_cell_length_b 4.950290
_cell_length_c 16.746324
_cell_angle_alpha 90.000000
_cell_angle_beta 61.835631
_cell_angle_gamma 90.000000
_cell_volume 933.623776
_symmetry_space_group_name_H-M "C 2"
_symmetry_group_IT_number 5
_symmetry_cell_setting 'monoclinic'
loop_
_space_group_symop_operation_xyz
x,y,z
-x,y,-z
1/2+x,1/2+y,z
1/2-x,1/2+y,-z
loop_
_atom_site_type_symbol
_atom_site_label
_atom_site_fract_x
_atom_site_fract_y
_atom_site_fract_z
Si Si1 0.865627 0.228460 0.385614
Si Si2 0.101686 0.727956 0.524669
Si Si3 0.974022 0.081814 0.178520
Si Si4 0.122562 0.601236 0.080278
Si Si5 0.629079 0.488914 0.940796
O O1 0.902061 0.527357 0.398729
O O2 0.724040 0.196444 0.432175
O O3 0.918539 0.177381 0.280272
O O4 0.917969 0.025176 0.432837
O O5 0.000000 0.652948 0.500000
O O6 0.066574 0.306153 0.111549
O O7 0.864108 0.997524 0.158446
O O8 0.050476 0.811131 0.161685
O O9 0.258451 0.637330 0.061296
O O10 0.119183 0.693559 0.987886
O O11 0.500000 0.634370 0.000000
#
# Coordination Sequence:
#
# PCOD8050176 Si02
#       5
#     4   4   4   4   4
#     4  10  22  40  63  95 124 155 206 247 296 369
#     4  10  21  41  66  90 125 165 194 243 307 365
#     4  11  25  41  62  93 124 157 204 259 300 352
#     4  11  24  41  62  88 121 162 208 250 303 362
#     4  10  23  41  61  84 118 161 203 249 301 352
#
# _framework density 21.421903
#
# number of rings (size 3 to 8) (size 9 to 14) (size 15 to 20)
#    0.000    1.600    0.000    4.200    0.000   18.400 
#    0.000    0.000    0.000    0.000    0.000    0.000 
#    0.000    0.000    0.000    0.000    0.000    0.000 
#
# Total GULP energy -123897.607485 kJ/mol
# GULP energy per Si atom -12389.760748 kJ/mol
# Density = 2.137315 g / cm^3
# Si number density = 21.421903 Si / 1000 Ang^3
#
#
#
# Elastic Constant Matrix: (Units=GPa)
#
#
# Indices 1 2 3 4 5 6 
#
# 1 169.2929 24.5148 53.8686 -0.0002 -7.3181 0.0030
# 2 24.5148 62.0824 4.8456 -0.0008 -12.6182 0.0032
# 3 53.8686 4.8456 92.7785 0.0021 8.2103 0.0005
# 4 -0.0002 -0.0008 0.0021 25.5803 0.0000 -9.1963
# 5 -7.3181 -12.6182 8.2103 0.0000 17.1602 -0.0005
# 6 0.0030 0.0032 0.0005 -9.1963 -0.0005 26.9446
#
#
#
# Elastic Compliance Matrix: (Units=1/GPa)
#
#
# Indices 1 2 3 4 5 6 
#
# 1 0.007919 -0.001863 -0.004885 0.000000 0.004345 0.000000
# 2 -0.001863 0.019867 -0.001231 0.000000 0.014403 -0.000002
# 3 -0.004885 -0.001231 0.014560 -0.000001 -0.009954 0.000000
# 4 0.000000 0.000000 -0.000001 0.044560 0.000001 0.015209
# 5 0.004345 0.014403 -0.009954 0.000001 0.075481 0.000000
# 6 0.000000 -0.000002 0.000000 0.015209 0.000000 0.042304
#
#
# Mechanical properties :
#
#
# Convention : Reuss Voigt Hill
#
# Bulk Modulus (GPa) = 37.89508 54.51243 46.20375
# Shear Modulus (GPa) = 21.79194 29.99867 25.89531
#
# Velocity S-wave (km/s) = 3.19293 3.74622 3.48059
# Velocity P-wave (km/s) = 5.59655 6.64940 6.14556
#
# Compressibility (1/GPa) = 0.02638865
#
# Stress axis : x y z
#
# Youngs Moduli (GPa) = 126.28097 50.33591 68.68216
#
# Poissons Ratio (x) = 0.09376 0.33551
# Poissons Ratio (y) = 0.23522 0.08452
# Poissons Ratio (z) = 0.61688 0.06195
#
# Static dielectric constant tensor:
#      x y z
#    x 4.160010 0.000000 0.044940 
#    y 0.000000 3.909740 0.000000 
#    z 0.044940 0.000000 3.761160 
# 
# 
# High freq. dielectric constant tensor:
#      x y z
#    x 1.849700 0.000000 -0.002280 
#    y 0.000000 1.849560 0.000000 
#    z -0.002280 0.000000 1.826460 
# 
# From -- ./inp_files/60022.got.cif
#   From: 2010.03.12/outbox.cif.g09.slc.cpg/sg5_31_cif.got.tgz:60022.got - 2010.03.31 09:47:26.
