data_PCOD8050501
_publ_section_title
;
Structure prediction by ZEFSAII (Michael W. Deem and Ramdas Pophale) SiO2 
 PCOD8050501
Probable space group: C 2
;
_chemical_formula_sum "Si O2"
_cell_formula_units_Z 32
_cell_length_a 13.384745
_cell_length_b 18.561609
_cell_length_c 10.758855
_cell_angle_alpha 90.000000
_cell_angle_beta 33.605938
_cell_angle_gamma 90.000000
_cell_volume 1479.421874
_symmetry_space_group_name_H-M "C 2"
_symmetry_group_IT_number 5
_symmetry_cell_setting 'monoclinic'
loop_
_space_group_symop_operation_xyz
x,y,z
-x,y,-z
1/2+x,1/2+y,z
1/2-x,1/2+y,-z
loop_
_atom_site_type_symbol
_atom_site_label
_atom_site_fract_x
_atom_site_fract_y
_atom_site_fract_z
Si Si1 0.597598 0.017930 0.152599
Si Si2 0.457734 0.167764 0.901999
Si Si3 0.297179 0.924375 0.177511
Si Si4 0.702527 0.269790 0.273056
Si Si5 0.400164 0.694052 0.846569
Si Si6 0.256697 0.774735 0.497149
Si Si7 0.235023 0.940086 0.517277
Si Si8 0.550263 0.548076 0.086065
O O1 0.512527 0.095337 0.207852
O O2 0.431310 0.966825 0.360517
O O3 0.739011 0.023909 0.120137
O O4 0.709087 0.986981 0.918572
O O5 0.583129 0.230279 0.718518
O O6 0.500000 0.151067 0.000000
O O7 0.249651 0.192670 0.106400
O O8 0.198786 0.852657 0.227211
O O9 0.205468 0.952113 0.399952
O O10 0.500000 0.901042 0.000000
O O11 0.500000 0.240886 0.500000
O O12 0.798066 0.267300 0.307781
O O13 0.806357 0.218963 0.071209
O O14 0.559633 0.745158 0.630848
O O15 0.482978 0.614769 0.786019
O O16 0.221328 0.856893 0.570966
O O17 0.076374 0.981321 0.750032
O O18 0.500000 0.573042 0.000000
#
# Coordination Sequence:
#
# PCOD8050501 Si02
#       8
#     4   4   4   4   4   4   4   4
#     4  10  22  40  65  88 122 158 198 255 309 354
#     4  11  24  42  62  91 123 164 208 250 299 368
#     4   9  19  36  61  93 121 151 198 252 307 357
#     4  11  20  35  63  95 122 154 200 256 310 355
#     4  11  23  42  64  91 122 162 203 255 310 363
#     4  11  23  40  65  91 127 161 204 255 304 364
#     4  10  22  40  62  92 120 160 200 253 303 355
#     4  11  25  41  60  88 122 163 207 245 294 369
#
# _framework density 21.63007
#
# number of rings (size 3 to 8) (size 9 to 14) (size 15 to 20)
#    0.000    1.500    1.250    5.250    3.500    2.500 
#    0.000    3.750    0.000    0.000    0.000    0.000 
#    0.000    0.000    0.000    0.000    0.000    0.000 
#
# Total GULP energy -198448.452354 kJ/mol
# GULP energy per Si atom -12403.028272 kJ/mol
# Density = 2.158084 g / cm^3
# Si number density = 21.630070 Si / 1000 Ang^3
#
#
#
# Elastic Constant Matrix: (Units=GPa)
#
#
# Indices 1 2 3 4 5 6 
#
# 1 118.6720 35.9454 29.9126 0.0350 -23.2807 -0.0374
# 2 35.9454 124.6475 52.9148 -0.0413 -22.8248 -0.0086
# 3 29.9126 52.9148 67.7497 0.0233 -19.7464 -0.0470
# 4 0.0350 -0.0413 0.0233 40.3942 -0.0112 -5.8475
# 5 -23.2807 -22.8248 -19.7464 -0.0112 25.1049 0.0357
# 6 -0.0374 -0.0086 -0.0470 -5.8475 0.0357 23.2701
#
#
#
# Elastic Compliance Matrix: (Units=1/GPa)
#
#
# Indices 1 2 3 4 5 6 
#
# 1 0.010650 -0.000928 -0.001745 -0.000007 0.007660 0.000000
# 2 -0.000928 0.012505 -0.008167 0.000017 0.004086 -0.000015
# 3 -0.001745 -0.008167 0.025006 -0.000015 0.010626 0.000025
# 4 -0.000007 0.000017 -0.000015 0.025691 0.000000 0.006456
# 5 0.007660 0.004086 0.010626 0.000000 0.059009 -0.000055
# 6 0.000000 -0.000015 0.000025 0.006456 -0.000055 0.044596
#
#
# Mechanical properties :
#
#
# Convention : Reuss Voigt Hill
#
# Bulk Modulus (GPa) = 37.76035 60.95721 49.35878
# Shear Modulus (GPa) = 24.04276 30.57359 27.30818
#
# Velocity S-wave (km/s) = 3.33760 3.76370 3.55704
# Velocity P-wave (km/s) = 5.68753 6.86514 6.30389
#
# Compressibility (1/GPa) = 0.02648281
#
# Stress axis : x y z
#
# Youngs Moduli (GPa) = 93.89466 79.96720 39.99062
#
# Poissons Ratio (x) = 0.07420 0.06978
# Poissons Ratio (y) = 0.08712 0.32658
# Poissons Ratio (z) = 0.16384 0.65305
#
# Static dielectric constant tensor:
#      x y z
#    x 3.965260 0.000000 -0.176410 
#    y 0.000000 3.960350 0.000070 
#    z -0.176410 0.000070 3.715830 
# 
# 
# High freq. dielectric constant tensor:
#      x y z
#    x 1.840640 0.000000 -0.024090 
#    y 0.000000 1.858590 0.000000 
#    z -0.024090 0.000000 1.837650 
# 
# From -- ./inp_files/43356.got.cif
#   From: 2010.03.12/outbox.cif.g09.slc.cpg/sg5_22_cif.got.tgz:43356.got - 2010.03.31 09:47:26.
