data_PCOD8050429
_publ_section_title
;
Structure prediction by ZEFSAII (Michael W. Deem and Ramdas Pophale) SiO2 
 PCOD8050429
Probable space group: C 2
;
_chemical_formula_sum "Si O2"
_cell_formula_units_Z 22
_cell_length_a 14.092243
_cell_length_b 5.270119
_cell_length_c 21.636170
_cell_angle_alpha 90.000000
_cell_angle_beta 30.732561
_cell_angle_gamma 90.000000
_cell_volume 821.161520
_symmetry_space_group_name_H-M "C 2"
_symmetry_group_IT_number 5
_symmetry_cell_setting 'monoclinic'
loop_
_space_group_symop_operation_xyz
x,y,z
-x,y,-z
1/2+x,1/2+y,z
1/2-x,1/2+y,-z
loop_
_atom_site_type_symbol
_atom_site_label
_atom_site_fract_x
_atom_site_fract_y
_atom_site_fract_z
Si Si1 0.500000 0.144961 0.500000
Si Si2 0.360255 0.472052 0.784324
Si Si3 0.212779 0.354106 0.748740
Si Si4 0.806725 0.736306 0.336160
Si Si5 0.663398 0.505083 0.525904
Si Si6 0.169725 0.187418 0.074711
O O1 0.424040 0.285925 0.605675
O O2 0.677097 0.978182 0.421368
O O3 0.199774 0.340152 0.831559
O O4 0.485221 0.277806 0.754476
O O5 0.473083 0.609229 0.664518
O O6 0.281407 0.669659 0.879189
O O7 0.171439 0.640081 0.746511
O O8 0.054792 0.164948 0.809566
O O9 0.695384 0.498610 0.432953
O O10 0.693159 0.231949 0.539312
O O11 0.233120 0.460329 0.015921
#
# Coordination Sequence:
#
# PCOD8050429 Si02
#       6
#     2   4   4   4   4   4
#     4  12  24  44  78 122 168 204 256 322 406 502
#     4  11  25  49  80 112 156 214 263 335 404 472
#     4  12  27  51  80 121 160 214 264 329 411 492
#     4  11  24  45  70 121 172 204 250 326 397 499
#     4  10  22  38  69 110 157 207 247 297 396 486
#     4  12  29  59  84 111 160 215 282 351 394 461
#
# _framework density 26.791319000000001
#
# number of rings (size 3 to 8) (size 9 to 14) (size 15 to 20)
#    0.000    0.727    1.818    4.909   12.727    2.182 
#    6.545    5.455    0.000    0.000    0.000    0.000 
#    0.000    0.000    0.000    0.000    0.000    0.000 
#
# Total GULP energy -136280.842688 kJ/mol
# GULP energy per Si atom -12389.167517 kJ/mol
# Density = 2.673034 g / cm^3
# Si number density = 26.791319 Si / 1000 Ang^3
#
#
#
# Elastic Constant Matrix: (Units=GPa)
#
#
# Indices 1 2 3 4 5 6 
#
# 1 201.6744 42.7713 37.6294 -0.0037 26.2384 -0.0363
# 2 42.7713 92.2688 29.4041 -0.0054 10.4315 -0.0363
# 3 37.6294 29.4041 90.0389 -0.0027 10.8051 -0.0211
# 4 -0.0037 -0.0054 -0.0027 41.2910 0.0047 0.4517
# 5 26.2384 10.4315 10.8051 0.0047 43.7200 0.0031
# 6 -0.0363 -0.0363 -0.0211 0.4517 0.0031 32.8462
#
#
#
# Elastic Compliance Matrix: (Units=1/GPa)
#
#
# Indices 1 2 3 4 5 6 
#
# 1 0.006027 -0.001992 -0.001537 0.000000 -0.002762 0.000004
# 2 -0.001992 0.012922 -0.003258 0.000001 -0.001083 0.000010
# 3 -0.001537 -0.003258 0.012994 0.000000 -0.001512 0.000003
# 4 0.000000 0.000001 0.000000 0.024222 -0.000003 -0.000333
# 5 -0.002762 -0.001083 -0.001512 -0.000003 0.025162 -0.000008
# 6 0.000004 0.000010 0.000003 -0.000333 -0.000008 0.030450
#
#
# Mechanical properties :
#
#
# Convention : Reuss Voigt Hill
#
# Bulk Modulus (GPa) = 54.43616 67.06576 60.75096
# Shear Modulus (GPa) = 38.03083 41.84993 39.94038
#
# Velocity S-wave (km/s) = 3.77174 3.95659 3.86527
# Velocity P-wave (km/s) = 6.27142 6.77937 6.53033
#
# Compressibility (1/GPa) = 0.01837014
#
# Stress axis : x y z
#
# Youngs Moduli (GPa) = 165.91952 77.38914 76.95943
#
# Poissons Ratio (x) = 0.15414 0.11828
# Poissons Ratio (y) = 0.33048 0.25070
# Poissons Ratio (z) = 0.25501 0.25210
#
# Static dielectric constant tensor:
#      x y z
#    x 5.193450 -0.000010 0.180540 
#    y -0.000010 4.609520 0.000000 
#    z 0.180540 0.000000 5.096640 
# 
# 
# High freq. dielectric constant tensor:
#      x y z
#    x 2.099580 0.000000 0.010070 
#    y 0.000000 2.061610 0.000000 
#    z 0.010070 0.000000 2.073440 
# 
# From -- ./inp_files/68545.got.cif
#   From: 2010.03.12/outbox.cif.g09.slc.cpg/sg5_35_cif.got.tgz:68545.got - 2010.03.31 09:47:26.
