data_PCOD8050206
_publ_section_title
;
Structure prediction by ZEFSAII (Michael W. Deem and Ramdas Pophale) SiO2 
 PCOD8050206
Probable space group: C 2
;
_chemical_formula_sum "Si O2"
_cell_formula_units_Z 32
_cell_length_a 11.214337
_cell_length_b 14.668133
_cell_length_c 17.066687
_cell_angle_alpha 90.000000
_cell_angle_beta 151.330594
_cell_angle_gamma 90.000000
_cell_volume 1346.843802
_symmetry_space_group_name_H-M "C 2"
_symmetry_group_IT_number 5
_symmetry_cell_setting 'monoclinic'
loop_
_space_group_symop_operation_xyz
x,y,z
-x,y,-z
1/2+x,1/2+y,z
1/2-x,1/2+y,-z
loop_
_atom_site_type_symbol
_atom_site_label
_atom_site_fract_x
_atom_site_fract_y
_atom_site_fract_z
Si Si1 0.345125 0.378850 0.530353
Si Si2 0.372112 0.841709 0.762723
Si Si3 0.189453 0.729841 0.368996
Si Si4 0.211843 0.603563 0.826583
Si Si5 0.163497 0.161383 0.700445
Si Si6 0.531546 0.657181 0.792001
Si Si7 0.919230 0.524200 0.093470
Si Si8 0.883452 0.533487 0.508172
O O1 0.626803 0.350428 0.674314
O O2 0.182846 0.366822 0.359119
O O3 0.237907 0.318444 0.540000
O O4 0.307319 0.479105 0.545523
O O5 0.489679 0.739448 0.830638
O O6 0.566675 0.914768 0.912813
O O7 0.375047 0.648355 0.506984
O O8 0.222483 0.738754 0.293276
O O9 0.908028 0.702032 0.224872
O O10 0.112183 0.531737 0.831984
O O11 0.130884 0.567644 0.695310
O O12 0.500000 0.617945 0.000000
O O13 0.316855 0.067558 0.780113
O O14 0.178549 0.194061 0.799640
O O15 0.264603 0.621218 0.609987
O O16 0.688974 0.573802 0.918842
O O17 0.000000 0.479913 0.500000
#
# Coordination Sequence:
#
# PCOD8050206 Si02
#       8
#     4   4   4   4   4   4   4   4
#     4  11  24  44  72 113 150 199 268 315 384 470
#     4  11  25  45  77 108 155 206 258 322 391 470
#     4  10  22  41  73 108 147 202 250 309 385 462
#     4  11  23  44  70 103 146 198 251 311 386 454
#     4  10  21  41  77 105 155 189 259 313 385 456
#     4  12  25  47  76 115 155 206 260 322 392 473
#     4  11  25  46  72 112 151 204 255 321 390 454
#     4  12  26  43  74 106 154 203 263 327 383 464
#
# _framework density 23.759252
#
# number of rings (size 3 to 8) (size 9 to 14) (size 15 to 20)
#    0.000    1.000    3.750    1.875    7.000    1.000 
#    4.500    2.500    0.000    0.000    0.000    0.000 
#    0.000    0.000    0.000    0.000    0.000    0.000 
#
# Total GULP energy -198259.212137 kJ/mol
# GULP energy per Si atom -12391.200759 kJ/mol
# Density = 2.370517 g / cm^3
# Si number density = 23.759252 Si / 1000 Ang^3
#
#
#
# Elastic Constant Matrix: (Units=GPa)
#
#
# Indices 1 2 3 4 5 6 
#
# 1 139.6691 42.9496 40.8621 -0.0026 -4.8450 0.0018
# 2 42.9496 112.7614 54.4456 0.0112 7.3533 0.0033
# 3 40.8621 54.4456 133.5953 0.0191 13.8646 0.0110
# 4 -0.0026 0.0112 0.0191 33.8216 -0.0003 -5.0925
# 5 -4.8450 7.3533 13.8646 -0.0003 40.6543 0.0025
# 6 0.0018 0.0033 0.0110 -5.0925 0.0025 22.5160
#
#
#
# Elastic Compliance Matrix: (Units=1/GPa)
#
#
# Indices 1 2 3 4 5 6 
#
# 1 0.008533 -0.002517 -0.001801 0.000003 0.002086 0.000001
# 2 -0.002517 0.011792 -0.003922 -0.000002 -0.001095 0.000000
# 3 -0.001801 -0.003922 0.009935 -0.000005 -0.002893 -0.000005
# 4 0.000003 -0.000002 -0.000005 0.030609 0.000002 0.006923
# 5 0.002086 -0.001095 -0.002893 0.000002 0.026031 -0.000001
# 6 0.000001 0.000000 -0.000005 0.006923 -0.000001 0.045979
#
#
# Mechanical properties :
#
#
# Convention : Reuss Voigt Hill
#
# Bulk Modulus (GPa) = 72.56733 73.61561 73.09147
# Shear Modulus (GPa) = 32.47766 35.91628 34.19697
#
# Velocity S-wave (km/s) = 3.70124 3.89225 3.79794
# Velocity P-wave (km/s) = 6.99104 7.15896 7.07550
#
# Compressibility (1/GPa) = 0.01378031
#
# Stress axis : x y z
#
# Youngs Moduli (GPa) = 117.19368 84.80231 100.65536
#
# Poissons Ratio (x) = 0.21342 0.18126
# Poissons Ratio (y) = 0.29493 0.39481
# Poissons Ratio (z) = 0.21104 0.33263
#
# Static dielectric constant tensor:
#      x y z
#    x 4.785470 -0.000010 -0.114880 
#    y -0.000010 3.933730 -0.000020 
#    z -0.114880 -0.000020 4.083190 
# 
# 
# High freq. dielectric constant tensor:
#      x y z
#    x 1.972010 0.000000 -0.001890 
#    y 0.000000 1.909360 0.000000 
#    z -0.001890 0.000000 1.927360 
# 
# From -- ./inp_files/60721.got.cif
#   From: 2010.03.12/outbox.cif.g09.slc.cpg/sg5_31_cif.got.tgz:60721.got - 2010.03.31 09:47:26.
