data_PCOD8050866
_publ_section_title
;
Structure prediction by ZEFSAII (Michael W. Deem and Ramdas Pophale) SiO2 
 PCOD8050866
Probable space group: C 2
;
_chemical_formula_sum "Si O2"
_cell_formula_units_Z 30
_cell_length_a 20.801144
_cell_length_b 14.403149
_cell_length_c 9.147211
_cell_angle_alpha 90.000000
_cell_angle_beta 151.012407
_cell_angle_gamma 90.000000
_cell_volume 1328.112603
_symmetry_space_group_name_H-M "C 2"
_symmetry_group_IT_number 5
_symmetry_cell_setting 'monoclinic'
loop_
_space_group_symop_operation_xyz
x,y,z
-x,y,-z
1/2+x,1/2+y,z
1/2-x,1/2+y,-z
loop_
_atom_site_type_symbol
_atom_site_label
_atom_site_fract_x
_atom_site_fract_y
_atom_site_fract_z
Si Si1 0.000000 0.976220 0.500000
Si Si2 0.545689 0.816716 0.739749
Si Si3 0.036122 0.635351 0.415914
Si Si4 0.507204 0.338291 0.755603
Si Si5 0.782603 0.606169 0.781079
Si Si6 0.211353 0.304381 0.569194
Si Si7 0.747493 0.400780 0.636341
Si Si8 0.190739 0.131186 0.932329
O O1 0.053283 0.914290 0.474849
O O2 0.885942 0.036322 0.199800
O O3 0.500000 0.869338 0.500000
O O4 0.417854 0.809839 0.587965
O O5 0.596861 0.715733 0.790703
O O6 0.665647 0.873610 0.049632
O O7 0.000000 0.591135 0.500000
O O8 0.996753 0.742622 0.337296
O O9 0.193824 0.624802 0.714499
O O10 0.943868 0.588530 0.106931
O O11 0.395491 0.347456 0.659876
O O12 0.658853 0.355601 0.105118
O O13 0.744999 0.694963 0.605067
O O14 0.722242 0.512591 0.591178
O O15 0.737545 0.636450 0.855899
O O16 0.175073 0.361694 0.350884
#
# Coordination Sequence:
#
# PCOD8050866 Si02
#       8
#     2   4   4   4   4   4   4   4
#     4  12  22  34  66 104 138 168 240 300 348 424
#     4  12  25  44  74 105 146 190 237 300 368 423
#     4   9  19  36  66  99 140 180 228 298 361 419
#     4  11  23  41  69 103 139 190 240 296 356 426
#     4  10  22  44  72 102 144 186 246 292 359 439
#     4  11  26  49  70 103 150 196 238 298 366 434
#     4  12  26  47  71 107 147 196 241 297 365 441
#     4  11  20  40  66 108 139 180 234 299 367 411
#
# _framework density 22.588446000000001
#
# number of rings (size 3 to 8) (size 9 to 14) (size 15 to 20)
#    0.000    1.067    5.333    0.800    1.867    2.667 
#    2.400    6.667    0.000    0.000    0.000    0.000 
#    0.000    0.000    0.000    0.000    0.000    0.000 
#
# Total GULP energy -185852.399956 kJ/mol
# GULP energy per Si atom -12390.159997 kJ/mol
# Density = 2.253703 g / cm^3
# Si number density = 22.588446 Si / 1000 Ang^3
#
#
#
# Elastic Constant Matrix: (Units=GPa)
#
#
# Indices 1 2 3 4 5 6 
#
# 1 96.8879 31.2284 32.2685 0.0000 8.6053 0.0000
# 2 31.2284 99.8294 26.0791 0.0000 -7.1942 0.0000
# 3 32.2685 26.0791 112.1023 0.0000 21.6507 0.0000
# 4 0.0000 0.0000 0.0000 27.3530 0.0000 -6.6439
# 5 8.6053 -7.1942 21.6507 0.0000 34.9608 0.0000
# 6 0.0000 0.0000 0.0000 -6.6439 0.0000 13.8154
#
#
#
# Elastic Compliance Matrix: (Units=1/GPa)
#
#
# Indices 1 2 3 4 5 6 
#
# 1 0.012411 -0.003443 -0.002322 0.000000 -0.002325 0.000000
# 2 -0.003443 0.012204 -0.002836 0.000000 0.005115 0.000000
# 3 -0.002322 -0.002836 0.011644 0.000000 -0.007223 0.000000
# 4 0.000000 0.000000 0.000000 0.041394 0.000000 0.019907
# 5 -0.002325 0.005115 -0.007223 0.000000 0.034701 0.000000
# 6 0.000000 0.000000 0.000000 0.019907 0.000000 0.081956
#
#
# Mechanical properties :
#
#
# Convention : Reuss Voigt Hill
#
# Bulk Modulus (GPa) = 52.47856 54.21906 53.34881
# Shear Modulus (GPa) = 22.95004 29.84208 26.39606
#
# Velocity S-wave (km/s) = 3.19095 3.63867 3.42214
# Velocity P-wave (km/s) = 6.07117 6.45820 6.26767
#
# Compressibility (1/GPa) = 0.01905540
#
# Stress axis : x y z
#
# Youngs Moduli (GPa) = 80.57370 81.94299 85.88449
#
# Poissons Ratio (x) = 0.28215 0.19946
# Poissons Ratio (y) = 0.27744 0.24355
# Poissons Ratio (z) = 0.18712 0.23237
#
# Static dielectric constant tensor:
#      x y z
#    x 3.918140 0.000000 0.220940 
#    y 0.000000 3.963520 0.000000 
#    z 0.220940 0.000000 4.361530 
# 
# 
# High freq. dielectric constant tensor:
#      x y z
#    x 1.869760 0.000000 0.019350 
#    y 0.000000 1.885020 0.000000 
#    z 0.019350 0.000000 1.903630 
# 
# From -- ./inp_files/29943.got.cif
#   From: 2010.03.12/outbox.cif.g09.slc.cpg/sg5_15_cif.got.tgz:29943.got - 2010.03.31 09:47:26.
