data_PCOD8050358
_publ_section_title
;
Structure prediction by ZEFSAII (Michael W. Deem and Ramdas Pophale) SiO2 
 PCOD8050358
Probable space group: C 2
;
_chemical_formula_sum "Si O2"
_cell_formula_units_Z 24
_cell_length_a 9.789756
_cell_length_b 10.419783
_cell_length_c 11.315273
_cell_angle_alpha 90.000000
_cell_angle_beta 87.832194
_cell_angle_gamma 90.000000
_cell_volume 1153.412504
_symmetry_space_group_name_H-M "C 2"
_symmetry_group_IT_number 5
_symmetry_cell_setting 'monoclinic'
loop_
_space_group_symop_operation_xyz
x,y,z
-x,y,-z
1/2+x,1/2+y,z
1/2-x,1/2+y,-z
loop_
_atom_site_type_symbol
_atom_site_label
_atom_site_fract_x
_atom_site_fract_y
_atom_site_fract_z
Si Si1 0.083796 0.993890 0.165581
Si Si2 0.656290 0.604534 0.684802
Si Si3 0.623828 0.890508 0.280349
Si Si4 0.500000 0.275926 0.000000
Si Si5 0.291062 0.732899 0.935897
Si Si6 0.500000 0.735453 0.500000
Si Si7 0.651855 0.860715 0.828289
O O1 0.021743 0.867931 0.110184
O O2 0.231276 0.959806 0.216129
O O3 0.110302 0.108802 0.069816
O O4 0.981674 0.033759 0.271228
O O5 0.789907 0.515374 0.685648
O O6 0.621681 0.650259 0.553151
O O7 0.682992 0.724185 0.768247
O O8 0.712921 0.797316 0.194014
O O9 0.575921 0.821335 0.400623
O O10 0.489580 0.925669 0.207774
O O11 0.364963 0.190164 0.027102
O O12 0.346467 0.835209 0.030289
#
# Coordination Sequence:
#
# PCOD8050358 Si02
#       7
#     4   4   4   2   4   2   4
#     4  11  21  39  63  90 133 168 209 255 313 379
#     4  11  23  45  69  91 127 170 218 274 319 379
#     4  11  23  44  68  92 130 169 216 268 323 376
#     4  10  22  36  58 102 128 172 206 244 324 390
#     4  11  21  39  65  97 138 166 204 261 319 390
#     4  10  24  44  64  96 120 174 224 270 326 366
#     4  10  24  38  65 102 130 169 209 253 333 395
#
# _framework density 20.807822000000002
#
# number of rings (size 3 to 8) (size 9 to 14) (size 15 to 20)
#    0.000    1.333    5.000    1.500    2.333    5.333 
#    0.000    0.000    0.000    0.000    0.000    0.000 
#    0.000    0.000    0.000    0.000    0.000    0.000 
#
# Total GULP energy -148756.047941 kJ/mol
# GULP energy per Si atom -12396.337328 kJ/mol
# Density = 2.076046 g / cm^3
# Si number density = 20.807822 Si / 1000 Ang^3
#
#
#
# Elastic Constant Matrix: (Units=GPa)
#
#
# Indices 1 2 3 4 5 6 
#
# 1 155.2160 41.6764 48.6802 0.0000 0.6741 0.0000
# 2 41.6764 67.7644 24.7783 0.0000 -0.2444 0.0000
# 3 48.6802 24.7783 113.1880 0.0000 -7.8909 0.0000
# 4 0.0000 0.0000 0.0000 10.9063 0.0000 9.5718
# 5 0.6741 -0.2444 -7.8909 0.0000 20.1111 0.0000
# 6 0.0000 0.0000 0.0000 9.5718 0.0000 31.3106
#
#
#
# Elastic Compliance Matrix: (Units=1/GPa)
#
#
# Indices 1 2 3 4 5 6 
#
# 1 0.008455 -0.004173 -0.002823 0.000000 -0.001442 0.000000
# 2 -0.004173 0.018129 -0.002209 0.000000 -0.000507 0.000000
# 3 -0.002823 -0.002209 0.010834 0.000000 0.004319 0.000000
# 4 0.000000 0.000000 0.000000 0.125310 0.000000 -0.038308
# 5 -0.001442 -0.000507 0.004319 0.000000 0.051460 0.000000
# 6 0.000000 0.000000 0.000000 -0.038308 0.000000 0.043649
#
#
# Mechanical properties :
#
#
# Convention : Reuss Voigt Hill
#
# Bulk Modulus (GPa) = 52.61208 62.93758 57.77483
# Shear Modulus (GPa) = 17.69384 27.20117 22.44750
#
# Velocity S-wave (km/s) = 2.91923 3.61952 3.28807
# Velocity P-wave (km/s) = 6.05823 6.91236 6.49934
#
# Compressibility (1/GPa) = 0.01900704
#
# Stress axis : x y z
#
# Youngs Moduli (GPa) = 118.27667 55.15916 92.30310
#
# Poissons Ratio (x) = 0.23016 0.26060
# Poissons Ratio (y) = 0.49353 0.20394
# Poissons Ratio (z) = 0.33393 0.12187
#
# Static dielectric constant tensor:
#      x y z
#    x 4.111550 0.000000 0.063030 
#    y 0.000000 3.722480 0.000000 
#    z 0.063030 0.000000 3.721390 
# 
# 
# High freq. dielectric constant tensor:
#      x y z
#    x 1.830980 0.000000 0.002230 
#    y 0.000000 1.802470 0.000000 
#    z 0.002230 0.000000 1.801090 
# 
# From -- ./inp_files/35437.got.cif
#   From: 2010.03.12/outbox.cif.g09.slc.cpg/sg5_18_cif.got.tgz:35437.got - 2010.03.31 09:47:26.
