data_PCOD8050286
_publ_section_title
;
Structure prediction by ZEFSAII (Michael W. Deem and Ramdas Pophale) SiO2 
 PCOD8050286
Probable space group: C 2
;
_chemical_formula_sum "Si O2"
_cell_formula_units_Z 30
_cell_length_a 16.796912
_cell_length_b 5.193756
_cell_length_c 14.538560
_cell_angle_alpha 90.000000
_cell_angle_beta 111.003897
_cell_angle_gamma 90.000000
_cell_volume 1184.057466
_symmetry_space_group_name_H-M "C 2"
_symmetry_group_IT_number 5
_symmetry_cell_setting 'monoclinic'
loop_
_space_group_symop_operation_xyz
x,y,z
-x,y,-z
1/2+x,1/2+y,z
1/2-x,1/2+y,-z
loop_
_atom_site_type_symbol
_atom_site_label
_atom_site_fract_x
_atom_site_fract_y
_atom_site_fract_z
Si Si1 0.080667 0.567200 0.695535
Si Si2 0.983494 0.047987 0.242195
Si Si3 0.869739 0.213416 0.045166
Si Si4 0.187931 0.450150 0.574043
Si Si5 0.000000 0.563555 0.000000
Si Si6 0.245862 0.478008 0.862228
Si Si7 0.119901 0.768536 0.200253
Si Si8 0.298000 0.948563 0.627249
O O1 0.029728 0.330795 0.721248
O O2 0.102849 0.496811 0.599513
O O3 0.167594 0.634302 0.787269
O O4 0.028454 0.831329 0.683524
O O5 0.915924 0.001908 0.129704
O O6 0.079365 0.003862 0.243249
O O7 0.944726 0.409265 0.051382
O O8 0.787722 0.315404 0.066008
O O9 0.829091 0.130906 0.931557
O O10 0.224969 0.166573 0.606602
O O11 0.159281 0.471311 0.455963
O O12 0.258619 0.667087 0.627919
O O13 0.062599 0.736198 0.086130
O O14 0.282855 0.316089 0.791916
O O15 0.127999 0.511783 0.267211
#
# Coordination Sequence:
#
# PCOD8050286 Si02
#       8
#     4   4   4   4   2   4   4   4
#     4  11  23  42  69  99 131 181 220 293 338 415
#     4  11  25  42  64  94 145 177 225 271 360 406
#     4  11  23  41  59  99 133 186 230 294 332 413
#     4  10  21  43  69 107 132 172 225 301 347 404
#     4  12  26  40  68  94 150 184 230 274 358 410
#     4  11  22  36  66  91 131 168 247 272 339 390
#     4  12  24  43  64 103 134 193 222 288 339 425
#     4  10  23  40  72 103 139 167 233 290 352 404
#
# _framework density 25.336608999999999
#
# number of rings (size 3 to 8) (size 9 to 14) (size 15 to 20)
#    0.000    1.067    1.333    5.600    3.733    2.133 
#    0.000    0.667    0.000    3.200    0.000    0.000 
#    0.000    0.000    0.000    0.000    0.000    0.000 
#
# Total GULP energy -185918.082180 kJ/mol
# GULP energy per Si atom -12394.538812 kJ/mol
# Density = 2.527894 g / cm^3
# Si number density = 25.336609 Si / 1000 Ang^3
#
#
#
# Elastic Constant Matrix: (Units=GPa)
#
#
# Indices 1 2 3 4 5 6 
#
# 1 140.0713 32.1917 18.5509 0.0000 -36.4980 0.0000
# 2 32.1917 79.8022 -8.2142 0.0000 -7.6875 0.0000
# 3 18.5509 -8.2142 73.7370 0.0000 -21.0054 0.0000
# 4 0.0000 0.0000 0.0000 28.5717 0.0000 -4.7762
# 5 -36.4980 -7.6875 -21.0054 0.0000 40.6275 0.0000
# 6 0.0000 0.0000 0.0000 -4.7762 0.0000 23.8844
#
#
#
# Elastic Compliance Matrix: (Units=1/GPa)
#
#
# Indices 1 2 3 4 5 6 
#
# 1 0.010110 -0.003356 -0.000599 0.000000 0.008138 0.000000
# 2 -0.003356 0.014275 0.002750 0.000000 0.001108 0.000000
# 3 -0.000599 0.002750 0.016434 0.000000 0.008479 0.000000
# 4 0.000000 0.000000 0.000000 0.036210 0.000000 0.007241
# 5 0.008138 0.001108 0.008479 0.000000 0.036518 0.000000
# 6 0.000000 0.000000 0.000000 0.007241 0.000000 0.043316
#
#
# Mechanical properties :
#
#
# Convention : Reuss Voigt Hill
#
# Bulk Modulus (GPa) = 26.03584 42.07413 34.05499
# Shear Modulus (GPa) = 29.05671 35.35552 32.20612
#
# Velocity S-wave (km/s) = 3.39016 3.73960 3.56916
# Velocity P-wave (km/s) = 5.06187 5.94039 5.51864
#
# Compressibility (1/GPa) = 0.03840859
#
# Stress axis : x y z
#
# Youngs Moduli (GPa) = 98.90826 70.05423 60.84872
#
# Poissons Ratio (x) = 0.23512 0.03646
# Poissons Ratio (y) = 0.33196 -0.16734
# Poissons Ratio (z) = 0.05927 -0.19266
#
# Static dielectric constant tensor:
#      x y z
#    x 4.642540 0.000000 -0.352660 
#    y 0.000000 4.249210 0.000000 
#    z -0.352660 0.000000 4.713020 
# 
# 
# High freq. dielectric constant tensor:
#      x y z
#    x 2.020170 0.000000 -0.021000 
#    y 0.000000 1.994380 0.000000 
#    z -0.021000 0.000000 2.015390 
# 
# From -- ./inp_files/55442.got.cif
#   From: 2010.03.12/outbox.cif.g09.slc.cpg/sg5_28_cif.got.tgz:55442.got - 2010.03.31 09:47:26.
