data_PCOD8050920
_publ_section_title
;
Structure prediction by ZEFSAII (Michael W. Deem and Ramdas Pophale) SiO2 
 PCOD8050920
Probable space group: C 2
;
_chemical_formula_sum "Si O2"
_cell_formula_units_Z 28
_cell_length_a 11.159081
_cell_length_b 8.993473
_cell_length_c 14.853968
_cell_angle_alpha 90.000000
_cell_angle_beta 115.922125
_cell_angle_gamma 90.000000
_cell_volume 1340.744239
_symmetry_space_group_name_H-M "C 2"
_symmetry_group_IT_number 5
_symmetry_cell_setting 'monoclinic'
loop_
_space_group_symop_operation_xyz
x,y,z
-x,y,-z
1/2+x,1/2+y,z
1/2-x,1/2+y,-z
loop_
_atom_site_type_symbol
_atom_site_label
_atom_site_fract_x
_atom_site_fract_y
_atom_site_fract_z
Si Si1 0.500000 0.847160 0.500000
Si Si2 0.160106 0.496887 0.805727
Si Si3 0.000000 0.849960 0.500000
Si Si4 0.440783 0.097998 0.612607
Si Si5 0.395392 0.168098 0.033134
Si Si6 0.969031 0.980154 0.891843
Si Si7 0.817697 0.097645 0.358458
Si Si8 0.144473 0.175487 0.826450
O O1 0.393007 0.746460 0.413708
O O2 0.421620 0.952456 0.544316
O O3 0.150522 0.564008 0.901831
O O4 0.311537 0.473555 0.823640
O O5 0.086371 0.337209 0.782184
O O6 0.085490 0.598443 0.708075
O O7 0.072630 0.747101 0.450303
O O8 0.110764 0.950485 0.583076
O O9 0.331317 0.100634 0.654061
O O10 0.464454 0.317623 0.093040
O O11 0.500000 0.086248 0.000000
O O12 0.265223 0.207919 0.933709
O O13 0.027534 0.082264 0.833239
O O14 0.000000 0.050209 0.000000
O O15 0.808307 0.089412 0.247413
#
# Coordination Sequence:
#
# PCOD8050920 Si02
#       8
#     2   4   2   4   4   4   4   4
#     4  10  22  46  66  96 134 168 218 278 336 390
#     4  12  25  43  66 100 132 177 221 269 332 391
#     4  10  26  46  68 100 128 176 222 274 346 384
#     4  11  24  44  70  97 131 174 223 271 334 401
#     4  11  22  43  67  93 136 175 214 272 326 389
#     4  11  24  45  65  93 143 176 219 275 320 386
#     4  11  24  44  68 100 133 169 221 280 331 393
#     4  12  23  42  67  98 132 177 217 268 332 387
#
# _framework density 20.883924
#
# number of rings (size 3 to 8) (size 9 to 14) (size 15 to 20)
#    0.000    0.857    5.714    1.714    2.000    1.714 
#   12.857    0.000    0.000    0.000    0.000    0.000 
#    0.000    0.000    0.000    0.000    0.000    0.000 
#
# Total GULP energy -173644.375643 kJ/mol
# GULP energy per Si atom -12403.169689 kJ/mol
# Density = 2.083639 g / cm^3
# Si number density = 20.883924 Si / 1000 Ang^3
#
#
#
# Elastic Constant Matrix: (Units=GPa)
#
#
# Indices 1 2 3 4 5 6 
#
# 1 144.4597 68.4617 49.2240 0.0000 -16.5300 0.0000
# 2 68.4617 123.0213 54.5456 0.0000 -7.9991 0.0000
# 3 49.2240 54.5456 96.8491 0.0000 -10.9409 0.0000
# 4 0.0000 0.0000 0.0000 22.4168 0.0000 -1.8232
# 5 -16.5300 -7.9991 -10.9409 0.0000 40.9665 0.0000
# 6 0.0000 0.0000 0.0000 -1.8232 0.0000 18.5328
#
#
#
# Elastic Compliance Matrix: (Units=1/GPa)
#
#
# Indices 1 2 3 4 5 6 
#
# 1 0.010115 -0.004413 -0.002363 0.000000 0.002589 0.000000
# 2 -0.004413 0.012769 -0.005020 0.000000 -0.000628 0.000000
# 3 -0.002363 -0.005020 0.014575 0.000000 0.001959 0.000000
# 4 0.000000 0.000000 0.000000 0.044969 0.000000 0.004424
# 5 0.002589 -0.000628 0.001959 0.000000 0.025855 0.000000
# 6 0.000000 0.000000 0.000000 0.004424 0.000000 0.054394
#
#
# Mechanical properties :
#
#
# Convention : Reuss Voigt Hill
#
# Bulk Modulus (GPa) = 72.11119 78.75475 75.43297
# Shear Modulus (GPa) = 26.19282 29.18980 27.69131
#
# Velocity S-wave (km/s) = 3.54532 3.74266 3.64533
# Velocity P-wave (km/s) = 7.16684 7.51460 7.34278
#
# Compressibility (1/GPa) = 0.01386747
#
# Stress axis : x y z
#
# Youngs Moduli (GPa) = 98.86093 78.31247 68.61121
#
# Poissons Ratio (x) = 0.34559 0.16215
# Poissons Ratio (y) = 0.43627 0.34441
# Poissons Ratio (z) = 0.23363 0.39311
#
# Static dielectric constant tensor:
#      x y z
#    x 3.735900 0.000000 -0.121950 
#    y 0.000000 3.855650 0.000000 
#    z -0.121950 0.000000 3.853700 
# 
# 
# High freq. dielectric constant tensor:
#      x y z
#    x 1.819390 0.000000 -0.006500 
#    y 0.000000 1.818590 0.000000 
#    z -0.006500 0.000000 1.829410 
# 
# From -- ./inp_files/52269.got.cif
#   From: 2010.03.12/outbox.cif.g09.slc.cpg/sg5_27_cif.got.tgz:52269.got - 2010.03.31 09:47:26.
