data_PCOD8050887
_publ_section_title
;
Structure prediction by ZEFSAII (Michael W. Deem and Ramdas Pophale) SiO2 
 PCOD8050887
Probable space group: C 2
;
_chemical_formula_sum "Si O2"
_cell_formula_units_Z 32
_cell_length_a 8.831584
_cell_length_b 22.541560
_cell_length_c 14.381343
_cell_angle_alpha 90.000000
_cell_angle_beta 31.050214
_cell_angle_gamma 90.000000
_cell_volume 1476.706462
_symmetry_space_group_name_H-M "C 2"
_symmetry_group_IT_number 5
_symmetry_cell_setting 'monoclinic'
loop_
_space_group_symop_operation_xyz
x,y,z
-x,y,-z
1/2+x,1/2+y,z
1/2-x,1/2+y,-z
loop_
_atom_site_type_symbol
_atom_site_label
_atom_site_fract_x
_atom_site_fract_y
_atom_site_fract_z
Si Si1 0.147825 0.052620 0.823157
Si Si2 0.324669 0.754676 0.687742
Si Si3 0.053424 0.668977 0.370583
Si Si4 0.877448 0.456974 0.464077
Si Si5 0.815482 0.015661 0.820307
Si Si6 0.845565 0.781083 0.812988
Si Si7 0.781711 0.838451 0.528219
Si Si8 0.546160 0.623584 0.369136
O O1 0.183936 0.121781 0.775434
O O2 0.931509 0.025822 0.862220
O O3 0.445420 0.013479 0.668224
O O4 0.000000 0.048556 0.000000
O O5 0.500000 0.760331 0.500000
O O6 0.513230 0.789930 0.667119
O O7 0.290512 0.686229 0.733452
O O8 0.993043 0.778410 0.839190
O O9 0.087691 0.719651 0.276089
O O10 0.000000 0.698751 0.500000
O O11 0.777426 0.626707 0.501212
O O12 0.535350 0.473600 0.649156
O O13 0.885219 0.401713 0.388475
O O14 0.000000 0.436875 0.500000
O O15 0.767061 0.075417 0.785491
O O16 0.500000 0.984569 0.000000
O O17 0.005111 0.833680 0.673538
O O18 0.500000 0.793274 0.000000
O O19 0.000000 0.830543 0.500000
O O20 0.500000 0.605427 0.500000
#
# Coordination Sequence:
#
# PCOD8050887 Si02
#       8
#     4   4   4   4   4   4   4   4
#     4  11  24  41  63  93 128 169 212 264 325 385
#     4   9  19  39  60  87 120 162 202 245 310 375
#     4  12  20  39  65  93 129 169 213 256 315 392
#     4  10  22  45  65  86 122 169 212 265 324 381
#     4  11  25  39  61  95 127 166 214 262 317 380
#     4  11  23  39  63  97 128 164 210 263 320 380
#     4  11  23  41  68  90 115 165 215 258 323 390
#     4  11  20  37  64  90 128 171 209 254 321 379
#
# _framework density 21.669844999999999
#
# number of rings (size 3 to 8) (size 9 to 14) (size 15 to 20)
#    0.000    1.250    6.250    2.250    1.750    3.000 
#    0.000    3.125    0.000    0.000    0.000    0.000 
#    0.000    0.000    0.000    0.000    0.000    0.000 
#
# Total GULP energy -198301.500922 kJ/mol
# GULP energy per Si atom -12393.843808 kJ/mol
# Density = 2.162052 g / cm^3
# Si number density = 21.669845 Si / 1000 Ang^3
#
#
#
# Elastic Constant Matrix: (Units=GPa)
#
#
# Indices 1 2 3 4 5 6 
#
# 1 112.1302 25.8050 26.9240 0.0005 -11.5275 0.0009
# 2 25.8050 84.5313 15.2784 -0.0009 -0.0735 0.0009
# 3 26.9240 15.2784 93.4039 0.0083 -16.4071 -0.0003
# 4 0.0005 -0.0009 0.0083 20.1620 -0.0025 2.3808
# 5 -11.5275 -0.0735 -16.4071 -0.0025 41.0826 -0.0009
# 6 0.0009 0.0009 -0.0003 2.3808 -0.0009 31.6134
#
#
#
# Elastic Compliance Matrix: (Units=1/GPa)
#
#
# Indices 1 2 3 4 5 6 
#
# 1 0.010276 -0.002745 -0.002159 0.000001 0.002016 0.000000
# 2 -0.002745 0.012950 -0.001568 0.000001 -0.001373 0.000000
# 3 -0.002159 -0.001568 0.012344 -0.000005 0.004321 0.000001
# 4 0.000001 0.000001 -0.000005 0.050043 0.000001 -0.003769
# 5 0.002016 -0.001373 0.004321 0.000001 0.026630 0.000001
# 6 0.000000 0.000000 0.000001 -0.003769 0.000001 0.031916
#
#
# Mechanical properties :
#
#
# Convention : Reuss Voigt Hill
#
# Bulk Modulus (GPa) = 44.19748 47.34223 45.76986
# Shear Modulus (GPa) = 30.36833 33.37546 31.87189
#
# Velocity S-wave (km/s) = 3.74760 3.92877 3.83925
# Velocity P-wave (km/s) = 6.25829 6.51727 6.38909
#
# Compressibility (1/GPa) = 0.02262572
#
# Stress axis : x y z
#
# Youngs Moduli (GPa) = 97.31857 77.21925 81.01051
#
# Poissons Ratio (x) = 0.21196 0.17489
# Poissons Ratio (y) = 0.26713 0.12705
# Poissons Ratio (z) = 0.21009 0.12110
#
# Static dielectric constant tensor:
#      x y z
#    x 4.025690 -0.000020 -0.354120 
#    y -0.000020 3.819390 0.000000 
#    z -0.354120 0.000000 3.698030 
# 
# 
# High freq. dielectric constant tensor:
#      x y z
#    x 1.860630 0.000000 -0.018620 
#    y 0.000000 1.845660 0.000000 
#    z -0.018620 0.000000 1.823890 
# 
# From -- ./inp_files/51664.got.cif
#   From: 2010.03.12/outbox.cif.g09.slc.cpg/sg5_26_cif.got.tgz:51664.got - 2010.03.31 09:47:26.
