data_PCOD8050588
_publ_section_title
;
Structure prediction by ZEFSAII (Michael W. Deem and Ramdas Pophale) SiO2 
 PCOD8050588
Probable space group: C 2
;
_chemical_formula_sum "Si O2"
_cell_formula_units_Z 20
_cell_length_a 5.076748
_cell_length_b 25.533511
_cell_length_c 7.019714
_cell_angle_alpha 90.000000
_cell_angle_beta 101.286061
_cell_angle_gamma 90.000000
_cell_volume 892.349616
_symmetry_space_group_name_H-M "C 2"
_symmetry_group_IT_number 5
_symmetry_cell_setting 'monoclinic'
loop_
_space_group_symop_operation_xyz
x,y,z
-x,y,-z
1/2+x,1/2+y,z
1/2-x,1/2+y,-z
loop_
_atom_site_type_symbol
_atom_site_label
_atom_site_fract_x
_atom_site_fract_y
_atom_site_fract_z
Si Si1 0.435901 0.459330 0.270365
Si Si2 0.500000 0.114970 0.000000
Si Si3 0.296160 0.345972 0.123097
Si Si4 0.061765 0.523460 0.729856
Si Si5 0.500000 0.682753 0.000000
Si Si6 0.774100 0.251836 0.627511
O O1 0.500000 0.455873 0.500000
O O2 0.431150 0.401291 0.188634
O O3 0.659214 0.493687 0.194119
O O4 0.156455 0.488081 0.194824
O O5 0.441901 0.080763 0.179256
O O6 0.767828 0.149118 0.069682
O O7 0.283416 0.310817 0.310119
O O8 0.500000 0.318861 0.000000
O O9 0.000000 0.353330 0.000000
O O10 0.000000 0.531160 0.500000
O O11 0.363495 0.717940 0.819888
O O12 0.500000 0.228278 0.500000
O O13 0.000000 0.252956 0.500000
#
# Coordination Sequence:
#
# PCOD8050588 Si02
#       6
#     4   2   4   4   2   4
#     4  10  22  41  63  99 140 182 229 274 337 425
#     4  12  26  44  75  98 139 182 236 310 360 410
#     4  12  25  41  70 108 145 188 236 287 345 433
#     4  10  23  42  66  98 138 178 231 284 343 418
#     4  12  28  50  71 110 137 178 256 302 358 432
#     4  12  27  49  77 104 148 192 233 298 366 427
#
# _framework density 22.412742000000001
#
# number of rings (size 3 to 8) (size 9 to 14) (size 15 to 20)
#    0.000    0.800    1.000    5.400    5.600    4.800 
#    0.000    0.000    0.000    0.000    0.000    0.000 
#    0.000    0.000    0.000    0.000    0.000    0.000 
#
# Total GULP energy -124062.417426 kJ/mol
# GULP energy per Si atom -12406.241743 kJ/mol
# Density = 2.236173 g / cm^3
# Si number density = 22.412742 Si / 1000 Ang^3
#
#
#
# Elastic Constant Matrix: (Units=GPa)
#
#
# Indices 1 2 3 4 5 6 
#
# 1 199.1923 58.4966 73.0982 0.0000 -5.5475 0.0000
# 2 58.4966 125.6869 61.9936 0.0000 -0.5019 0.0000
# 3 73.0982 61.9936 100.4191 0.0000 7.8198 0.0000
# 4 0.0000 0.0000 0.0000 13.2514 0.0000 -3.4437
# 5 -5.5475 -0.5019 7.8198 0.0000 37.4181 0.0000
# 6 0.0000 0.0000 0.0000 -3.4437 0.0000 36.6229
#
#
#
# Elastic Compliance Matrix: (Units=1/GPa)
#
#
# Indices 1 2 3 4 5 6 
#
# 1 0.007094 -0.000961 -0.004728 0.000000 0.002027 0.000000
# 2 -0.000961 0.011672 -0.006614 0.000000 0.001396 0.000000
# 3 -0.004728 -0.006614 0.017835 0.000000 -0.004517 0.000000
# 4 0.000000 0.000000 0.000000 0.077354 0.000000 0.007274
# 5 0.002027 0.001396 -0.004517 0.000000 0.027988 0.000000
# 6 0.000000 0.000000 0.000000 0.007274 0.000000 0.027989
#
#
# Mechanical properties :
#
#
# Convention : Reuss Voigt Hill
#
# Bulk Modulus (GPa) = 83.38312 90.27502 86.82907
# Shear Modulus (GPa) = 25.18394 32.90582 29.04488
#
# Velocity S-wave (km/s) = 3.35572 3.83583 3.60378
# Velocity P-wave (km/s) = 7.23178 7.74494 7.49275
#
# Compressibility (1/GPa) = 0.01199283
#
# Stress axis : x y z
#
# Youngs Moduli (GPa) = 140.95835 85.67641 56.06818
#
# Poissons Ratio (x) = 0.08237 0.26512
# Poissons Ratio (y) = 0.13552 0.37086
# Poissons Ratio (z) = 0.66652 0.56670
#
# Static dielectric constant tensor:
#      x y z
#    x 4.391960 0.000000 0.009860 
#    y 0.000000 4.024400 0.000000 
#    z 0.009860 0.000000 4.454160 
# 
# 
# High freq. dielectric constant tensor:
#      x y z
#    x 1.907720 0.000000 -0.000980 
#    y 0.000000 1.880670 0.000000 
#    z -0.000980 0.000000 1.899190 
# 
# From -- ./inp_files/12346.got.cif
#   From: 2010.03.12/outbox.cif.g09.slc.cpg/sg5_7_cif.got.tgz:12346.got - 2010.03.31 09:47:26.
