data_PCOD8050077
_publ_section_title
;
Structure prediction by ZEFSAII (Michael W. Deem and Ramdas Pophale) SiO2 
 PCOD8050077
Probable space group: C 2
;
_chemical_formula_sum "Si O2"
_cell_formula_units_Z 24
_cell_length_a 30.566276
_cell_length_b 8.790650
_cell_length_c 8.761010
_cell_angle_alpha 90.000000
_cell_angle_beta 150.540082
_cell_angle_gamma 90.000000
_cell_volume 1157.761456
_symmetry_space_group_name_H-M "C 2"
_symmetry_group_IT_number 5
_symmetry_cell_setting 'monoclinic'
loop_
_space_group_symop_operation_xyz
x,y,z
-x,y,-z
1/2+x,1/2+y,z
1/2-x,1/2+y,-z
loop_
_atom_site_type_symbol
_atom_site_label
_atom_site_fract_x
_atom_site_fract_y
_atom_site_fract_z
Si Si1 0.823958 0.239940 0.150615
Si Si2 0.149673 0.247934 0.125553
Si Si3 0.337780 0.085381 0.203902
Si Si4 0.813543 0.591575 0.777941
Si Si5 0.011305 0.772612 0.708777
Si Si6 0.012165 0.089899 0.214215
O O1 0.836146 0.410421 0.250796
O O2 0.886942 0.128570 0.436991
O O3 0.848180 0.225541 0.048104
O O4 0.722963 0.186008 0.869163
O O5 0.165452 0.422645 0.217183
O O6 0.222341 0.141774 0.424558
O O7 0.052834 0.198929 0.888204
O O8 0.438143 0.144819 0.523109
O O9 0.300623 0.098065 0.919883
O O10 0.892765 0.701326 0.967133
O O11 0.000000 0.828354 0.500000
O O12 0.004000 0.913885 0.798930
O O13 0.000000 0.119491 0.000000
#
# Coordination Sequence:
#
# PCOD8050077 Si02
#       6
#     4   4   4   4   4   4
#     4  11  23  40  62  88 120 157 197 242 294 350
#     4  11  23  40  62  88 120 157 197 242 294 350
#     4  10  22  40  62  90 121 155 197 242 290 349
#     4  10  22  40  62  90 121 155 197 242 290 349
#     4  10  21  40  64  88 120 158 195 240 294 348
#     4  12  25  40  60  88 120 154 199 248 294 350
#
# _framework density 20.729659999999999
#
# number of rings (size 3 to 8) (size 9 to 14) (size 15 to 20)
#    0.000    1.333    0.000    5.500    0.000   12.000 
#    0.000    1.667    0.000    0.000    0.000    0.000 
#    0.000    0.000    0.000    0.000    0.000    0.000 
#
# Total GULP energy -148901.373970 kJ/mol
# GULP energy per Si atom -12408.447831 kJ/mol
# Density = 2.068248 g / cm^3
# Si number density = 20.729660 Si / 1000 Ang^3
#
#
#
# Elastic Constant Matrix: (Units=GPa)
#
#
# Indices 1 2 3 4 5 6 
#
# 1 85.2939 24.5832 2.5523 0.0000 9.5613 0.0000
# 2 24.5832 110.2338 -0.0753 0.0000 -0.7079 0.0000
# 3 2.5523 -0.0753 61.7844 0.0000 3.4169 0.0000
# 4 0.0000 0.0000 0.0000 36.7212 0.0000 6.1611
# 5 9.5613 -0.7079 3.4169 0.0000 31.1070 0.0000
# 6 0.0000 0.0000 0.0000 6.1611 0.0000 33.6991
#
#
#
# Elastic Compliance Matrix: (Units=1/GPa)
#
#
# Indices 1 2 3 4 5 6 
#
# 1 0.013031 -0.002932 -0.000319 0.000000 -0.004037 0.000000
# 2 -0.002932 0.009733 0.000071 0.000000 0.001115 0.000000
# 3 -0.000319 0.000071 0.016292 0.000000 -0.001690 0.000000
# 4 0.000000 0.000000 0.000000 0.028094 0.000000 -0.005136
# 5 -0.004037 0.001115 -0.001690 0.000000 0.033599 0.000000
# 6 0.000000 0.000000 0.000000 -0.005136 0.000000 0.030613
#
#
# Mechanical properties :
#
#
# Convention : Reuss Voigt Hill
#
# Bulk Modulus (GPa) = 30.58379 34.60361 32.59370
# Shear Modulus (GPa) = 33.64267 35.65559 34.64913
#
# Velocity S-wave (km/s) = 4.03292 4.15182 4.09280
# Velocity P-wave (km/s) = 6.03917 6.30179 6.17188
#
# Compressibility (1/GPa) = 0.03269706
#
# Stress axis : x y z
#
# Youngs Moduli (GPa) = 76.73780 102.74583 61.37971
#
# Poissons Ratio (x) = 0.30128 0.01956
# Poissons Ratio (y) = 0.22502 -0.00438
# Poissons Ratio (z) = 0.02445 -0.00733
#
# Static dielectric constant tensor:
#      x y z
#    x 3.748270 0.000000 0.104280 
#    y 0.000000 3.836890 0.000000 
#    z 0.104280 0.000000 3.686450 
# 
# 
# High freq. dielectric constant tensor:
#      x y z
#    x 1.813230 0.000000 0.011110 
#    y 0.000000 1.825140 0.000000 
#    z 0.011110 0.000000 1.817250 
# 
# From -- ./inp_files/32455.got.cif
#   From: 2010.03.12/outbox.cif.g09.slc.cpg/sg5_17_cif.got.tgz:32455.got - 2010.03.31 09:47:26.
