data_PCOD8050793
_publ_section_title
;
Structure prediction by ZEFSAII (Michael W. Deem and Ramdas Pophale) SiO2 
 PCOD8050793
Probable space group: C 2
;
_chemical_formula_sum "Si O2"
_cell_formula_units_Z 28
_cell_length_a 5.310200
_cell_length_b 17.370879
_cell_length_c 14.803681
_cell_angle_alpha 90.000000
_cell_angle_beta 60.822963
_cell_angle_gamma 90.000000
_cell_volume 1192.271328
_symmetry_space_group_name_H-M "C 2"
_symmetry_group_IT_number 5
_symmetry_cell_setting 'monoclinic'
loop_
_space_group_symop_operation_xyz
x,y,z
-x,y,-z
1/2+x,1/2+y,z
1/2-x,1/2+y,-z
loop_
_atom_site_type_symbol
_atom_site_label
_atom_site_fract_x
_atom_site_fract_y
_atom_site_fract_z
Si Si1 0.362608 0.173270 0.255834
Si Si2 0.164736 0.931472 0.561171
Si Si3 0.178908 0.022762 0.235025
Si Si4 0.223544 0.258789 0.109029
Si Si5 0.068785 0.101430 0.890418
Si Si6 0.332597 0.250014 0.441406
Si Si7 0.152702 0.423013 0.069189
O O1 0.132612 0.103166 0.300498
O O2 0.278277 0.244469 0.206290
O O3 0.596428 0.118538 0.168694
O O4 0.471527 0.207169 0.331382
O O5 0.500000 0.956586 0.500000
O O6 0.134264 0.840215 0.573332
O O7 0.000000 0.961273 0.500000
O O8 0.016491 0.962161 0.677408
O O9 0.039944 0.038332 0.161336
O O10 0.504098 0.987000 0.161752
O O11 0.058952 0.340012 0.128602
O O12 0.063568 0.185923 0.097065
O O13 0.500000 0.269909 0.000000
O O14 0.000000 0.065345 0.000000
O O15 0.500000 0.218992 0.500000
O O16 0.000000 0.224750 0.500000
O O17 0.500000 0.432573 0.000000
O O18 0.000000 0.429790 0.000000
#
# Coordination Sequence:
#
# PCOD8050793 Si02
#       7
#     4   4   4   4   4   4   4
#     4  11  26  44  72 106 142 199 241 301 368 445
#     4  10  25  50  78 105 143 190 243 310 374 432
#     4  11  29  45  70 111 148 200 240 306 372 450
#     4  10  22  43  69 105 140 195 249 306 353 434
#     4  11  24  44  73 103 153 198 242 295 369 440
#     4  10  25  49  77 106 138 183 245 311 365 428
#     4  11  28  45  72 108 152 198 252 306 366 440
#
# _framework density 23.484587999999999
#
# number of rings (size 3 to 8) (size 9 to 14) (size 15 to 20)
#    0.000    1.429    1.429    0.429   14.000    2.857 
#    0.000    0.000    0.000    0.000    0.000    0.000 
#    0.000    0.000    0.000    0.000    0.000    0.000 
#
# Total GULP energy -173496.501051 kJ/mol
# GULP energy per Si atom -12392.607218 kJ/mol
# Density = 2.343114 g / cm^3
# Si number density = 23.484588 Si / 1000 Ang^3
#
#
#
# Elastic Constant Matrix: (Units=GPa)
#
#
# Indices 1 2 3 4 5 6 
#
# 1 136.5012 34.9674 57.0156 0.0000 20.7179 0.0000
# 2 34.9674 89.5088 53.3994 0.0000 17.9395 0.0000
# 3 57.0156 53.3994 138.2157 0.0000 20.9413 0.0000
# 4 0.0000 0.0000 0.0000 -0.1914 0.0000 27.4940
# 5 20.7179 17.9395 20.9413 0.0000 48.4896 0.0000
# 6 0.0000 0.0000 0.0000 27.4940 0.0000 27.6558
#
#
#
# Elastic Compliance Matrix: (Units=1/GPa)
#
#
# Indices 1 2 3 4 5 6 
#
# 1 0.009245 -0.001429 -0.002935 0.000000 -0.002154 0.000000
# 2 -0.001429 0.015205 -0.004842 0.000000 -0.002924 0.000000
# 3 -0.002935 -0.004842 0.010545 0.000000 -0.001509 0.000000
# 4 0.000000 0.000000 0.000000 -0.036331 0.000000 0.036119
# 5 -0.002154 -0.002924 -0.001509 0.000000 0.023276 0.000000
# 6 0.000000 0.000000 0.000000 0.036119 0.000000 0.000251
#
#
# Mechanical properties :
#
#
# Convention : Reuss Voigt Hill
#
# Bulk Modulus (GPa) = 60.30357 72.77671 66.54014
# Shear Modulus (GPa) = 108.38581 29.78037 69.08309
#
# Velocity S-wave (km/s) = 6.80089 3.56488 5.42957
# Velocity P-wave (km/s) = 9.34896 6.92827 8.22812
#
# Compressibility (1/GPa) = 0.01658277
#
# Stress axis : x y z
#
# Youngs Moduli (GPa) = 108.16773 65.76833 94.82986
#
# Poissons Ratio (x) = 0.09397 0.27835
# Poissons Ratio (y) = 0.15455 0.45917
# Poissons Ratio (z) = 0.31750 0.31845
#
# Static dielectric constant tensor:
#      x y z
#    x 4.342560 0.000000 -0.001480 
#    y 0.000000 5.229160 0.000000 
#    z -0.001480 0.000000 4.174110 
# 
# 
# High freq. dielectric constant tensor:
#      x y z
#    x 1.934110 0.000000 0.003840 
#    y 0.000000 1.955360 0.000000 
#    z 0.003840 0.000000 1.918940 
# 
# From -- ./inp_files/49281.got.cif
#   From: 2010.03.12/outbox.cif.g09.slc.cpg/sg5_25_cif.got.tgz:49281.got - 2010.03.31 09:47:26.
