data_PCOD8050737
_publ_section_title
;
Structure prediction by ZEFSAII (Michael W. Deem and Ramdas Pophale) SiO2 
 PCOD8050737
Probable space group: C 2
;
_chemical_formula_sum "Si O2"
_cell_formula_units_Z 22
_cell_length_a 13.260890
_cell_length_b 5.010206
_cell_length_c 13.717889
_cell_angle_alpha 90.000000
_cell_angle_beta 119.756969
_cell_angle_gamma 90.000000
_cell_volume 791.233256
_symmetry_space_group_name_H-M "C 2"
_symmetry_group_IT_number 5
_symmetry_cell_setting 'monoclinic'
loop_
_space_group_symop_operation_xyz
x,y,z
-x,y,-z
1/2+x,1/2+y,z
1/2-x,1/2+y,-z
loop_
_atom_site_type_symbol
_atom_site_label
_atom_site_fract_x
_atom_site_fract_y
_atom_site_fract_z
Si Si1 0.336403 0.510720 0.788002
Si Si2 0.727707 0.853005 0.545564
Si Si3 0.228129 0.582380 0.051548
Si Si4 0.388326 0.264544 0.251223
Si Si5 0.500000 0.135005 0.500000
Si Si6 0.517269 0.036623 0.125013
O O1 0.323593 0.413547 0.671780
O O2 0.212896 0.550391 0.778778
O O3 0.419196 0.763561 0.822364
O O4 0.393922 0.264181 0.874919
O O5 0.767946 0.035818 0.473003
O O6 0.599821 0.935067 0.514897
O O7 0.317506 0.533454 0.184744
O O8 0.091497 0.487374 0.002609
O O9 0.230004 0.885811 0.016089
O O10 0.459301 0.314054 0.386756
O O11 0.468581 0.153510 0.203772
#
# Coordination Sequence:
#
# PCOD8050737 Si02
#       6
#     4   4   4   4   2   4
#     4  11  24  40  67  99 128 175 225 266 331 394
#     4  11  23  41  64  96 135 175 222 269 320 395
#     4  10  22  42  70  97 130 176 220 269 331 390
#     4  10  23  43  67 100 136 171 223 272 322 398
#     4  10  22  42  70  98 134 180 214 270 336 380
#     4  11  23  44  67  94 134 176 217 277 332 378
#
# _framework density 27.804694999999999
#
# number of rings (size 3 to 8) (size 9 to 14) (size 15 to 20)
#    0.000    1.455    0.000    5.455    0.000    5.818 
#    0.000   12.727    0.000    0.000    0.000    0.000 
#    0.000    0.000    0.000    0.000    0.000    0.000 
#
# Total GULP energy -136398.429114 kJ/mol
# GULP energy per Si atom -12399.857192 kJ/mol
# Density = 2.774141 g / cm^3
# Si number density = 27.804695 Si / 1000 Ang^3
#
#
#
# Elastic Constant Matrix: (Units=GPa)
#
#
# Indices 1 2 3 4 5 6 
#
# 1 69.1601 -3.2170 38.1781 0.0000 26.1981 0.0001
# 2 -3.2170 93.2581 30.3600 0.0000 13.4826 0.0002
# 3 38.1781 30.3600 187.8285 0.0000 11.4711 0.0000
# 4 0.0000 0.0000 0.0000 44.4940 0.0000 3.6218
# 5 26.1981 13.4826 11.4711 0.0000 45.4242 0.0000
# 6 0.0001 0.0002 0.0000 3.6218 0.0000 41.6072
#
#
#
# Elastic Compliance Matrix: (Units=1/GPa)
#
#
# Indices 1 2 3 4 5 6 
#
# 1 0.021827 0.003989 -0.004307 0.000000 -0.012685 0.000000
# 2 0.003989 0.012449 -0.002495 0.000000 -0.005365 0.000000
# 3 -0.004307 -0.002495 0.006506 0.000000 0.001581 0.000000
# 4 0.000000 0.000000 0.000000 0.022635 0.000000 -0.001970
# 5 -0.012685 -0.005365 0.001581 0.000000 0.030524 0.000000
# 6 0.000000 0.000000 0.000000 -0.001970 0.000000 0.024206
#
#
# Mechanical properties :
#
#
# Convention : Reuss Voigt Hill
#
# Bulk Modulus (GPa) = 28.44471 53.43212 40.93841
# Shear Modulus (GPa) = 36.90262 45.30011 41.10137
#
# Velocity S-wave (km/s) = 3.64704 4.04075 3.84893
# Velocity P-wave (km/s) = 5.29027 6.40537 5.87434
#
# Compressibility (1/GPa) = 0.03515593
#
# Stress axis : x y z
#
# Youngs Moduli (GPa) = 45.81419 80.33069 153.70129
#
# Poissons Ratio (x) = -0.32043 0.66194
# Poissons Ratio (y) = -0.18275 0.38352
# Poissons Ratio (z) = 0.19731 0.20045
#
# Static dielectric constant tensor:
#      x y z
#    x 5.564820 0.000000 0.043570 
#    y 0.000000 4.792540 0.000000 
#    z 0.043570 0.000000 5.928800 
# 
# 
# High freq. dielectric constant tensor:
#      x y z
#    x 2.162490 0.000000 -0.005810 
#    y 0.000000 2.110360 0.000000 
#    z -0.005810 0.000000 2.149980 
# 
# From -- ./inp_files/53901.got.cif
#   From: 2010.03.12/outbox.cif.g09.slc.cpg/sg5_27_cif.got.tgz:53901.got - 2010.03.31 09:47:26.
