data_PCOD8050832
_publ_section_title
;
Structure prediction by ZEFSAII (Michael W. Deem and Ramdas Pophale) SiO2 
 PCOD8050832
Probable space group: C 2
;
_chemical_formula_sum "Si O2"
_cell_formula_units_Z 26
_cell_length_a 26.047163
_cell_length_b 5.137896
_cell_length_c 13.313544
_cell_angle_alpha 90.000000
_cell_angle_beta 140.224349
_cell_angle_gamma 90.000000
_cell_volume 1139.914318
_symmetry_space_group_name_H-M "C 2"
_symmetry_group_IT_number 5
_symmetry_cell_setting 'monoclinic'
loop_
_space_group_symop_operation_xyz
x,y,z
-x,y,-z
1/2+x,1/2+y,z
1/2-x,1/2+y,-z
loop_
_atom_site_type_symbol
_atom_site_label
_atom_site_fract_x
_atom_site_fract_y
_atom_site_fract_z
Si Si1 0.152368 0.912960 0.219113
Si Si2 0.956381 0.156629 0.095704
Si Si3 0.614785 0.452490 0.373213
Si Si4 0.175394 0.603455 0.791989
Si Si5 0.145825 0.112724 0.868525
Si Si6 0.670223 0.944610 0.562217
Si Si7 0.500000 0.044390 0.000000
O O1 0.163060 0.040551 0.345442
O O2 0.239498 0.829376 0.309993
O O3 0.085080 0.690558 0.123722
O O4 0.120318 0.116245 0.089958
O O5 0.005308 0.385737 0.113599
O O6 0.924523 0.191582 0.160589
O O7 0.020384 0.917824 0.200261
O O8 0.617772 0.685799 0.460514
O O9 0.651758 0.176528 0.458162
O O10 0.133741 0.840768 0.790332
O O11 0.151916 0.586666 0.640176
O O12 0.141535 0.334462 0.780444
O O13 0.270965 0.617537 0.946210
#
# Coordination Sequence:
#
# PCOD8050832 Si02
#       7
#     4   4   4   4   4   4   2
#     4  12  25  44  70 103 141 194 242 288 355 435
#     4  12  25  44  72 106 140 192 238 302 357 425
#     4  12  26  45  65 106 147 186 230 297 365 438
#     4  10  22  44  67 104 132 181 244 306 341 433
#     4  10  23  41  73  99 135 178 248 297 360 405
#     4  12  27  45  71 100 146 188 234 294 370 428
#     4  12  24  42  76 104 154 176 260 298 350 432
#
# _framework density 22.808733
#
# number of rings (size 3 to 8) (size 9 to 14) (size 15 to 20)
#    0.000    0.615    4.615    2.769    4.308    1.231 
#    0.000    4.615    0.000    0.000    0.000    0.000 
#    0.000    0.000    0.000    0.000    0.000    0.000 
#
# Total GULP energy -161053.267146 kJ/mol
# GULP energy per Si atom -12388.712857 kJ/mol
# Density = 2.275682 g / cm^3
# Si number density = 22.808733 Si / 1000 Ang^3
#
#
#
# Elastic Constant Matrix: (Units=GPa)
#
#
# Indices 1 2 3 4 5 6 
#
# 1 100.6456 15.6297 21.0126 0.0001 -17.3152 -0.0002
# 2 15.6297 105.7084 28.4826 -0.0002 2.7553 -0.0001
# 3 21.0126 28.4826 82.8379 -0.0001 -14.1945 0.0000
# 4 0.0001 -0.0002 -0.0001 23.0133 0.0000 -2.0638
# 5 -17.3152 2.7553 -14.1945 0.0000 29.4170 0.0001
# 6 -0.0002 -0.0001 0.0000 -2.0638 0.0001 13.6162
#
#
#
# Elastic Compliance Matrix: (Units=1/GPa)
#
#
# Indices 1 2 3 4 5 6 
#
# 1 0.011529 -0.001511 -0.001328 0.000000 0.006287 0.000000
# 2 -0.001511 0.010864 -0.004011 0.000000 -0.003842 0.000000
# 3 -0.001328 -0.004011 0.014954 0.000000 0.006810 0.000000
# 4 0.000000 0.000000 0.000000 0.044052 0.000000 0.006677
# 5 0.006287 -0.003842 0.006810 0.000000 0.041340 0.000000
# 6 0.000000 0.000000 0.000000 0.006677 0.000000 0.074454
#
#
# Mechanical properties :
#
#
# Convention : Reuss Voigt Hill
#
# Bulk Modulus (GPa) = 42.28392 46.60464 44.44428
# Shear Modulus (GPa) = 22.85449 28.14712 25.50081
#
# Velocity S-wave (km/s) = 3.16888 3.51672 3.34732
# Velocity P-wave (km/s) = 5.65401 6.08004 5.87089
#
# Compressibility (1/GPa) = 0.02364965
#
# Stress axis : x y z
#
# Youngs Moduli (GPa) = 86.73542 92.04592 66.86967
#
# Poissons Ratio (x) = 0.13906 0.08879
# Poissons Ratio (y) = 0.13104 0.26819
# Poissons Ratio (z) = 0.11516 0.36916
#
# Static dielectric constant tensor:
#      x y z
#    x 4.224320 0.000000 -0.051010 
#    y 0.000000 3.970790 0.000000 
#    z -0.051010 0.000000 4.331230 
# 
# 
# High freq. dielectric constant tensor:
#      x y z
#    x 1.900400 0.000000 -0.010840 
#    y 0.000000 1.892880 0.000000 
#    z -0.010840 0.000000 1.906980 
# 
# From -- ./inp_files/46985.got.cif
#   From: 2010.03.12/outbox.cif.g09.slc.cpg/sg5_24_cif.got.tgz:46985.got - 2010.03.31 09:47:26.
