data_PCOD8050512
_publ_section_title
;
Structure prediction by ZEFSAII (Michael W. Deem and Ramdas Pophale) SiO2 
 PCOD8050512
Probable space group: C 2
;
_chemical_formula_sum "Si O2"
_cell_formula_units_Z 24
_cell_length_a 27.617446
_cell_length_b 6.845799
_cell_length_c 14.598363
_cell_angle_alpha 90.000000
_cell_angle_beta 25.048400
_cell_angle_gamma 90.000000
_cell_volume 1168.546380
_symmetry_space_group_name_H-M "C 2"
_symmetry_group_IT_number 5
_symmetry_cell_setting 'monoclinic'
loop_
_space_group_symop_operation_xyz
x,y,z
-x,y,-z
1/2+x,1/2+y,z
1/2-x,1/2+y,-z
loop_
_atom_site_type_symbol
_atom_site_label
_atom_site_fract_x
_atom_site_fract_y
_atom_site_fract_z
Si Si1 0.740088 0.537330 0.229424
Si Si2 0.423992 0.728011 0.940271
Si Si3 0.679966 0.681294 0.516191
Si Si4 0.699830 0.430636 0.964391
Si Si5 0.629300 0.495172 0.792853
Si Si6 0.369949 0.267300 0.721676
O O1 0.690979 0.520855 0.416662
O O2 0.758989 0.764034 0.175335
O O3 0.648651 0.446573 0.316021
O O4 0.859038 0.420386 0.017307
O O5 0.557101 0.787055 0.716629
O O6 0.405159 0.549841 0.901067
O O7 0.376341 0.664897 0.121449
O O8 0.685483 0.577805 0.604434
O O9 0.786774 0.824835 0.318931
O O10 0.803773 0.577137 0.801983
O O11 0.665251 0.330452 0.117315
O O12 0.500000 0.412605 0.000000
O O13 0.500000 0.203534 0.500000
#
# Coordination Sequence:
#
# PCOD8050512 Si02
#       6
#     4   4   4   4   4   4
#     4  11  23  41  65  91 124 164 204 254 306 359
#     4  10  23  42  62  91 128 158 206 254 298 366
#     4  11  22  41  64  93 123 164 203 249 310 364
#     4  11  22  43  62  92 127 159 207 257 298 364
#     4  10  22  40  63  92 127 158 204 254 300 367
#     4  11  24  41  64  91 125 165 204 252 308 360
#
# _framework density 20.538338
#
# number of rings (size 3 to 8) (size 9 to 14) (size 15 to 20)
#    0.000    1.333    3.333    2.000    0.000    3.333 
#    3.000    0.000    0.000    0.000    0.000    0.000 
#    0.000    0.000    0.000    0.000    0.000    0.000 
#
# Total GULP energy -148832.059773 kJ/mol
# GULP energy per Si atom -12402.671648 kJ/mol
# Density = 2.049159 g / cm^3
# Si number density = 20.538338 Si / 1000 Ang^3
#
#
#
# Elastic Constant Matrix: (Units=GPa)
#
#
# Indices 1 2 3 4 5 6 
#
# 1 115.0656 39.2505 37.9500 0.0000 2.1329 0.0000
# 2 39.2505 90.5697 43.5822 -0.0001 4.7360 0.0000
# 3 37.9500 43.5822 94.1592 -0.0001 -17.6813 0.0000
# 4 0.0000 -0.0001 -0.0001 23.0012 0.0000 5.0603
# 5 2.1329 4.7360 -17.6813 0.0000 32.0545 0.0000
# 6 0.0000 0.0000 0.0000 5.0603 0.0000 36.8864
#
#
#
# Elastic Compliance Matrix: (Units=1/GPa)
#
#
# Indices 1 2 3 4 5 6 
#
# 1 0.010866 -0.002948 -0.003424 0.000000 -0.002176 0.000000
# 2 -0.002948 0.016282 -0.007545 0.000000 -0.006371 0.000000
# 3 -0.003424 -0.007545 0.017564 0.000000 0.011031 0.000000
# 4 0.000000 0.000000 0.000000 0.044829 0.000000 -0.006150
# 5 -0.002176 -0.006371 0.011031 0.000000 0.038368 0.000000
# 6 0.000000 0.000000 0.000000 -0.006150 0.000000 0.027954
#
#
# Mechanical properties :
#
#
# Convention : Reuss Voigt Hill
#
# Bulk Modulus (GPa) = 59.24292 60.15112 59.69702
# Shear Modulus (GPa) = 26.41021 30.32254 28.36638
#
# Velocity S-wave (km/s) = 3.58983 3.84655 3.72040
# Velocity P-wave (km/s) = 6.78898 7.00562 6.89815
#
# Compressibility (1/GPa) = 0.01687965
#
# Stress axis : x y z
#
# Youngs Moduli (GPa) = 92.03317 61.41605 56.93588
#
# Poissons Ratio (x) = 0.18104 0.19492
# Poissons Ratio (y) = 0.27129 0.42957
# Poissons Ratio (z) = 0.31508 0.46337
#
# Static dielectric constant tensor:
#      x y z
#    x 3.175840 0.000000 -0.427770 
#    y 0.000000 3.538420 0.000000 
#    z -0.427770 0.000000 3.390870 
# 
# 
# High freq. dielectric constant tensor:
#      x y z
#    x 1.832230 0.000000 0.004350 
#    y 0.000000 1.789430 0.000000 
#    z 0.004350 0.000000 1.801590 
# 
# From -- ./inp_files/57958.got.cif
#   From: 2010.03.12/outbox.cif.g09.slc.cpg/sg5_29_cif.got.tgz:57958.got - 2010.03.31 09:47:26.
