data_PCOD8050803
_publ_section_title
;
Structure prediction by ZEFSAII (Michael W. Deem and Ramdas Pophale) SiO2 
 PCOD8050803
Probable space group: C 2
;
_chemical_formula_sum "Si O2"
_cell_formula_units_Z 26
_cell_length_a 13.542531
_cell_length_b 5.254454
_cell_length_c 16.494631
_cell_angle_alpha 90.000000
_cell_angle_beta 86.946578
_cell_angle_gamma 90.000000
_cell_volume 1172.068604
_symmetry_space_group_name_H-M "C 2"
_symmetry_group_IT_number 5
_symmetry_cell_setting 'monoclinic'
loop_
_space_group_symop_operation_xyz
x,y,z
-x,y,-z
1/2+x,1/2+y,z
1/2-x,1/2+y,-z
loop_
_atom_site_type_symbol
_atom_site_label
_atom_site_fract_x
_atom_site_fract_y
_atom_site_fract_z
Si Si1 0.522968 0.650760 0.804051
Si Si2 0.998800 0.652683 0.298587
Si Si3 0.334240 0.616321 0.915239
Si Si4 0.140501 0.438724 0.575049
Si Si5 0.714592 0.615295 0.898306
Si Si6 0.000000 0.079465 0.500000
Si Si7 0.342287 0.218239 0.586719
O O1 0.499785 0.428057 0.741956
O O2 0.446525 0.632929 0.881196
O O3 0.632530 0.618165 0.832962
O O4 0.517180 0.927595 0.764159
O O5 0.105297 0.599673 0.336659
O O6 0.908513 0.661086 0.368453
O O7 0.285531 0.357784 0.884092
O O8 0.275445 0.857282 0.882900
O O9 0.337227 0.621404 0.012019
O O10 0.050973 0.240869 0.569103
O O11 0.236057 0.329727 0.617613
O O12 0.176587 0.514617 0.483522
O O13 0.083723 0.925687 0.451106
#
# Coordination Sequence:
#
# PCOD8050803 Si02
#       7
#     4   4   4   4   4   2   4
#     4  12  26  44  67  97 142 184 208 274 336 402
#     4  12  27  44  65  98 142 172 222 272 337 412
#     4  10  22  43  72 102 133 175 229 274 316 388
#     4  12  25  42  69  92 122 175 223 285 335 391
#     4  10  22  43  72 102 133 175 229 274 316 388
#     4  12  20  44  68  94 124 150 234 282 334 392
#     4  12  25  42  69  92 122 175 223 285 335 391
#
# _framework density 22.183
#
# number of rings (size 3 to 8) (size 9 to 14) (size 15 to 20)
#    0.000    0.615    4.615    3.231    0.000    3.692 
#    0.000    9.231    0.000    0.000    0.000    0.000 
#    0.000    0.000    0.000    0.000    0.000    0.000 
#
# Total GULP energy -161246.083982 kJ/mol
# GULP energy per Si atom -12403.544922 kJ/mol
# Density = 2.213251 g / cm^3
# Si number density = 22.183000 Si / 1000 Ang^3
#
#
#
# Elastic Constant Matrix: (Units=GPa)
#
#
# Indices 1 2 3 4 5 6 
#
# 1 107.1456 4.0808 18.0816 0.0000 21.4405 0.0000
# 2 4.0808 87.6869 5.8567 0.0000 6.6104 0.0000
# 3 18.0816 5.8567 53.3433 0.0000 12.9756 0.0000
# 4 0.0000 0.0000 0.0000 20.4878 0.0000 -2.1431
# 5 21.4405 6.6104 12.9756 0.0000 29.5323 0.0000
# 6 0.0000 0.0000 0.0000 -2.1431 0.0000 20.7613
#
#
#
# Elastic Compliance Matrix: (Units=1/GPa)
#
#
# Indices 1 2 3 4 5 6 
#
# 1 0.011113 0.000162 -0.002030 0.000000 -0.007212 0.000000
# 2 0.000162 0.011627 -0.000750 0.000000 -0.002391 0.000000
# 3 -0.002030 -0.000750 0.021405 0.000000 -0.007763 0.000000
# 4 0.000000 0.000000 0.000000 0.049342 0.000000 0.005093
# 5 -0.007212 -0.002391 -0.007763 0.000000 0.043043 0.000000
# 6 0.000000 0.000000 0.000000 0.005093 0.000000 0.048692
#
#
# Mechanical properties :
#
#
# Convention : Reuss Voigt Hill
#
# Bulk Modulus (GPa) = 25.70116 33.80155 29.75135
# Shear Modulus (GPa) = 24.57864 28.83341 26.70603
#
# Velocity S-wave (km/s) = 3.33227 3.60918 3.47348
# Velocity P-wave (km/s) = 5.13969 5.71305 5.43394
#
# Compressibility (1/GPa) = 0.03890875
#
# Stress axis : x y z
#
# Youngs Moduli (GPa) = 89.98694 86.00680 46.71728
#
# Poissons Ratio (x) = -0.01394 0.09485
# Poissons Ratio (y) = -0.01459 0.03504
# Poissons Ratio (z) = 0.18270 0.06450
#
# Static dielectric constant tensor:
#      x y z
#    x 4.087450 0.000000 0.089190 
#    y 0.000000 4.132020 0.000000 
#    z 0.089190 0.000000 4.145990 
# 
# 
# High freq. dielectric constant tensor:
#      x y z
#    x 1.884090 0.000000 0.003630 
#    y 0.000000 1.883220 0.000000 
#    z 0.003630 0.000000 1.868360 
# 
# From -- ./inp_files/60068.got.cif
#   From: 2010.03.12/outbox.cif.g09.slc.cpg/sg5_31_cif.got.tgz:60068.got - 2010.03.31 09:47:26.
