data_PCOD8050085
_publ_section_title
;
Structure prediction by ZEFSAII (Michael W. Deem and Ramdas Pophale) SiO2 
 PCOD8050085
Probable space group: C 2
;
_chemical_formula_sum "Si O2"
_cell_formula_units_Z 26
_cell_length_a 15.122094
_cell_length_b 8.338344
_cell_length_c 19.205288
_cell_angle_alpha 90.000000
_cell_angle_beta 29.976516
_cell_angle_gamma 90.000000
_cell_volume 1209.968625
_symmetry_space_group_name_H-M "C 2"
_symmetry_group_IT_number 5
_symmetry_cell_setting 'monoclinic'
loop_
_space_group_symop_operation_xyz
x,y,z
-x,y,-z
1/2+x,1/2+y,z
1/2-x,1/2+y,-z
loop_
_atom_site_type_symbol
_atom_site_label
_atom_site_fract_x
_atom_site_fract_y
_atom_site_fract_z
Si Si1 0.159250 0.140020 0.769543
Si Si2 0.373077 0.431336 0.646250
Si Si3 0.118264 0.638881 0.730982
Si Si4 0.548193 0.350160 0.041799
Si Si5 0.500000 0.948768 0.500000
Si Si6 0.543651 0.829896 0.208268
Si Si7 0.928606 0.212993 0.429821
O O1 0.252410 0.280485 0.754113
O O2 0.019986 0.215556 0.810315
O O3 0.318323 0.050172 0.620062
O O4 0.037544 0.028668 0.901918
O O5 0.500000 0.358263 0.500000
O O6 0.253253 0.562808 0.692295
O O7 0.481788 0.532780 0.630259
O O8 0.223978 0.706663 0.592529
O O9 0.025626 0.778281 0.836653
O O10 0.976773 0.513989 0.799079
O O11 0.500000 0.268542 0.000000
O O12 0.754674 0.320312 0.907520
O O13 0.527880 0.837047 0.413234
O O14 0.425254 0.781885 0.354915
#
# Coordination Sequence:
#
# PCOD8050085 Si02
#       7
#     4   4   4   4   2   4   4
#     4  11  23  40  65  99 136 174 226 292 331 404
#     4   9  17  37  62  92 128 169 216 274 333 394
#     4  10  21  40  64  92 133 171 223 279 334 402
#     4  12  24  46  67  93 131 188 233 277 346 411
#     4  12  20  38  66  98 136 170 226 276 334 398
#     4  11  26  41  65 101 138 179 226 281 351 406
#     4  11  21  41  68  99 131 181 220 280 347 405
#
# _framework density 21.488161999999999
#
# number of rings (size 3 to 8) (size 9 to 14) (size 15 to 20)
#    0.000    1.231    4.615    2.769    2.154    0.000 
#    0.000   10.769    0.000    0.000    0.000    0.000 
#    0.000    0.000    0.000    0.000    0.000    0.000 
#
# Total GULP energy -161073.521729 kJ/mol
# GULP energy per Si atom -12390.270902 kJ/mol
# Density = 2.143925 g / cm^3
# Si number density = 21.488162 Si / 1000 Ang^3
#
#
#
# Elastic Constant Matrix: (Units=GPa)
#
#
# Indices 1 2 3 4 5 6 
#
# 1 79.9246 27.5574 32.2113 0.0008 -4.0208 0.0001
# 2 27.5574 81.0846 28.5027 -0.0026 1.9243 -0.0004
# 3 32.2113 28.5027 100.3467 -0.0077 -7.5797 -0.0020
# 4 0.0008 -0.0026 -0.0077 35.9955 0.0012 -6.5324
# 5 -4.0208 1.9243 -7.5797 0.0012 37.1699 0.0005
# 6 0.0001 -0.0004 -0.0020 -6.5324 0.0005 18.3627
#
#
#
# Elastic Compliance Matrix: (Units=1/GPa)
#
#
# Indices 1 2 3 4 5 6 
#
# 1 0.015443 -0.003957 -0.003749 -0.000002 0.001111 -0.000001
# 2 -0.003957 0.014800 -0.003071 0.000001 -0.001821 0.000000
# 3 -0.003749 -0.003071 0.012211 0.000003 0.002243 0.000002
# 4 -0.000002 0.000001 0.000003 0.029699 -0.000001 0.010565
# 5 0.001111 -0.001821 0.002243 -0.000001 0.027575 -0.000001
# 6 -0.000001 0.000000 0.000002 0.010565 -0.000001 0.058217
#
#
# Mechanical properties :
#
#
# Convention : Reuss Voigt Hill
#
# Bulk Modulus (GPa) = 47.84876 48.65541 48.25208
# Shear Modulus (GPa) = 26.81446 29.84457 28.32952
#
# Velocity S-wave (km/s) = 3.53635 3.73082 3.63489
# Velocity P-wave (km/s) = 6.24422 6.42267 6.33407
#
# Compressibility (1/GPa) = 0.02089918
#
# Stress axis : x y z
#
# Youngs Moduli (GPa) = 64.75401 67.56570 81.89438
#
# Poissons Ratio (x) = 0.26735 0.30705
# Poissons Ratio (y) = 0.25622 0.25152
# Poissons Ratio (z) = 0.24279 0.20751
#
# Static dielectric constant tensor:
#      x y z
#    x 3.605330 0.000000 -0.238730 
#    y 0.000000 4.122790 0.000000 
#    z -0.238730 0.000000 3.023010 
# 
# 
# High freq. dielectric constant tensor:
#      x y z
#    x 1.821330 0.000000 -0.016460 
#    y 0.000000 1.850280 0.000000 
#    z -0.016460 0.000000 1.845480 
# 
# From -- ./inp_files/65872.got.cif
#   From: 2010.03.12/outbox.cif.g09.slc.cpg/sg5_33_cif.got.tgz:65872.got - 2010.03.31 09:47:26.
