data_PCOD8050885
_publ_section_title
;
Structure prediction by ZEFSAII (Michael W. Deem and Ramdas Pophale) SiO2 
 PCOD8050885
Probable space group: C 2
;
_chemical_formula_sum "Si O2"
_cell_formula_units_Z 28
_cell_length_a 15.113068
_cell_length_b 6.654977
_cell_length_c 15.491403
_cell_angle_alpha 90.000000
_cell_angle_beta 122.254949
_cell_angle_gamma 90.000000
_cell_volume 1317.640375
_symmetry_space_group_name_H-M "C 2"
_symmetry_group_IT_number 5
_symmetry_cell_setting 'monoclinic'
loop_
_space_group_symop_operation_xyz
x,y,z
-x,y,-z
1/2+x,1/2+y,z
1/2-x,1/2+y,-z
loop_
_atom_site_type_symbol
_atom_site_label
_atom_site_fract_x
_atom_site_fract_y
_atom_site_fract_z
Si Si1 0.209998 0.670950 0.862375
Si Si2 0.329616 0.954801 0.828360
Si Si3 0.500000 0.956619 0.500000
Si Si4 0.112034 0.142463 0.447085
Si Si5 0.000000 0.673440 0.000000
Si Si6 0.717444 0.260991 0.062434
Si Si7 0.005711 0.751624 0.656713
Si Si8 0.677148 0.990258 0.371047
O O1 0.303060 0.728047 0.843138
O O2 0.207594 0.430959 0.860166
O O3 0.098839 0.759066 0.774433
O O4 0.243778 0.733662 0.976317
O O5 0.291670 0.996121 0.712618
O O6 0.450395 0.023385 0.901345
O O7 0.257515 0.071297 0.862926
O O8 0.589957 0.808447 0.510431
O O9 0.541655 0.105184 0.596970
O O10 0.127789 0.272011 0.367665
O O11 0.018486 0.979752 0.387863
O O12 0.216754 0.019715 0.520905
O O13 0.908358 0.808704 0.994452
O O14 0.902332 0.669301 0.649324
#
# Coordination Sequence:
#
# PCOD8050885 Si02
#       8
#     4   4   2   4   2   4   4   4
#     4  12  24  42  69  96 132 176 219 276 345 398
#     4  10  24  40  68  97 130 172 223 278 323 414
#     4  10  26  42  70  98 136 180 222 286 336 402
#     4  11  24  45  69  99 136 181 228 288 328 412
#     4   8  20  44  62  94 130 168 210 278 316 402
#     4  10  22  45  64  96 131 169 219 281 331 408
#     4  11  26  44  66 102 135 180 226 281 339 411
#     4  11  24  44  68  97 134 182 226 279 342 392
#
# _framework density 21.250108000000001
#
# number of rings (size 3 to 8) (size 9 to 14) (size 15 to 20)
#    0.857    0.571    2.857    1.286    6.000    2.857 
#    2.571    0.000    0.000    0.000    0.000    0.000 
#    0.000    0.000    0.000    0.000    0.000    0.000 
#
# Total GULP energy -173481.149155 kJ/mol
# GULP energy per Si atom -12391.510654 kJ/mol
# Density = 2.120174 g / cm^3
# Si number density = 21.250108 Si / 1000 Ang^3
#
#
#
# Elastic Constant Matrix: (Units=GPa)
#
#
# Indices 1 2 3 4 5 6 
#
# 1 63.2927 18.7480 28.4960 0.0000 -5.1664 0.0000
# 2 18.7480 105.3864 43.4509 0.0000 -2.5851 0.0000
# 3 28.4960 43.4509 109.8815 0.0000 -13.1977 0.0000
# 4 0.0000 0.0000 0.0000 27.8939 0.0000 0.4033
# 5 -5.1664 -2.5851 -13.1977 0.0000 42.6366 0.0000
# 6 0.0000 0.0000 0.0000 0.4033 0.0000 40.3822
#
#
#
# Elastic Compliance Matrix: (Units=1/GPa)
#
#
# Indices 1 2 3 4 5 6 
#
# 1 0.018124 -0.001563 -0.003978 0.000000 0.000870 0.000000
# 2 -0.001563 0.011494 -0.004236 0.000000 -0.000804 0.000000
# 3 -0.003978 -0.004236 0.012171 0.000000 0.003029 0.000000
# 4 0.000000 0.000000 0.000000 0.035855 0.000000 -0.000358
# 5 0.000870 -0.000804 0.003029 0.000000 0.024448 0.000000
# 6 0.000000 0.000000 0.000000 -0.000358 0.000000 0.024767
#
#
# Mechanical properties :
#
#
# Convention : Reuss Voigt Hill
#
# Bulk Modulus (GPa) = 44.97290 51.10561 48.03925
# Shear Modulus (GPa) = 32.50429 34.70691 33.60560
#
# Velocity S-wave (km/s) = 3.91526 4.04574 3.98104
# Velocity P-wave (km/s) = 6.45357 6.77686 6.61719
#
# Compressibility (1/GPa) = 0.02223561
#
# Stress axis : x y z
#
# Youngs Moduli (GPa) = 55.17404 87.00309 82.16112
#
# Poissons Ratio (x) = 0.13598 0.32682
# Poissons Ratio (y) = 0.08623 0.34806
# Poissons Ratio (z) = 0.21947 0.36857
#
# Static dielectric constant tensor:
#      x y z
#    x 3.664180 0.000000 -0.131250 
#    y 0.000000 3.903100 0.000000 
#    z -0.131250 0.000000 3.621830 
# 
# 
# High freq. dielectric constant tensor:
#      x y z
#    x 1.825050 0.000000 -0.009960 
#    y 0.000000 1.834680 0.000000 
#    z -0.009960 0.000000 1.827200 
# 
# From -- ./inp_files/55514.got.cif
#   From: 2010.03.12/outbox.cif.g09.slc.cpg/sg5_28_cif.got.tgz:55514.got - 2010.03.31 09:47:26.
