data_PCOD8050160
_publ_section_title
;
Structure prediction by ZEFSAII (Michael W. Deem and Ramdas Pophale) SiO2 
 PCOD8050160
Probable space group: C 2
;
_chemical_formula_sum "Si O2"
_cell_formula_units_Z 30
_cell_length_a 22.603244
_cell_length_b 11.155411
_cell_length_c 9.212680
_cell_angle_alpha 90.000000
_cell_angle_beta 139.107317
_cell_angle_gamma 90.000000
_cell_volume 1520.714594
_symmetry_space_group_name_H-M "C 2"
_symmetry_group_IT_number 5
_symmetry_cell_setting 'monoclinic'
loop_
_space_group_symop_operation_xyz
x,y,z
-x,y,-z
1/2+x,1/2+y,z
1/2-x,1/2+y,-z
loop_
_atom_site_type_symbol
_atom_site_label
_atom_site_fract_x
_atom_site_fract_y
_atom_site_fract_z
Si Si1 0.375631 0.274280 0.072439
Si Si2 0.705125 0.751582 0.963447
Si Si3 0.679071 0.524871 0.068954
Si Si4 0.909439 0.389176 0.763330
Si Si5 0.875039 0.432722 0.383206
Si Si6 0.770330 0.236191 0.670081
Si Si7 0.500000 0.135848 0.500000
Si Si8 0.603458 0.164210 0.186827
O O1 0.467273 0.220198 0.308646
O O2 0.295192 0.254835 0.036089
O O3 0.393248 0.416481 0.070286
O O4 0.352258 0.202337 0.883270
O O5 0.625544 0.831618 0.744156
O O6 0.669200 0.614013 0.911331
O O7 0.728764 0.800993 0.169784
O O8 0.774161 0.458299 0.243061
O O9 0.679602 0.605603 0.217208
O O10 0.925765 0.385317 0.620526
O O11 0.823422 0.310132 0.647517
O O12 0.894254 0.521766 0.796113
O O13 0.000000 0.333067 0.000000
O O14 0.919084 0.553745 0.406952
O O15 0.665790 0.220990 0.428646
O O16 0.500000 0.212619 0.000000
#
# Coordination Sequence:
#
# PCOD8050160 Si02
#       8
#     4   4   4   4   4   4   2   4
#     4  11  23  37  65  90 127 167 205 260 325 369
#     4   9  21  38  65  88 123 165 205 258 321 372
#     4   9  20  41  59  89 126 161 204 259 310 390
#     4  11  23  40  64  94 125 166 215 263 316 379
#     4  11  21  38  62  94 127 158 213 270 305 377
#     4  10  21  41  64  89 131 161 204 270 316 372
#     4  12  22  36  64  98 122 158 212 270 308 368
#     4  11  24  39  65  95 126 168 217 258 317 383
#
# _framework density 19.727568000000002
#
# number of rings (size 3 to 8) (size 9 to 14) (size 15 to 20)
#    0.800    0.800    2.667    3.200    5.600    0.000 
#    0.000    2.667    0.000    0.000    0.000    0.000 
#    0.000    0.000    0.000    0.000    0.000    0.000 
#
# Total GULP energy -185902.392877 kJ/mol
# GULP energy per Si atom -12393.492858 kJ/mol
# Density = 1.968267 g / cm^3
# Si number density = 19.727568 Si / 1000 Ang^3
#
#
#
# Elastic Constant Matrix: (Units=GPa)
#
#
# Indices 1 2 3 4 5 6 
#
# 1 53.3254 21.9068 28.2460 0.0000 -9.1133 0.0000
# 2 21.9068 98.9535 66.2720 0.0000 -2.5434 0.0000
# 3 28.2460 66.2720 136.2775 0.0000 -15.3586 0.0000
# 4 0.0000 0.0000 0.0000 42.6826 0.0000 -1.8324
# 5 -9.1133 -2.5434 -15.3586 0.0000 34.5332 0.0000
# 6 0.0000 0.0000 0.0000 -1.8324 0.0000 29.7562
#
#
#
# Elastic Compliance Matrix: (Units=1/GPa)
#
#
# Indices 1 2 3 4 5 6 
#
# 1 0.022146 -0.003041 -0.002609 0.000000 0.004460 0.000000
# 2 -0.003041 0.015572 -0.007268 0.000000 -0.002888 0.000000
# 3 -0.002609 -0.007268 0.011870 0.000000 0.004056 0.000000
# 4 0.000000 0.000000 0.000000 0.023491 0.000000 0.001447
# 5 0.004460 -0.002888 0.004056 0.000000 0.031726 0.000000
# 6 0.000000 0.000000 0.000000 0.001447 0.000000 0.033696
#
#
# Mechanical properties :
#
#
# Convention : Reuss Voigt Hill
#
# Bulk Modulus (GPa) = 42.09966 57.93400 50.01683
# Shear Modulus (GPa) = 29.02689 32.86984 30.94837
#
# Velocity S-wave (km/s) = 3.84003 4.08633 3.96509
# Velocity P-wave (km/s) = 6.40687 7.18991 6.80965
#
# Compressibility (1/GPa) = 0.02375316
#
# Stress axis : x y z
#
# Youngs Moduli (GPa) = 45.15461 64.21622 84.24471
#
# Poissons Ratio (x) = 0.19529 0.21976
# Poissons Ratio (y) = 0.13732 0.61229
# Poissons Ratio (z) = 0.11779 0.46673
#
# Static dielectric constant tensor:
#      x y z
#    x 3.398130 0.000000 -0.136310 
#    y 0.000000 3.797850 0.000000 
#    z -0.136310 0.000000 3.878480 
# 
# 
# High freq. dielectric constant tensor:
#      x y z
#    x 1.750360 0.000000 -0.013110 
#    y 0.000000 1.762840 0.000000 
#    z -0.013110 0.000000 1.773350 
# 
# From -- ./inp_files/30939.got.cif
#   From: 2010.03.12/outbox.cif.g09.slc.cpg/sg5_16_cif.got.tgz:30939.got - 2010.03.31 09:47:26.
