data_PCOD8050942
_publ_section_title
;
Structure prediction by ZEFSAII (Michael W. Deem and Ramdas Pophale) SiO2 
 PCOD8050942
Probable space group: C 2
;
_chemical_formula_sum "Si O2"
_cell_formula_units_Z 22
_cell_length_a 5.347512
_cell_length_b 27.804929
_cell_length_c 7.439946
_cell_angle_alpha 90.000000
_cell_angle_beta 67.892734
_cell_angle_gamma 90.000000
_cell_volume 1024.896047
_symmetry_space_group_name_H-M "C 2"
_symmetry_group_IT_number 5
_symmetry_cell_setting 'monoclinic'
loop_
_space_group_symop_operation_xyz
x,y,z
-x,y,-z
1/2+x,1/2+y,z
1/2-x,1/2+y,-z
loop_
_atom_site_type_symbol
_atom_site_label
_atom_site_fract_x
_atom_site_fract_y
_atom_site_fract_z
Si Si1 0.000000 0.868001 0.000000
Si Si2 0.688346 0.632626 0.621727
Si Si3 0.510963 0.533965 0.711476
Si Si4 0.500000 0.805902 0.000000
Si Si5 0.318125 0.939676 0.707744
Si Si6 0.685876 0.739265 0.627112
Si Si7 0.000000 0.484618 0.000000
O O1 0.921936 0.902089 0.190594
O O2 0.249802 0.836894 0.998770
O O3 0.500000 0.634115 0.500000
O O4 0.595634 0.586599 0.766275
O O5 0.656017 0.685341 0.719165
O O6 0.000000 0.622864 0.500000
O O7 0.500000 0.537966 0.500000
O O8 0.730345 0.493423 0.685312
O O9 0.247745 0.519951 0.895102
O O10 0.591239 0.774676 0.806943
O O11 0.500000 0.917832 0.500000
O O12 0.486261 0.946439 0.842929
O O13 0.500000 0.746547 0.500000
O O14 0.000000 0.749662 0.500000
#
# Coordination Sequence:
#
# PCOD8050942 Si02
#       7
#     2   4   4   2   4   4   2
#     4  12  28  46  70 100 137 169 238 292 332 412
#     4   9  20  39  67 102 138 179 225 267 325 407
#     4  11  22  39  68  96 140 183 219 270 328 396
#     4  12  27  48  71 104 131 172 232 293 346 404
#     4  12  25  44  67  93 135 183 221 275 340 394
#     4  10  22  46  74 100 138 178 219 281 345 403
#     4  12  23  42  63  98 134 183 230 271 318 398
#
# _framework density 21.465593999999999
#
# number of rings (size 3 to 8) (size 9 to 14) (size 15 to 20)
#    0.000    1.091    3.636    2.182    2.545    2.182 
#    3.273    2.727    0.000    0.000    0.000    0.000 
#    0.000    0.000    0.000    0.000    0.000    0.000 
#
# Total GULP energy -136298.457515 kJ/mol
# GULP energy per Si atom -12390.768865 kJ/mol
# Density = 2.141674 g / cm^3
# Si number density = 21.465594 Si / 1000 Ang^3
#
#
#
# Elastic Constant Matrix: (Units=GPa)
#
#
# Indices 1 2 3 4 5 6 
#
# 1 136.0845 53.3071 46.5349 0.0000 -14.9625 0.0000
# 2 53.3071 162.4328 70.7485 0.0000 -7.4715 0.0000
# 3 46.5349 70.7485 149.5034 0.0000 -13.8523 0.0000
# 4 0.0000 0.0000 0.0000 31.4268 0.0000 -19.1702
# 5 -14.9625 -7.4715 -13.8523 0.0000 33.1536 0.0000
# 6 0.0000 0.0000 0.0000 -19.1702 0.0000 39.2979
#
#
#
# Elastic Compliance Matrix: (Units=1/GPa)
#
#
# Indices 1 2 3 4 5 6 
#
# 1 0.009042 -0.002173 -0.001512 0.000000 0.002959 0.000000
# 2 -0.002173 0.008278 -0.003286 0.000000 -0.000488 0.000000
# 3 -0.001512 -0.003286 0.008929 0.000000 0.002307 0.000000
# 4 0.000000 0.000000 0.000000 0.045300 0.000000 0.022098
# 5 0.002959 -0.000488 0.002307 0.000000 0.032352 0.000000
# 6 0.000000 0.000000 0.000000 0.022098 0.000000 0.036226
#
#
# Mechanical properties :
#
#
# Convention : Reuss Voigt Hill
#
# Bulk Modulus (GPa) = 81.25865 87.68907 84.47386
# Shear Modulus (GPa) = 31.61125 39.27102 35.44114
#
# Velocity S-wave (km/s) = 3.84167 4.28189 4.06774
# Velocity P-wave (km/s) = 7.59048 8.08615 7.84223
#
# Compressibility (1/GPa) = 0.01230638
#
# Stress axis : x y z
#
# Youngs Moduli (GPa) = 110.59655 120.79616 112.00085
#
# Poissons Ratio (x) = 0.26245 0.16935
# Poissons Ratio (y) = 0.24029 0.36809
# Poissons Ratio (z) = 0.16723 0.39700
#
# Static dielectric constant tensor:
#      x y z
#    x 4.061830 0.000000 -0.034890 
#    y 0.000000 4.563280 0.000000 
#    z -0.034890 0.000000 3.569340 
# 
# 
# High freq. dielectric constant tensor:
#      x y z
#    x 1.854800 0.000000 -0.009310 
#    y 0.000000 1.862040 0.000000 
#    z -0.009310 0.000000 1.830980 
# 
# From -- ./inp_files/12960.got.cif
#   From: 2010.03.12/outbox.cif.g09.slc.cpg/sg5_7_cif.got.tgz:12960.got - 2010.03.31 09:47:26.
