data_PCOD8050591
_publ_section_title
;
Structure prediction by ZEFSAII (Michael W. Deem and Ramdas Pophale) SiO2 
 PCOD8050591
Probable space group: C 2
;
_chemical_formula_sum "Si O2"
_cell_formula_units_Z 32
_cell_length_a 19.125174
_cell_length_b 15.770053
_cell_length_c 12.933011
_cell_angle_alpha 90.000000
_cell_angle_beta 157.530796
_cell_angle_gamma 90.000000
_cell_volume 1490.781099
_symmetry_space_group_name_H-M "C 2"
_symmetry_group_IT_number 5
_symmetry_cell_setting 'monoclinic'
loop_
_space_group_symop_operation_xyz
x,y,z
-x,y,-z
1/2+x,1/2+y,z
1/2-x,1/2+y,-z
loop_
_atom_site_type_symbol
_atom_site_label
_atom_site_fract_x
_atom_site_fract_y
_atom_site_fract_z
Si Si1 0.468079 0.811320 0.217658
Si Si2 0.300259 0.034691 0.751216
Si Si3 0.527928 0.401034 0.359016
Si Si4 0.680334 0.984578 0.994697
Si Si5 0.201011 0.725730 0.255899
Si Si6 0.782324 0.768700 0.950900
Si Si7 0.809260 0.256433 0.801411
Si Si8 0.997228 0.634680 0.372764
O O1 0.678492 0.783902 0.505342
O O2 0.458428 0.908420 0.167533
O O3 0.399679 0.803549 0.242945
O O4 0.359770 0.749767 0.991368
O O5 0.280889 0.129244 0.680946
O O6 0.148835 0.979377 0.482942
O O7 0.500000 0.997759 0.000000
O O8 0.267886 0.034705 0.830523
O O9 0.426779 0.346379 0.132188
O O10 0.672791 0.337975 0.612579
O O11 0.368928 0.442005 0.213000
O O12 0.565583 0.044056 0.758937
O O13 0.260550 0.728568 0.217658
O O14 0.000000 0.760575 0.000000
O O15 0.853971 0.701013 0.131523
O O16 0.700390 0.170547 0.617704
O O17 0.000000 0.268546 0.000000
O O18 0.000000 0.629241 0.500000
#
# Coordination Sequence:
#
# PCOD8050591 Si02
#       8
#     4   4   4   4   4   4   4   4
#     4  11  24  41  66  96 127 179 218 270 329 389
#     4  11  23  38  61  97 129 169 216 268 325 393
#     4  10  23  38  67  96 129 168 220 269 328 378
#     4  11  24  40  66  96 134 167 218 279 322 391
#     4  11  26  42  63  94 135 173 215 268 334 396
#     4  10  22  41  64  93 127 171 217 270 322 395
#     4  11  24  41  71 102 133 176 227 278 328 400
#     4  11  23  42  68  98 132 171 220 274 335 392
#
# _framework density 21.465257000000001
#
# number of rings (size 3 to 8) (size 9 to 14) (size 15 to 20)
#    0.000    1.250    3.750    1.125    7.000    3.000 
#    0.000    0.625    0.000    0.000    0.000    0.000 
#    0.000    0.000    0.000    0.000    0.000    0.000 
#
# Total GULP energy -198230.585692 kJ/mol
# GULP energy per Si atom -12389.411606 kJ/mol
# Density = 2.141640 g / cm^3
# Si number density = 21.465257 Si / 1000 Ang^3
#
#
#
# Elastic Constant Matrix: (Units=GPa)
#
#
# Indices 1 2 3 4 5 6 
#
# 1 48.5199 11.2643 10.7053 0.0000 7.7623 0.0000
# 2 11.2643 94.2143 66.2438 0.0000 9.1060 0.0000
# 3 10.7053 66.2438 128.9715 0.0000 17.8002 0.0000
# 4 0.0000 0.0000 0.0000 31.2248 0.0000 8.3438
# 5 7.7623 9.1060 17.8002 0.0000 31.2594 0.0000
# 6 0.0000 0.0000 0.0000 8.3438 0.0000 18.4521
#
#
#
# Elastic Compliance Matrix: (Units=1/GPa)
#
#
# Indices 1 2 3 4 5 6 
#
# 1 0.021879 -0.002099 -0.000079 0.000000 -0.004777 0.000000
# 2 -0.002099 0.016816 -0.008529 0.000000 0.000479 0.000000
# 3 -0.000079 -0.008529 0.012801 0.000000 -0.004785 0.000000
# 4 0.000000 0.000000 0.000000 0.036427 0.000000 -0.016472
# 5 -0.004777 0.000479 -0.004785 0.000000 0.035762 0.000000
# 6 0.000000 0.000000 0.000000 -0.016472 0.000000 0.061643
#
#
# Mechanical properties :
#
#
# Convention : Reuss Voigt Hill
#
# Bulk Modulus (GPa) = 33.24160 49.79253 41.51706
# Shear Modulus (GPa) = 23.06606 28.42006 25.74306
#
# Velocity S-wave (km/s) = 3.28163 3.64263 3.46683
# Velocity P-wave (km/s) = 5.46614 6.39835 5.95052
#
# Compressibility (1/GPa) = 0.03008279
#
# Stress axis : x y z
#
# Youngs Moduli (GPa) = 45.70615 59.46873 78.11640
#
# Poissons Ratio (x) = 0.12481 0.00616
# Poissons Ratio (y) = 0.09593 0.66625
# Poissons Ratio (z) = 0.00360 0.50721
#
# Static dielectric constant tensor:
#      x y z
#    x 3.605870 0.000000 0.081950 
#    y 0.000000 3.993350 0.000000 
#    z 0.081950 0.000000 4.084710 
# 
# 
# High freq. dielectric constant tensor:
#      x y z
#    x 1.820560 0.000000 0.006800 
#    y 0.000000 1.840030 0.000000 
#    z 0.006800 0.000000 1.852000 
# 
# From -- ./inp_files/53465.got.cif
#   From: 2010.03.12/outbox.cif.g09.slc.cpg/sg5_27_cif.got.tgz:53465.got - 2010.03.31 09:47:26.
