data_PCOD8050067
_publ_section_title
;
Structure prediction by ZEFSAII (Michael W. Deem and Ramdas Pophale) SiO2 
 PCOD8050067
Probable space group: C 2
;
_chemical_formula_sum "Si O2"
_cell_formula_units_Z 24
_cell_length_a 14.097748
_cell_length_b 15.439903
_cell_length_c 9.061108
_cell_angle_alpha 90.000000
_cell_angle_beta 35.427186
_cell_angle_gamma 90.000000
_cell_volume 1143.285904
_symmetry_space_group_name_H-M "C 2"
_symmetry_group_IT_number 5
_symmetry_cell_setting 'monoclinic'
loop_
_space_group_symop_operation_xyz
x,y,z
-x,y,-z
1/2+x,1/2+y,z
1/2-x,1/2+y,-z
loop_
_atom_site_type_symbol
_atom_site_label
_atom_site_fract_x
_atom_site_fract_y
_atom_site_fract_z
Si Si1 0.927207 0.121300 0.753069
Si Si2 0.091730 0.464513 0.728903
Si Si3 0.952735 0.287876 0.887028
Si Si4 0.087598 0.809938 0.251808
Si Si5 0.530297 0.455640 0.789998
Si Si6 0.956358 0.620678 0.720370
O O1 0.014745 0.206978 0.710318
O O2 0.000000 0.104757 0.500000
O O3 0.731739 0.118877 0.992261
O O4 0.968777 0.045941 0.811070
O O5 0.283497 0.445213 0.499641
O O6 0.021224 0.378849 0.736433
O O7 0.061662 0.555024 0.685398
O O8 0.000000 0.470888 0.000000
O O9 0.761626 0.285544 0.097459
O O10 0.000000 0.275616 0.000000
O O11 0.991222 0.721512 0.325947
O O12 0.000000 0.856617 0.500000
O O13 0.083813 0.877441 0.123620
O O14 0.500000 0.454188 0.000000
O O15 0.000000 0.590773 0.500000
#
# Coordination Sequence:
#
# PCOD8050067 Si02
#       6
#     4   4   4   4   4   4
#     4  11  23  40  63  90 123 163 206 256 309 366
#     4  11  23  39  61  88 121 161 203 251 303 364
#     4  10  22  40  63  90 123 164 208 256 312 369
#     4  10  21  40  63  89 124 165 206 255 313 367
#     4  12  25  39  62  93 126 164 207 257 307 368
#     4  10  22  40  62  86 118 161 203 251 305 362
#
# _framework density 20.992125000000001
#
# number of rings (size 3 to 8) (size 9 to 14) (size 15 to 20)
#    0.000    1.333    0.000    6.000    0.000    8.000 
#    0.000    0.000    0.000    0.000    0.000    0.000 
#    0.000    0.000    0.000    0.000    0.000    0.000 
#
# Total GULP energy -148710.079473 kJ/mol
# GULP energy per Si atom -12392.506623 kJ/mol
# Density = 2.094435 g / cm^3
# Si number density = 20.992125 Si / 1000 Ang^3
#
#
#
# Elastic Constant Matrix: (Units=GPa)
#
#
# Indices 1 2 3 4 5 6 
#
# 1 99.2819 53.8883 27.6457 -0.0001 15.6027 0.0000
# 2 53.8883 133.3929 0.1053 0.0001 15.0689 -0.0002
# 3 27.6457 0.1053 99.6157 0.0005 17.1325 -0.0015
# 4 -0.0001 0.0001 0.0005 -3.2315 -0.0001 79.3201
# 5 15.6027 15.0689 17.1325 -0.0001 34.5581 0.0006
# 6 0.0000 -0.0002 -0.0015 79.3201 0.0006 -135.0286
#
#
#
# Elastic Compliance Matrix: (Units=1/GPa)
#
#
# Indices 1 2 3 4 5 6 
#
# 1 0.014471 -0.005583 -0.003613 0.000000 -0.002308 0.000000
# 2 -0.005583 0.010076 0.002034 0.000000 -0.002882 0.000000
# 3 -0.003613 0.002034 0.011928 0.000000 -0.005169 0.000000
# 4 0.000000 0.000000 0.000000 0.023061 0.000000 0.013547
# 5 -0.002308 -0.002882 -0.005169 0.000000 0.033798 0.000000
# 6 0.000000 0.000000 0.000000 0.013547 0.000000 0.000552
#
#
# Mechanical properties :
#
#
# Convention : Reuss Voigt Hill
#
# Bulk Modulus (GPa) = 45.14235 55.06323 50.10279
# Shear Modulus (GPa) = 43.25514 -4.03031 19.61241
#
# Velocity S-wave (km/s) = 4.54424 -1.38711 3.05991
# Velocity P-wave (km/s) = 7.00604 4.87052 6.03351
#
# Compressibility (1/GPa) = 0.02215215
#
# Stress axis : x y z
#
# Youngs Moduli (GPa) = 69.10230 99.24767 83.83488
#
# Poissons Ratio (x) = 0.55405 0.30292
# Poissons Ratio (y) = 0.38577 -0.17054
# Poissons Ratio (z) = 0.24968 -0.20189
#
# Static dielectric constant tensor:
#      x y z
#    x 4.476610 0.000000 -0.251110 
#    y 0.000000 4.360160 0.000000 
#    z -0.251110 0.000000 3.881850 
# 
# 
# High freq. dielectric constant tensor:
#      x y z
#    x 1.814140 0.000000 -0.002630 
#    y 0.000000 1.847330 0.000000 
#    z -0.002630 0.000000 1.825230 
# 
# From -- ./inp_files/24504.got.cif
#   From: 2010.03.12/outbox.cif.g09.slc.cpg/sg5_13_cif.got.tgz:24504.got - 2010.03.31 09:47:26.
