data_PCOD8050948
_publ_section_title
;
Structure prediction by ZEFSAII (Michael W. Deem and Ramdas Pophale) SiO2 
 PCOD8050948
Probable space group: C 2
;
_chemical_formula_sum "Si O2"
_cell_formula_units_Z 18
_cell_length_a 5.680016
_cell_length_b 24.174933
_cell_length_c 5.190466
_cell_angle_alpha 90.000000
_cell_angle_beta 91.299629
_cell_angle_gamma 90.000000
_cell_volume 712.540337
_symmetry_space_group_name_H-M "C 2"
_symmetry_group_IT_number 5
_symmetry_cell_setting 'monoclinic'
loop_
_space_group_symop_operation_xyz
x,y,z
-x,y,-z
1/2+x,1/2+y,z
1/2-x,1/2+y,-z
loop_
_atom_site_type_symbol
_atom_site_label
_atom_site_fract_x
_atom_site_fract_y
_atom_site_fract_z
Si Si1 0.754800 0.051550 0.149263
Si Si2 0.000000 0.855098 0.000000
Si Si3 0.652497 0.168738 0.260294
Si Si4 0.364204 0.782649 0.245822
Si Si5 0.848696 0.435393 0.740689
O O1 0.771451 0.108721 0.312261
O O2 0.753993 0.996777 0.329380
O O3 0.500000 0.054184 0.000000
O O4 0.000000 0.048514 0.000000
O O5 0.879772 0.814943 0.786780
O O6 0.145463 0.892833 0.805908
O O7 0.500000 0.186257 0.500000
O O8 0.848695 0.216123 0.240782
O O9 0.500000 0.168773 0.000000
O O10 0.500000 0.803363 0.500000
O O11 0.500000 0.804546 0.000000
O O12 0.000000 0.414001 0.500000
O O13 0.000000 0.441997 0.000000
#
# Coordination Sequence:
#
# PCOD8050948 Si02
#       5
#     4   2   4   4   4
#     4  10  22  46  80 116 158 208 264 334 408 489
#     4  12  28  52  78 112 166 210 270 338 400 488
#     4  11  23  46  75 113 154 202 258 329 405 480
#     4  12  28  48  77 115 153 208 271 328 402 478
#     4  11  26  50  76 115 153 210 268 326 407 483
#
# _framework density 25.261728000000002
#
# number of rings (size 3 to 8) (size 9 to 14) (size 15 to 20)
#    0.000    0.889    2.222    3.333    0.000    8.000 
#    0.000    6.667    0.000    0.000    0.000    0.000 
#    0.000    0.000    0.000    0.000    0.000    0.000 
#
# Total GULP energy -111528.778915 kJ/mol
# GULP energy per Si atom -12392.086546 kJ/mol
# Density = 2.520423 g / cm^3
# Si number density = 25.261728 Si / 1000 Ang^3
#
#
#
# Elastic Constant Matrix: (Units=GPa)
#
#
# Indices 1 2 3 4 5 6 
#
# 1 141.3247 55.1891 54.3226 0.0000 -8.3732 0.0000
# 2 55.1891 201.3745 32.8258 0.0000 4.6689 0.0000
# 3 54.3226 32.8258 170.3725 0.0000 -6.0488 0.0000
# 4 0.0000 0.0000 0.0000 18.6537 0.0000 -20.6395
# 5 -8.3732 4.6689 -6.0488 0.0000 49.8055 0.0000
# 6 0.0000 0.0000 0.0000 -20.6395 0.0000 58.2871
#
#
#
# Elastic Compliance Matrix: (Units=1/GPa)
#
#
# Indices 1 2 3 4 5 6 
#
# 1 0.008887 -0.002080 -0.002383 0.000000 0.001400 0.000000
# 2 -0.002080 0.005632 -0.000455 0.000000 -0.000933 0.000000
# 3 -0.002383 -0.000455 0.006733 0.000000 0.000460 0.000000
# 4 0.000000 0.000000 0.000000 0.088143 0.000000 0.031212
# 5 0.001400 -0.000933 0.000460 0.000000 0.020457 0.000000
# 6 0.000000 0.000000 0.000000 0.031212 0.000000 0.028208
#
#
# Mechanical properties :
#
#
# Convention : Reuss Voigt Hill
#
# Bulk Modulus (GPa) = 87.59469 88.63853 88.11661
# Shear Modulus (GPa) = 29.12035 50.06487 39.59261
#
# Velocity S-wave (km/s) = 3.39889 4.45662 3.96320
# Velocity P-wave (km/s) = 7.08191 7.85151 7.47662
#
# Compressibility (1/GPa) = 0.01141622
#
# Stress axis : x y z
#
# Youngs Moduli (GPa) = 112.52417 177.56912 148.51382
#
# Poissons Ratio (x) = 0.36926 0.35394
# Poissons Ratio (y) = 0.23400 0.06759
# Poissons Ratio (z) = 0.26817 0.08081
#
# Static dielectric constant tensor:
#      x y z
#    x 4.607970 0.000000 -0.077520 
#    y 0.000000 5.446270 0.000000 
#    z -0.077520 0.000000 4.207100 
# 
# 
# High freq. dielectric constant tensor:
#      x y z
#    x 2.008310 0.000000 -0.008790 
#    y 0.000000 2.049830 0.000000 
#    z -0.008790 0.000000 1.990870 
# 
# From -- ./inp_files/846.got.cif
#   From: 2010.03.12/outbox.cif.g09.slc.cpg/sg5_1_cif.got.tgz:846.got - 2010.03.31 09:47:26.
