data_PCOD8050488
_publ_section_title
;
Structure prediction by ZEFSAII (Michael W. Deem and Ramdas Pophale) SiO2 
 PCOD8050488
Probable space group: C 2
;
_chemical_formula_sum "Si O2"
_cell_formula_units_Z 24
_cell_length_a 24.304619
_cell_length_b 8.943899
_cell_length_c 5.406828
_cell_angle_alpha 90.000000
_cell_angle_beta 107.665760
_cell_angle_gamma 90.000000
_cell_volume 1119.900933
_symmetry_space_group_name_H-M "C 2"
_symmetry_group_IT_number 5
_symmetry_cell_setting 'monoclinic'
loop_
_space_group_symop_operation_xyz
x,y,z
-x,y,-z
1/2+x,1/2+y,z
1/2-x,1/2+y,-z
loop_
_atom_site_type_symbol
_atom_site_label
_atom_site_fract_x
_atom_site_fract_y
_atom_site_fract_z
Si Si1 0.258339 0.572730 0.685037
Si Si2 0.147870 0.172754 0.519051
Si Si3 0.567689 0.426715 0.592019
Si Si4 0.567639 0.252106 0.094982
Si Si5 0.777099 0.336853 0.017619
Si Si6 0.645316 0.967425 0.245156
O O1 0.321089 0.566103 0.640829
O O2 0.266214 0.456971 0.923405
O O3 0.203491 0.528691 0.449607
O O4 0.245591 0.743626 0.757180
O O5 0.202932 0.215315 0.757577
O O6 0.120301 0.323376 0.359848
O O7 0.099828 0.086157 0.612742
O O8 0.500000 0.461640 0.500000
O O9 0.585379 0.335002 0.371534
O O10 0.585924 0.342852 0.871326
O O11 0.596880 0.090711 0.143789
O O12 0.500000 0.221913 0.000000
O O13 0.835376 0.418041 0.001999
#
# Coordination Sequence:
#
# PCOD8050488 Si02
#       6
#     4   4   4   4   4   4
#     4  10  22  40  60  92 132 162 220 256 330 388
#     4  10  23  42  62  97 130 171 219 269 331 394
#     4  10  24  46  69  98 131 171 225 277 330 391
#     4  10  24  46  69  98 131 171 225 277 330 391
#     4  10  22  40  60  90 130 172 208 270 316 400
#     4  10  23  42  62  97 130 171 219 269 331 394
#
# _framework density 21.430468999999999
#
# number of rings (size 3 to 8) (size 9 to 14) (size 15 to 20)
#    0.000    2.000    0.000    1.000    9.333    6.667 
#    6.000    0.000    0.000    0.000    0.000    0.000 
#    0.000    0.000    0.000    0.000    0.000    0.000 
#
# Total GULP energy -148740.333700 kJ/mol
# GULP energy per Si atom -12395.027808 kJ/mol
# Density = 2.138169 g / cm^3
# Si number density = 21.430469 Si / 1000 Ang^3
#
#
#
# Elastic Constant Matrix: (Units=GPa)
#
#
# Indices 1 2 3 4 5 6 
#
# 1 80.9176 76.1848 35.4156 0.0000 -20.0145 0.0000
# 2 76.1848 141.6637 45.3072 0.0000 -15.1656 0.0000
# 3 35.4156 45.3072 87.1073 0.0000 -28.4395 0.0000
# 4 0.0000 0.0000 0.0000 37.0092 0.0000 -4.0990
# 5 -20.0145 -15.1656 -28.4395 0.0000 28.8412 0.0000
# 6 0.0000 0.0000 0.0000 -4.0990 0.0000 51.1869
#
#
#
# Elastic Compliance Matrix: (Units=1/GPa)
#
#
# Indices 1 2 3 4 5 6 
#
# 1 0.028762 -0.014030 -0.000426 0.000000 0.012163 0.000000
# 2 -0.014030 0.015311 -0.004144 0.000000 -0.005771 0.000000
# 3 -0.000426 -0.004144 0.019173 0.000000 0.016432 0.000000
# 4 0.000000 0.000000 0.000000 0.027262 0.000000 0.002183
# 5 0.012163 -0.005771 0.016432 0.000000 0.056281 0.000000
# 6 0.000000 0.000000 0.000000 0.002183 0.000000 0.019711
#
#
# Mechanical properties :
#
#
# Convention : Reuss Voigt Hill
#
# Bulk Modulus (GPa) = 38.39053 69.27820 53.83436
# Shear Modulus (GPa) = 23.54242 33.59288 28.56765
#
# Velocity S-wave (km/s) = 3.31803 3.96350 3.65504
# Velocity P-wave (km/s) = 5.71244 7.30362 6.55648
#
# Compressibility (1/GPa) = 0.02604809
#
# Stress axis : x y z
#
# Youngs Moduli (GPa) = 34.76823 65.31061 52.15543
#
# Poissons Ratio (x) = 0.91628 0.02220
# Poissons Ratio (y) = 0.48778 0.21614
# Poissons Ratio (z) = 0.01480 0.27065
#
# Static dielectric constant tensor:
#      x y z
#    x 3.631520 0.000000 -0.367860 
#    y 0.000000 4.034510 0.000000 
#    z -0.367860 0.000000 4.083470 
# 
# 
# High freq. dielectric constant tensor:
#      x y z
#    x 1.822640 0.000000 -0.024770 
#    y 0.000000 1.852210 0.000000 
#    z -0.024770 0.000000 1.849770 
# 
# From -- ./inp_files/10129.got.cif
#   From: 2010.03.12/outbox.cif.g09.slc.cpg/sg5_6_cif.got.tgz:10129.got - 2010.03.31 09:47:26.
