data_PCOD8050514
_publ_section_title
;
Structure prediction by ZEFSAII (Michael W. Deem and Ramdas Pophale) SiO2 
 PCOD8050514
Probable space group: C 2
;
_chemical_formula_sum "Si O2"
_cell_formula_units_Z 30
_cell_length_a 10.721957
_cell_length_b 18.727793
_cell_length_c 14.201652
_cell_angle_alpha 90.000000
_cell_angle_beta 149.673932
_cell_angle_gamma 90.000000
_cell_volume 1439.867202
_symmetry_space_group_name_H-M "C 2"
_symmetry_group_IT_number 5
_symmetry_cell_setting 'monoclinic'
loop_
_space_group_symop_operation_xyz
x,y,z
-x,y,-z
1/2+x,1/2+y,z
1/2-x,1/2+y,-z
loop_
_atom_site_type_symbol
_atom_site_label
_atom_site_fract_x
_atom_site_fract_y
_atom_site_fract_z
Si Si1 0.568730 0.347770 0.849615
Si Si2 0.650084 0.825923 0.242193
Si Si3 0.500000 0.398822 0.000000
Si Si4 0.425193 0.103602 0.558447
Si Si5 0.081999 0.763158 0.416435
Si Si6 0.031320 0.009318 0.763890
Si Si7 0.698235 0.022994 0.883661
Si Si8 0.760662 0.986001 0.289031
O O1 0.454494 0.347645 0.880659
O O2 0.417941 0.290155 0.690952
O O3 0.516030 0.424860 0.770889
O O4 0.856929 0.324752 0.036069
O O5 0.717488 0.809619 0.394769
O O6 0.803483 0.768660 0.278870
O O7 0.759936 0.900802 0.279981
O O8 0.266645 0.449325 0.874599
O O9 0.500000 0.105239 0.500000
O O10 0.328986 0.181174 0.526061
O O11 0.653744 0.083029 0.776119
O O12 0.222006 0.042044 0.440311
O O13 0.234721 0.019358 0.813634
O O14 0.091395 0.046996 0.903893
O O15 0.471378 0.011741 0.804590
O O16 0.000000 0.012879 0.500000
#
# Coordination Sequence:
#
# PCOD8050514 Si02
#       8
#     4   4   2   4   4   4   4   4
#     4  11  22  39  67  99 127 170 220 278 339 383
#     4  11  20  39  67 101 126 156 225 288 329 385
#     4  10  22  40  64 102 132 168 220 286 338 392
#     4  12  25  44  61  94 142 178 220 269 336 415
#     4  11  24  40  66  98 131 175 219 273 339 394
#     4  11  23  38  68 100 131 170 222 283 334 385
#     4  11  24  41  65  98 135 172 224 276 339 397
#     4  12  19  38  72 101 129 164 223 294 335 380
#
# _framework density 20.835255
#
# number of rings (size 3 to 8) (size 9 to 14) (size 15 to 20)
#    0.000    0.800    8.000    2.400    0.000    1.067 
#    4.800    0.667    8.800    0.000    0.000    0.000 
#    0.000    0.000    0.000    0.000    0.000    0.000 
#
# Total GULP energy -185911.249687 kJ/mol
# GULP energy per Si atom -12394.083312 kJ/mol
# Density = 2.078783 g / cm^3
# Si number density = 20.835255 Si / 1000 Ang^3
#
#
#
# Elastic Constant Matrix: (Units=GPa)
#
#
# Indices 1 2 3 4 5 6 
#
# 1 117.0884 34.8369 34.7773 0.0472 -32.6805 0.0680
# 2 34.8369 77.8336 44.3163 0.0574 -16.9840 0.0837
# 3 34.7773 44.3163 91.1730 0.2886 -28.9142 0.4091
# 4 0.0472 0.0574 0.2886 -36.2723 0.1245 -88.9993
# 5 -32.6805 -16.9840 -28.9142 0.1245 40.4092 0.1737
# 6 0.0680 0.0837 0.4091 -88.9993 0.1737 -100.3702
#
#
#
# Elastic Compliance Matrix: (Units=1/GPa)
#
#
# Indices 1 2 3 4 5 6 
#
# 1 0.011862 -0.003367 -0.000381 0.000007 0.007905 0.000011
# 2 -0.003367 0.018807 -0.008038 -0.000008 -0.000570 -0.000013
# 3 -0.000381 -0.008038 0.017917 0.000034 0.009133 0.000052
# 4 0.000007 -0.000008 0.000034 0.023450 0.000044 -0.020793
# 5 0.007905 -0.000570 0.009133 0.000044 0.037435 0.000068
# 6 0.000011 -0.000013 0.000052 -0.020793 0.000068 0.008475
#
#
# Mechanical properties :
#
#
# Convention : Reuss Voigt Hill
#
# Bulk Modulus (GPa) = 39.97814 57.10623 48.54218
# Shear Modulus (GPa) = 33.36541 -7.76903 12.79819
#
# Velocity S-wave (km/s) = 4.00608 -1.93310 2.48111
# Velocity P-wave (km/s) = 6.37398 4.74188 5.61752
#
# Compressibility (1/GPa) = 0.02501367
#
# Stress axis : x y z
#
# Youngs Moduli (GPa) = 84.30264 53.17090 55.81438
#
# Poissons Ratio (x) = 0.17904 0.02126
# Poissons Ratio (y) = 0.28388 0.44863
# Poissons Ratio (z) = 0.03211 0.42738
#
# Static dielectric constant tensor:
#      x y z
#    x 6.018540 0.000310 5.335230 
#    y 0.000310 3.586750 0.000810 
#    z 5.335230 0.000810 19.893740 
# 
# 
# High freq. dielectric constant tensor:
#      x y z
#    x 1.820740 0.000000 -0.023020 
#    y 0.000000 1.776830 0.000000 
#    z -0.023020 0.000000 1.823160 
# 
# From -- ./inp_files/53422.got.cif
#   From: 2010.03.12/outbox.cif.g09.slc.cpg/sg5_27_cif.got.tgz:53422.got - 2010.03.31 09:47:26.
