data_PCOD8050986
_publ_section_title
;
Structure prediction by ZEFSAII (Michael W. Deem and Ramdas Pophale) SiO2 
 PCOD8050986
Probable space group: C 2
;
_chemical_formula_sum "Si O2"
_cell_formula_units_Z 28
_cell_length_a 21.201446
_cell_length_b 4.883904
_cell_length_c 12.564140
_cell_angle_alpha 90.000000
_cell_angle_beta 117.803316
_cell_angle_gamma 90.000000
_cell_volume 1150.773121
_symmetry_space_group_name_H-M "C 2"
_symmetry_group_IT_number 5
_symmetry_cell_setting 'monoclinic'
loop_
_space_group_symop_operation_xyz
x,y,z
-x,y,-z
1/2+x,1/2+y,z
1/2-x,1/2+y,-z
loop_
_atom_site_type_symbol
_atom_site_label
_atom_site_fract_x
_atom_site_fract_y
_atom_site_fract_z
Si Si1 0.936618 0.944650 0.023573
Si Si2 0.426981 0.965306 0.155666
Si Si3 0.844452 0.135487 0.372538
Si Si4 0.773255 0.702011 0.077509
Si Si5 0.205721 0.113538 0.448459
Si Si6 0.794367 0.953986 0.784352
Si Si7 0.066916 0.642405 0.619321
O O1 0.962091 0.659871 0.094838
O O2 0.924606 0.158911 0.109675
O O3 0.865145 0.865435 0.903006
O O4 0.000000 0.057237 0.000000
O O5 0.348600 0.057720 0.128022
O O6 0.467057 0.012127 0.299165
O O7 0.847685 0.025244 0.497954
O O8 0.761922 0.203417 0.274385
O O9 0.890758 0.408061 0.408526
O O10 0.878633 0.902526 0.322447
O O11 0.744277 0.690902 0.176211
O O12 0.777058 0.012271 0.038462
O O13 0.222864 0.432247 0.481235
O O14 0.177202 0.072398 0.306086
O O15 0.000000 0.751043 0.500000
#
# Coordination Sequence:
#
# PCOD8050986 Si02
#       7
#     4   4   4   4   4   4   4
#     4  12  28  47  69 102 143 188 232 284 354 424
#     4  12  25  46  69 101 140 182 235 287 348 421
#     4  11  24  44  70 103 139 182 240 293 346 419
#     4  12  23  39  69 108 135 174 232 290 349 411
#     4  10  23  40  62 100 137 175 230 287 344 405
#     4  11  24  43  72 102 138 184 233 291 350 406
#     4  12  27  45  72 104 141 188 234 293 357 415
#
# _framework density 24.331471000000001
#
# number of rings (size 3 to 8) (size 9 to 14) (size 15 to 20)
#    0.000    0.571    4.286    3.429    2.000    6.857 
#    0.000    0.000    0.000    0.000    0.000    0.000 
#    0.000    0.000    0.000    0.000    0.000    0.000 
#
# Total GULP energy -173531.017804 kJ/mol
# GULP energy per Si atom -12395.072700 kJ/mol
# Density = 2.427609 g / cm^3
# Si number density = 24.331471 Si / 1000 Ang^3
#
#
#
# Elastic Constant Matrix: (Units=GPa)
#
#
# Indices 1 2 3 4 5 6 
#
# 1 91.6636 18.2986 36.9310 0.0000 -5.2638 0.0000
# 2 18.2986 98.8166 27.5931 0.0000 -0.2164 -0.0001
# 3 36.9310 27.5931 147.0364 0.0000 -19.9103 0.0000
# 4 0.0000 0.0000 0.0000 21.7324 0.0000 -9.8026
# 5 -5.2638 -0.2164 -19.9103 0.0000 47.7743 0.0000
# 6 0.0000 -0.0001 0.0000 -9.8026 0.0000 35.5125
#
#
#
# Elastic Compliance Matrix: (Units=1/GPa)
#
#
# Indices 1 2 3 4 5 6 
#
# 1 0.012346 -0.001506 -0.002793 0.000000 0.000190 0.000000
# 2 -0.001506 0.010895 -0.001783 0.000000 -0.000860 0.000000
# 3 -0.002793 -0.001783 0.008260 0.000000 0.003127 0.000000
# 4 0.000000 0.000000 0.000000 0.052558 0.000000 0.014508
# 5 0.000190 -0.000860 0.003127 0.000000 0.022252 0.000000
# 6 0.000000 0.000000 0.000000 0.014508 0.000000 0.032164
#
#
# Mechanical properties :
#
#
# Convention : Reuss Voigt Hill
#
# Bulk Modulus (GPa) = 51.71032 55.90689 53.80860
# Shear Modulus (GPa) = 31.83025 37.98344 34.90684
#
# Velocity S-wave (km/s) = 3.62082 3.95534 3.79177
# Velocity P-wave (km/s) = 6.22728 6.62470 6.42906
#
# Compressibility (1/GPa) = 0.01933850
#
# Stress axis : x y z
#
# Youngs Moduli (GPa) = 80.99691 91.78923 121.05953
#
# Poissons Ratio (x) = 0.13823 0.33808
# Poissons Ratio (y) = 0.12198 0.21580
# Poissons Ratio (z) = 0.22620 0.16362
#
# Static dielectric constant tensor:
#      x y z
#    x 4.317050 0.000000 -0.407520 
#    y 0.000000 4.498810 0.000000 
#    z -0.407520 0.000000 4.925070 
# 
# 
# High freq. dielectric constant tensor:
#      x y z
#    x 1.948500 0.000000 -0.027380 
#    y 0.000000 1.967980 0.000000 
#    z -0.027380 0.000000 1.974210 
# 
# From -- ./inp_files/45717.got.cif
#   From: 2010.03.12/outbox.cif.g09.slc.cpg/sg5_23_cif.got.tgz:45717.got - 2010.03.31 09:47:26.
