data_PCOD8050175
_publ_section_title
;
Structure prediction by ZEFSAII (Michael W. Deem and Ramdas Pophale) SiO2 
 PCOD8050175
Probable space group: C 2
;
_chemical_formula_sum "Si O2"
_cell_formula_units_Z 24
_cell_length_a 10.458428
_cell_length_b 21.129933
_cell_length_c 8.308658
_cell_angle_alpha 90.000000
_cell_angle_beta 42.398573
_cell_angle_gamma 90.000000
_cell_volume 1238.050231
_symmetry_space_group_name_H-M "C 2"
_symmetry_group_IT_number 5
_symmetry_cell_setting 'monoclinic'
loop_
_space_group_symop_operation_xyz
x,y,z
-x,y,-z
1/2+x,1/2+y,z
1/2-x,1/2+y,-z
loop_
_atom_site_type_symbol
_atom_site_label
_atom_site_fract_x
_atom_site_fract_y
_atom_site_fract_z
Si Si1 0.290352 0.783310 0.753039
Si Si2 0.892006 0.600866 0.763746
Si Si3 0.500000 0.571173 0.500000
Si Si4 0.267230 0.162405 0.371796
Si Si5 0.000000 0.891826 0.000000
Si Si6 0.420355 0.704186 0.912786
Si Si7 0.923722 0.012382 0.901107
O O1 0.500000 0.795335 0.500000
O O2 0.180881 0.730435 0.749690
O O3 0.307517 0.758654 0.920303
O O4 0.184500 0.848523 0.819350
O O5 0.000000 0.586264 0.500000
O O6 0.042849 0.629592 0.746369
O O7 0.723787 0.650450 0.895892
O O8 0.797047 0.534153 0.909736
O O9 0.684637 0.616710 0.307337
O O10 0.530478 0.531496 0.636227
O O11 0.095254 0.170527 0.658183
O O12 0.960488 0.936671 0.881099
O O13 0.500000 0.737427 0.000000
O O14 0.000000 0.043617 0.000000
#
# Coordination Sequence:
#
# PCOD8050175 Si02
#       7
#     4   4   2   4   2   4   4
#     4  10  21  41  66  90 122 174 215 262 332 384
#     4  12  21  33  63  98 130 170 209 257 344 395
#     4  12  20  44  66  96 136 164 208 280 338 376
#     4  11  21  36  65  97 129 162 205 277 336 393
#     4  10  24  46  62  82 130 178 230 258 310 388
#     4  11  20  37  58  98 136 156 205 279 332 380
#     4  10  24  42  62  91 131 177 217 270 313 379
#
# _framework density 19.385318999999999
#
# number of rings (size 3 to 8) (size 9 to 14) (size 15 to 20)
#    0.500    0.667    5.833    2.500    0.000    2.667 
#    0.000    3.333    0.000    0.000    0.000    0.000 
#    0.000    0.000    0.000    0.000    0.000    0.000 
#
# Total GULP energy -148666.583735 kJ/mol
# GULP energy per Si atom -12388.881978 kJ/mol
# Density = 1.934120 g / cm^3
# Si number density = 19.385319 Si / 1000 Ang^3
#
#
#
# Elastic Constant Matrix: (Units=GPa)
#
#
# Indices 1 2 3 4 5 6 
#
# 1 126.5467 60.6261 30.9120 0.0000 -1.9051 0.0000
# 2 60.6261 136.8317 35.0166 0.0000 -4.0019 0.0000
# 3 30.9120 35.0166 67.2517 0.0000 1.1731 0.0000
# 4 0.0000 0.0000 0.0000 23.9206 0.0000 -9.1963
# 5 -1.9051 -4.0019 1.1731 0.0000 33.2273 0.0000
# 6 0.0000 0.0000 0.0000 -9.1963 0.0000 40.1764
#
#
#
# Elastic Compliance Matrix: (Units=1/GPa)
#
#
# Indices 1 2 3 4 5 6 
#
# 1 0.010460 -0.003919 -0.002771 0.000000 0.000226 0.000000
# 2 -0.003919 0.009946 -0.003396 0.000000 0.001093 0.000000
# 3 -0.002771 -0.003396 0.017933 0.000000 -0.001201 0.000000
# 4 0.000000 0.000000 0.000000 0.045839 0.000000 0.010492
# 5 0.000226 0.001093 -0.001201 0.000000 0.030283 0.000000
# 6 0.000000 0.000000 0.000000 0.010492 0.000000 0.027292
#
#
# Mechanical properties :
#
#
# Convention : Reuss Voigt Hill
#
# Bulk Modulus (GPa) = 55.04963 64.85994 59.95478
# Shear Modulus (GPa) = 29.76547 33.06988 31.41767
#
# Velocity S-wave (km/s) = 3.92275 4.13476 4.03015
# Velocity P-wave (km/s) = 6.99832 7.50506 7.25612
#
# Compressibility (1/GPa) = 0.01816543
#
# Stress axis : x y z
#
# Youngs Moduli (GPa) = 95.60264 100.54666 55.76381
#
# Poissons Ratio (x) = 0.39401 0.15455
# Poissons Ratio (y) = 0.37463 0.18939
# Poissons Ratio (z) = 0.26496 0.34149
#
# Static dielectric constant tensor:
#      x y z
#    x 4.005000 0.000000 -0.163470 
#    y 0.000000 3.361960 0.000000 
#    z -0.163470 0.000000 3.613520 
# 
# 
# High freq. dielectric constant tensor:
#      x y z
#    x 1.766460 0.000000 -0.004330 
#    y 0.000000 1.725710 0.000000 
#    z -0.004330 0.000000 1.755260 
# 
# From -- ./inp_files/21718.got.cif
#   From: 2010.03.12/outbox.cif.g09.slc.cpg/sg5_11_cif.got.tgz:21718.got - 2010.03.31 09:47:26.
