data_PCOD8050417
_publ_section_title
;
Structure prediction by ZEFSAII (Michael W. Deem and Ramdas Pophale) SiO2 
 PCOD8050417
Probable space group: C 2
;
_chemical_formula_sum "Si O2"
_cell_formula_units_Z 26
_cell_length_a 5.083081
_cell_length_b 13.191683
_cell_length_c 19.588663
_cell_angle_alpha 90.000000
_cell_angle_beta 67.514250
_cell_angle_gamma 90.000000
_cell_volume 1213.646205
_symmetry_space_group_name_H-M "C 2"
_symmetry_group_IT_number 5
_symmetry_cell_setting 'monoclinic'
loop_
_space_group_symop_operation_xyz
x,y,z
-x,y,-z
1/2+x,1/2+y,z
1/2-x,1/2+y,-z
loop_
_atom_site_type_symbol
_atom_site_label
_atom_site_fract_x
_atom_site_fract_y
_atom_site_fract_z
Si Si1 0.408982 0.331500 0.645946
Si Si2 0.990325 0.493296 0.920203
Si Si3 0.500000 0.367426 0.000000
Si Si4 0.169563 0.013753 0.549726
Si Si5 0.174208 0.319418 0.815531
Si Si6 0.052118 0.727422 0.881529
Si Si7 0.987110 0.239105 0.580540
O O1 0.580939 0.436106 0.617819
O O2 0.214603 0.340643 0.731849
O O3 0.654434 0.247202 0.634187
O O4 0.200324 0.308415 0.603297
O O5 0.205915 0.425833 0.853588
O O6 0.020488 0.608773 0.897779
O O7 0.687047 0.442200 0.933929
O O8 0.000000 0.474669 0.000000
O O9 0.365635 0.289845 0.956662
O O10 0.500000 0.008608 0.500000
O O11 0.000000 0.981859 0.500000
O O12 0.085409 0.124940 0.583250
O O13 0.427430 0.248380 0.818855
O O14 0.880665 0.259196 0.856112
O O15 0.000000 0.273320 0.500000
#
# Coordination Sequence:
#
# PCOD8050417 Si02
#       7
#     4   4   2   4   4   4   4
#     4  12  24  42  66  92 137 176 205 264 326 381
#     4  11  23  41  69  92 125 169 217 276 325 370
#     4  10  22  38  66  96 120 154 218 272 320 382
#     4  11  23  40  67 100 124 163 219 265 307 374
#     4  11  27  43  61  98 133 168 218 260 321 399
#     4  11  24  42  65  92 127 164 215 266 328 377
#     4  11  23  42  68  98 129 169 220 264 311 377
#
# _framework density 21.423045999999999
#
# number of rings (size 3 to 8) (size 9 to 14) (size 15 to 20)
#    0.000    0.923    2.308    5.538    2.154    2.462 
#    0.000    0.000    0.000    0.000    0.000    0.000 
#    0.000    0.000    0.000    0.000    0.000    0.000 
#
# Total GULP energy -161122.817897 kJ/mol
# GULP energy per Si atom -12394.062915 kJ/mol
# Density = 2.137429 g / cm^3
# Si number density = 21.423046 Si / 1000 Ang^3
#
#
#
# Elastic Constant Matrix: (Units=GPa)
#
#
# Indices 1 2 3 4 5 6 
#
# 1 123.0309 49.8394 34.7709 0.0000 6.2579 0.0000
# 2 49.8394 162.1930 77.5608 0.0000 2.8115 0.0000
# 3 34.7709 77.5608 125.5150 0.0000 6.4868 0.0000
# 4 0.0000 0.0000 0.0000 23.4653 0.0000 -4.2349
# 5 6.2579 2.8115 6.4868 0.0000 30.4770 0.0000
# 6 0.0000 0.0000 0.0000 -4.2349 0.0000 30.3168
#
#
#
# Elastic Compliance Matrix: (Units=1/GPa)
#
#
# Indices 1 2 3 4 5 6 
#
# 1 0.009469 -0.002365 -0.001084 0.000000 -0.001495 0.000000
# 2 -0.002365 0.009346 -0.005157 0.000000 0.000721 0.000000
# 3 -0.001084 -0.005157 0.011545 0.000000 -0.001759 0.000000
# 4 0.000000 0.000000 0.000000 0.043718 0.000000 0.006107
# 5 -0.001495 0.000721 -0.001759 0.000000 0.033427 0.000000
# 6 0.000000 0.000000 0.000000 0.006107 0.000000 0.033838
#
#
# Mechanical properties :
#
#
# Convention : Reuss Voigt Hill
#
# Bulk Modulus (GPa) = 76.06571 81.67567 78.87069
# Shear Modulus (GPa) = 30.68641 33.42300 32.05470
#
# Velocity S-wave (km/s) = 3.78881 3.95415 3.87236
# Velocity P-wave (km/s) = 7.39755 7.68472 7.54250
#
# Compressibility (1/GPa) = 0.01314653
#
# Stress axis : x y z
#
# Youngs Moduli (GPa) = 105.61182 106.99753 86.61472
#
# Poissons Ratio (x) = 0.25307 0.09391
# Poissons Ratio (y) = 0.24979 0.44670
# Poissons Ratio (z) = 0.11451 0.55182
#
# Static dielectric constant tensor:
#      x y z
#    x 3.919810 0.000000 -0.013050 
#    y 0.000000 3.859810 0.000000 
#    z -0.013050 0.000000 3.825030 
# 
# 
# High freq. dielectric constant tensor:
#      x y z
#    x 1.847000 0.000000 0.002110 
#    y 0.000000 1.850110 0.000000 
#    z 0.002110 0.000000 1.831800 
# 
# From -- ./inp_files/63989.got.cif
#   From: 2010.03.12/outbox.cif.g09.slc.cpg/sg5_32_cif.got.tgz:63989.got - 2010.03.31 09:47:26.
