data_PCOD8050394
_publ_section_title
;
Structure prediction by ZEFSAII (Michael W. Deem and Ramdas Pophale) SiO2 
 PCOD8050394
Probable space group: C 2
;
_chemical_formula_sum "Si O2"
_cell_formula_units_Z 28
_cell_length_a 11.827876
_cell_length_b 8.575726
_cell_length_c 17.869300
_cell_angle_alpha 90.000000
_cell_angle_beta 48.988745
_cell_angle_gamma 90.000000
_cell_volume 1367.700128
_symmetry_space_group_name_H-M "C 2"
_symmetry_group_IT_number 5
_symmetry_cell_setting 'monoclinic'
loop_
_space_group_symop_operation_xyz
x,y,z
-x,y,-z
1/2+x,1/2+y,z
1/2-x,1/2+y,-z
loop_
_atom_site_type_symbol
_atom_site_label
_atom_site_fract_x
_atom_site_fract_y
_atom_site_fract_z
Si Si1 0.102326 0.273100 0.888802
Si Si2 0.172676 0.280124 0.590746
Si Si3 0.207137 0.927642 0.609539
Si Si4 0.829643 0.280301 0.700200
Si Si5 0.552147 0.417630 0.895521
Si Si6 0.646382 0.996807 0.735907
Si Si7 0.562088 0.276007 0.199664
O O1 0.081149 0.385621 0.828081
O O2 0.272762 0.265174 0.841053
O O3 0.044551 0.103440 0.889660
O O4 0.000000 0.339646 0.000000
O O5 0.257019 0.330206 0.479681
O O6 0.216369 0.396623 0.638293
O O7 0.995204 0.284191 0.658875
O O8 0.231494 0.109693 0.585883
O O9 0.318844 0.874955 0.627108
O O10 0.035646 0.892908 0.706763
O O11 0.720910 0.358011 0.808861
O O12 0.781735 0.101325 0.708580
O O13 0.438980 0.340513 0.884820
O O14 0.500000 0.363741 0.000000
O O15 0.510931 0.104456 0.765433
#
# Coordination Sequence:
#
# PCOD8050394 Si02
#       7
#     4   4   4   4   4   4   4
#     4  11  23  38  59  87 116 151 193 233 285 342
#     4  12  22  39  62  84 117 151 188 239 284 334
#     4  10  22  39  60  86 114 152 191 230 289 342
#     4  10  22  40  60  84 117 151 191 236 281 339
#     4   9  20  39  60  85 116 153 192 232 285 338
#     4  10  22  38  60  88 113 150 195 232 283 340
#     4  10  22  41  58  82 121 150 187 242 281 333
#
# _framework density 20.472321999999998
#
# number of rings (size 3 to 8) (size 9 to 14) (size 15 to 20)
#    0.000    2.000    0.000    5.571    0.000    5.714 
#    0.000    6.429    0.000    0.000    0.000    0.000 
#    0.000    0.000    0.000    0.000    0.000    0.000 
#
# Total GULP energy -173653.450680 kJ/mol
# GULP energy per Si atom -12403.817906 kJ/mol
# Density = 2.042573 g / cm^3
# Si number density = 20.472322 Si / 1000 Ang^3
#
#
#
# Elastic Constant Matrix: (Units=GPa)
#
#
# Indices 1 2 3 4 5 6 
#
# 1 25.3312 -1.0061 1.8943 0.0000 -1.5718 0.0000
# 2 -1.0061 116.1156 48.9389 0.0000 17.8156 0.0000
# 3 1.8943 48.9389 143.9210 0.0000 23.0071 0.0000
# 4 0.0000 0.0000 0.0000 42.2955 0.0000 6.6656
# 5 -1.5718 17.8156 23.0071 0.0000 22.1151 0.0000
# 6 0.0000 0.0000 0.0000 6.6656 0.0000 18.7999
#
#
#
# Elastic Compliance Matrix: (Units=1/GPa)
#
#
# Indices 1 2 3 4 5 6 
#
# 1 0.039823 0.000269 -0.001239 0.000000 0.003903 0.000000
# 2 0.000269 0.010633 -0.002702 0.000000 -0.005736 0.000000
# 3 -0.001239 -0.002702 0.009056 0.000000 -0.007332 0.000000
# 4 0.000000 0.000000 0.000000 0.025042 0.000000 -0.008879
# 5 0.003903 -0.005736 -0.007332 0.000000 0.057743 0.000000
# 6 0.000000 0.000000 0.000000 -0.008879 0.000000 0.056340
#
#
# Mechanical properties :
#
#
# Convention : Reuss Voigt Hill
#
# Bulk Modulus (GPa) = 19.16998 42.78021 30.97509
# Shear Modulus (GPa) = 22.38414 32.34482 27.36448
#
# Velocity S-wave (km/s) = 3.31023 3.97914 3.66000
# Velocity P-wave (km/s) = 4.89840 6.48486 5.74664
#
# Compressibility (1/GPa) = 0.05216490
#
# Stress axis : x y z
#
# Youngs Moduli (GPa) = 25.11139 94.04303 110.42914
#
# Poissons Ratio (x) = -0.02526 0.13687
# Poissons Ratio (y) = -0.00674 0.29843
# Poissons Ratio (z) = 0.03112 0.25415
#
# Static dielectric constant tensor:
#      x y z
#    x 3.465710 0.000000 0.083750 
#    y 0.000000 3.868800 0.000000 
#    z 0.083750 0.000000 3.862820 
# 
# 
# High freq. dielectric constant tensor:
#      x y z
#    x 1.786480 0.000000 0.008000 
#    y 0.000000 1.815140 0.000000 
#    z 0.008000 0.000000 1.812750 
# 
# From -- ./inp_files/52367.got.cif
#   From: 2010.03.12/outbox.cif.g09.slc.cpg/sg5_27_cif.got.tgz:52367.got - 2010.03.31 09:47:26.
