data_PCOD8050817
_publ_section_title
;
Structure prediction by ZEFSAII (Michael W. Deem and Ramdas Pophale) SiO2 
 PCOD8050817
Probable space group: C 2
;
_chemical_formula_sum "Si O2"
_cell_formula_units_Z 30
_cell_length_a 11.784441
_cell_length_b 8.271460
_cell_length_c 21.085928
_cell_angle_alpha 90.000000
_cell_angle_beta 137.993659
_cell_angle_gamma 90.000000
_cell_volume 1375.460583
_symmetry_space_group_name_H-M "C 2"
_symmetry_group_IT_number 5
_symmetry_cell_setting 'monoclinic'
loop_
_space_group_symop_operation_xyz
x,y,z
-x,y,-z
1/2+x,1/2+y,z
1/2-x,1/2+y,-z
loop_
_atom_site_type_symbol
_atom_site_label
_atom_site_fract_x
_atom_site_fract_y
_atom_site_fract_z
Si Si1 0.090146 0.289080 0.971980
Si Si2 0.719901 0.270514 0.279996
Si Si3 0.999409 0.772351 0.690273
Si Si4 0.376159 0.279988 0.507111
Si Si5 0.000000 0.834538 0.000000
Si Si6 0.447722 0.586780 0.606832
Si Si7 0.082363 0.631772 0.917748
Si Si8 0.184908 0.054319 0.171466
O O1 0.119333 0.444403 0.941171
O O2 0.979784 0.164627 0.884096
O O3 0.270559 0.209219 0.064725
O O4 0.000000 0.335683 0.000000
O O5 0.655548 0.268000 0.325090
O O6 0.601108 0.153329 0.189397
O O7 0.718672 0.448990 0.248448
O O8 0.909959 0.204272 0.361803
O O9 0.945477 0.694995 0.600169
O O10 0.158654 0.670978 0.781326
O O11 0.035899 0.964952 0.694664
O O12 0.500000 0.242201 0.500000
O O13 0.366258 0.474398 0.516650
O O14 0.192952 0.199974 0.417495
O O15 0.097213 0.721757 0.991046
O O16 0.855550 0.943402 0.906388
#
# Coordination Sequence:
#
# PCOD8050817 Si02
#       8
#     4   4   4   4   2   4   4   4
#     4  12  24  43  68  94 136 184 236 289 336 402
#     4  11  25  43  66  99 141 171 233 281 340 409
#     4  10  26  42  70 101 137 180 225 279 345 405
#     4  10  26  45  73 101 137 170 227 270 352 418
#     4  10  22  44  64 102 130 192 240 284 340 398
#     4  10  26  44  71 102 134 177 220 281 346 414
#     4  11  24  43  67  98 136 186 237 290 339 395
#     4  11  24  43  66 100 142 184 233 285 339 400
#
# _framework density 21.810874999999999
#
# number of rings (size 3 to 8) (size 9 to 14) (size 15 to 20)
#    0.800    0.533    1.333    3.200    7.467    0.000 
#    4.800    0.000    0.000    0.000    0.000    0.000 
#    0.000    0.000    0.000    0.000    0.000    0.000 
#
# Total GULP energy -185934.084998 kJ/mol
# GULP energy per Si atom -12395.605667 kJ/mol
# Density = 2.176123 g / cm^3
# Si number density = 21.810875 Si / 1000 Ang^3
#
#
#
# Elastic Constant Matrix: (Units=GPa)
#
#
# Indices 1 2 3 4 5 6 
#
# 1 150.5736 41.4070 46.4338 0.0000 6.0498 0.0000
# 2 41.4070 123.7427 44.7340 0.0000 8.3917 0.0000
# 3 46.4338 44.7340 76.8866 0.0000 9.3805 0.0000
# 4 0.0000 0.0000 0.0000 29.1176 0.0000 13.9178
# 5 6.0498 8.3917 9.3805 0.0000 41.9501 0.0000
# 6 0.0000 0.0000 0.0000 13.9178 0.0000 27.8146
#
#
#
# Elastic Compliance Matrix: (Units=1/GPa)
#
#
# Indices 1 2 3 4 5 6 
#
# 1 0.008305 -0.001223 -0.004305 0.000000 0.000010 0.000000
# 2 -0.001223 0.010436 -0.005243 0.000000 -0.000739 0.000000
# 3 -0.004305 -0.005243 0.018970 0.000000 -0.002572 0.000000
# 4 0.000000 0.000000 0.000000 0.045140 0.000000 -0.022587
# 5 0.000010 -0.000739 -0.002572 0.000000 0.024559 0.000000
# 6 0.000000 0.000000 0.000000 -0.022587 0.000000 0.047254
#
#
# Mechanical properties :
#
#
# Convention : Reuss Voigt Hill
#
# Bulk Modulus (GPa) = 61.84758 68.48361 65.16560
# Shear Modulus (GPa) = 27.53352 34.35166 30.94259
#
# Velocity S-wave (km/s) = 3.55685 3.97291 3.77062
# Velocity P-wave (km/s) = 6.72949 7.24654 6.99280
#
# Compressibility (1/GPa) = 0.01616878
#
# Stress axis : x y z
#
# Youngs Moduli (GPa) = 120.41159 95.82089 52.71401
#
# Poissons Ratio (x) = 0.11723 0.22693
# Poissons Ratio (y) = 0.14731 0.27638
# Poissons Ratio (z) = 0.51836 0.50239
#
# Static dielectric constant tensor:
#      x y z
#    x 3.892610 0.000000 0.032730 
#    y 0.000000 3.973000 0.000000 
#    z 0.032730 0.000000 3.703110 
# 
# 
# High freq. dielectric constant tensor:
#      x y z
#    x 1.860630 0.000000 0.006170 
#    y 0.000000 1.862860 0.000000 
#    z 0.006170 0.000000 1.840840 
# 
# From -- ./inp_files/68283.got.cif
#   From: 2010.03.12/outbox.cif.g09.slc.cpg/sg5_35_cif.got.tgz:68283.got - 2010.03.31 09:47:26.
