data_PCOD8050275
_publ_section_title
;
Structure prediction by ZEFSAII (Michael W. Deem and Ramdas Pophale) SiO2 
 PCOD8050275
Probable space group: C 2
;
_chemical_formula_sum "Si O2"
_cell_formula_units_Z 26
_cell_length_a 26.929603
_cell_length_b 5.192980
_cell_length_c 14.169773
_cell_angle_alpha 90.000000
_cell_angle_beta 36.546792
_cell_angle_gamma 90.000000
_cell_volume 1179.983681
_symmetry_space_group_name_H-M "C 2"
_symmetry_group_IT_number 5
_symmetry_cell_setting 'monoclinic'
loop_
_space_group_symop_operation_xyz
x,y,z
-x,y,-z
1/2+x,1/2+y,z
1/2-x,1/2+y,-z
loop_
_atom_site_type_symbol
_atom_site_label
_atom_site_fract_x
_atom_site_fract_y
_atom_site_fract_z
Si Si1 0.846560 0.476700 0.234911
Si Si2 0.283122 0.420733 0.832387
Si Si3 0.597862 0.982020 0.647618
Si Si4 0.176868 0.917217 0.021140
Si Si5 0.338903 0.461970 0.545604
Si Si6 0.500000 0.604882 0.000000
Si Si7 0.052717 0.754394 0.067064
O O1 0.844536 0.542959 0.349106
O O2 0.754524 0.396128 0.345041
O O3 0.874297 0.704857 0.121678
O O4 0.914318 0.255062 0.117530
O O5 0.214257 0.640744 0.939368
O O6 0.343126 0.475893 0.652698
O O7 0.235975 0.147172 0.894620
O O8 0.338406 0.437030 0.843160
O O9 0.604908 0.219766 0.565793
O O10 0.498823 0.991809 0.827566
O O11 0.624153 0.720155 0.556514
O O12 0.088695 0.911830 0.101663
O O13 0.514548 0.435027 0.883465
#
# Coordination Sequence:
#
# PCOD8050275 Si02
#       7
#     4   4   4   4   4   2   4
#     4  12  24  42  65  95 131 182 229 269 328 403
#     4  10  21  43  67 103 130 171 229 295 327 405
#     4  12  26  42  60 101 139 175 214 278 337 413
#     4  10  22  40  73 100 129 169 239 284 338 386
#     4  12  26  42  67  94 139 175 219 271 352 399
#     4  12  22  40  70  96 142 166 240 282 324 394
#     4  12  24  41  69  99 133 182 228 283 333 399
#
# _framework density 22.034200999999999
#
# number of rings (size 3 to 8) (size 9 to 14) (size 15 to 20)
#    0.000    0.615    4.615    3.692    2.154    0.000 
#    0.000    0.769    0.000    3.692    0.000    0.000 
#    0.000    0.000    0.000    0.000    0.000    0.000 
#
# Total GULP energy -161154.958475 kJ/mol
# GULP energy per Si atom -12396.535267 kJ/mol
# Density = 2.198405 g / cm^3
# Si number density = 22.034201 Si / 1000 Ang^3
#
#
#
# Elastic Constant Matrix: (Units=GPa)
#
#
# Indices 1 2 3 4 5 6 
#
# 1 139.3707 40.2373 44.8700 0.0209 24.1793 0.0160
# 2 40.2373 113.2818 36.7289 0.0824 5.6418 -0.0013
# 3 44.8700 36.7289 91.8105 -0.0526 26.2408 0.0336
# 4 0.0209 0.0824 -0.0526 28.2056 0.0368 -0.3740
# 5 24.1793 5.6418 26.2408 0.0368 40.6407 -0.0084
# 6 0.0160 -0.0013 0.0336 -0.3740 -0.0084 25.5648
#
#
#
# Elastic Compliance Matrix: (Units=1/GPa)
#
#
# Indices 1 2 3 4 5 6 
#
# 1 0.009286 -0.002272 -0.002625 -0.000001 -0.003514 -0.000004
# 2 -0.002272 0.010773 -0.003873 -0.000040 0.002357 0.000007
# 3 -0.002625 -0.003873 0.016094 0.000054 -0.008293 -0.000022
# 4 -0.000001 -0.000040 0.000054 0.035461 -0.000061 0.000519
# 5 -0.003514 0.002357 -0.008293 -0.000061 0.031724 0.000023
# 6 -0.000004 0.000007 -0.000022 0.000519 0.000023 0.039124
#
#
# Mechanical properties :
#
#
# Convention : Reuss Voigt Hill
#
# Bulk Modulus (GPa) = 53.72501 65.34838 59.53669
# Shear Modulus (GPa) = 30.08306 33.72401 31.90353
#
# Velocity S-wave (km/s) = 3.69899 3.91644 3.80927
# Velocity P-wave (km/s) = 6.53291 7.08332 6.81367
#
# Compressibility (1/GPa) = 0.01861331
#
# Stress axis : x y z
#
# Youngs Moduli (GPa) = 107.69050 92.82467 62.13379
#
# Poissons Ratio (x) = 0.21092 0.16308
# Poissons Ratio (y) = 0.24470 0.24064
# Poissons Ratio (z) = 0.28266 0.35950
#
# Static dielectric constant tensor:
#      x y z
#    x 4.233580 0.000040 0.398480 
#    y 0.000040 4.014620 0.000310 
#    z 0.398480 0.000310 4.037380 
# 
# 
# High freq. dielectric constant tensor:
#      x y z
#    x 1.864890 0.000000 0.021190 
#    y 0.000000 1.877050 0.000010 
#    z 0.021190 0.000010 1.856840 
# 
# From -- ./inp_files/58291.got.cif
#   From: 2010.03.12/outbox.cif.g09.slc.cpg/sg5_30_cif.got.tgz:58291.got - 2010.03.31 09:47:26.
