data_PCOD8050659
_publ_section_title
;
Structure prediction by ZEFSAII (Michael W. Deem and Ramdas Pophale) SiO2 
 PCOD8050659
Probable space group: C 2
;
_chemical_formula_sum "Si O2"
_cell_formula_units_Z 28
_cell_length_a 7.722534
_cell_length_b 11.950546
_cell_length_c 15.322372
_cell_angle_alpha 90.000000
_cell_angle_beta 77.741022
_cell_angle_gamma 90.000000
_cell_volume 1381.834656
_symmetry_space_group_name_H-M "C 2"
_symmetry_group_IT_number 5
_symmetry_cell_setting 'monoclinic'
loop_
_space_group_symop_operation_xyz
x,y,z
-x,y,-z
1/2+x,1/2+y,z
1/2-x,1/2+y,-z
loop_
_atom_site_type_symbol
_atom_site_label
_atom_site_fract_x
_atom_site_fract_y
_atom_site_fract_z
Si Si1 0.784608 0.694930 0.647236
Si Si2 0.000000 0.551016 0.500000
Si Si3 0.500000 0.009099 0.000000
Si Si4 0.302904 0.342437 0.990860
Si Si5 0.191393 0.932383 0.434866
Si Si6 0.555126 0.303655 0.207307
Si Si7 0.046723 0.040507 0.287257
Si Si8 0.209556 0.668154 0.865848
O O1 0.946353 0.630082 0.585590
O O2 0.741355 0.810433 0.602250
O O3 0.842348 0.721243 0.739128
O O4 0.616150 0.613816 0.662192
O O5 0.834564 0.475311 0.488721
O O6 0.663488 0.940126 0.021596
O O7 0.442286 0.082162 0.088899
O O8 0.231735 0.235953 0.053541
O O9 0.500000 0.379011 0.000000
O O10 0.308389 0.317757 0.887363
O O11 0.000000 0.922317 0.500000
O O12 0.179645 0.019132 0.354468
O O13 0.491549 0.418220 0.259213
O O14 0.370208 0.251329 0.197003
O O15 0.129920 0.104028 0.195813
#
# Coordination Sequence:
#
# PCOD8050659 Si02
#       8
#     4   2   2   4   4   4   4   4
#     4  11  25  42  68  99 132 174 217 273 333 388
#     4  12  24  44  72  98 124 186 210 262 348 384
#     4  12  22  42  66  90 132 176 216 274 324 378
#     4  10  23  42  63  99 132 175 229 270 319 392
#     4  11  24  45  68 100 137 163 225 271 318 411
#     4  10  22  42  61  95 136 165 227 272 313 398
#     4  11  24  42  67  99 133 172 215 278 327 380
#     4  11  23  43  64  97 133 173 223 272 322 385
#
# _framework density 20.262915
#
# number of rings (size 3 to 8) (size 9 to 14) (size 15 to 20)
#    0.000    1.143    5.714    0.857    2.000    4.571 
#    1.286    0.000    0.000    0.000    0.000    0.000 
#    0.000    0.000    0.000    0.000    0.000    0.000 
#
# Total GULP energy -173612.695466 kJ/mol
# GULP energy per Si atom -12400.906819 kJ/mol
# Density = 2.021680 g / cm^3
# Si number density = 20.262915 Si / 1000 Ang^3
#
#
#
# Elastic Constant Matrix: (Units=GPa)
#
#
# Indices 1 2 3 4 5 6 
#
# 1 94.6188 55.1036 46.0701 0.0000 -1.9969 0.0000
# 2 55.1036 119.2420 50.9588 0.0000 2.4081 0.0000
# 3 46.0701 50.9588 115.5318 0.0000 3.6692 0.0000
# 4 0.0000 0.0000 0.0000 36.0787 0.0000 -13.5582
# 5 -1.9969 2.4081 3.6692 0.0000 34.6471 0.0000
# 6 0.0000 0.0000 0.0000 -13.5582 0.0000 13.0742
#
#
#
# Elastic Compliance Matrix: (Units=1/GPa)
#
#
# Indices 1 2 3 4 5 6 
#
# 1 0.015788 -0.005689 -0.003841 0.000000 0.001712 0.000000
# 2 -0.005689 0.012386 -0.003168 0.000000 -0.000853 0.000000
# 3 -0.003841 -0.003168 0.011623 0.000000 -0.001232 0.000000
# 4 0.000000 0.000000 0.000000 0.045416 0.000000 0.047097
# 5 0.001712 -0.000853 -0.001232 0.000000 0.029151 0.000000
# 6 0.000000 0.000000 0.000000 0.047097 0.000000 0.125327
#
#
# Mechanical properties :
#
#
# Convention : Reuss Voigt Hill
#
# Bulk Modulus (GPa) = 69.43061 70.40639 69.91850
# Shear Modulus (GPa) = 18.52619 28.57736 23.55178
#
# Velocity S-wave (km/s) = 3.02700 3.75951 3.41296
# Velocity P-wave (km/s) = 6.82321 7.32578 7.07896
#
# Compressibility (1/GPa) = 0.01440287
#
# Stress axis : x y z
#
# Youngs Moduli (GPa) = 63.33855 80.73451 86.03268
#
# Poissons Ratio (x) = 0.45931 0.33043
# Poissons Ratio (y) = 0.36034 0.27252
# Poissons Ratio (z) = 0.24327 0.25573
#
# Static dielectric constant tensor:
#      x y z
#    x 3.481590 0.000000 -0.028890 
#    y 0.000000 3.857160 0.000000 
#    z -0.028890 0.000000 3.926990 
# 
# 
# High freq. dielectric constant tensor:
#      x y z
#    x 1.773270 0.000000 -0.001370 
#    y 0.000000 1.804120 0.000000 
#    z -0.001370 0.000000 1.808920 
# 
# From -- ./inp_files/50282.got.cif
#   From: 2010.03.12/outbox.cif.g09.slc.cpg/sg5_26_cif.got.tgz:50282.got - 2010.03.31 09:47:26.
