data_PCOD8050644
_publ_section_title
;
Structure prediction by ZEFSAII (Michael W. Deem and Ramdas Pophale) SiO2 
 PCOD8050644
Probable space group: C 2
;
_chemical_formula_sum "Si O2"
_cell_formula_units_Z 32
_cell_length_a 12.249616
_cell_length_b 14.273465
_cell_length_c 17.923437
_cell_angle_alpha 90.000000
_cell_angle_beta 29.805627
_cell_angle_gamma 90.000000
_cell_volume 1557.690902
_symmetry_space_group_name_H-M "C 2"
_symmetry_group_IT_number 5
_symmetry_cell_setting 'monoclinic'
loop_
_space_group_symop_operation_xyz
x,y,z
-x,y,-z
1/2+x,1/2+y,z
1/2-x,1/2+y,-z
loop_
_atom_site_type_symbol
_atom_site_label
_atom_site_fract_x
_atom_site_fract_y
_atom_site_fract_z
Si Si1 0.887699 0.358130 0.367937
Si Si2 0.841301 0.023925 0.411549
Si Si3 0.267075 0.796200 0.164082
Si Si4 0.654815 0.306202 0.838179
Si Si5 0.065110 0.694234 0.545070
Si Si6 0.431067 0.940965 0.183474
Si Si7 0.413831 0.413762 0.853816
Si Si8 0.344585 0.620689 0.660923
O O1 0.731617 0.437165 0.494817
O O2 0.766905 0.259489 0.450696
O O3 0.924867 0.374659 0.258764
O O4 0.119256 0.355015 0.271920
O O5 0.629924 0.086583 0.517514
O O6 0.019182 0.086149 0.348910
O O7 0.940432 0.991446 0.273951
O O8 0.298741 0.889341 0.195755
O O9 0.123518 0.824729 0.177742
O O10 0.146471 0.712983 0.278397
O O11 0.500000 0.754754 0.000000
O O12 0.536051 0.380026 0.855154
O O13 0.699468 0.209770 0.768820
O O14 0.500000 0.283933 0.000000
O O15 0.000000 0.718244 0.500000
O O16 0.319630 0.039440 0.268695
O O17 0.681120 0.960572 0.011955
O O18 0.500000 0.648681 0.500000
#
# Coordination Sequence:
#
# PCOD8050644 Si02
#       8
#     4   4   4   4   4   4   4   4
#     4  12  24  46  70  97 145 184 228 287 349 415
#     4  12  27  43  68 105 139 179 231 283 352 416
#     4  10  22  41  71 101 130 175 230 287 340 403
#     4  12  29  47  68  99 145 189 230 288 361 421
#     4  12  25  44  69 103 136 181 234 283 345 417
#     4  11  22  44  72 100 133 180 237 288 340 409
#     4  11  25  44  70  99 137 183 224 285 356 412
#     4  12  26  43  71 107 136 179 238 293 341 420
#
# _framework density 20.543229
#
# number of rings (size 3 to 8) (size 9 to 14) (size 15 to 20)
#    0.000    0.500    7.500    0.000    7.000    0.000 
#    0.000    1.875    0.000    0.000    0.000    0.000 
#    0.000    0.000    0.000    0.000    0.000    0.000 
#
# Total GULP energy -198524.085349 kJ/mol
# GULP energy per Si atom -12407.755334 kJ/mol
# Density = 2.049647 g / cm^3
# Si number density = 20.543229 Si / 1000 Ang^3
#
#
#
# Elastic Constant Matrix: (Units=GPa)
#
#
# Indices 1 2 3 4 5 6 
#
# 1 103.7380 21.2670 36.6601 -0.0078 -0.2672 -0.0014
# 2 21.2670 74.8551 40.6913 -0.0264 4.1554 0.0055
# 3 36.6601 40.6913 133.4030 -0.0519 17.3831 0.0058
# 4 -0.0078 -0.0264 -0.0519 26.9558 0.0155 -1.0759
# 5 -0.2672 4.1554 17.3831 0.0155 38.2719 0.0024
# 6 -0.0014 0.0055 0.0058 -1.0759 0.0024 26.3800
#
#
#
# Elastic Compliance Matrix: (Units=1/GPa)
#
#
# Indices 1 2 3 4 5 6 
#
# 1 0.010943 -0.001740 -0.002669 -0.000004 0.001478 0.000001
# 2 -0.001740 0.016301 -0.004530 0.000007 0.000275 -0.000002
# 3 -0.002669 -0.004530 0.010150 0.000017 -0.004137 0.000000
# 4 -0.000004 0.000007 0.000017 0.037158 -0.000023 0.001516
# 5 0.001478 0.000275 -0.004137 -0.000023 0.027988 -0.000003
# 6 0.000001 -0.000002 0.000000 0.001516 -0.000003 0.037969
#
#
# Mechanical properties :
#
#
# Convention : Reuss Voigt Hill
#
# Bulk Modulus (GPa) = 51.23924 56.58146 53.91035
# Shear Modulus (GPa) = 30.32250 32.54672 31.43461
#
# Velocity S-wave (km/s) = 3.84609 3.98465 3.91598
# Velocity P-wave (km/s) = 6.68726 6.98372 6.83710
#
# Compressibility (1/GPa) = 0.01951629
#
# Stress axis : x y z
#
# Youngs Moduli (GPa) = 91.37870 61.34712 98.51877
#
# Poissons Ratio (x) = 0.10676 0.26295
# Poissons Ratio (y) = 0.15902 0.44627
# Poissons Ratio (z) = 0.24390 0.27789
#
# Static dielectric constant tensor:
#      x y z
#    x 3.752990 0.000000 0.047410 
#    y 0.000000 3.538810 0.000010 
#    z 0.047410 0.000010 3.926780 
# 
# 
# High freq. dielectric constant tensor:
#      x y z
#    x 1.812110 0.000000 0.002420 
#    y 0.000000 1.788620 0.000000 
#    z 0.002420 0.000000 1.821540 
# 
# From -- ./inp_files/20704.got.cif
#   From: 2010.03.12/outbox.cif.g09.slc.cpg/sg5_11_cif.got.tgz:20704.got - 2010.03.31 09:47:26.
