data_PCOD8050517
_publ_section_title
;
Structure prediction by ZEFSAII (Michael W. Deem and Ramdas Pophale) SiO2 
 PCOD8050517
Probable space group: C 2
;
_chemical_formula_sum "Si O2"
_cell_formula_units_Z 28
_cell_length_a 29.264024
_cell_length_b 8.546946
_cell_length_c 9.716644
_cell_angle_alpha 90.000000
_cell_angle_beta 34.716356
_cell_angle_gamma 90.000000
_cell_volume 1384.094836
_symmetry_space_group_name_H-M "C 2"
_symmetry_group_IT_number 5
_symmetry_cell_setting 'monoclinic'
loop_
_space_group_symop_operation_xyz
x,y,z
-x,y,-z
1/2+x,1/2+y,z
1/2-x,1/2+y,-z
loop_
_atom_site_type_symbol
_atom_site_label
_atom_site_fract_x
_atom_site_fract_y
_atom_site_fract_z
Si Si1 0.068755 0.896350 0.420981
Si Si2 0.928862 0.339888 0.784770
Si Si3 0.964926 0.376778 0.231295
Si Si4 0.864809 0.676743 0.973391
Si Si5 0.784936 0.337974 0.750175
Si Si6 0.996376 0.732637 0.852883
Si Si7 0.194062 0.130151 0.050246
O O1 0.091609 0.749829 0.267557
O O2 0.044907 0.845871 0.632628
O O3 0.000000 0.985184 0.500000
O O4 0.142223 0.010178 0.269526
O O5 0.871751 0.491586 0.936498
O O6 0.866407 0.200813 0.912667
O O7 0.000000 0.367421 0.500000
O O8 0.974656 0.297498 0.811041
O O9 0.874934 0.314097 0.474807
O O10 0.962673 0.563128 0.252850
O O11 0.000000 0.322191 0.000000
O O12 0.905863 0.723355 0.017276
O O13 0.773719 0.741123 0.206471
O O14 0.772126 0.265684 0.935000
O O15 0.763540 0.524267 0.807040
O O16 0.000000 0.798671 0.000000
#
# Coordination Sequence:
#
# PCOD8050517 Si02
#       7
#     4   4   4   4   4   4   4
#     4   9  18  33  57  88 118 150 199 251 294 350
#     4  11  19  37  64  90 119 161 213 242 293 369
#     4  10  22  40  64  88 124 167 204 243 303 375
#     4   9  19  35  60  87 119 155 194 255 302 349
#     4  11  23  38  60  90 129 152 205 256 316 346
#     4   9  18  36  63  87 117 164 205 235 296 375
#     4  11  23  34  61  92 120 156 202 263 306 343
#
# _framework density 20.229828000000001
#
# number of rings (size 3 to 8) (size 9 to 14) (size 15 to 20)
#    0.000    2.000    1.429    3.429    4.000    0.000 
#    0.000    5.000    6.286    0.000    0.000    0.000 
#    0.000    0.000    0.000    0.000    0.000    0.000 
#
# Total GULP energy -173523.787651 kJ/mol
# GULP energy per Si atom -12394.556261 kJ/mol
# Density = 2.018378 g / cm^3
# Si number density = 20.229828 Si / 1000 Ang^3
#
#
#
# Elastic Constant Matrix: (Units=GPa)
#
#
# Indices 1 2 3 4 5 6 
#
# 1 149.6123 46.5516 62.1845 0.0000 5.1671 0.0000
# 2 46.5516 67.0202 35.1553 0.0000 -7.6365 0.0000
# 3 62.1845 35.1553 79.4024 0.0000 -1.3297 0.0000
# 4 0.0000 0.0000 0.0000 10.5490 0.0000 -10.5272
# 5 5.1671 -7.6365 -1.3297 0.0000 41.4236 0.0000
# 6 0.0000 0.0000 0.0000 -10.5272 0.0000 38.7343
#
#
#
# Elastic Compliance Matrix: (Units=1/GPa)
#
#
# Indices 1 2 3 4 5 6 
#
# 1 0.010874 -0.004344 -0.006633 0.000000 -0.002370 0.000000
# 2 -0.004344 0.021634 -0.006104 0.000000 0.004334 0.000000
# 3 -0.006633 -0.006104 0.020497 0.000000 0.000360 0.000000
# 4 0.000000 0.000000 0.000000 0.130073 0.000000 0.035351
# 5 -0.002370 0.004334 0.000360 0.000000 0.025247 0.000000
# 6 0.000000 0.000000 0.000000 0.035351 0.000000 0.035425
#
#
# Mechanical properties :
#
#
# Convention : Reuss Voigt Hill
#
# Bulk Modulus (GPa) = 53.06668 64.86862 58.96765
# Shear Modulus (GPa) = 17.59375 28.28429 22.93902
#
# Velocity S-wave (km/s) = 2.95226 3.74324 3.37103
# Velocity P-wave (km/s) = 6.15710 7.12867 6.66062
#
# Compressibility (1/GPa) = 0.01884421
#
# Stress axis : x y z
#
# Youngs Moduli (GPa) = 91.96085 46.22409 48.78811
#
# Poissons Ratio (x) = 0.20080 0.32359
# Poissons Ratio (y) = 0.39949 0.29778
# Poissons Ratio (z) = 0.60993 0.28213
#
# Static dielectric constant tensor:
#      x y z
#    x 4.077900 0.000000 -0.131250 
#    y 0.000000 3.644630 0.000000 
#    z -0.131250 0.000000 3.425900 
# 
# 
# High freq. dielectric constant tensor:
#      x y z
#    x 1.800760 0.000000 -0.020810 
#    y 0.000000 1.787520 0.000000 
#    z -0.020810 0.000000 1.758890 
# 
# From -- ./inp_files/31729.got.cif
#   From: 2010.03.12/outbox.cif.g09.slc.cpg/sg5_16_cif.got.tgz:31729.got - 2010.03.31 09:47:26.
