data_PCOD8050814
_publ_section_title
;
Structure prediction by ZEFSAII (Michael W. Deem and Ramdas Pophale) SiO2 
 PCOD8050814
Probable space group: C 2
;
_chemical_formula_sum "Si O2"
_cell_formula_units_Z 26
_cell_length_a 15.296828
_cell_length_b 8.606861
_cell_length_c 11.717787
_cell_angle_alpha 90.000000
_cell_angle_beta 54.682485
_cell_angle_gamma 90.000000
_cell_volume 1258.812719
_symmetry_space_group_name_H-M "C 2"
_symmetry_group_IT_number 5
_symmetry_cell_setting 'monoclinic'
loop_
_space_group_symop_operation_xyz
x,y,z
-x,y,-z
1/2+x,1/2+y,z
1/2-x,1/2+y,-z
loop_
_atom_site_type_symbol
_atom_site_label
_atom_site_fract_x
_atom_site_fract_y
_atom_site_fract_z
Si Si1 0.350857 0.158210 0.008035
Si Si2 0.131301 0.162344 0.778904
Si Si3 0.500000 0.979735 0.500000
Si Si4 0.084413 0.197772 0.562797
Si Si5 0.156223 0.692587 0.250248
Si Si6 0.500000 0.412643 0.000000
Si Si7 0.359210 0.555074 0.703723
Si Si8 0.000000 0.417354 0.000000
O O1 0.317842 0.167134 0.901723
O O2 0.407387 0.314944 0.008374
O O3 0.244189 0.129517 0.160224
O O4 0.434207 0.018585 0.959380
O O5 0.149499 0.189021 0.630908
O O6 0.244302 0.131836 0.751871
O O7 0.083234 0.319511 0.864879
O O8 0.052991 0.017729 0.861568
O O9 0.581453 0.871182 0.511200
O O10 0.556969 0.088837 0.364456
O O11 0.146022 0.085601 0.428072
O O12 0.963158 0.139839 0.677359
O O13 0.131019 0.872259 0.287297
#
# Coordination Sequence:
#
# PCOD8050814 Si02
#       8
#     4   4   2   4   4   2   4   2
#     4  11  24  43  66  93 129 170 210 264 313 384
#     4  11  24  41  65  98 126 167 209 268 315 373
#     4  10  24  44  64  98 122 174 210 260 316 382
#     4  10  24  44  65  89 136 166 214 261 314 378
#     4  12  25  40  70  95 128 165 217 259 322 372
#     4  10  26  40  64  98 128 166 216 258 318 374
#     4  10  23  43  66  91 127 175 211 259 320 371
#     4  10  22  44  60  96 130 162 214 258 326 368
#
# _framework density 20.654382999999999
#
# number of rings (size 3 to 8) (size 9 to 14) (size 15 to 20)
#    0.000    1.538    1.538    2.769   10.769    1.231 
#    5.538    0.000    0.000    0.000    0.000    0.000 
#    0.000    0.000    0.000    0.000    0.000    0.000 
#
# Total GULP energy -161247.601646 kJ/mol
# GULP energy per Si atom -12403.661665 kJ/mol
# Density = 2.060737 g / cm^3
# Si number density = 20.654383 Si / 1000 Ang^3
#
#
#
# Elastic Constant Matrix: (Units=GPa)
#
#
# Indices 1 2 3 4 5 6 
#
# 1 101.5147 31.2210 50.6895 0.0000 26.4844 0.0000
# 2 31.2210 123.5349 36.5817 0.0000 2.3686 0.0000
# 3 50.6895 36.5817 104.4335 0.0000 17.7162 0.0000
# 4 0.0000 0.0000 0.0000 10.4058 0.0000 17.7111
# 5 26.4844 2.3686 17.7162 0.0000 46.4136 0.0000
# 6 0.0000 0.0000 0.0000 17.7111 0.0000 -8.3695
#
#
#
# Elastic Compliance Matrix: (Units=1/GPa)
#
#
# Indices 1 2 3 4 5 6 
#
# 1 0.014817 -0.002020 -0.005418 0.000000 -0.006283 0.000000
# 2 -0.002020 0.009335 -0.002571 0.000000 0.001657 0.000000
# 3 -0.005418 -0.002571 0.013429 0.000000 -0.001903 0.000000
# 4 0.000000 0.000000 0.000000 0.020883 0.000000 0.044192
# 5 -0.006283 0.001657 -0.001903 0.000000 0.025773 0.000000
# 6 0.000000 0.000000 0.000000 0.044192 0.000000 -0.025964
#
#
# Mechanical properties :
#
#
# Convention : Reuss Voigt Hill
#
# Bulk Modulus (GPa) = 56.93838 62.94083 59.93960
# Shear Modulus (GPa) = 59.42237 23.75605 41.58921
#
# Velocity S-wave (km/s) = 5.36957 3.39509 4.49216
# Velocity P-wave (km/s) = 8.12835 6.77557 7.48260
#
# Compressibility (1/GPa) = 0.01756285
#
# Stress axis : x y z
#
# Youngs Moduli (GPa) = 67.49107 107.12630 74.46756
#
# Poissons Ratio (x) = 0.21636 0.40349
# Poissons Ratio (y) = 0.13631 0.19143
# Poissons Ratio (z) = 0.36569 0.27539
#
# Static dielectric constant tensor:
#      x y z
#    x 3.736530 0.000000 0.047890 
#    y 0.000000 3.937760 0.000000 
#    z 0.047890 0.000000 3.752710 
# 
# 
# High freq. dielectric constant tensor:
#      x y z
#    x 1.802670 0.000000 0.002140 
#    y 0.000000 1.824590 0.000000 
#    z 0.002140 0.000000 1.814630 
# 
# From -- ./inp_files/41651.got.cif
#   From: 2010.03.12/outbox.cif.g09.slc.cpg/sg5_21_cif.got.tgz:41651.got - 2010.03.31 09:47:26.
