data_PCOD8050126
_publ_section_title
;
Structure prediction by ZEFSAII (Michael W. Deem and Ramdas Pophale) SiO2 
 PCOD8050126
Probable space group: C 2
;
_chemical_formula_sum "Si O2"
_cell_formula_units_Z 26
_cell_length_a 11.950411
_cell_length_b 20.466197
_cell_length_c 8.769234
_cell_angle_alpha 90.000000
_cell_angle_beta 36.357652
_cell_angle_gamma 90.000000
_cell_volume 1271.473447
_symmetry_space_group_name_H-M "C 2"
_symmetry_group_IT_number 5
_symmetry_cell_setting 'monoclinic'
loop_
_space_group_symop_operation_xyz
x,y,z
-x,y,-z
1/2+x,1/2+y,z
1/2-x,1/2+y,-z
loop_
_atom_site_type_symbol
_atom_site_label
_atom_site_fract_x
_atom_site_fract_y
_atom_site_fract_z
Si Si1 0.924200 0.123240 0.245905
Si Si2 0.000000 0.952615 0.500000
Si Si3 0.293908 0.823214 0.716782
Si Si4 0.425185 0.205598 0.425255
Si Si5 0.041298 0.846924 0.706504
Si Si6 0.773492 0.178732 0.857217
Si Si7 0.777701 0.557183 0.274401
O O1 0.787179 0.184285 0.368016
O O2 0.807662 0.063302 0.458162
O O3 0.097387 0.157659 0.142955
O O4 0.000000 0.095363 0.000000
O O5 0.947088 0.910669 0.410055
O O6 0.816881 0.998870 0.719422
O O7 0.500000 0.856564 0.500000
O O8 0.209216 0.840101 0.644692
O O9 0.320981 0.746473 0.721915
O O10 0.161178 0.853241 0.991380
O O11 0.500000 0.175119 0.500000
O O12 0.442549 0.283743 0.417539
O O13 0.554468 0.178909 0.146413
O O14 0.799805 0.125947 0.698329
O O15 0.000000 0.548399 0.000000
#
# Coordination Sequence:
#
# PCOD8050126 Si02
#       7
#     4   2   4   4   4   4   4
#     4  12  23  38  65 104 136 167 212 279 343 389
#     4  12  26  46  64  92 134 182 228 258 316 398
#     4  10  21  40  69  99 127 164 216 281 334 387
#     4  11  20  36  64  99 136 162 209 276 333 391
#     4  10  23  41  64  93 131 181 214 262 328 390
#     4  11  21  39  66 102 132 167 216 270 344 395
#     4  12  25  43  67  92 130 179 224 269 322 398
#
# _framework density 20.448716999999998
#
# number of rings (size 3 to 8) (size 9 to 14) (size 15 to 20)
#    0.000    0.923    5.385    2.769    2.154    1.231 
#    2.769    0.769    0.000    0.000    0.000    0.000 
#    0.000    0.000    0.000    0.000    0.000    0.000 
#
# Total GULP energy -161112.973347 kJ/mol
# GULP energy per Si atom -12393.305642 kJ/mol
# Density = 2.040217 g / cm^3
# Si number density = 20.448717 Si / 1000 Ang^3
#
#
#
# Elastic Constant Matrix: (Units=GPa)
#
#
# Indices 1 2 3 4 5 6 
#
# 1 111.2402 36.7352 48.1910 0.0000 -13.0262 0.0001
# 2 36.7352 65.0741 29.2235 0.0000 5.5836 -0.0001
# 3 48.1910 29.2235 122.5092 0.0000 -13.3575 0.0002
# 4 0.0000 0.0000 0.0000 15.2904 0.0001 0.1786
# 5 -13.0262 5.5836 -13.3575 0.0001 38.5680 0.0000
# 6 0.0001 -0.0001 0.0002 0.1786 0.0000 10.1763
#
#
#
# Elastic Compliance Matrix: (Units=1/GPa)
#
#
# Indices 1 2 3 4 5 6 
#
# 1 0.012891 -0.006230 -0.003130 0.000000 0.004172 0.000000
# 2 -0.006230 0.020858 -0.003205 0.000000 -0.006234 0.000000
# 3 -0.003130 -0.003205 0.010490 0.000000 0.003040 0.000000
# 4 0.000000 0.000000 0.000000 0.065414 0.000000 -0.001148
# 5 0.004172 -0.006234 0.003040 0.000000 0.029292 0.000000
# 6 0.000000 0.000000 0.000000 -0.001148 0.000000 0.098288
#
#
# Mechanical properties :
#
#
# Convention : Reuss Voigt Hill
#
# Bulk Modulus (GPa) = 52.32794 58.56921 55.44857
# Shear Modulus (GPa) = 18.60590 25.11852 21.86221
#
# Velocity S-wave (km/s) = 3.01970 3.50861 3.27329
# Velocity P-wave (km/s) = 6.14845 6.71699 6.43900
#
# Compressibility (1/GPa) = 0.01911025
#
# Stress axis : x y z
#
# Youngs Moduli (GPa) = 77.57164 47.94383 95.33071
#
# Poissons Ratio (x) = 0.29867 0.29840
# Poissons Ratio (y) = 0.48324 0.30550
# Poissons Ratio (z) = 0.24281 0.15364
#
# Static dielectric constant tensor:
#      x y z
#    x 3.829750 0.000000 -0.036530 
#    y 0.000000 3.427130 0.000000 
#    z -0.036530 0.000000 4.085980 
# 
# 
# High freq. dielectric constant tensor:
#      x y z
#    x 1.812110 0.000000 -0.005160 
#    y 0.000000 1.767310 0.000000 
#    z -0.005160 0.000000 1.813500 
# 
# From -- ./inp_files/21895.got.cif
#   From: 2010.03.12/outbox.cif.g09.slc.cpg/sg5_11_cif.got.tgz:21895.got - 2010.03.31 09:47:26.
