data_PCOD8050778
_publ_section_title
;
Structure prediction by ZEFSAII (Michael W. Deem and Ramdas Pophale) SiO2 
 PCOD8050778
Probable space group: C 2
;
_chemical_formula_sum "Si O2"
_cell_formula_units_Z 24
_cell_length_a 8.821660
_cell_length_b 12.649662
_cell_length_c 15.622212
_cell_angle_alpha 90.000000
_cell_angle_beta 35.198083
_cell_angle_gamma 90.000000
_cell_volume 1004.845947
_symmetry_space_group_name_H-M "C 2"
_symmetry_group_IT_number 5
_symmetry_cell_setting 'monoclinic'
loop_
_space_group_symop_operation_xyz
x,y,z
-x,y,-z
1/2+x,1/2+y,z
1/2-x,1/2+y,-z
loop_
_atom_site_type_symbol
_atom_site_label
_atom_site_fract_x
_atom_site_fract_y
_atom_site_fract_z
Si Si1 0.993750 0.049550 0.805449
Si Si2 0.103096 0.653005 0.103992
Si Si3 0.500000 0.785385 0.000000
Si Si4 0.732298 0.338609 0.726949
Si Si5 0.178394 0.826845 0.549077
Si Si6 0.000000 0.657681 0.500000
Si Si7 0.805034 0.456554 0.206864
O O1 0.256957 0.084176 0.636364
O O2 0.066494 0.943641 0.825654
O O3 0.764491 0.022935 0.845045
O O4 0.859483 0.138543 0.925489
O O5 0.236015 0.713521 0.123228
O O6 0.884166 0.735876 0.169110
O O7 0.972286 0.539174 0.188235
O O8 0.481914 0.856936 0.094814
O O9 0.704015 0.312254 0.638846
O O10 0.032038 0.356795 0.619571
O O11 0.081793 0.722300 0.546051
O O12 0.964731 0.917897 0.623252
#
# Coordination Sequence:
#
# PCOD8050778 Si02
#       7
#     4   4   2   4   4   2   4
#     4  11  22  40  69  97 133 185 233 285 352 422
#     4  12  22  39  73 100 131 188 234 278 361 415
#     4  12  22  42  64 100 144 174 230 288 338 412
#     4  10  22  44  70  96 135 186 236 289 354 423
#     4  10  22  43  66  95 137 183 230 296 351 418
#     4  12  24  40  66 100 136 186 238 290 358 418
#     4  11  21  44  67  97 138 182 227 293 349 411
#
# _framework density 23.884259
#
# number of rings (size 3 to 8) (size 9 to 14) (size 15 to 20)
#    0.000    1.000    5.000    4.000    0.000    0.000 
#    3.000    5.000    7.333    0.000    0.000    0.000 
#    0.000    0.000    0.000    0.000    0.000    0.000 
#
# Total GULP energy -148697.760820 kJ/mol
# GULP energy per Si atom -12391.480068 kJ/mol
# Density = 2.382990 g / cm^3
# Si number density = 23.884259 Si / 1000 Ang^3
#
#
#
# Elastic Constant Matrix: (Units=GPa)
#
#
# Indices 1 2 3 4 5 6 
#
# 1 46.3613 38.3242 20.1212 -0.0020 -26.9501 -0.0029
# 2 38.3242 168.1916 72.3552 -0.0122 -22.8518 -0.0003
# 3 20.1212 72.3552 152.2672 -0.0197 -41.6380 -0.0085
# 4 -0.0020 -0.0122 -0.0197 54.7893 0.0005 -10.7705
# 5 -26.9501 -22.8518 -41.6380 0.0005 36.1440 0.0041
# 6 -0.0029 -0.0003 -0.0085 -10.7705 0.0041 34.7632
#
#
#
# Elastic Compliance Matrix: (Units=1/GPa)
#
#
# Indices 1 2 3 4 5 6 
#
# 1 0.049965 -0.009776 0.009548 0.000003 0.042074 0.000002
# 2 -0.009776 0.009407 -0.005176 0.000000 -0.007304 -0.000001
# 3 0.009548 -0.005176 0.012872 0.000004 0.018676 0.000003
# 4 0.000003 0.000000 0.000004 0.019435 0.000006 0.006022
# 5 0.042074 -0.007304 0.018676 0.000006 0.075936 0.000001
# 6 0.000002 -0.000001 0.000003 0.006022 0.000001 0.030632
#
#
# Mechanical properties :
#
#
# Convention : Reuss Voigt Hill
#
# Bulk Modulus (GPa) = 16.27677 69.82458 43.05068
# Shear Modulus (GPa) = 21.78330 40.87392 31.32861
#
# Velocity S-wave (km/s) = 3.02327 4.14131 3.62565
# Velocity P-wave (km/s) = 4.36079 7.22256 5.96581
#
# Compressibility (1/GPa) = 0.06143725
#
# Stress axis : x y z
#
# Youngs Moduli (GPa) = 20.01401 106.29963 77.68761
#
# Poissons Ratio (x) = 1.03920 -0.74178
# Poissons Ratio (y) = 0.19566 0.40209
# Poissons Ratio (z) = -0.19110 0.55018
#
# Static dielectric constant tensor:
#      x y z
#    x 4.025860 0.000000 -0.514800 
#    y 0.000000 4.438560 0.000020 
#    z -0.514800 0.000020 4.466070 
# 
# 
# High freq. dielectric constant tensor:
#      x y z
#    x 1.909670 0.000000 -0.045510 
#    y 0.000000 1.957170 0.000000 
#    z -0.045510 0.000000 1.956020 
# 
# From -- ./inp_files/65190.got.cif
#   From: 2010.03.12/outbox.cif.g09.slc.cpg/sg5_33_cif.got.tgz:65190.got - 2010.03.31 09:47:26.
