data_PCOD8050341
_publ_section_title
;
Structure prediction by ZEFSAII (Michael W. Deem and Ramdas Pophale) SiO2 
 PCOD8050341
Probable space group: C 2
;
_chemical_formula_sum "Si O2"
_cell_formula_units_Z 18
_cell_length_a 5.268441
_cell_length_b 24.518803
_cell_length_c 5.298840
_cell_angle_alpha 90.000000
_cell_angle_beta 85.059388
_cell_angle_gamma 90.000000
_cell_volume 681.939058
_symmetry_space_group_name_H-M "C 2"
_symmetry_group_IT_number 5
_symmetry_cell_setting 'monoclinic'
loop_
_space_group_symop_operation_xyz
x,y,z
-x,y,-z
1/2+x,1/2+y,z
1/2-x,1/2+y,-z
loop_
_atom_site_type_symbol
_atom_site_label
_atom_site_fract_x
_atom_site_fract_y
_atom_site_fract_z
Si Si1 0.233287 0.915130 0.663287
Si Si2 0.157652 0.530354 0.229428
Si Si3 0.160849 0.300963 0.232343
Si Si4 0.272973 0.187336 0.340656
Si Si5 0.500000 0.613791 0.000000
O O1 0.500000 0.912017 0.500000
O O2 0.192794 0.858725 0.823921
O O3 0.000000 0.922795 0.500000
O O4 0.235603 0.969274 0.836236
O O5 0.000000 0.532206 0.500000
O O6 0.385731 0.574536 0.229578
O O7 0.000000 0.548562 0.000000
O O8 0.350344 0.249197 0.251020
O O9 0.000000 0.307398 0.500000
O O10 0.000000 0.287367 0.000000
O O11 0.500000 0.164082 0.500000
O O12 0.000000 0.189160 0.500000
O O13 0.230082 0.150017 0.097540
#
# Coordination Sequence:
#
# PCOD8050341 Si02
#       5
#     4   4   4   4   2
#     4  10  23  46  76 112 153 198 253 323 393 468
#     4  11  29  50  77 113 157 207 267 324 397 467
#     4  10  21  47  77 112 151 198 253 322 394 469
#     4  11  27  49  77 114 156 207 265 326 398 470
#     4  12  30  48  80 114 162 212 272 328 394 478
#
# _framework density 26.395320000000002
#
# number of rings (size 3 to 8) (size 9 to 14) (size 15 to 20)
#    0.000    1.333    1.111    1.333   12.444    0.000 
#    0.000    6.667    0.000    0.000    0.000    0.000 
#    0.000    0.000    0.000    0.000    0.000    0.000 
#
# Total GULP energy -111551.619077 kJ/mol
# GULP energy per Si atom -12394.624342 kJ/mol
# Density = 2.633524 g / cm^3
# Si number density = 26.395320 Si / 1000 Ang^3
#
#
#
# Elastic Constant Matrix: (Units=GPa)
#
#
# Indices 1 2 3 4 5 6 
#
# 1 127.8306 41.3753 38.5175 0.0000 24.7839 0.0000
# 2 41.3753 240.0783 32.0328 0.0000 8.7251 0.0000
# 3 38.5175 32.0328 134.1694 0.0000 19.3484 0.0000
# 4 0.0000 0.0000 0.0000 37.8389 0.0000 20.3265
# 5 24.7839 8.7251 19.3484 0.0000 47.2213 0.0000
# 6 0.0000 0.0000 0.0000 20.3265 0.0000 74.1757
#
#
#
# Elastic Compliance Matrix: (Units=1/GPa)
#
#
# Indices 1 2 3 4 5 6 
#
# 1 0.009572 -0.001254 -0.001868 0.000000 -0.004027 0.000000
# 2 -0.001254 0.004474 -0.000727 0.000000 0.000129 0.000000
# 3 -0.001868 -0.000727 0.008505 0.000000 -0.002370 0.000000
# 4 0.000000 0.000000 0.000000 0.030990 0.000000 -0.008492
# 5 -0.004027 0.000129 -0.002370 0.000000 0.024238 0.000000
# 6 0.000000 0.000000 0.000000 -0.008492 0.000000 0.015809
#
#
# Mechanical properties :
#
#
# Convention : Reuss Voigt Hill
#
# Bulk Modulus (GPa) = 67.32479 80.65883 73.99181
# Shear Modulus (GPa) = 47.06527 57.85736 52.46132
#
# Velocity S-wave (km/s) = 4.22725 4.68691 4.46300
# Velocity P-wave (km/s) = 7.02765 7.74040 7.39262
#
# Compressibility (1/GPa) = 0.01485337
#
# Stress axis : x y z
#
# Youngs Moduli (GPa) = 104.46743 223.52829 117.58069
#
# Poissons Ratio (x) = 0.28033 0.21963
# Poissons Ratio (y) = 0.13102 0.08545
# Poissons Ratio (z) = 0.19514 0.16244
#
# Static dielectric constant tensor:
#      x y z
#    x 4.445030 0.000000 0.144860 
#    y 0.000000 6.215490 0.000000 
#    z 0.144860 0.000000 4.318880 
# 
# 
# High freq. dielectric constant tensor:
#      x y z
#    x 2.044760 0.000000 0.004930 
#    y 0.000000 2.100950 0.000000 
#    z 0.004930 0.000000 2.043770 
# 
# From -- ./inp_files/1128.got.cif
#   From: 2010.03.12/outbox.cif.g09.slc.cpg/sg5_1_cif.got.tgz:1128.got - 2010.03.31 09:47:26.
