data_PCOD8050476
_publ_section_title
;
Structure prediction by ZEFSAII (Michael W. Deem and Ramdas Pophale) SiO2 
 PCOD8050476
Probable space group: C 2
;
_chemical_formula_sum "Si O2"
_cell_formula_units_Z 30
_cell_length_a 10.937081
_cell_length_b 15.033983
_cell_length_c 9.698808
_cell_angle_alpha 90.000000
_cell_angle_beta 111.327474
_cell_angle_gamma 90.000000
_cell_volume 1485.540858
_symmetry_space_group_name_H-M "C 2"
_symmetry_group_IT_number 5
_symmetry_cell_setting 'monoclinic'
loop_
_space_group_symop_operation_xyz
x,y,z
-x,y,-z
1/2+x,1/2+y,z
1/2-x,1/2+y,-z
loop_
_atom_site_type_symbol
_atom_site_label
_atom_site_fract_x
_atom_site_fract_y
_atom_site_fract_z
Si Si1 0.869684 0.053060 0.537168
Si Si2 0.000000 0.647114 0.000000
Si Si3 0.617557 0.487812 0.151046
Si Si4 0.643400 0.846672 0.054433
Si Si5 0.301220 0.292041 0.867315
Si Si6 0.851929 0.244986 0.455229
Si Si7 0.840281 0.410686 0.645139
Si Si8 0.097931 0.503879 0.844226
O O1 0.799927 0.151341 0.499181
O O2 0.000000 0.043929 0.500000
O O3 0.912121 0.026457 0.710021
O O4 0.761676 0.986389 0.434034
O O5 0.889896 0.707204 0.889265
O O6 0.044785 0.595055 0.882780
O O7 0.619558 0.380524 0.143555
O O8 0.765066 0.522261 0.177427
O O9 0.500000 0.521298 0.000000
O O10 0.700347 0.862947 0.228949
O O11 0.500000 0.798444 0.000000
O O12 0.743902 0.793586 0.999180
O O13 0.627584 0.945003 0.988699
O O14 0.187215 0.271627 0.714434
O O15 0.823455 0.331265 0.532231
O O16 0.000000 0.221065 0.500000
O O17 0.988254 0.452601 0.705969
#
# Coordination Sequence:
#
# PCOD8050476 Si02
#       8
#     4   2   4   4   4   4   4   4
#     4  11  27  42  65 100 136 178 220 279 343 388
#     4  12  22  40  66 104 128 166 222 282 320 398
#     4  11  24  45  66  95 137 179 217 272 342 407
#     4   9  19  38  64  94 122 173 219 258 325 393
#     4  11  23  39  66  99 133 169 217 271 337 394
#     4  11  23  41  66  96 127 170 222 268 331 394
#     4  11  21  42  70  92 138 171 226 275 328 401
#     4  10  22  39  68  99 126 174 224 272 336 381
#
# _framework density 20.194665000000001
#
# number of rings (size 3 to 8) (size 9 to 14) (size 15 to 20)
#    0.000    1.333    4.000    3.200    3.733    2.133 
#    0.000    2.667    0.000    0.000    0.000    0.000 
#    0.000    0.000    0.000    0.000    0.000    0.000 
#
# Total GULP energy -185866.937538 kJ/mol
# GULP energy per Si atom -12391.129169 kJ/mol
# Density = 2.014870 g / cm^3
# Si number density = 20.194665 Si / 1000 Ang^3
#
#
#
# Elastic Constant Matrix: (Units=GPa)
#
#
# Indices 1 2 3 4 5 6 
#
# 1 117.5997 54.6015 56.5998 0.0000 -5.8152 0.0000
# 2 54.6015 116.1484 21.9800 0.0000 1.5425 0.0000
# 3 56.5998 21.9800 116.8603 0.0000 8.7494 0.0000
# 4 0.0000 0.0000 0.0000 28.4763 0.0000 -0.7578
# 5 -5.8152 1.5425 8.7494 0.0000 29.9115 0.0000
# 6 0.0000 0.0000 0.0000 -0.7578 0.0000 40.7730
#
#
#
# Elastic Compliance Matrix: (Units=1/GPa)
#
#
# Indices 1 2 3 4 5 6 
#
# 1 0.014386 -0.005641 -0.006275 0.000000 0.004923 0.000000
# 2 -0.005641 0.011139 0.000779 0.000000 -0.001899 0.000000
# 3 -0.006275 0.000779 0.011803 0.000000 -0.004713 0.000000
# 4 0.000000 0.000000 0.000000 0.035134 0.000000 0.000653
# 5 0.004923 -0.001899 -0.004713 0.000000 0.035865 0.000000
# 6 0.000000 0.000000 0.000000 0.000653 0.000000 0.024538
#
#
# Mechanical properties :
#
#
# Convention : Reuss Voigt Hill
#
# Bulk Modulus (GPa) = 66.42720 68.55234 67.48977
# Shear Modulus (GPa) = 31.21904 34.32730 32.77317
#
# Velocity S-wave (km/s) = 3.93607 4.12736 4.03285
# Velocity P-wave (km/s) = 7.32268 7.53213 7.42814
#
# Compressibility (1/GPa) = 0.01505408
#
# Stress axis : x y z
#
# Youngs Moduli (GPa) = 69.51099 89.77295 84.72449
#
# Poissons Ratio (x) = 0.50639 0.53168
# Poissons Ratio (y) = 0.39210 -0.06601
# Poissons Ratio (z) = 0.43621 -0.06994
#
# Static dielectric constant tensor:
#      x y z
#    x 3.892960 0.000000 -0.052110 
#    y 0.000000 3.856980 0.000000 
#    z -0.052110 0.000000 3.745790 
# 
# 
# High freq. dielectric constant tensor:
#      x y z
#    x 1.786940 0.000000 0.002860 
#    y 0.000000 1.790900 0.000000 
#    z 0.002860 0.000000 1.795920 
# 
# From -- ./inp_files/20690.got.cif
#   From: 2010.03.12/outbox.cif.g09.slc.cpg/sg5_11_cif.got.tgz:20690.got - 2010.03.31 09:47:26.
