data_PCOD8050432
_publ_section_title
;
Structure prediction by ZEFSAII (Michael W. Deem and Ramdas Pophale) SiO2 
 PCOD8050432
Probable space group: C 2
;
_chemical_formula_sum "Si O2"
_cell_formula_units_Z 26
_cell_length_a 20.431568
_cell_length_b 9.385655
_cell_length_c 8.940613
_cell_angle_alpha 90.000000
_cell_angle_beta 50.675310
_cell_angle_gamma 90.000000
_cell_volume 1326.269027
_symmetry_space_group_name_H-M "C 2"
_symmetry_group_IT_number 5
_symmetry_cell_setting 'monoclinic'
loop_
_space_group_symop_operation_xyz
x,y,z
-x,y,-z
1/2+x,1/2+y,z
1/2-x,1/2+y,-z
loop_
_atom_site_type_symbol
_atom_site_label
_atom_site_fract_x
_atom_site_fract_y
_atom_site_fract_z
Si Si1 0.236417 0.930900 0.190283
Si Si2 0.737970 0.717804 0.367904
Si Si3 0.500000 0.548445 0.000000
Si Si4 0.588197 0.214988 0.445080
Si Si5 0.789038 0.481196 0.782138
Si Si6 0.832098 0.192437 0.203924
Si Si7 0.075442 0.774591 0.796093
O O1 0.149482 0.845200 0.320477
O O2 0.313997 0.831402 0.130246
O O3 0.230313 0.060817 0.313111
O O4 0.248566 0.980762 0.004023
O O5 0.696808 0.824375 0.305692
O O6 0.685286 0.728409 0.597305
O O7 0.835851 0.760536 0.247130
O O8 0.429184 0.649899 0.029508
O O9 0.450238 0.442987 0.188360
O O10 0.500000 0.253842 0.500000
O O11 0.579956 0.194711 0.633705
O O12 0.622320 0.065092 0.331931
O O13 0.728848 0.564313 0.754557
O O14 0.000000 0.699363 0.000000
#
# Coordination Sequence:
#
# PCOD8050432 Si02
#       7
#     4   4   2   4   4   4   4
#     4  11  25  40  67  97 130 179 210 267 341 386
#     4  12  21  44  67  96 129 174 222 270 332 391
#     4  10  22  40  66  98 124 162 222 274 324 374
#     4  11  25  44  64  97 131 171 221 268 326 396
#     4  11  23  43  66  91 133 171 216 267 330 397
#     4  11  22  42  67  92 129 170 223 270 320 395
#     4  10  22  38  72  93 124 172 221 274 319 384
#
# _framework density 19.603866
#
# number of rings (size 3 to 8) (size 9 to 14) (size 15 to 20)
#    0.462    0.615    4.615    3.692    6.462    0.000 
#    4.154    0.769    0.000    0.000    0.000    0.000 
#    0.000    0.000    0.000    0.000    0.000    0.000 
#
# Total GULP energy -161196.434317 kJ/mol
# GULP energy per Si atom -12399.725717 kJ/mol
# Density = 1.955925 g / cm^3
# Si number density = 19.603866 Si / 1000 Ang^3
#
#
#
# Elastic Constant Matrix: (Units=GPa)
#
#
# Indices 1 2 3 4 5 6 
#
# 1 97.1123 43.1299 38.1209 0.0000 -16.0977 0.0000
# 2 43.1299 102.9218 24.5598 0.0000 -14.8925 0.0000
# 3 38.1209 24.5598 112.4500 0.0000 2.7215 0.0000
# 4 0.0000 0.0000 0.0000 -42.8830 0.0000 26.0183
# 5 -16.0977 -14.8925 2.7215 0.0000 38.3822 0.0000
# 6 0.0000 0.0000 0.0000 26.0183 0.0000 16.3546
#
#
#
# Elastic Compliance Matrix: (Units=1/GPa)
#
#
# Indices 1 2 3 4 5 6 
#
# 1 0.014687 -0.004492 -0.004112 0.000000 0.004708 0.000000
# 2 -0.004492 0.012327 -0.001242 0.000000 0.002987 0.000000
# 3 -0.004112 -0.001242 0.010630 0.000000 -0.002960 0.000000
# 4 0.000000 0.000000 0.000000 -0.011866 0.000000 0.018877
# 5 0.004708 0.002987 -0.002960 0.000000 0.029397 0.000000
# 6 0.000000 0.000000 0.000000 0.018877 0.000000 0.031113
#
#
# Mechanical properties :
#
#
# Convention : Reuss Voigt Hill
#
# Bulk Modulus (GPa) = 55.70325 58.23392 56.96859
# Shear Modulus (GPa) = 44.65729 16.14900 30.40315
#
# Velocity S-wave (km/s) = 4.77800 2.87325 3.94239
# Velocity P-wave (km/s) = 7.67562 6.38570 7.06018
#
# Compressibility (1/GPa) = 0.01795227
#
# Stress axis : x y z
#
# Youngs Moduli (GPa) = 68.08761 81.12206 94.07706
#
# Poissons Ratio (x) = 0.36442 0.38682
# Poissons Ratio (y) = 0.30586 0.11682
# Poissons Ratio (z) = 0.27996 0.10073
#
# Static dielectric constant tensor:
#      x y z
#    x 3.825810 0.000000 -0.263150 
#    y 0.000000 3.640280 0.000000 
#    z -0.263150 0.000000 3.704310 
# 
# 
# High freq. dielectric constant tensor:
#      x y z
#    x 1.758480 0.000000 0.000800 
#    y 0.000000 1.766540 0.000000 
#    z 0.000800 0.000000 1.765520 
# 
# From -- ./inp_files/29085.got.cif
#   From: 2010.03.12/outbox.cif.g09.slc.cpg/sg5_15_cif.got.tgz:29085.got - 2010.03.31 09:47:26.
