data_PCOD8050863
_publ_section_title
;
Structure prediction by ZEFSAII (Michael W. Deem and Ramdas Pophale) SiO2 
 PCOD8050863
Probable space group: C 2
;
_chemical_formula_sum "Si O2"
_cell_formula_units_Z 30
_cell_length_a 10.214030
_cell_length_b 9.165718
_cell_length_c 17.090602
_cell_angle_alpha 90.000000
_cell_angle_beta 60.637459
_cell_angle_gamma 90.000000
_cell_volume 1394.458516
_symmetry_space_group_name_H-M "C 2"
_symmetry_group_IT_number 5
_symmetry_cell_setting 'monoclinic'
loop_
_space_group_symop_operation_xyz
x,y,z
-x,y,-z
1/2+x,1/2+y,z
1/2-x,1/2+y,-z
loop_
_atom_site_type_symbol
_atom_site_label
_atom_site_fract_x
_atom_site_fract_y
_atom_site_fract_z
Si Si1 0.698007 0.646370 0.540327
Si Si2 0.000000 0.981652 0.500000
Si Si3 0.371812 0.940780 0.735601
Si Si4 0.150537 0.244719 0.110320
Si Si5 0.303924 0.872192 0.341026
Si Si6 0.193678 0.235319 0.817917
Si Si7 0.163902 0.374519 0.432194
Si Si8 0.825271 0.443506 0.038301
O O1 0.539321 0.573273 0.564974
O O2 0.643458 0.721486 0.635868
O O3 0.822804 0.527352 0.525884
O O4 0.762017 0.748275 0.448812
O O5 0.846623 0.899468 0.565520
O O6 0.337194 0.808447 0.805502
O O7 0.552024 0.978311 0.686295
O O8 0.310106 0.889546 0.668339
O O9 0.287853 0.087273 0.785888
O O10 0.982235 0.198339 0.136055
O O11 0.246529 0.098698 0.072863
O O12 0.207564 0.375717 0.037427
O O13 0.263919 0.850077 0.262691
O O14 0.235977 0.320808 0.884157
O O15 0.000000 0.316620 0.500000
O O16 0.000000 0.473171 0.000000
#
# Coordination Sequence:
#
# PCOD8050863 Si02
#       8
#     4   2   4   4   4   4   4   4
#     4  12  23  40  60  87 119 169 222 274 326 382
#     4  12  24  40  64  88 126 174 230 282 334 382
#     4  11  22  44  67  95 138 172 225 281 325 389
#     4  10  23  42  70 102 136 172 214 267 330 398
#     4  11  24  40  62  93 128 172 226 277 329 385
#     4  10  23  42  65  97 134 171 219 271 325 396
#     4  12  24  42  63  88 128 174 225 274 326 380
#     4  10  22  44  71 102 137 170 212 264 328 403
#
# _framework density 21.513728
#
# number of rings (size 3 to 8) (size 9 to 14) (size 15 to 20)
#    0.000    1.067    4.667    0.800    0.933    5.333 
#    0.000    1.333    0.000    0.000    0.000    0.000 
#    0.000    0.000    0.000    0.000    0.000    0.000 
#
# Total GULP energy -185826.276035 kJ/mol
# GULP energy per Si atom -12388.418402 kJ/mol
# Density = 2.146476 g / cm^3
# Si number density = 21.513728 Si / 1000 Ang^3
#
#
#
# Elastic Constant Matrix: (Units=GPa)
#
#
# Indices 1 2 3 4 5 6 
#
# 1 82.9060 58.7414 54.2987 0.0000 1.8231 0.0000
# 2 58.7414 133.2128 65.3280 0.0000 -1.4472 0.0000
# 3 54.2987 65.3280 133.9114 0.0000 13.4760 0.0000
# 4 0.0000 0.0000 0.0000 36.0761 0.0000 1.4861
# 5 1.8231 -1.4472 13.4760 0.0000 39.9234 0.0000
# 6 0.0000 0.0000 0.0000 1.4861 0.0000 28.0594
#
#
#
# Elastic Compliance Matrix: (Units=1/GPa)
#
#
# Indices 1 2 3 4 5 6 
#
# 1 0.019765 -0.006245 -0.005025 0.000000 0.000567 0.000000
# 2 -0.006245 0.012006 -0.003517 0.000000 0.001907 0.000000
# 3 -0.005025 -0.003517 0.011605 0.000000 -0.003815 0.000000
# 4 0.000000 0.000000 0.000000 0.027780 0.000000 -0.001471
# 5 0.000567 0.001907 -0.003815 0.000000 0.026379 0.000000
# 6 0.000000 0.000000 0.000000 -0.001471 0.000000 0.035717
#
#
# Mechanical properties :
#
#
# Convention : Reuss Voigt Hill
#
# Bulk Modulus (GPa) = 72.45141 78.52961 75.49051
# Shear Modulus (GPa) = 29.86396 32.25592 31.05994
#
# Velocity S-wave (km/s) = 3.72981 3.87630 3.80376
# Velocity P-wave (km/s) = 7.23178 7.52434 7.37951
#
# Compressibility (1/GPa) = 0.01380235
#
# Stress axis : x y z
#
# Youngs Moduli (GPa) = 50.59349 83.29140 86.17274
#
# Poissons Ratio (x) = 0.52019 0.43300
# Poissons Ratio (y) = 0.31598 0.30304
# Poissons Ratio (z) = 0.25422 0.29291
#
# Static dielectric constant tensor:
#      x y z
#    x 4.103000 0.000000 0.232930 
#    y 0.000000 3.853250 0.000000 
#    z 0.232930 0.000000 4.021380 
# 
# 
# High freq. dielectric constant tensor:
#      x y z
#    x 1.845830 0.000000 0.020350 
#    y 0.000000 1.847390 0.000000 
#    z 0.020350 0.000000 1.846740 
# 
# From -- ./inp_files/60303.got.cif
#   From: 2010.03.12/outbox.cif.g09.slc.cpg/sg5_31_cif.got.tgz:60303.got - 2010.03.31 09:47:26.
