data_PCOD8050186
_publ_section_title
;
Structure prediction by ZEFSAII (Michael W. Deem and Ramdas Pophale) SiO2 
 PCOD8050186
Probable space group: C 2
;
_chemical_formula_sum "Si O2"
_cell_formula_units_Z 22
_cell_length_a 24.187988
_cell_length_b 8.251317
_cell_length_c 19.122884
_cell_angle_alpha 90.000000
_cell_angle_beta 14.195403
_cell_angle_gamma 90.000000
_cell_volume 935.942791
_symmetry_space_group_name_H-M "C 2"
_symmetry_group_IT_number 5
_symmetry_cell_setting 'monoclinic'
loop_
_space_group_symop_operation_xyz
x,y,z
-x,y,-z
1/2+x,1/2+y,z
1/2-x,1/2+y,-z
loop_
_atom_site_type_symbol
_atom_site_label
_atom_site_fract_x
_atom_site_fract_y
_atom_site_fract_z
Si Si1 0.204359 0.467290 0.888044
Si Si2 0.038428 0.459507 0.584049
Si Si3 0.005311 0.951133 0.242719
Si Si4 0.388662 0.595602 0.529143
Si Si5 0.327103 0.101947 0.438235
Si Si6 0.000000 0.671241 0.500000
O O1 0.192918 0.531909 0.821694
O O2 0.371781 0.582945 0.725962
O O3 0.295583 0.283207 0.778158
O O4 0.963443 0.476722 0.220414
O O5 0.093064 0.557877 0.447192
O O6 0.147894 0.282575 0.445023
O O7 0.165583 0.548749 0.490735
O O8 0.772361 0.455452 0.925497
O O9 0.927992 0.779587 0.306673
O O10 0.887643 0.984849 0.461392
O O11 0.926689 0.086202 0.281813
#
# Coordination Sequence:
#
# PCOD8050186 Si02
#       6
#     4   4   4   4   4   2
#     4  10  21  41  67  97 129 176 216 273 326 394
#     4  12  23  44  70  96 132 175 219 278 322 402
#     4  12  25  42  68 100 132 178 218 275 326 396
#     4  10  21  41  67  95 130 171 221 262 338 376
#     4  12  26  42  70  96 136 171 227 268 332 390
#     4  10  24  38  72  96 132 174 224 264 342 380
#
# _framework density 23.505710000000001
#
# number of rings (size 3 to 8) (size 9 to 14) (size 15 to 20)
#    0.000    1.091    3.636    4.364    5.091    0.727 
#    0.000    0.909    0.000    0.000    0.000    0.000 
#    0.000    0.000    0.000    0.000    0.000    0.000 
#
# Total GULP energy -136429.351325 kJ/mol
# GULP energy per Si atom -12402.668302 kJ/mol
# Density = 2.345221 g / cm^3
# Si number density = 23.505710 Si / 1000 Ang^3
#
#
#
# Elastic Constant Matrix: (Units=GPa)
#
#
# Indices 1 2 3 4 5 6 
#
# 1 133.5036 3.5607 14.5489 -0.0104 18.5464 0.0108
# 2 3.5607 78.3935 9.0257 -0.0108 8.7631 0.0123
# 3 14.5489 9.0257 35.4710 -0.0128 17.3154 0.0145
# 4 -0.0104 -0.0108 -0.0128 29.0768 0.0046 7.5599
# 5 18.5464 8.7631 17.3154 0.0046 28.0970 -0.0050
# 6 0.0108 0.0123 0.0145 7.5599 -0.0050 43.3730
#
#
#
# Elastic Compliance Matrix: (Units=1/GPa)
#
#
# Indices 1 2 3 4 5 6 
#
# 1 0.008280 0.000295 -0.001085 0.000004 -0.004889 -0.000003
# 2 0.000295 0.013321 -0.001984 0.000006 -0.003127 -0.000005
# 3 -0.001085 -0.001984 0.040749 0.000026 -0.023778 -0.000020
# 4 0.000004 0.000006 0.000026 0.036024 -0.000028 -0.006279
# 5 -0.004889 -0.003127 -0.023778 -0.000028 0.054447 0.000021
# 6 -0.000003 -0.000005 -0.000020 -0.006279 0.000021 0.024150
#
#
# Mechanical properties :
#
#
# Convention : Reuss Voigt Hill
#
# Bulk Modulus (GPa) = 17.60482 33.51541 25.56012
# Shear Modulus (GPa) = 24.81969 34.79153 29.80561
#
# Velocity S-wave (km/s) = 3.25299 3.85142 3.56478
# Velocity P-wave (km/s) = 4.64920 5.83672 5.27648
#
# Compressibility (1/GPa) = 0.05680261
#
# Stress axis : x y z
#
# Youngs Moduli (GPa) = 120.77350 75.07103 24.54037
#
# Poissons Ratio (x) = -0.02217 0.02662
# Poissons Ratio (y) = -0.03567 0.04870
# Poissons Ratio (z) = 0.13099 0.14897
#
# Static dielectric constant tensor:
#      x y z
#    x 4.350640 0.000000 0.136160 
#    y 0.000000 4.166140 0.000010 
#    z 0.136160 0.000010 4.060400 
# 
# 
# High freq. dielectric constant tensor:
#      x y z
#    x 1.943990 0.000000 0.010420 
#    y 0.000000 1.937820 0.000000 
#    z 0.010420 0.000000 1.909390 
# 
# From -- ./inp_files/63228.got.cif
#   From: 2010.03.12/outbox.cif.g09.slc.cpg/sg5_32_cif.got.tgz:63228.got - 2010.03.31 09:47:26.
