data_PCOD8050148
_publ_section_title
;
Structure prediction by ZEFSAII (Michael W. Deem and Ramdas Pophale) SiO2 
 PCOD8050148
Probable space group: C 2
;
_chemical_formula_sum "Si O2"
_cell_formula_units_Z 22
_cell_length_a 26.295095
_cell_length_b 7.757994
_cell_length_c 15.919088
_cell_angle_alpha 90.000000
_cell_angle_beta 17.209255
_cell_angle_gamma 90.000000
_cell_volume 960.797962
_symmetry_space_group_name_H-M "C 2"
_symmetry_group_IT_number 5
_symmetry_cell_setting 'monoclinic'
loop_
_space_group_symop_operation_xyz
x,y,z
-x,y,-z
1/2+x,1/2+y,z
1/2-x,1/2+y,-z
loop_
_atom_site_type_symbol
_atom_site_label
_atom_site_fract_x
_atom_site_fract_y
_atom_site_fract_z
Si Si1 0.870375 0.018470 0.043685
Si Si2 0.401636 0.131307 0.830066
Si Si3 0.500000 0.710081 0.000000
Si Si4 0.811940 0.182568 0.673232
Si Si5 0.679105 0.372521 0.452535
Si Si6 0.173114 0.233475 0.046350
O O1 0.791196 0.160182 0.103732
O O2 0.966270 0.102390 0.970162
O O3 0.021270 0.934235 0.753920
O O4 0.738484 0.870979 0.285481
O O5 0.599909 0.199638 0.530591
O O6 0.389160 0.928543 0.858176
O O7 0.260651 0.201183 0.118482
O O8 0.345933 0.201948 0.826647
O O9 0.329166 0.824383 0.281117
O O10 0.015641 0.142701 0.345053
O O11 0.735758 0.016736 0.743615
#
# Coordination Sequence:
#
# PCOD8050148 Si02
#       6
#     4   4   2   4   4   4
#     4  10  24  41  62  92 121 161 211 256 309 371
#     4  11  22  39  63  93 127 160 202 255 313 378
#     4  12  24  42  62  86 120 162 208 258 312 360
#     4  10  21  41  62  90 124 161 203 252 318 374
#     4  10  24  41  62  92 121 161 211 256 309 371
#     4  11  22  39  63  93 127 160 202 255 313 378
#
# _framework density 22.897632999999999
#
# number of rings (size 3 to 8) (size 9 to 14) (size 15 to 20)
#    0.000    1.455    0.000    6.000    0.000    8.000 
#    0.000    6.364    0.000    0.000    0.000    0.000 
#    0.000    0.000    0.000    0.000    0.000    0.000 
#
# Total GULP energy -136285.049730 kJ/mol
# GULP energy per Si atom -12389.549975 kJ/mol
# Density = 2.284552 g / cm^3
# Si number density = 22.897633 Si / 1000 Ang^3
#
#
#
# Elastic Constant Matrix: (Units=GPa)
#
#
# Indices 1 2 3 4 5 6 
#
# 1 145.6297 41.0593 31.2260 0.0000 -27.6022 0.0000
# 2 41.0593 115.5255 9.3915 0.0001 -11.8394 0.0000
# 3 31.2260 9.3915 65.0228 0.0000 -17.8162 0.0000
# 4 0.0000 0.0001 0.0000 30.0952 0.0000 -5.3953
# 5 -27.6022 -11.8394 -17.8162 0.0000 42.5002 0.0000
# 6 0.0000 0.0000 0.0000 -5.3953 0.0000 40.1626
#
#
#
# Elastic Compliance Matrix: (Units=1/GPa)
#
#
# Indices 1 2 3 4 5 6 
#
# 1 0.008935 -0.002544 -0.002856 0.000000 0.003897 0.000000
# 2 -0.002544 0.009662 0.000125 0.000000 0.001092 0.000000
# 3 -0.002856 0.000125 0.018341 0.000000 0.005869 0.000000
# 4 0.000000 0.000000 0.000000 0.034048 0.000000 0.004574
# 5 0.003897 0.001092 0.005869 0.000000 0.028825 0.000000
# 6 0.000000 0.000000 0.000000 0.004574 0.000000 0.025513
#
#
# Mechanical properties :
#
#
# Convention : Reuss Voigt Hill
#
# Bulk Modulus (GPa) = 37.89469 54.39238 46.14354
# Shear Modulus (GPa) = 34.56187 38.85168 36.70677
#
# Velocity S-wave (km/s) = 3.88932 4.12364 4.00819
# Velocity P-wave (km/s) = 6.06256 6.81753 6.45110
#
# Compressibility (1/GPa) = 0.02638892
#
# Stress axis : x y z
#
# Youngs Moduli (GPa) = 111.91985 103.49820 54.52414
#
# Poissons Ratio (x) = 0.26331 0.15570
# Poissons Ratio (y) = 0.28473 -0.00684
# Poissons Ratio (z) = 0.31960 -0.01298
#
# Static dielectric constant tensor:
#      x y z
#    x 4.061680 0.000000 -0.006290 
#    y 0.000000 4.963310 0.000000 
#    z -0.006290 0.000000 4.240210 
# 
# 
# High freq. dielectric constant tensor:
#      x y z
#    x 1.885720 0.000000 0.005570 
#    y 0.000000 1.925330 0.000000 
#    z 0.005570 0.000000 1.917060 
# 
# From -- ./inp_files/57569.got.cif
#   From: 2010.03.12/outbox.cif.g09.slc.cpg/sg5_29_cif.got.tgz:57569.got - 2010.03.31 09:47:26.
