data_PCOD8050115
_publ_section_title
;
Structure prediction by ZEFSAII (Michael W. Deem and Ramdas Pophale) SiO2 
 PCOD8050115
Probable space group: C 2
;
_chemical_formula_sum "Si O2"
_cell_formula_units_Z 24
_cell_length_a 23.142696
_cell_length_b 4.947497
_cell_length_c 14.371309
_cell_angle_alpha 90.000000
_cell_angle_beta 140.619796
_cell_angle_gamma 90.000000
_cell_volume 1044.004701
_symmetry_space_group_name_H-M "C 2"
_symmetry_group_IT_number 5
_symmetry_cell_setting 'monoclinic'
loop_
_space_group_symop_operation_xyz
x,y,z
-x,y,-z
1/2+x,1/2+y,z
1/2-x,1/2+y,-z
loop_
_atom_site_type_symbol
_atom_site_label
_atom_site_fract_x
_atom_site_fract_y
_atom_site_fract_z
Si Si1 0.252265 0.588030 0.442898
Si Si2 0.631133 0.392431 0.010149
Si Si3 0.680239 0.105467 0.750434
Si Si4 0.916823 0.286881 0.524689
Si Si5 0.032972 0.792408 0.705555
Si Si6 0.671649 0.879754 0.166575
O O1 0.289939 0.328187 0.546445
O O2 0.332318 0.733650 0.486832
O O3 0.173111 0.475466 0.275548
O O4 0.733693 0.444148 0.098308
O O5 0.613967 0.606466 0.073814
O O6 0.622691 0.097088 0.041511
O O7 0.558037 0.418105 0.837080
O O8 0.625608 0.248072 0.764253
O O9 0.721715 0.331228 0.730621
O O10 0.614870 0.898084 0.614667
O O11 0.980378 0.510746 0.652845
O O12 0.971381 0.009842 0.574759
#
# Coordination Sequence:
#
# PCOD8050115 Si02
#       6
#     4   4   4   4   4   4
#     4  12  23  43  74  98 123 169 234 291 335 400
#     4  10  23  41  67  94 144 180 226 249 314 410
#     4  10  25  40  69  92 144 185 224 252 311 410
#     4  12  26  44  62 107 135 171 224 290 340 376
#     4  12  27  40  67 101 149 178 213 270 335 393
#     4  10  21  40  67  98 127 168 238 263 314 381
#
# _framework density 22.988403999999999
#
# number of rings (size 3 to 8) (size 9 to 14) (size 15 to 20)
#    1.000    0.000    1.667    5.500    4.667    2.667 
#    0.000    0.000    0.000   15.000    0.000    0.000 
#    0.000    0.000    0.000    0.000    0.000    0.000 
#
# Total GULP energy -148765.832106 kJ/mol
# GULP energy per Si atom -12397.152675 kJ/mol
# Density = 2.293608 g / cm^3
# Si number density = 22.988404 Si / 1000 Ang^3
#
#
#
# Elastic Constant Matrix: (Units=GPa)
#
#
# Indices 1 2 3 4 5 6 
#
# 1 29.9752 13.6818 11.3596 0.0002 -18.4930 0.0000
# 2 13.6818 125.4893 11.7144 0.0008 -9.6120 0.0002
# 3 11.3596 11.7144 72.4030 -0.0005 -15.8467 -0.0002
# 4 0.0002 0.0008 -0.0005 42.1147 0.0001 -5.0715
# 5 -18.4930 -9.6120 -15.8467 0.0001 26.6255 0.0000
# 6 0.0000 0.0002 -0.0002 -5.0715 0.0000 41.8586
#
#
#
# Elastic Compliance Matrix: (Units=1/GPa)
#
#
# Indices 1 2 3 4 5 6 
#
# 1 0.059778 -0.003432 -0.000009 0.000000 0.040276 0.000000
# 2 -0.003432 0.008431 -0.000783 0.000000 0.000194 0.000000
# 3 -0.000009 -0.000783 0.015955 0.000000 0.009207 0.000000
# 4 0.000000 0.000000 0.000000 0.024096 0.000000 0.002919
# 5 0.040276 0.000194 0.009207 0.000000 0.071082 0.000000
# 6 0.000000 0.000000 0.000000 0.002919 0.000000 0.024244
#
#
# Mechanical properties :
#
#
# Convention : Reuss Voigt Hill
#
# Bulk Modulus (GPa) = 13.20706 33.48656 23.34681
# Shear Modulus (GPa) = 21.07288 34.86053 27.96671
#
# Velocity S-wave (km/s) = 3.03095 3.89837 3.49170
# Velocity P-wave (km/s) = 4.24340 5.90436 5.14139
#
# Compressibility (1/GPa) = 0.07571706
#
# Stress axis : x y z
#
# Youngs Moduli (GPa) = 16.72845 118.61088 62.67705
#
# Poissons Ratio (x) = 0.40704 0.00054
# Poissons Ratio (y) = 0.05741 0.04909
# Poissons Ratio (z) = 0.00014 0.09290
#
# Static dielectric constant tensor:
#      x y z
#    x 3.775350 0.000000 -0.062340 
#    y 0.000000 4.336360 0.000000 
#    z -0.062340 0.000000 3.928630 
# 
# 
# High freq. dielectric constant tensor:
#      x y z
#    x 1.870260 0.000000 -0.011530 
#    y 0.000000 1.931020 0.000000 
#    z -0.011530 0.000000 1.903690 
# 
# From -- ./inp_files/57405.got.cif
#   From: 2010.03.12/outbox.cif.g09.slc.cpg/sg5_29_cif.got.tgz:57405.got - 2010.03.31 09:47:26.
