data_PCOD8050886
_publ_section_title
;
Structure prediction by ZEFSAII (Michael W. Deem and Ramdas Pophale) SiO2 
 PCOD8050886
Probable space group: C 2
;
_chemical_formula_sum "Si O2"
_cell_formula_units_Z 22
_cell_length_a 11.816849
_cell_length_b 8.951970
_cell_length_c 12.025465
_cell_angle_alpha 90.000000
_cell_angle_beta 117.825291
_cell_angle_gamma 90.000000
_cell_volume 1125.015873
_symmetry_space_group_name_H-M "C 2"
_symmetry_group_IT_number 5
_symmetry_cell_setting 'monoclinic'
loop_
_space_group_symop_operation_xyz
x,y,z
-x,y,-z
1/2+x,1/2+y,z
1/2-x,1/2+y,-z
loop_
_atom_site_type_symbol
_atom_site_label
_atom_site_fract_x
_atom_site_fract_y
_atom_site_fract_z
Si Si1 0.448315 0.992370 0.704797
Si Si2 0.844233 0.015843 0.106516
Si Si3 0.283206 0.644385 0.309158
Si Si4 0.000000 0.348218 0.500000
Si Si5 0.595124 0.827105 0.944815
Si Si6 0.471672 0.257629 0.862209
O O1 0.473251 0.964128 0.587062
O O2 0.511081 0.850070 0.794675
O O3 0.295416 0.018814 0.655170
O O4 0.520964 0.136671 0.792735
O O5 0.851611 0.058408 0.239699
O O6 0.852348 0.159688 0.031488
O O7 0.967601 0.916344 0.136141
O O8 0.714540 0.935924 0.012745
O O9 0.381296 0.736392 0.429369
O O10 0.183083 0.767496 0.215008
O O11 0.500000 0.860460 0.000000
O O12 0.500000 0.200721 0.000000
#
# Coordination Sequence:
#
# PCOD8050886 Si02
#       6
#     4   4   4   2   4   4
#     4  10  23  45  64  94 132 174 219 276 314 392
#     4  12  23  39  70  99 135 174 204 279 339 392
#     4  10  24  44  65  95 138 168 223 275 318 392
#     4  12  24  48  66  92 134 188 222 266 328 386
#     4  12  22  39  67 103 132 165 219 266 344 392
#     4  10  22  45  65 103 134 162 216 285 334 386
#
# _framework density 19.555278999999999
#
# number of rings (size 3 to 8) (size 9 to 14) (size 15 to 20)
#    1.091    0.000    3.636    4.364    0.000    1.455 
#    6.545    0.000    0.000    0.000    0.000    0.000 
#    0.000    0.000    0.000    0.000    0.000    0.000 
#
# Total GULP energy -136325.802739 kJ/mol
# GULP energy per Si atom -12393.254794 kJ/mol
# Density = 1.951077 g / cm^3
# Si number density = 19.555279 Si / 1000 Ang^3
#
#
#
# Elastic Constant Matrix: (Units=GPa)
#
#
# Indices 1 2 3 4 5 6 
#
# 1 87.8134 49.8539 53.5856 0.0000 9.9038 0.0000
# 2 49.8539 116.8172 50.3832 0.0000 8.3113 0.0000
# 3 53.5856 50.3832 132.2568 0.0000 -5.9111 0.0000
# 4 0.0000 0.0000 0.0000 27.2541 0.0000 -21.7848
# 5 9.9038 8.3113 -5.9111 0.0000 34.6549 0.0000
# 6 0.0000 0.0000 0.0000 -21.7848 0.0000 -184.5957
#
#
#
# Elastic Compliance Matrix: (Units=1/GPa)
#
#
# Indices 1 2 3 4 5 6 
#
# 1 0.018273 -0.004969 -0.005735 0.000000 -0.005009 0.000000
# 2 -0.004969 0.011947 -0.002623 0.000000 -0.001893 0.000000
# 3 -0.005735 -0.002623 0.011069 0.000000 0.004156 0.000000
# 4 0.000000 0.000000 0.000000 0.033529 0.000000 -0.003957
# 5 -0.005009 -0.001893 0.004156 0.000000 0.031450 0.000000
# 6 0.000000 0.000000 0.000000 -0.003957 0.000000 -0.004950
#
#
# Mechanical properties :
#
#
# Convention : Reuss Voigt Hill
#
# Bulk Modulus (GPa) = 68.31862 71.61476 69.96669
# Shear Modulus (GPa) = 37.63708 -12.33301 12.65204
#
# Velocity S-wave (km/s) = 4.39184 -2.51405 2.54636
# Velocity P-wave (km/s) = 7.79293 5.31733 6.67097
#
# Compressibility (1/GPa) = 0.01463730
#
# Stress axis : x y z
#
# Youngs Moduli (GPa) = 54.72619 83.70596 90.34031
#
# Poissons Ratio (x) = 0.41590 0.51806
# Poissons Ratio (y) = 0.27191 0.23692
# Poissons Ratio (z) = 0.31383 0.21952
#
# Static dielectric constant tensor:
#      x y z
#    x 4.185870 0.000000 0.487300 
#    y 0.000000 3.491780 0.000000 
#    z 0.487300 0.000000 3.838200 
# 
# 
# High freq. dielectric constant tensor:
#      x y z
#    x 1.768610 0.000000 -0.001270 
#    y 0.000000 1.757900 0.000000 
#    z -0.001270 0.000000 1.753300 
# 
# From -- ./inp_files/38434.got.cif
#   From: 2010.03.12/outbox.cif.g09.slc.cpg/sg5_20_cif.got.tgz:38434.got - 2010.03.31 09:47:26.
