data_PCOD8050320
_publ_section_title
;
Structure prediction by ZEFSAII (Michael W. Deem and Ramdas Pophale) SiO2 
 PCOD8050320
Probable space group: C 2
;
_chemical_formula_sum "Si O2"
_cell_formula_units_Z 16
_cell_length_a 24.843815
_cell_length_b 5.109992
_cell_length_c 9.178857
_cell_angle_alpha 90.000000
_cell_angle_beta 27.560753
_cell_angle_gamma 90.000000
_cell_volume 539.158155
_symmetry_space_group_name_H-M "C 2"
_symmetry_group_IT_number 5
_symmetry_cell_setting 'monoclinic'
loop_
_space_group_symop_operation_xyz
x,y,z
-x,y,-z
1/2+x,1/2+y,z
1/2-x,1/2+y,-z
loop_
_atom_site_type_symbol
_atom_site_label
_atom_site_fract_x
_atom_site_fract_y
_atom_site_fract_z
Si Si1 0.075470 0.188370 0.527096
Si Si2 0.869891 0.688093 0.766845
Si Si3 0.624393 0.390251 0.674222
Si Si4 0.183189 0.018186 0.853903
O O1 0.152466 0.423622 0.273347
O O2 0.146071 0.942107 0.295020
O O3 0.090947 0.158045 0.665481
O O4 0.937711 0.172816 0.814473
O O5 0.000000 0.646879 0.500000
O O6 0.802375 0.750861 0.082819
O O7 0.707461 0.205336 0.377940
O O8 0.687076 0.444317 0.675734
O O9 0.500000 0.244024 0.000000
#
# Coordination Sequence:
#
# PCOD8050320 Si02
#       4
#     4   4   4   4
#     4  10  23  46  77 114 154 201 265 328 389 469
#     4  10  21  44  77 112 152 202 260 325 394 464
#     4  10  24  47  77 120 162 210 268 325 395 481
#     4  10  23  45  79 116 163 213 261 330 403 468
#
# _framework density 29.675889999999999
#
# number of rings (size 3 to 8) (size 9 to 14) (size 15 to 20)
#    0.000    2.000    0.000    2.250    0.000   10.000 
#    0.000   25.000    0.000    3.000    0.000    0.000 
#    0.000    0.000    0.000    0.000    0.000    0.000 
#
# Total GULP energy -99122.524887 kJ/mol
# GULP energy per Si atom -12390.315611 kJ/mol
# Density = 2.960835 g / cm^3
# Si number density = 29.675890 Si / 1000 Ang^3
#
#
#
# Elastic Constant Matrix: (Units=GPa)
#
#
# Indices 1 2 3 4 5 6 
#
# 1 150.8917 66.4949 35.8818 0.0000 26.4742 0.0000
# 2 66.4949 215.8252 76.1107 0.0000 20.7611 0.0000
# 3 35.8818 76.1107 209.0665 0.0000 -22.1756 0.0000
# 4 0.0000 0.0000 0.0000 -3.4589 0.0000 43.0098
# 5 26.4742 20.7611 -22.1756 0.0000 42.3563 0.0000
# 6 0.0000 0.0000 0.0000 43.0098 0.0000 3.5478
#
#
#
# Elastic Compliance Matrix: (Units=1/GPa)
#
#
# Indices 1 2 3 4 5 6 
#
# 1 0.008632 -0.001631 -0.001456 0.000000 -0.005359 0.000000
# 2 -0.001631 0.006284 -0.002357 0.000000 -0.003295 0.000000
# 3 -0.001456 -0.002357 0.006470 0.000000 0.005453 0.000000
# 4 0.000000 0.000000 0.000000 -0.001905 0.000000 0.023097
# 5 -0.005359 -0.003295 0.005453 0.000000 0.031429 0.000000
# 6 0.000000 0.000000 0.000000 0.023097 0.000000 0.001858
#
#
# Mechanical properties :
#
#
# Convention : Reuss Voigt Hill
#
# Bulk Modulus (GPa) = 95.26023 103.63980 99.45002
# Shear Modulus (GPa) = 74.45480 34.97545 54.71512
#
# Velocity S-wave (km/s) = 5.01436 3.43677 4.29856
# Velocity P-wave (km/s) = 8.10524 7.12378 7.63031
#
# Compressibility (1/GPa) = 0.01049756
#
# Stress axis : x y z
#
# Youngs Moduli (GPa) = 115.84336 159.13319 154.56608
#
# Poissons Ratio (x) = 0.25947 0.22511
# Poissons Ratio (y) = 0.18888 0.36437
# Poissons Ratio (z) = 0.16871 0.37514
#
# Static dielectric constant tensor:
#      x y z
#    x 5.634210 0.000000 0.085120 
#    y 0.000000 5.746390 0.000000 
#    z 0.085120 0.000000 6.076860 
# 
# 
# High freq. dielectric constant tensor:
#      x y z
#    x 2.246960 0.000000 -0.011570 
#    y 0.000000 2.176750 0.000000 
#    z -0.011570 0.000000 2.238060 
# 
# From -- ./inp_files/31332.got.cif
#   From: 2010.03.12/outbox.cif.g09.slc.cpg/sg5_16_cif.got.tgz:31332.got - 2010.03.31 09:47:26.
