data_PCOD8050634
_publ_section_title
;
Structure prediction by ZEFSAII (Michael W. Deem and Ramdas Pophale) SiO2 
 PCOD8050634
Probable space group: C 2
;
_chemical_formula_sum "Si O2"
_cell_formula_units_Z 28
_cell_length_a 19.208056
_cell_length_b 14.547214
_cell_length_c 5.114100
_cell_angle_alpha 90.000000
_cell_angle_beta 111.947462
_cell_angle_gamma 90.000000
_cell_volume 1325.436728
_symmetry_space_group_name_H-M "C 2"
_symmetry_group_IT_number 5
_symmetry_cell_setting 'monoclinic'
loop_
_space_group_symop_operation_xyz
x,y,z
-x,y,-z
1/2+x,1/2+y,z
1/2-x,1/2+y,-z
loop_
_atom_site_type_symbol
_atom_site_label
_atom_site_fract_x
_atom_site_fract_y
_atom_site_fract_z
Si Si1 0.864413 0.386610 0.857191
Si Si2 0.160448 0.548534 0.864972
Si Si3 0.663269 0.288257 0.286943
Si Si4 0.087041 0.277652 0.575146
Si Si5 0.261830 0.462973 0.608103
Si Si6 0.714778 0.644856 0.632743
Si Si7 0.585584 0.225593 0.668830
O O1 0.908254 0.348559 0.663701
O O2 0.775003 0.403747 0.683219
O O3 0.887398 0.491409 0.982525
O O4 0.876430 0.317196 0.111165
O O5 0.191643 0.474172 0.704246
O O6 0.105231 0.618785 0.639881
O O7 0.234328 0.604264 0.064070
O O8 0.675049 0.392908 0.199459
O O9 0.741010 0.231646 0.424616
O O10 0.628343 0.290907 0.526153
O O11 0.606879 0.243030 0.000164
O O12 0.132334 0.182350 0.591777
O O13 0.000000 0.253873 0.500000
O O14 0.297641 0.561524 0.589215
O O15 0.500000 0.245112 0.500000
#
# Coordination Sequence:
#
# PCOD8050634 Si02
#       7
#     4   4   4   4   4   4   4
#     4  11  23  42  66  98 133 171 223 272 338 392
#     4  10  22  41  69 101 126 171 224 284 325 389
#     4  11  23  41  71  95 131 177 217 274 323 394
#     4  12  26  44  65  99 140 181 212 273 343 407
#     4  11  22  41  72 103 126 167 234 281 320 384
#     4  10  23  39  70  99 133 169 231 270 331 390
#     4  11  25  44  65  96 138 175 213 266 342 396
#
# _framework density 21.125109999999999
#
# number of rings (size 3 to 8) (size 9 to 14) (size 15 to 20)
#    0.000    1.143    4.286    0.857   10.000    0.571 
#    2.571    0.714    3.143    0.000    0.000    0.000 
#    0.000    0.000    0.000    0.000    0.000    0.000 
#
# Total GULP energy -173469.719885 kJ/mol
# GULP energy per Si atom -12390.694277 kJ/mol
# Density = 2.107703 g / cm^3
# Si number density = 21.125110 Si / 1000 Ang^3
#
#
#
# Elastic Constant Matrix: (Units=GPa)
#
#
# Indices 1 2 3 4 5 6 
#
# 1 117.4724 57.6365 27.4027 0.0000 -0.1537 0.0000
# 2 57.6365 129.2311 27.0535 0.0000 1.5412 0.0000
# 3 27.4027 27.0535 68.0314 0.0000 -14.5480 0.0000
# 4 0.0000 0.0000 0.0000 23.0232 0.0000 -9.4763
# 5 -0.1537 1.5412 -14.5480 0.0000 27.7799 0.0000
# 6 0.0000 0.0000 0.0000 -9.4763 0.0000 27.3272
#
#
#
# Elastic Compliance Matrix: (Units=1/GPa)
#
#
# Indices 1 2 3 4 5 6 
#
# 1 0.011407 -0.004418 -0.003121 0.000000 -0.001326 0.000000
# 2 -0.004418 0.010310 -0.002757 0.000000 -0.002040 0.000000
# 3 -0.003121 -0.002757 0.019236 0.000000 0.010209 0.000000
# 4 0.000000 0.000000 0.000000 0.050666 0.000000 0.017569
# 5 -0.001326 -0.002040 0.010209 0.000000 0.041449 0.000000
# 6 0.000000 0.000000 0.000000 0.017569 0.000000 0.042686
#
#
# Mechanical properties :
#
#
# Convention : Reuss Voigt Hill
#
# Bulk Modulus (GPa) = 49.11478 59.88005 54.49741
# Shear Modulus (GPa) = 24.61449 29.13553 26.87501
#
# Velocity S-wave (km/s) = 3.41717 3.71777 3.57064
# Velocity P-wave (km/s) = 6.23453 6.84369 6.54620
#
# Compressibility (1/GPa) = 0.02036047
#
# Stress axis : x y z
#
# Youngs Moduli (GPa) = 87.66780 96.99405 51.98685
#
# Poissons Ratio (x) = 0.42853 0.16226
# Poissons Ratio (y) = 0.38733 0.14330
# Poissons Ratio (z) = 0.27363 0.26737
#
# Static dielectric constant tensor:
#      x y z
#    x 3.534890 0.000000 -0.156330 
#    y 0.000000 3.967850 0.000000 
#    z -0.156330 0.000000 3.919600 
# 
# 
# High freq. dielectric constant tensor:
#      x y z
#    x 1.796320 0.000000 -0.013930 
#    y 0.000000 1.834020 0.000000 
#    z -0.013930 0.000000 1.831930 
# 
# From -- ./inp_files/8567.got.cif
#   From: 2010.03.12/outbox.cif.g09.slc.cpg/sg5_5_cif.got.tgz:8567.got - 2010.03.31 09:47:26.
