data_PCOD8050174
_publ_section_title
;
Structure prediction by ZEFSAII (Michael W. Deem and Ramdas Pophale) SiO2 
 PCOD8050174
Probable space group: C 2
;
_chemical_formula_sum "Si O2"
_cell_formula_units_Z 20
_cell_length_a 13.371773
_cell_length_b 5.028403
_cell_length_c 26.041879
_cell_angle_alpha 90.000000
_cell_angle_beta 145.378209
_cell_angle_gamma 90.000000
_cell_volume 994.854502
_symmetry_space_group_name_H-M "C 2"
_symmetry_group_IT_number 5
_symmetry_cell_setting 'monoclinic'
loop_
_space_group_symop_operation_xyz
x,y,z
-x,y,-z
1/2+x,1/2+y,z
1/2-x,1/2+y,-z
loop_
_atom_site_type_symbol
_atom_site_label
_atom_site_fract_x
_atom_site_fract_y
_atom_site_fract_z
Si Si1 0.470606 0.056380 0.609810
Si Si2 0.284931 0.558853 0.819761
Si Si3 0.338953 0.509464 0.060712
Si Si4 0.417868 0.556171 0.521278
Si Si5 0.188528 0.572460 0.102565
O O1 0.631902 0.114397 0.715028
O O2 0.472801 0.267384 0.564553
O O3 0.294157 0.080668 0.569705
O O4 0.493141 0.769768 0.593334
O O5 0.458056 0.450732 0.864656
O O6 0.225765 0.331271 0.834707
O O7 0.334385 0.833152 0.867722
O O8 0.318323 0.475202 0.112873
O O9 0.216088 0.305833 0.978252
O O10 0.500000 0.603969 0.500000
O O11 0.000000 0.656197 0.000000
#
# Coordination Sequence:
#
# PCOD8050174 Si02
#       5
#     4   4   4   4   4
#     4  10  23  39  61  94 119 154 194 244 297 349
#     4  12  24  40  60  89 123 152 205 250 282 356
#     4  12  23  38  59  82 113 158 202 243 292 337
#     4  10  21  41  66  87 123 154 189 240 303 362
#     4  12  23  39  61  83 117 164 202 243 297 338
#
# _framework density 20.103444
#
# number of rings (size 3 to 8) (size 9 to 14) (size 15 to 20)
#    0.000    0.800    4.000    3.600    0.000    3.200 
#    0.000    0.000    0.000    0.000    0.000    0.000 
#    0.000    0.000    0.000    0.000    0.000    0.000 
#
# Total GULP energy -124071.491191 kJ/mol
# GULP energy per Si atom -12407.149119 kJ/mol
# Density = 2.005769 g / cm^3
# Si number density = 20.103444 Si / 1000 Ang^3
#
#
#
# Elastic Constant Matrix: (Units=GPa)
#
#
# Indices 1 2 3 4 5 6 
#
# 1 116.2200 7.2268 47.5708 -0.0015 -4.4910 0.0008
# 2 7.2268 83.2294 11.8244 -0.0052 1.6794 0.0013
# 3 47.5708 11.8244 94.6878 0.0002 4.7047 0.0008
# 4 -0.0015 -0.0052 0.0002 19.9422 0.0015 -2.2628
# 5 -4.4910 1.6794 4.7047 0.0015 19.8459 -0.0001
# 6 0.0008 0.0013 0.0008 -2.2628 -0.0001 26.2459
#
#
#
# Elastic Compliance Matrix: (Units=1/GPa)
#
#
# Indices 1 2 3 4 5 6 
#
# 1 0.011125 -0.000227 -0.005754 0.000001 0.003901 0.000000
# 2 -0.000227 0.012246 -0.001377 0.000003 -0.000761 0.000000
# 3 -0.005754 -0.001377 0.013846 -0.000001 -0.004468 0.000000
# 4 0.000001 0.000003 -0.000001 0.050640 -0.000004 0.004366
# 5 0.003901 -0.000761 -0.004468 -0.000004 0.052394 0.000000
# 6 0.000000 0.000000 0.000000 0.004366 0.000000 0.038478
#
#
# Mechanical properties :
#
#
# Convention : Reuss Voigt Hill
#
# Bulk Modulus (GPa) = 44.44706 47.48681 45.96694
# Shear Modulus (GPa) = 24.88232 28.37449 26.62840
#
# Velocity S-wave (km/s) = 3.52193 3.76097 3.64341
# Velocity P-wave (km/s) = 6.22060 6.52168 6.37292
#
# Compressibility (1/GPa) = 0.02249867
#
# Stress axis : x y z
#
# Youngs Moduli (GPa) = 89.89082 81.66111 72.22298
#
# Poissons Ratio (x) = 0.01855 0.41560
# Poissons Ratio (y) = 0.02042 0.09947
# Poissons Ratio (z) = 0.51727 0.11247
#
# Static dielectric constant tensor:
#      x y z
#    x 3.806620 0.000000 -0.007430 
#    y 0.000000 3.722400 0.000000 
#    z -0.007430 0.000000 3.422820 
# 
# 
# High freq. dielectric constant tensor:
#      x y z
#    x 1.791980 0.000000 -0.003770 
#    y 0.000000 1.803480 0.000000 
#    z -0.003770 0.000000 1.771320 
# 
# From -- ./inp_files/51872.got.cif
#   From: 2010.03.12/outbox.cif.g09.slc.cpg/sg5_26_cif.got.tgz:51872.got - 2010.03.31 09:47:26.
