data_PCOD8050755
_publ_section_title
;
Structure prediction by ZEFSAII (Michael W. Deem and Ramdas Pophale) SiO2 
 PCOD8050755
Probable space group: C 2
;
_chemical_formula_sum "Si O2"
_cell_formula_units_Z 16
_cell_length_a 18.304009
_cell_length_b 6.472584
_cell_length_c 8.485496
_cell_angle_alpha 90.000000
_cell_angle_beta 44.320161
_cell_angle_gamma 90.000000
_cell_volume 702.378854
_symmetry_space_group_name_H-M "C 2"
_symmetry_group_IT_number 5
_symmetry_cell_setting 'monoclinic'
loop_
_space_group_symop_operation_xyz
x,y,z
-x,y,-z
1/2+x,1/2+y,z
1/2-x,1/2+y,-z
loop_
_atom_site_type_symbol
_atom_site_label
_atom_site_fract_x
_atom_site_fract_y
_atom_site_fract_z
Si Si1 0.617336 0.905440 0.034484
Si Si2 0.500000 0.059994 0.500000
Si Si3 0.823504 0.794319 0.257302
Si Si4 0.000000 0.113148 0.000000
Si Si5 0.197020 0.650385 0.366687
O O1 0.583314 0.932107 0.268076
O O2 0.526629 0.761690 0.104500
O O3 0.730524 0.796632 0.853110
O O4 0.621846 0.124733 0.937822
O O5 0.576243 0.188610 0.500302
O O6 0.781736 0.696411 0.482491
O O7 0.731013 0.908222 0.300777
O O8 0.902824 0.970783 0.192112
#
# Coordination Sequence:
#
# PCOD8050755 Si02
#       5
#     4   2   4   2   4
#     4  11  25  45  70 106 147 185 240 288 359 428
#     4  12  28  44  70 108 152 188 224 298 366 424
#     4  11  22  46  74 101 137 188 249 292 340 426
#     4  10  22  42  74 104 130 192 240 292 350 416
#     4  11  25  45  74 104 141 190 240 295 351 419
#
# _framework density 22.779730000000001
#
# number of rings (size 3 to 8) (size 9 to 14) (size 15 to 20)
#    0.000    1.000    2.500    3.750    7.000    0.000 
#    0.000    6.250    0.000    0.000    0.000    0.000 
#    0.000    0.000    0.000    0.000    0.000    0.000 
#
# Total GULP energy -99172.896522 kJ/mol
# GULP energy per Si atom -12396.612065 kJ/mol
# Density = 2.272788 g / cm^3
# Si number density = 22.779730 Si / 1000 Ang^3
#
#
#
# Elastic Constant Matrix: (Units=GPa)
#
#
# Indices 1 2 3 4 5 6 
#
# 1 118.0506 39.4084 34.3529 0.0000 -23.5136 0.0000
# 2 39.4084 125.8957 43.9590 0.0000 -3.7808 0.0000
# 3 34.3529 43.9590 154.8746 0.0000 12.8346 0.0000
# 4 0.0000 0.0000 0.0000 29.6292 0.0000 -4.1544
# 5 -23.5136 -3.7808 12.8346 0.0000 37.6497 0.0000
# 6 0.0000 0.0000 0.0000 -4.1544 0.0000 12.9520
#
#
#
# Elastic Compliance Matrix: (Units=1/GPa)
#
#
# Indices 1 2 3 4 5 6 
#
# 1 0.011607 -0.002521 -0.002510 0.000000 0.007851 0.000000
# 2 -0.002521 0.009483 -0.002141 0.000000 0.000108 0.000000
# 3 -0.002510 -0.002141 0.007995 0.000000 -0.004508 0.000000
# 4 0.000000 0.000000 0.000000 0.035340 0.000000 0.011336
# 5 0.007851 0.000108 -0.004508 0.000000 0.033011 0.000000
# 6 0.000000 0.000000 0.000000 0.011336 0.000000 0.080844
#
#
# Mechanical properties :
#
#
# Convention : Reuss Voigt Hill
#
# Bulk Modulus (GPa) = 67.83985 70.47350 69.15668
# Shear Modulus (GPa) = 25.31160 34.78622 30.04891
#
# Velocity S-wave (km/s) = 3.33700 3.91201 3.63589
# Velocity P-wave (km/s) = 6.68527 7.17002 6.93189
#
# Compressibility (1/GPa) = 0.01474060
#
# Stress axis : x y z
#
# Youngs Moduli (GPa) = 86.15763 105.44967 125.08069
#
# Poissons Ratio (x) = 0.26585 0.31389
# Poissons Ratio (y) = 0.21721 0.26785
# Poissons Ratio (z) = 0.21621 0.22581
#
# Static dielectric constant tensor:
#      x y z
#    x 4.135580 0.000000 -0.173850 
#    y 0.000000 4.360370 0.000000 
#    z -0.173850 0.000000 3.992560 
# 
# 
# High freq. dielectric constant tensor:
#      x y z
#    x 1.896310 0.000000 -0.012750 
#    y 0.000000 1.896750 0.000000 
#    z -0.012750 0.000000 1.904660 
# 
# From -- ./inp_files/17760.got.cif
#   From: 2010.03.12/outbox.cif.g09.slc.cpg/sg5_9_cif.got.tgz:17760.got - 2010.03.31 09:47:26.
