data_PCOD8050315
_publ_section_title
;
Structure prediction by ZEFSAII (Michael W. Deem and Ramdas Pophale) SiO2 
 PCOD8050315
Probable space group: C 2
;
_chemical_formula_sum "Si O2"
_cell_formula_units_Z 32
_cell_length_a 11.983799
_cell_length_b 14.989836
_cell_length_c 8.213281
_cell_angle_alpha 90.000000
_cell_angle_beta 89.258399
_cell_angle_gamma 90.000000
_cell_volume 1475.270639
_symmetry_space_group_name_H-M "C 2"
_symmetry_group_IT_number 5
_symmetry_cell_setting 'monoclinic'
loop_
_space_group_symop_operation_xyz
x,y,z
-x,y,-z
1/2+x,1/2+y,z
1/2-x,1/2+y,-z
loop_
_atom_site_type_symbol
_atom_site_label
_atom_site_fract_x
_atom_site_fract_y
_atom_site_fract_z
Si Si1 0.407288 0.640570 0.140700
Si Si2 0.269890 0.054994 0.071719
Si Si3 0.509431 0.322430 0.192533
Si Si4 0.793631 0.918370 0.686127
Si Si5 0.444568 0.826413 0.326072
Si Si6 0.029274 0.630777 0.809158
Si Si7 0.387671 0.970310 0.788907
Si Si8 0.855940 0.972387 0.342791
O O1 0.415616 0.736502 0.227067
O O2 0.411765 0.564559 0.279979
O O3 0.500000 0.628527 0.000000
O O4 0.289904 0.624546 0.049145
O O5 0.339485 0.108136 0.206607
O O6 0.188253 0.990969 0.171414
O O7 0.356793 0.988965 0.977312
O O8 0.635773 0.335691 0.249918
O O9 0.483971 0.226518 0.272625
O O10 0.421426 0.391989 0.261161
O O11 0.500000 0.323055 0.000000
O O12 0.667503 0.885971 0.650157
O O13 0.860078 0.964291 0.536424
O O14 0.500000 0.803617 0.500000
O O15 0.536529 0.881891 0.223206
O O16 0.955521 0.556171 0.717905
O O17 0.000000 0.636647 0.000000
O O18 0.274056 0.960525 0.693366
#
# Coordination Sequence:
#
# PCOD8050315 Si02
#       8
#     4   4   4   4   4   4   4   4
#     4  11  27  45  74 104 140 187 242 295 357 423
#     4  10  22  43  71 101 133 184 235 291 354 411
#     4  11  24  42  69 101 136 179 238 290 350 417
#     4  12  25  43  71 100 145 189 231 290 364 423
#     4  12  27  46  68 112 146 190 235 297 368 432
#     4   9  20  38  66  99 128 166 228 292 336 399
#     4  10  21  44  70  99 137 184 235 291 351 424
#     4  11  24  47  69  98 145 185 235 292 360 429
#
# _framework density 21.690933999999999
#
# number of rings (size 3 to 8) (size 9 to 14) (size 15 to 20)
#    0.000    1.250    2.500    3.000    8.750    3.000 
#    2.250    2.500    0.000    0.000    0.000    0.000 
#    0.000    0.000    0.000    0.000    0.000    0.000 
#
# Total GULP energy -198289.857631 kJ/mol
# GULP energy per Si atom -12393.116102 kJ/mol
# Density = 2.164156 g / cm^3
# Si number density = 21.690934 Si / 1000 Ang^3
#
#
#
# Elastic Constant Matrix: (Units=GPa)
#
#
# Indices 1 2 3 4 5 6 
#
# 1 102.1691 56.6652 40.5016 0.0000 8.2499 0.0000
# 2 56.6652 168.3746 51.8889 0.0000 -6.8594 0.0000
# 3 40.5016 51.8889 92.9800 0.0000 -8.4299 0.0000
# 4 0.0000 0.0000 0.0000 29.7984 0.0000 4.2340
# 5 8.2499 -6.8594 -8.4299 0.0000 34.5620 0.0000
# 6 0.0000 0.0000 0.0000 4.2340 0.0000 38.6785
#
#
#
# Elastic Compliance Matrix: (Units=1/GPa)
#
#
# Indices 1 2 3 4 5 6 
#
# 1 0.013964 -0.003491 -0.004601 0.000000 -0.005148 0.000000
# 2 -0.003491 0.008053 -0.002815 0.000000 0.001745 0.000000
# 3 -0.004601 -0.002815 0.014704 0.000000 0.004126 0.000000
# 4 0.000000 0.000000 0.000000 0.034089 0.000000 -0.003732
# 5 -0.005148 0.001745 0.004126 0.000000 0.031515 0.000000
# 6 0.000000 0.000000 0.000000 -0.003732 0.000000 0.026263
#
#
# Mechanical properties :
#
#
# Convention : Reuss Voigt Hill
#
# Bulk Modulus (GPa) = 67.08588 73.51502 70.30045
# Shear Modulus (GPa) = 32.18124 34.90564 33.54344
#
# Velocity S-wave (km/s) = 3.85597 4.01587 3.93673
# Velocity P-wave (km/s) = 7.12880 7.44772 7.29001
#
# Compressibility (1/GPa) = 0.01490627
#
# Stress axis : x y z
#
# Youngs Moduli (GPa) = 71.61499 124.18264 68.00804
#
# Poissons Ratio (x) = 0.43354 0.31290
# Poissons Ratio (y) = 0.25002 0.19144
# Poissons Ratio (z) = 0.32949 0.34957
#
# Static dielectric constant tensor:
#      x y z
#    x 4.150190 0.000000 0.045040 
#    y 0.000000 4.141990 0.000000 
#    z 0.045040 0.000000 3.818990 
# 
# 
# High freq. dielectric constant tensor:
#      x y z
#    x 1.869460 0.000000 0.004580 
#    y 0.000000 1.853520 0.000000 
#    z 0.004580 0.000000 1.841030 
# 
# From -- ./inp_files/20654.got.cif
#   From: 2010.03.12/outbox.cif.g09.slc.cpg/sg5_11_cif.got.tgz:20654.got - 2010.03.31 09:47:26.
