data_PCOD8050375
_publ_section_title
;
Structure prediction by ZEFSAII (Michael W. Deem and Ramdas Pophale) SiO2 
 PCOD8050375
Probable space group: C 2
;
_chemical_formula_sum "Si O2"
_cell_formula_units_Z 24
_cell_length_a 19.940349
_cell_length_b 5.057110
_cell_length_c 13.264864
_cell_angle_alpha 90.000000
_cell_angle_beta 104.566492
_cell_angle_gamma 90.000000
_cell_volume 1294.639618
_symmetry_space_group_name_H-M "C 2"
_symmetry_group_IT_number 5
_symmetry_cell_setting 'monoclinic'
loop_
_space_group_symop_operation_xyz
x,y,z
-x,y,-z
1/2+x,1/2+y,z
1/2-x,1/2+y,-z
loop_
_atom_site_type_symbol
_atom_site_label
_atom_site_fract_x
_atom_site_fract_y
_atom_site_fract_z
Si Si1 0.592084 0.622880 0.802672
Si Si2 0.425700 0.799323 0.995489
Si Si3 0.759140 0.107864 0.072156
Si Si4 0.040308 0.835086 0.285434
Si Si5 0.995174 0.318798 0.615968
Si Si6 0.371722 0.300947 0.875013
O O1 0.671046 0.521628 0.841317
O O2 0.535293 0.385680 0.795857
O O3 0.573467 0.772913 0.690466
O O4 0.582097 0.835761 0.888034
O O5 0.371583 0.579204 0.934478
O O6 0.422151 0.084146 0.942696
O O7 0.500000 0.674357 0.000000
O O8 0.705805 0.186533 0.141000
O O9 0.770687 0.357414 0.001178
O O10 0.042110 0.562041 0.344884
O O11 0.104054 0.842622 0.230830
O O12 0.052305 0.065750 0.373488
O O13 0.000000 0.367907 0.500000
#
# Coordination Sequence:
#
# PCOD8050375 Si02
#       6
#     4   4   4   4   4   4
#     4  10  23  36  57  84 117 154 196 227 295 347
#     4  12  21  32  56  82 120 154 191 232 282 346
#     4  12  24  36  54  83 128 167 190 220 281 362
#     4  10  22  37  61  85 114 149 200 241 303 338
#     4  10  22  40  63  86 110 144 201 267 296 332
#     4  12  22  36  53  86 123 159 184 236 278 357
#
# _framework density 18.537977000000001
#
# number of rings (size 3 to 8) (size 9 to 14) (size 15 to 20)
#    1.000    0.000    5.000    3.000    4.667    0.000 
#    0.000    0.000    0.000    2.000    0.000    0.000 
#    0.000    0.000    0.000    0.000    0.000    0.000 
#
# Total GULP energy -148677.252293 kJ/mol
# GULP energy per Si atom -12389.771024 kJ/mol
# Density = 1.849578 g / cm^3
# Si number density = 18.537977 Si / 1000 Ang^3
#
#
#
# Elastic Constant Matrix: (Units=GPa)
#
#
# Indices 1 2 3 4 5 6 
#
# 1 94.8783 3.7325 32.9575 0.0000 -16.6262 0.0000
# 2 3.7325 87.2244 15.0087 0.0000 -1.0750 0.0000
# 3 32.9575 15.0087 104.7652 0.0000 -3.9634 0.0000
# 4 0.0000 0.0000 0.0000 21.2591 0.0000 -8.1268
# 5 -16.6262 -1.0750 -3.9634 0.0000 19.9240 0.0000
# 6 0.0000 0.0000 0.0000 -8.1268 0.0000 22.7100
#
#
#
# Elastic Compliance Matrix: (Units=1/GPa)
#
#
# Indices 1 2 3 4 5 6 
#
# 1 0.013788 0.000224 -0.003964 0.000000 0.010729 0.000000
# 2 0.000224 0.011760 -0.001737 0.000000 0.000476 0.000000
# 3 -0.003964 -0.001737 0.010995 0.000000 -0.001214 0.000000
# 4 0.000000 0.000000 0.000000 0.054493 0.000000 0.019500
# 5 0.010729 0.000476 -0.001214 0.000000 0.058928 0.000000
# 6 0.000000 0.000000 0.000000 0.019500 0.000000 0.051012
#
#
# Mechanical properties :
#
#
# Convention : Reuss Voigt Hill
#
# Bulk Modulus (GPa) = 39.07851 43.36280 41.22065
# Shear Modulus (GPa) = 22.67990 28.45656 25.56823
#
# Velocity S-wave (km/s) = 3.50155 3.92221 3.71783
# Velocity P-wave (km/s) = 6.12159 6.62976 6.38074
#
# Compressibility (1/GPa) = 0.02558951
#
# Stress axis : x y z
#
# Youngs Moduli (GPa) = 72.52654 85.03483 90.95024
#
# Poissons Ratio (x) = -0.01907 0.36050
# Poissons Ratio (y) = -0.01626 0.15800
# Poissons Ratio (z) = 0.28748 0.14773
#
# Static dielectric constant tensor:
#      x y z
#    x 3.335180 0.000000 -0.102650 
#    y 0.000000 3.408780 0.000000 
#    z -0.102650 0.000000 3.178640 
# 
# 
# High freq. dielectric constant tensor:
#      x y z
#    x 1.701850 0.000000 -0.021400 
#    y 0.000000 1.734390 0.000000 
#    z -0.021400 0.000000 1.688790 
# 
# From -- ./inp_files/45287.got.cif
#   From: 2010.03.12/outbox.cif.g09.slc.cpg/sg5_23_cif.got.tgz:45287.got - 2010.03.31 09:47:26.
