data_PCOD8050779
_publ_section_title
;
Structure prediction by ZEFSAII (Michael W. Deem and Ramdas Pophale) SiO2 
 PCOD8050779
Probable space group: C 2
;
_chemical_formula_sum "Si O2"
_cell_formula_units_Z 32
_cell_length_a 17.116848
_cell_length_b 15.405004
_cell_length_c 11.845655
_cell_angle_alpha 90.000000
_cell_angle_beta 28.669416
_cell_angle_gamma 90.000000
_cell_volume 1498.526386
_symmetry_space_group_name_H-M "C 2"
_symmetry_group_IT_number 5
_symmetry_cell_setting 'monoclinic'
loop_
_space_group_symop_operation_xyz
x,y,z
-x,y,-z
1/2+x,1/2+y,z
1/2-x,1/2+y,-z
loop_
_atom_site_type_symbol
_atom_site_label
_atom_site_fract_x
_atom_site_fract_y
_atom_site_fract_z
Si Si1 0.885089 0.607230 0.045867
Si Si2 0.514871 0.997319 0.282372
Si Si3 0.769488 0.646651 0.634631
Si Si4 0.574482 0.685474 0.521262
Si Si5 0.769540 0.356458 0.601896
Si Si6 0.521388 0.278012 0.756034
Si Si7 0.962537 0.106662 0.876028
Si Si8 0.191879 0.925788 0.946477
O O1 0.703670 0.611506 0.324379
O O2 0.883756 0.536230 0.949553
O O3 0.000000 0.574474 0.000000
O O4 0.942677 0.701142 0.928796
O O5 0.403532 0.071681 0.480459
O O6 0.400419 0.921006 0.379845
O O7 0.639188 0.958563 0.215692
O O8 0.862423 0.737358 0.488458
O O9 0.645340 0.622342 0.690862
O O10 0.670785 0.655267 0.876644
O O11 0.500000 0.722565 0.500000
O O12 0.655648 0.761503 0.487597
O O13 0.442959 0.643639 0.773652
O O14 0.614923 0.345941 0.717966
O O15 0.723233 0.391893 0.781939
O O16 0.380731 0.343959 0.887961
O O17 0.935015 0.004286 0.904665
#
# Coordination Sequence:
#
# PCOD8050779 Si02
#       8
#     4   4   4   4   4   4   4   4
#     4  11  21  43  67  95 132 179 217 273 343 403
#     4  11  24  40  64 102 137 167 223 285 343 388
#     4  10  22  43  66  97 138 176 219 278 337 412
#     4  12  23  40  65  98 133 172 228 278 331 400
#     4  12  22  40  65  98 130 168 232 279 321 401
#     4  11  22  41  68 101 130 171 228 282 337 398
#     4  11  23  41  68  99 134 180 229 272 337 403
#     4  12  23  39  67 104 132 171 228 284 333 397
#
# _framework density 21.354310999999999
#
# number of rings (size 3 to 8) (size 9 to 14) (size 15 to 20)
#    0.000    0.750    5.000    3.750    1.750    0.000 
#    0.000    2.500    0.000    1.500    0.000    0.000 
#    0.000    0.000    0.000    0.000    0.000    0.000 
#
# Total GULP energy -198404.680660 kJ/mol
# GULP energy per Si atom -12400.292541 kJ/mol
# Density = 2.130571 g / cm^3
# Si number density = 21.354311 Si / 1000 Ang^3
#
#
#
# Elastic Constant Matrix: (Units=GPa)
#
#
# Indices 1 2 3 4 5 6 
#
# 1 66.4202 27.3063 36.7962 0.0000 -2.5378 0.0005
# 2 27.3063 105.0953 57.3182 -0.0003 7.8032 0.0005
# 3 36.7962 57.3182 122.5741 -0.0003 13.9093 0.0008
# 4 0.0000 -0.0003 -0.0003 36.8175 0.0003 5.4085
# 5 -2.5378 7.8032 13.9093 0.0003 36.1715 -0.0007
# 6 0.0005 0.0005 0.0008 5.4085 -0.0007 22.0239
#
#
#
# Elastic Compliance Matrix: (Units=1/GPa)
#
#
# Indices 1 2 3 4 5 6 
#
# 1 0.018975 -0.002510 -0.004951 0.000000 0.003777 0.000000
# 2 -0.002510 0.013113 -0.005267 0.000000 -0.000980 0.000000
# 3 -0.004951 -0.005267 0.012566 0.000000 -0.004043 0.000000
# 4 0.000000 0.000000 0.000000 0.028177 0.000000 -0.006920
# 5 0.003777 -0.000980 -0.004043 0.000000 0.029677 0.000001
# 6 0.000000 0.000000 0.000000 -0.006920 0.000001 0.047104
#
#
# Mechanical properties :
#
#
# Convention : Reuss Voigt Hill
#
# Bulk Modulus (GPa) = 52.09035 59.65899 55.87467
# Shear Modulus (GPa) = 27.55299 30.51383 29.03341
#
# Velocity S-wave (km/s) = 3.59594 3.78422 3.69128
# Velocity P-wave (km/s) = 6.45658 6.86237 6.66256
#
# Compressibility (1/GPa) = 0.01919741
#
# Stress axis : x y z
#
# Youngs Moduli (GPa) = 52.70174 76.26159 79.57777
#
# Poissons Ratio (x) = 0.19145 0.39397
# Poissons Ratio (y) = 0.13230 0.41914
# Poissons Ratio (z) = 0.26091 0.40167
#
# Static dielectric constant tensor:
#      x y z
#    x 3.879050 0.000000 -0.159480 
#    y 0.000000 4.188620 0.000000 
#    z -0.159480 0.000000 4.157040 
# 
# 
# High freq. dielectric constant tensor:
#      x y z
#    x 1.824160 0.000000 -0.013410 
#    y 0.000000 1.836310 0.000000 
#    z -0.013410 0.000000 1.846300 
# 
# From -- ./inp_files/44960.got.cif
#   From: 2010.03.12/outbox.cif.g09.slc.cpg/sg5_23_cif.got.tgz:44960.got - 2010.03.31 09:47:26.
