data_PCOD8050061
_publ_section_title
;
Structure prediction by ZEFSAII (Michael W. Deem and Ramdas Pophale) SiO2 
 PCOD8050061
Probable space group: C 2
;
_chemical_formula_sum "Si O2"
_cell_formula_units_Z 32
_cell_length_a 15.131492
_cell_length_b 23.293449
_cell_length_c 8.959026
_cell_angle_alpha 90.000000
_cell_angle_beta 29.092217
_cell_angle_gamma 90.000000
_cell_volume 1535.345797
_symmetry_space_group_name_H-M "C 2"
_symmetry_group_IT_number 5
_symmetry_cell_setting 'monoclinic'
loop_
_space_group_symop_operation_xyz
x,y,z
-x,y,-z
1/2+x,1/2+y,z
1/2-x,1/2+y,-z
loop_
_atom_site_type_symbol
_atom_site_label
_atom_site_fract_x
_atom_site_fract_y
_atom_site_fract_z
Si Si1 0.191042 0.775700 0.139626
Si Si2 0.952019 0.763843 0.232990
Si Si3 0.812520 0.189923 0.195686
Si Si4 0.168674 0.986264 0.141463
Si Si5 0.696988 0.878182 0.182226
Si Si6 0.311751 0.379671 0.326185
Si Si7 0.316571 0.558144 0.177156
Si Si8 0.456877 0.983555 0.231622
O O1 0.305054 0.726325 0.052889
O O2 0.000000 0.790681 0.500000
O O3 0.139700 0.760023 0.046986
O O4 0.314181 0.832836 0.938451
O O5 0.828262 0.714557 0.480739
O O6 0.854033 0.827455 0.380096
O O7 0.000000 0.742960 0.000000
O O8 0.766748 0.124489 0.227042
O O9 0.000000 0.197819 0.000000
O O10 0.000000 0.997886 0.500000
O O11 0.150759 0.925957 0.080906
O O12 0.352480 0.978777 0.965114
O O13 0.171676 0.034583 0.009137
O O14 0.500000 0.907682 0.500000
O O15 0.750319 0.849262 0.261704
O O16 0.158577 0.423918 0.609908
O O17 0.500000 0.412354 0.000000
O O18 0.157808 0.529897 0.508151
O O19 0.500000 0.550068 0.000000
O O20 0.500000 0.004443 0.000000
#
# Coordination Sequence:
#
# PCOD8050061 Si02
#       8
#     4   4   4   4   4   4   4   4
#     4  10  22  39  61  94 132 175 218 266 330 392
#     4  10  21  40  62  93 129 175 218 262 330 391
#     4  10  25  43  67  95 128 175 221 277 329 391
#     4  12  26  43  68 101 135 176 223 277 338 403
#     4  12  22  39  63 100 137 175 215 271 336 399
#     4  11  22  40  66  98 142 177 215 276 333 393
#     4  11  24  49  70  94 135 175 228 284 337 390
#     4  12  26  41  68 104 132 178 225 272 339 402
#
# _framework density 20.842210000000001
#
# number of rings (size 3 to 8) (size 9 to 14) (size 15 to 20)
#    0.000    1.000    5.000    1.875    3.500    6.000 
#    0.000    3.125    0.000    0.000    0.000    0.000 
#    0.000    0.000    0.000    0.000    0.000    0.000 
#
# Total GULP energy -198233.458860 kJ/mol
# GULP energy per Si atom -12389.591179 kJ/mol
# Density = 2.079477 g / cm^3
# Si number density = 20.842210 Si / 1000 Ang^3
#
#
#
# Elastic Constant Matrix: (Units=GPa)
#
#
# Indices 1 2 3 4 5 6 
#
# 1 126.3303 63.0436 48.9030 0.0012 15.2361 -0.0012
# 2 63.0436 149.3204 58.0057 0.0003 8.6884 -0.0004
# 3 48.9030 58.0057 120.1135 0.0024 8.9511 -0.0011
# 4 0.0012 0.0003 0.0024 31.2246 -0.0012 5.6728
# 5 15.2361 8.6884 8.9511 -0.0012 38.4804 0.0009
# 6 -0.0012 -0.0004 -0.0011 5.6728 0.0009 38.9180
#
#
#
# Elastic Compliance Matrix: (Units=1/GPa)
#
#
# Indices 1 2 3 4 5 6 
#
# 1 0.011006 -0.003470 -0.002584 0.000000 -0.002973 0.000000
# 2 -0.003470 0.009372 -0.003112 0.000000 -0.000018 0.000000
# 3 -0.002584 -0.003112 0.010941 -0.000001 -0.000819 0.000000
# 4 0.000000 0.000000 -0.000001 0.032897 0.000001 -0.004795
# 5 -0.002973 -0.000018 -0.000819 0.000001 0.027359 -0.000001
# 6 0.000000 0.000000 0.000000 -0.004795 -0.000001 0.026394
#
#
# Mechanical properties :
#
#
# Convention : Reuss Voigt Hill
#
# Bulk Modulus (GPa) = 76.99293 81.74099 79.36696
# Shear Modulus (GPa) = 35.55412 36.77871 36.16642
#
# Velocity S-wave (km/s) = 4.13470 4.20530 4.17015
# Velocity P-wave (km/s) = 7.73404 7.92991 7.83259
#
# Compressibility (1/GPa) = 0.01298821
#
# Stress axis : x y z
#
# Youngs Moduli (GPa) = 90.85727 106.70063 91.39781
#
# Poissons Ratio (x) = 0.37027 0.23614
# Poissons Ratio (y) = 0.31529 0.28441
# Poissons Ratio (z) = 0.23474 0.33203
#
# Static dielectric constant tensor:
#      x y z
#    x 4.231650 0.000000 -0.066180 
#    y 0.000000 3.738150 0.000000 
#    z -0.066180 0.000000 3.785530 
# 
# 
# High freq. dielectric constant tensor:
#      x y z
#    x 1.839430 0.000000 -0.001590 
#    y 0.000000 1.798840 0.000000 
#    z -0.001590 0.000000 1.817480 
# 
# From -- ./inp_files/25627.got.cif
#   From: 2010.03.12/outbox.cif.g09.slc.cpg/sg5_13_cif.got.tgz:25627.got - 2010.03.31 09:47:26.
