data_PCOD8050241
_publ_section_title
;
Structure prediction by ZEFSAII (Michael W. Deem and Ramdas Pophale) SiO2 
 PCOD8050241
Probable space group: C 2
;
_chemical_formula_sum "Si O2"
_cell_formula_units_Z 32
_cell_length_a 17.414314
_cell_length_b 14.211436
_cell_length_c 10.614985
_cell_angle_alpha 90.000000
_cell_angle_beta 146.906906
_cell_angle_gamma 90.000000
_cell_volume 1434.356631
_symmetry_space_group_name_H-M "C 2"
_symmetry_group_IT_number 5
_symmetry_cell_setting 'monoclinic'
loop_
_space_group_symop_operation_xyz
x,y,z
-x,y,-z
1/2+x,1/2+y,z
1/2-x,1/2+y,-z
loop_
_atom_site_type_symbol
_atom_site_label
_atom_site_fract_x
_atom_site_fract_y
_atom_site_fract_z
Si Si1 0.071615 0.260110 0.476738
Si Si2 0.370963 0.967698 0.025391
Si Si3 0.296689 0.766330 0.970622
Si Si4 0.824851 0.401459 0.569633
Si Si5 0.890565 0.060580 0.737182
Si Si6 0.450813 0.148073 0.289771
Si Si7 0.613269 0.555151 0.550550
Si Si8 0.270361 0.234216 0.405706
O O1 0.170787 0.337066 0.549638
O O2 0.152723 0.164848 0.627318
O O3 0.000000 0.308542 0.500000
O O4 0.947579 0.224308 0.213918
O O5 0.295932 0.879066 0.989741
O O6 0.263087 0.002000 0.768893
O O7 0.518584 0.931407 0.168685
O O8 0.399472 0.048334 0.166464
O O9 0.175740 0.722724 0.891402
O O10 0.277020 0.732834 0.802249
O O11 0.740657 0.493329 0.413649
O O12 0.743538 0.340976 0.563966
O O13 0.947320 0.037039 0.674119
O O14 0.833921 0.167694 0.657721
O O15 0.000000 0.043320 0.000000
O O16 0.500000 0.131331 0.500000
O O17 0.571430 0.194260 0.368189
O O18 0.500000 0.520527 0.500000
#
# Coordination Sequence:
#
# PCOD8050241 Si02
#       8
#     4   4   4   4   4   4   4   4
#     4  10  21  42  67  97 139 176 229 285 357 417
#     4  11  24  43  74 105 139 185 241 293 348 433
#     4  10  23  41  71 102 135 190 230 290 353 430
#     4  11  25  47  67 108 134 188 236 294 353 427
#     4  12  26  47  71 103 142 190 235 296 357 427
#     4  10  22  45  70 106 144 185 235 296 359 421
#     4  11  24  45  73 106 141 184 233 295 355 421
#     4  11  23  46  71  97 143 184 239 292 351 432
#
# _framework density 22.309652
#
# number of rings (size 3 to 8) (size 9 to 14) (size 15 to 20)
#    0.000    1.250    2.500    3.000    1.750    8.000 
#    9.000    0.000    0.000    0.000    0.000    0.000 
#    0.000    0.000    0.000    0.000    0.000    0.000 
#
# Total GULP energy -198382.407484 kJ/mol
# GULP energy per Si atom -12398.900468 kJ/mol
# Density = 2.225887 g / cm^3
# Si number density = 22.309652 Si / 1000 Ang^3
#
#
#
# Elastic Constant Matrix: (Units=GPa)
#
#
# Indices 1 2 3 4 5 6 
#
# 1 104.6665 29.9052 30.4417 0.0000 5.6868 0.0000
# 2 29.9052 124.8917 53.4559 0.0000 11.0708 0.0000
# 3 30.4417 53.4559 84.1128 0.0000 6.1445 0.0000
# 4 0.0000 0.0000 0.0000 42.6961 0.0000 7.0176
# 5 5.6868 11.0708 6.1445 0.0000 28.0411 0.0000
# 6 0.0000 0.0000 0.0000 7.0176 0.0000 37.5044
#
#
#
# Elastic Compliance Matrix: (Units=1/GPa)
#
#
# Indices 1 2 3 4 5 6 
#
# 1 0.010850 -0.001177 -0.003102 0.000000 -0.001056 0.000000
# 2 -0.001177 0.011356 -0.006587 0.000000 -0.002802 0.000000
# 3 -0.003102 -0.006587 0.017237 0.000000 -0.000548 0.000000
# 4 0.000000 0.000000 0.000000 0.024165 0.000000 -0.004522
# 5 -0.001056 -0.002802 -0.000548 0.000000 0.037102 0.000000
# 6 0.000000 0.000000 0.000000 -0.004522 0.000000 0.027510
#
#
# Mechanical properties :
#
#
# Convention : Reuss Voigt Hill
#
# Bulk Modulus (GPa) = 56.45509 60.14186 58.29847
# Shear Modulus (GPa) = 32.08121 34.97287 33.52704
#
# Velocity S-wave (km/s) = 3.79621 3.96360 3.88081
# Velocity P-wave (km/s) = 6.67646 6.92554 6.80214
#
# Compressibility (1/GPa) = 0.01771319
#
# Stress axis : x y z
#
# Youngs Moduli (GPa) = 92.16691 88.05715 58.01363
#
# Poissons Ratio (x) = 0.10363 0.17994
# Poissons Ratio (y) = 0.10846 0.38211
# Poissons Ratio (z) = 0.28587 0.58000
#
# Static dielectric constant tensor:
#      x y z
#    x 3.980940 0.000000 0.093070 
#    y 0.000000 4.100680 0.000000 
#    z 0.093070 0.000000 4.115440 
# 
# 
# High freq. dielectric constant tensor:
#      x y z
#    x 1.877730 0.000000 -0.000880 
#    y 0.000000 1.889230 0.000000 
#    z -0.000880 0.000000 1.870430 
# 
# From -- ./inp_files/44980.got.cif
#   From: 2010.03.12/outbox.cif.g09.slc.cpg/sg5_23_cif.got.tgz:44980.got - 2010.03.31 09:47:26.
