data_PCOD8050862
_publ_section_title
;
Structure prediction by ZEFSAII (Michael W. Deem and Ramdas Pophale) SiO2 
 PCOD8050862
Probable space group: C 2
;
_chemical_formula_sum "Si O2"
_cell_formula_units_Z 24
_cell_length_a 22.212575
_cell_length_b 7.224781
_cell_length_c 21.642432
_cell_angle_alpha 90.000000
_cell_angle_beta 162.746919
_cell_angle_gamma 90.000000
_cell_volume 1030.126239
_symmetry_space_group_name_H-M "C 2"
_symmetry_group_IT_number 5
_symmetry_cell_setting 'monoclinic'
loop_
_space_group_symop_operation_xyz
x,y,z
-x,y,-z
1/2+x,1/2+y,z
1/2-x,1/2+y,-z
loop_
_atom_site_type_symbol
_atom_site_label
_atom_site_fract_x
_atom_site_fract_y
_atom_site_fract_z
Si Si1 0.022309 0.237080 0.294049
Si Si2 0.615267 0.062669 0.053949
Si Si3 0.338420 0.480441 0.890310
Si Si4 0.797351 0.479435 0.638541
Si Si5 0.930141 0.769839 0.323816
Si Si6 0.708121 0.524300 0.024982
O O1 0.117080 0.377737 0.337882
O O2 0.839876 0.338568 0.150172
O O3 0.175874 0.160220 0.495897
O O4 0.930511 0.056516 0.170227
O O5 0.697025 0.263718 0.155595
O O6 0.814438 0.949562 0.233871
O O7 0.500000 0.975343 0.000000
O O8 0.472382 0.059785 0.853564
O O9 0.124826 0.599662 0.681973
O O10 0.434235 0.505041 0.053322
O O11 0.500000 0.562694 0.000000
O O12 0.664040 0.330977 0.547200
O O13 0.855084 0.703270 0.181787
#
# Coordination Sequence:
#
# PCOD8050862 Si02
#       6
#     4   4   4   4   4   4
#     4  12  25  40  70 105 145 183 236 288 352 432
#     4  11  24  47  73  99 142 187 238 295 351 417
#     4   9  21  42  72  99 133 187 236 280 348 416
#     4  12  26  43  68 108 139 186 241 288 352 423
#     4  10  22  44  70  99 141 184 231 290 354 411
#     4  10  23  42  70  98 144 186 224 286 361 404
#
# _framework density 23.298114999999999
#
# number of rings (size 3 to 8) (size 9 to 14) (size 15 to 20)
#    1.000    0.333    1.667    3.500    4.667    0.667 
#    3.000    0.000    3.667    0.000    0.000    0.000 
#    0.000    0.000    0.000    0.000    0.000    0.000 
#
# Total GULP energy -148665.267920 kJ/mol
# GULP energy per Si atom -12388.772327 kJ/mol
# Density = 2.324509 g / cm^3
# Si number density = 23.298115 Si / 1000 Ang^3
#
#
#
# Elastic Constant Matrix: (Units=GPa)
#
#
# Indices 1 2 3 4 5 6 
#
# 1 122.4714 27.8654 27.4065 -0.0031 16.7634 0.0008
# 2 27.8654 99.5343 24.0160 -0.0320 1.3215 -0.0113
# 3 27.4065 24.0160 47.3551 -0.0542 9.3751 -0.0143
# 4 -0.0031 -0.0320 -0.0542 28.7580 -0.0261 9.3271
# 5 16.7634 1.3215 9.3751 -0.0261 19.6373 -0.0026
# 6 0.0008 -0.0113 -0.0143 9.3271 -0.0026 39.3379
#
#
#
# Elastic Compliance Matrix: (Units=1/GPa)
#
#
# Indices 1 2 3 4 5 6 
#
# 1 0.010377 -0.001934 -0.003641 -0.000015 -0.006990 0.000001
# 2 -0.001934 0.011895 -0.005612 0.000006 0.003530 0.000000
# 3 -0.003641 -0.005612 0.028030 0.000038 -0.009896 -0.000001
# 4 -0.000015 0.000006 0.000038 0.037670 0.000043 -0.008932
# 5 -0.006990 0.003530 -0.009896 0.000043 0.061377 -0.000009
# 6 0.000001 0.000000 -0.000001 -0.008932 -0.000009 0.027538
#
#
# Mechanical properties :
#
#
# Convention : Reuss Voigt Hill
#
# Bulk Modulus (GPa) = 35.80675 47.54851 41.67763
# Shear Modulus (GPa) = 23.97265 30.21815 27.09540
#
# Velocity S-wave (km/s) = 3.21121 3.60532 3.41396
# Velocity P-wave (km/s) = 5.39921 6.14689 5.78514
#
# Compressibility (1/GPa) = 0.02792769
#
# Stress axis : x y z
#
# Youngs Moduli (GPa) = 96.37033 84.06566 35.67636
#
# Poissons Ratio (x) = 0.16256 0.12990
# Poissons Ratio (y) = 0.18635 0.20023
# Poissons Ratio (z) = 0.35088 0.47181
#
# Static dielectric constant tensor:
#      x y z
#    x 4.491930 0.000020 0.173340 
#    y 0.000020 4.199520 0.000000 
#    z 0.173340 0.000000 3.751960 
# 
# 
# High freq. dielectric constant tensor:
#      x y z
#    x 1.936470 0.000000 0.014830 
#    y 0.000000 1.932750 0.000000 
#    z 0.014830 0.000000 1.880250 
# 
# From -- ./inp_files/67061.got.cif
#   From: 2010.03.12/outbox.cif.g09.slc.cpg/sg5_34_cif.got.tgz:67061.got - 2010.03.31 09:47:26.
