data_PCOD8050132
_publ_section_title
;
Structure prediction by ZEFSAII (Michael W. Deem and Ramdas Pophale) SiO2 
 PCOD8050132
Probable space group: C 2
;
_chemical_formula_sum "Si O2"
_cell_formula_units_Z 26
_cell_length_a 13.536600
_cell_length_b 14.221200
_cell_length_c 11.334200
_cell_angle_alpha 90.000000
_cell_angle_beta 32.765681
_cell_angle_gamma 90.000000
_cell_volume 1180.859468
_symmetry_space_group_name_H-M "C 2"
_symmetry_group_IT_number 5
_symmetry_cell_setting 'monoclinic'
loop_
_space_group_symop_operation_xyz
x,y,z
-x,y,-z
1/2+x,1/2+y,z
1/2-x,1/2+y,-z
loop_
_atom_site_type_symbol
_atom_site_label
_atom_site_fract_x
_atom_site_fract_y
_atom_site_fract_z
Si Si1 0.500000 0.433390 0.000000
Si Si2 0.000000 0.198512 0.000000
Si Si3 0.628021 0.361213 0.634162
Si Si4 0.532736 0.739008 0.708897
Si Si5 0.194543 0.573506 0.247493
Si Si6 0.500000 0.106145 0.000000
Si Si7 0.637468 0.549129 0.471231
Si Si8 0.359126 0.206117 0.915280
O O1 0.421462 0.370345 0.180776
O O2 0.331991 0.486188 0.103763
O O3 0.021532 0.252397 0.099267
O O4 0.809636 0.143271 0.215552
O O5 0.835090 0.326366 0.441018
O O6 0.608805 0.455725 0.577630
O O7 0.492643 0.281536 0.716431
O O8 0.617960 0.639684 0.577697
O O9 0.334107 0.752101 0.849527
O O10 0.170002 0.616719 0.141527
O O11 0.000000 0.547860 0.500000
O O12 0.554378 0.172999 0.051298
O O13 0.335989 0.041426 0.212228
O O14 0.500000 0.554765 0.500000
#
# Coordination Sequence:
#
# PCOD8050132 Si02
#       8
#     2   2   4   4   4   2   4   4
#     4  11  27  44  66 108 144 172 251 303 348 440
#     4   9  20  39  67 103 132 168 238 292 345 425
#     4  12  27  45  72 110 146 185 246 306 356 434
#     4  11  24  47  75 101 147 194 236 300 375 428
#     4  10  21  40  71  96 131 184 228 287 361 416
#     4  12  25  45  77 101 146 200 245 289 369 447
#     4  12  27  46  75 107 149 196 245 302 370 435
#     4  11  24  44  73 103 138 188 246 289 359 439
#
# _framework density 22.017862000000001
#
# number of rings (size 3 to 8) (size 9 to 14) (size 15 to 20)
#    0.000    0.923    3.077    4.154    2.154    6.154 
#    0.000    0.000    0.000    0.000    0.000    0.000 
#    0.000    0.000    0.000    0.000    0.000    0.000 
#
# Total GULP energy -161046.711450 kJ/mol
# GULP energy per Si atom -12388.208573 kJ/mol
# Density = 2.196775 g / cm^3
# Si number density = 22.017862 Si / 1000 Ang^3
#
#
#
# Elastic Constant Matrix: (Units=GPa)
#
#
# Indices 1 2 3 4 5 6 
#
# 1 117.3474 35.5858 42.8004 0.0009 -1.5909 -0.0002
# 2 35.5858 65.9860 25.9742 0.0009 6.6087 -0.0004
# 3 42.8004 25.9742 147.5018 0.0004 -14.8447 0.0001
# 4 0.0009 0.0009 0.0004 32.8737 0.0002 -3.6690
# 5 -1.5909 6.6087 -14.8447 0.0002 45.2566 0.0002
# 6 -0.0002 -0.0004 0.0001 -3.6690 0.0002 18.3540
#
#
#
# Elastic Compliance Matrix: (Units=1/GPa)
#
#
# Indices 1 2 3 4 5 6 
#
# 1 0.010862 -0.005019 -0.002229 0.000000 0.000383 0.000000
# 2 -0.005019 0.019134 -0.002288 0.000000 -0.003721 0.000000
# 3 -0.002229 -0.002288 0.008123 0.000000 0.002920 0.000000
# 4 0.000000 0.000000 0.000000 0.031114 0.000000 0.006220
# 5 0.000383 -0.003721 0.002920 0.000000 0.023611 0.000000
# 6 0.000000 0.000000 0.000000 0.006220 0.000000 0.055727
#
#
# Mechanical properties :
#
#
# Convention : Reuss Voigt Hill
#
# Bulk Modulus (GPa) = 52.49872 59.95066 56.22469
# Shear Modulus (GPa) = 28.73691 34.39519 31.56605
#
# Velocity S-wave (km/s) = 3.61662 3.95669 3.79047
# Velocity P-wave (km/s) = 6.42926 6.93983 6.68942
#
# Compressibility (1/GPa) = 0.01904808
#
# Stress axis : x y z
#
# Youngs Moduli (GPa) = 92.06447 52.26193 123.10349
#
# Poissons Ratio (x) = 0.26228 0.27446
# Poissons Ratio (y) = 0.46203 0.28162
# Poissons Ratio (z) = 0.20526 0.11956
#
# Static dielectric constant tensor:
#      x y z
#    x 3.975670 0.000000 -0.117310 
#    y 0.000000 3.762060 0.000000 
#    z -0.117310 0.000000 4.367140 
# 
# 
# High freq. dielectric constant tensor:
#      x y z
#    x 1.880040 0.000000 -0.010100 
#    y 0.000000 1.841670 0.000000 
#    z -0.010100 0.000000 1.888430 
# 
# From -- ./inp_files/43046.got.cif
#   From: 2010.03.12/outbox.cif.g09.slc.cpg/sg5_22_cif.got.tgz:43046.got - 2010.03.31 09:47:26.
