data_PCOD8050348
_publ_section_title
;
Structure prediction by ZEFSAII (Michael W. Deem and Ramdas Pophale) SiO2 
 PCOD8050348
Probable space group: C 2
;
_chemical_formula_sum "Si O2"
_cell_formula_units_Z 30
_cell_length_a 5.036515
_cell_length_b 22.627420
_cell_length_c 12.924806
_cell_angle_alpha 90.000000
_cell_angle_beta 78.210390
_cell_angle_gamma 90.000000
_cell_volume 1441.881296
_symmetry_space_group_name_H-M "C 2"
_symmetry_group_IT_number 5
_symmetry_cell_setting 'monoclinic'
loop_
_space_group_symop_operation_xyz
x,y,z
-x,y,-z
1/2+x,1/2+y,z
1/2-x,1/2+y,-z
loop_
_atom_site_type_symbol
_atom_site_label
_atom_site_fract_x
_atom_site_fract_y
_atom_site_fract_z
Si Si1 0.500000 0.132010 0.000000
Si Si2 0.852777 0.324718 0.755247
Si Si3 0.796537 0.420435 0.930372
Si Si4 0.931438 0.210281 0.887540
Si Si5 0.218430 0.178879 0.566195
Si Si6 0.105095 0.803678 0.378563
Si Si7 0.529836 0.045586 0.158078
Si Si8 0.552071 0.602775 0.756572
O O1 0.650005 0.175154 0.909002
O O2 0.326805 0.086492 0.942259
O O3 0.753523 0.376599 0.837871
O O4 0.907937 0.267858 0.821006
O O5 0.626838 0.311494 0.688068
O O6 0.133450 0.342514 0.675549
O O7 0.953569 0.478040 0.877199
O O8 0.500000 0.434925 0.000000
O O9 0.000000 0.392139 0.000000
O O10 0.125236 0.160718 0.821512
O O11 0.000000 0.227467 0.000000
O O12 0.500000 0.152475 0.500000
O O13 0.300685 0.235513 0.628277
O O14 0.062052 0.126854 0.639071
O O15 0.000000 0.201820 0.500000
O O16 0.000000 0.823961 0.500000
O O17 0.703862 0.055983 0.247909
O O18 0.221065 0.066719 0.197829
#
# Coordination Sequence:
#
# PCOD8050348 Si02
#       8
#     2   4   4   4   4   4   4   4
#     4  10  22  34  58  84 128 168 212 244 310 368
#     4  12  26  41  66  96 133 170 219 273 333 393
#     4  12  26  45  67  93 137 181 228 270 318 389
#     4  11  23  35  57  90 136 166 205 253 327 385
#     4  11  22  39  65  97 136 172 210 273 346 405
#     4  11  24  43  67  94 127 168 220 273 335 402
#     4  11  23  40  63  89 127 176 224 258 304 379
#     4  11  23  38  64  96 126 168 217 270 317 391
#
# _framework density 20.806151
#
# number of rings (size 3 to 8) (size 9 to 14) (size 15 to 20)
#    0.000    0.800    3.333    4.800    8.400    0.000 
#    0.000    0.000    0.000    8.000    0.000    0.000 
#    0.000    0.000    0.000    0.000    0.000    0.000 
#
# Total GULP energy -185860.098722 kJ/mol
# GULP energy per Si atom -12390.673248 kJ/mol
# Density = 2.075880 g / cm^3
# Si number density = 20.806151 Si / 1000 Ang^3
#
#
#
# Elastic Constant Matrix: (Units=GPa)
#
#
# Indices 1 2 3 4 5 6 
#
# 1 135.4095 39.0626 56.7268 0.0000 18.9408 0.0000
# 2 39.0626 94.3637 53.4412 0.0000 -0.3900 0.0000
# 3 56.7268 53.4412 115.1909 0.0000 9.8448 0.0000
# 4 0.0000 0.0000 0.0000 25.3088 0.0000 -2.3431
# 5 18.9408 -0.3900 9.8448 0.0000 39.3570 0.0000
# 6 0.0000 0.0000 0.0000 -2.3431 0.0000 24.8299
#
#
#
# Elastic Compliance Matrix: (Units=1/GPa)
#
#
# Indices 1 2 3 4 5 6 
#
# 1 0.010076 -0.002128 -0.003636 0.000000 -0.003961 0.000000
# 2 -0.002128 0.014956 -0.006122 0.000000 0.002704 0.000000
# 3 -0.003636 -0.006122 0.013455 0.000000 -0.001676 0.000000
# 4 0.000000 0.000000 0.000000 0.039860 0.000000 0.003761
# 5 -0.003961 0.002704 -0.001676 0.000000 0.027761 0.000000
# 6 0.000000 0.000000 0.000000 0.003761 0.000000 0.040629
#
#
# Mechanical properties :
#
#
# Convention : Reuss Voigt Hill
#
# Bulk Modulus (GPa) = 67.95585 71.49172 69.72379
# Shear Modulus (GPa) = 28.50368 30.94804 29.72586
#
# Velocity S-wave (km/s) = 3.70532 3.86093 3.78392
# Velocity P-wave (km/s) = 7.14410 7.36961 7.25773
#
# Compressibility (1/GPa) = 0.01471544
#
# Stress axis : x y z
#
# Youngs Moduli (GPa) = 99.24247 66.86074 74.31948
#
# Poissons Ratio (x) = 0.14229 0.27025
# Poissons Ratio (y) = 0.21121 0.45497
# Poissons Ratio (z) = 0.36088 0.40931
#
# Static dielectric constant tensor:
#      x y z
#    x 3.815040 0.000000 -0.149710 
#    y 0.000000 3.536620 0.000000 
#    z -0.149710 0.000000 4.073210 
# 
# 
# High freq. dielectric constant tensor:
#      x y z
#    x 1.826420 0.000000 0.001020 
#    y 0.000000 1.787660 0.000000 
#    z 0.001020 0.000000 1.818490 
# 
# From -- ./inp_files/34204.got.cif
#   From: 2010.03.12/outbox.cif.g09.slc.cpg/sg5_18_cif.got.tgz:34204.got - 2010.03.31 09:47:26.
