data_PCOD8050086
_publ_section_title
;
Structure prediction by ZEFSAII (Michael W. Deem and Ramdas Pophale) SiO2 
 PCOD8050086
Probable space group: C 2
;
_chemical_formula_sum "Si O2"
_cell_formula_units_Z 32
_cell_length_a 14.872143
_cell_length_b 20.130937
_cell_length_c 15.240169
_cell_angle_alpha 90.000000
_cell_angle_beta 160.457733
_cell_angle_gamma 90.000000
_cell_volume 1526.251990
_symmetry_space_group_name_H-M "C 2"
_symmetry_group_IT_number 5
_symmetry_cell_setting 'monoclinic'
loop_
_space_group_symop_operation_xyz
x,y,z
-x,y,-z
1/2+x,1/2+y,z
1/2-x,1/2+y,-z
loop_
_atom_site_type_symbol
_atom_site_label
_atom_site_fract_x
_atom_site_fract_y
_atom_site_fract_z
Si Si1 0.381231 0.214680 0.634270
Si Si2 0.185541 0.880072 0.591171
Si Si3 0.693416 0.150023 0.250762
Si Si4 0.936275 0.572031 0.609945
Si Si5 0.386651 0.421433 0.145639
Si Si6 0.991322 0.011080 0.892045
Si Si7 0.941773 0.512327 0.795343
Si Si8 0.586576 0.797536 0.874907
O O1 0.347706 0.197554 0.704940
O O2 0.391884 0.149572 0.584571
O O3 0.114282 0.256370 0.370153
O O4 0.654387 0.253718 0.863242
O O5 0.422662 0.824601 0.809878
O O6 0.000000 0.857186 0.500000
O O7 0.057695 0.881237 0.375565
O O8 0.280262 0.955028 0.697350
O O9 0.569928 0.077314 0.156117
O O10 0.000000 0.145985 0.500000
O O11 0.500000 0.181851 0.000000
O O12 0.772473 0.554894 0.371093
O O13 0.820554 0.529639 0.586935
O O14 0.249598 0.556334 0.888172
O O15 0.539298 0.447069 0.199469
O O16 0.177042 0.367290 0.913009
O O17 0.244755 0.485009 0.061457
O O18 0.000000 0.986471 0.000000
#
# Coordination Sequence:
#
# PCOD8050086 Si02
#       8
#     4   4   4   4   4   4   4   4
#     4  11  23  44  68  85 129 184 215 262 327 377
#     4  11  22  39  66  97 132 165 214 269 329 393
#     4  11  24  39  63 101 132 162 218 272 325 396
#     4  10  21  40  64  93 122 168 208 259 323 386
#     4  10  22  41  65  95 130 171 209 263 334 390
#     4  11  22  40  67  95 127 158 214 272 322 378
#     4   9  21  34  63  94 135 162 199 257 339 398
#     4  11  23  43  66  89 125 177 222 260 314 393
#
# _framework density 20.966394999999999
#
# number of rings (size 3 to 8) (size 9 to 14) (size 15 to 20)
#    0.000    1.500    2.500    2.250    3.500    3.500 
#    0.000    4.375    0.000    0.000    0.000    0.000 
#    0.000    0.000    0.000    0.000    0.000    0.000 
#
# Total GULP energy -198284.061615 kJ/mol
# GULP energy per Si atom -12392.753851 kJ/mol
# Density = 2.091867 g / cm^3
# Si number density = 20.966395 Si / 1000 Ang^3
#
#
#
# Elastic Constant Matrix: (Units=GPa)
#
#
# Indices 1 2 3 4 5 6 
#
# 1 97.0738 37.4360 22.7063 0.0020 -2.7922 0.0022
# 2 37.4360 90.2378 26.0415 0.0006 6.1406 0.0008
# 3 22.7063 26.0415 107.5960 0.0066 0.1231 0.0001
# 4 0.0020 0.0006 0.0066 28.7566 0.0025 4.7517
# 5 -2.7922 6.1406 0.1231 0.0025 32.4929 0.0010
# 6 0.0022 0.0008 0.0001 4.7517 0.0010 12.4040
#
#
#
# Elastic Compliance Matrix: (Units=1/GPa)
#
#
# Indices 1 2 3 4 5 6 
#
# 1 0.012610 -0.004946 -0.001466 0.000000 0.002024 -0.000002
# 2 -0.004946 0.014019 -0.002346 0.000001 -0.003066 0.000000
# 3 -0.001466 -0.002346 0.010171 -0.000002 0.000279 0.000001
# 4 0.000000 0.000001 -0.000002 0.037125 -0.000003 -0.014222
# 5 0.002024 -0.003066 0.000279 -0.000003 0.031528 -0.000002
# 6 -0.000002 0.000000 0.000001 -0.014222 -0.000002 0.086067
#
#
# Mechanical properties :
#
#
# Convention : Reuss Voigt Hill
#
# Bulk Modulus (GPa) = 51.85659 51.91945 51.88802
# Shear Modulus (GPa) = 23.20569 28.64563 25.92566
#
# Velocity S-wave (km/s) = 3.33048 3.70031 3.52025
# Velocity P-wave (km/s) = 6.29097 6.56303 6.42844
#
# Compressibility (1/GPa) = 0.01928395
#
# Stress axis : x y z
#
# Youngs Moduli (GPa) = 79.30205 71.33033 98.31953
#
# Poissons Ratio (x) = 0.35279 0.14417
# Poissons Ratio (y) = 0.39222 0.23064
# Poissons Ratio (z) = 0.11629 0.16733
#
# Static dielectric constant tensor:
#      x y z
#    x 3.694280 0.000000 0.102370 
#    y 0.000000 3.867380 -0.000010 
#    z 0.102370 -0.000010 3.908800 
# 
# 
# High freq. dielectric constant tensor:
#      x y z
#    x 1.805100 0.000000 0.009160 
#    y 0.000000 1.819690 0.000000 
#    z 0.009160 0.000000 1.832100 
# 
# From -- ./inp_files/55041.got.cif
#   From: 2010.03.12/outbox.cif.g09.slc.cpg/sg5_28_cif.got.tgz:55041.got - 2010.03.31 09:47:26.
