data_PCOD8050281
_publ_section_title
;
Structure prediction by ZEFSAII (Michael W. Deem and Ramdas Pophale) SiO2 
 PCOD8050281
Probable space group: C 2
;
_chemical_formula_sum "Si O2"
_cell_formula_units_Z 24
_cell_length_a 8.817346
_cell_length_b 16.945553
_cell_length_c 15.454833
_cell_angle_alpha 90.000000
_cell_angle_beta 147.904826
_cell_angle_gamma 90.000000
_cell_volume 1226.930649
_symmetry_space_group_name_H-M "C 2"
_symmetry_group_IT_number 5
_symmetry_cell_setting 'monoclinic'
loop_
_space_group_symop_operation_xyz
x,y,z
-x,y,-z
1/2+x,1/2+y,z
1/2-x,1/2+y,-z
loop_
_atom_site_type_symbol
_atom_site_label
_atom_site_fract_x
_atom_site_fract_y
_atom_site_fract_z
Si Si1 0.960019 0.496100 0.704734
Si Si2 0.606504 0.870403 0.456937
Si Si3 0.500000 0.595515 0.000000
Si Si4 0.368126 0.715277 0.087066
Si Si5 0.308967 0.350791 0.328750
Si Si6 0.288316 0.724714 0.240683
Si Si7 0.000000 0.120330 0.500000
O O1 0.240422 0.535348 0.877286
O O2 0.004972 0.453659 0.634086
O O3 0.836788 0.433420 0.714570
O O4 0.748446 0.566995 0.582850
O O5 0.500000 0.853969 0.500000
O O6 0.465780 0.805882 0.324843
O O7 0.951977 0.867221 0.629039
O O8 0.510833 0.648424 0.918535
O O9 0.576758 0.790367 0.179615
O O10 0.354361 0.683779 0.179654
O O11 0.047798 0.741511 0.906745
O O12 0.500000 0.315992 0.500000
O O13 0.394297 0.671698 0.369548
#
# Coordination Sequence:
#
# PCOD8050281 Si02
#       7
#     4   4   2   4   4   4   2
#     4  11  24  45  66  94 141 179 217 287 340 391
#     4  11  23  41  70 101 127 180 235 269 339 409
#     4  12  28  42  66 104 142 178 226 282 348 386
#     4  11  25  43  66 102 137 180 227 274 337 410
#     4  10  21  43  68  95 131 179 222 274 336 402
#     4  11  24  42  71  99 137 180 226 279 339 405
#     4  12  22  46  70  96 138 176 224 292 334 398
#
# _framework density 19.561008999999999
#
# number of rings (size 3 to 8) (size 9 to 14) (size 15 to 20)
#    0.000    1.000    8.333    0.000    7.000    1.333 
#    0.000    0.000    0.000    0.000    0.000    0.000 
#    0.000    0.000    0.000    0.000    0.000    0.000 
#
# Total GULP energy -148750.603997 kJ/mol
# GULP energy per Si atom -12395.883666 kJ/mol
# Density = 1.951649 g / cm^3
# Si number density = 19.561009 Si / 1000 Ang^3
#
#
#
# Elastic Constant Matrix: (Units=GPa)
#
#
# Indices 1 2 3 4 5 6 
#
# 1 121.6574 42.5961 57.7025 -0.0022 -0.3506 0.0006
# 2 42.5961 113.9527 79.8774 -0.0018 4.2940 0.0001
# 3 57.7025 79.8774 136.7063 -0.0127 10.4928 0.0003
# 4 -0.0022 -0.0018 -0.0127 44.2794 -0.0033 6.0235
# 5 -0.3506 4.2940 10.4928 -0.0033 35.5940 0.0006
# 6 0.0006 0.0001 0.0003 6.0235 0.0006 35.1310
#
#
#
# Elastic Compliance Matrix: (Units=1/GPa)
#
#
# Indices 1 2 3 4 5 6 
#
# 1 0.010467 -0.001344 -0.003738 -0.000001 0.001367 0.000000
# 2 -0.001344 0.015057 -0.008277 -0.000002 0.000610 0.000000
# 3 -0.003738 -0.008277 0.013971 0.000003 -0.003157 -0.000001
# 4 -0.000001 -0.000002 0.000003 0.023123 0.000001 -0.003965
# 5 0.001367 0.000610 -0.003157 0.000001 0.028965 -0.000001
# 6 0.000000 0.000000 -0.000001 -0.003965 -0.000001 0.029145
#
#
# Mechanical properties :
#
#
# Convention : Reuss Voigt Hill
#
# Bulk Modulus (GPa) = 78.26387 81.40759 79.83573
# Shear Modulus (GPa) = 32.95845 35.81026 34.38435
#
# Velocity S-wave (km/s) = 4.10921 4.28330 4.19716
# Velocity P-wave (km/s) = 7.91272 8.13449 8.02437
#
# Compressibility (1/GPa) = 0.01277729
#
# Stress axis : x y z
#
# Youngs Moduli (GPa) = 95.53704 66.41310 71.57522
#
# Poissons Ratio (x) = 0.08928 0.26752
# Poissons Ratio (y) = 0.12843 0.59246
# Poissons Ratio (z) = 0.35708 0.54973
#
# Static dielectric constant tensor:
#      x y z
#    x 3.719900 -0.000010 0.276440 
#    y -0.000010 3.656740 -0.000020 
#    z 0.276440 -0.000020 3.802440 
# 
# 
# High freq. dielectric constant tensor:
#      x y z
#    x 1.771660 0.000000 0.015790 
#    y 0.000000 1.756150 0.000000 
#    z 0.015790 0.000000 1.768680 
# 
# From -- ./inp_files/51448.got.cif
#   From: 2010.03.12/outbox.cif.g09.slc.cpg/sg5_26_cif.got.tgz:51448.got - 2010.03.31 09:47:26.
