data_PCOD8050858
_publ_section_title
;
Structure prediction by ZEFSAII (Michael W. Deem and Ramdas Pophale) SiO2 
 PCOD8050858
Probable space group: C 2
;
_chemical_formula_sum "Si O2"
_cell_formula_units_Z 20
_cell_length_a 6.562528
_cell_length_b 20.399808
_cell_length_c 7.611182
_cell_angle_alpha 90.000000
_cell_angle_beta 114.190308
_cell_angle_gamma 90.000000
_cell_volume 929.467907
_symmetry_space_group_name_H-M "C 2"
_symmetry_group_IT_number 5
_symmetry_cell_setting 'monoclinic'
loop_
_space_group_symop_operation_xyz
x,y,z
-x,y,-z
1/2+x,1/2+y,z
1/2-x,1/2+y,-z
loop_
_atom_site_type_symbol
_atom_site_label
_atom_site_fract_x
_atom_site_fract_y
_atom_site_fract_z
Si Si1 0.500000 0.786320 0.500000
Si Si2 0.964910 0.981337 0.189969
Si Si3 0.545900 0.338933 0.222719
Si Si4 0.500000 0.035448 0.000000
Si Si5 0.685488 0.093386 0.712665
Si Si6 0.323115 0.739052 0.791816
O O1 0.306238 0.830232 0.350173
O O2 0.411882 0.741673 0.625689
O O3 0.007326 0.910968 0.294864
O O4 0.131284 0.041447 0.299248
O O5 0.707842 0.994119 0.146299
O O6 0.000000 0.968377 0.000000
O O7 0.398353 0.283707 0.268623
O O8 0.500000 0.334023 0.000000
O O9 0.418614 0.075626 0.137695
O O10 0.500000 0.101592 0.500000
O O11 0.787878 0.162327 0.802663
O O12 0.500000 0.763797 0.000000
#
# Coordination Sequence:
#
# PCOD8050858 Si02
#       6
#     2   4   4   2   4   4
#     4  12  26  46  70 100 146 178 228 292 340 414
#     4   9  22  42  67 100 134 179 227 276 347 412
#     4  11  24  44  72 104 139 184 232 285 349 413
#     4  10  22  44  70  90 140 176 216 292 338 404
#     4  11  25  43  67 102 134 178 234 278 345 417
#     4  12  26  45  71 102 138 186 233 286 350 412
#
# _framework density 21.517688
#
# number of rings (size 3 to 8) (size 9 to 14) (size 15 to 20)
#    0.000    1.200    2.000    3.600    4.200    7.200 
#    3.600    0.000    0.000    0.000    0.000    0.000 
#    0.000    0.000    0.000    0.000    0.000    0.000 
#
# Total GULP energy -123928.867810 kJ/mol
# GULP energy per Si atom -12392.886781 kJ/mol
# Density = 2.146871 g / cm^3
# Si number density = 21.517688 Si / 1000 Ang^3
#
#
#
# Elastic Constant Matrix: (Units=GPa)
#
#
# Indices 1 2 3 4 5 6 
#
# 1 141.6029 63.8583 45.5671 0.0000 12.2247 0.0000
# 2 63.8583 155.1371 19.5079 0.0000 10.1108 0.0000
# 3 45.5671 19.5079 111.9149 0.0000 13.2977 0.0000
# 4 0.0000 0.0000 0.0000 -31.0963 0.0000 46.9466
# 5 12.2247 10.1108 13.2977 0.0000 46.6190 0.0000
# 6 0.0000 0.0000 0.0000 46.9466 0.0000 -24.2426
#
#
#
# Elastic Compliance Matrix: (Units=1/GPa)
#
#
# Indices 1 2 3 4 5 6 
#
# 1 0.009795 -0.003565 -0.003264 0.000000 -0.000864 0.000000
# 2 -0.003565 0.007947 0.000166 0.000000 -0.000836 0.000000
# 3 -0.003264 0.000166 0.010494 0.000000 -0.002173 0.000000
# 4 0.000000 0.000000 0.000000 0.016718 0.000000 0.032374
# 5 -0.000864 -0.000836 -0.002173 0.000000 0.022478 0.000000
# 6 0.000000 0.000000 0.000000 0.032374 0.000000 0.021444
#
#
# Mechanical properties :
#
#
# Convention : Reuss Voigt Hill
#
# Bulk Modulus (GPa) = 67.07460 74.05796 70.56628
# Shear Modulus (GPa) = 46.65443 16.90414 31.77928
#
# Velocity S-wave (km/s) = 4.66143 2.80588 3.84720
# Velocity P-wave (km/s) = 7.75961 6.70740 7.25261
#
# Compressibility (1/GPa) = 0.01490877
#
# Stress axis : x y z
#
# Youngs Moduli (GPa) = 102.09731 125.83375 95.29592
#
# Poissons Ratio (x) = 0.44859 0.31103
# Poissons Ratio (y) = 0.36397 -0.01578
# Poissons Ratio (z) = 0.33323 -0.02084
#
# Static dielectric constant tensor:
#      x y z
#    x 3.892610 0.000000 0.044690 
#    y 0.000000 4.095480 0.000000 
#    z 0.044690 0.000000 3.966950 
# 
# 
# High freq. dielectric constant tensor:
#      x y z
#    x 1.854010 0.000000 0.006690 
#    y 0.000000 1.851410 0.000000 
#    z 0.006690 0.000000 1.854950 
# 
# From -- ./inp_files/12293.got.cif
#   From: 2010.03.12/outbox.cif.g09.slc.cpg/sg5_7_cif.got.tgz:12293.got - 2010.03.31 09:47:26.
