data_PCOD8050342
_publ_section_title
;
Structure prediction by ZEFSAII (Michael W. Deem and Ramdas Pophale) SiO2 
 PCOD8050342
Probable space group: C 2
;
_chemical_formula_sum "Si O2"
_cell_formula_units_Z 28
_cell_length_a 20.280611
_cell_length_b 8.487150
_cell_length_c 14.936616
_cell_angle_alpha 90.000000
_cell_angle_beta 150.969687
_cell_angle_gamma 90.000000
_cell_volume 1247.615073
_symmetry_space_group_name_H-M "C 2"
_symmetry_group_IT_number 5
_symmetry_cell_setting 'monoclinic'
loop_
_space_group_symop_operation_xyz
x,y,z
-x,y,-z
1/2+x,1/2+y,z
1/2-x,1/2+y,-z
loop_
_atom_site_type_symbol
_atom_site_label
_atom_site_fract_x
_atom_site_fract_y
_atom_site_fract_z
Si Si1 0.922704 0.593180 0.519366
Si Si2 0.354410 0.423385 0.861434
Si Si3 0.897222 0.426654 0.665995
Si Si4 0.307324 0.854743 0.968153
Si Si5 0.122817 0.945852 0.592449
Si Si6 0.742242 0.164559 0.375318
Si Si7 0.217078 0.502442 0.868309
O O1 0.775175 0.530854 0.315814
O O2 0.932159 0.561385 0.635954
O O3 0.926152 0.778468 0.505260
O O4 0.059601 0.504340 0.642014
O O5 0.348988 0.255015 0.806164
O O6 0.328882 0.408533 0.938816
O O7 0.500000 0.497869 0.000000
O O8 0.795435 0.290626 0.510733
O O9 0.839959 0.519833 0.681829
O O10 0.032592 0.339347 0.857385
O O11 0.250213 0.937770 0.811031
O O12 0.249800 0.683613 0.908680
O O13 0.268668 0.941874 0.014122
O O14 0.000000 0.021478 0.500000
O O15 0.137326 0.074964 0.532068
#
# Coordination Sequence:
#
# PCOD8050342 Si02
#       7
#     4   4   4   4   4   4   4
#     4  10  21  48  72  97 138 184 218 284 340 414
#     4  11  25  43  69 102 137 183 229 281 341 409
#     4  10  25  47  69 100 135 183 229 279 347 400
#     4  11  26  41  74 101 135 177 232 287 329 414
#     4  12  24  43  69 104 136 177 227 280 345 405
#     4  11  27  44  70  96 143 181 226 286 343 413
#     4  11  24  45  71 102 141 178 228 281 347 397
#
# _framework density 22.442820000000001
#
# number of rings (size 3 to 8) (size 9 to 14) (size 15 to 20)
#    0.000    1.143    2.857    1.286    6.000    6.857 
#    0.000    0.000    0.000    0.000    0.000    0.000 
#    0.000    0.000    0.000    0.000    0.000    0.000 
#
# Total GULP energy -173452.850603 kJ/mol
# GULP energy per Si atom -12389.489329 kJ/mol
# Density = 2.239174 g / cm^3
# Si number density = 22.442820 Si / 1000 Ang^3
#
#
#
# Elastic Constant Matrix: (Units=GPa)
#
#
# Indices 1 2 3 4 5 6 
#
# 1 115.7793 42.0747 22.1993 0.0000 23.4577 0.0000
# 2 42.0747 78.9388 14.1438 0.0000 -5.7720 0.0000
# 3 22.1993 14.1438 71.7400 0.0000 9.3956 0.0000
# 4 0.0000 0.0000 0.0000 29.4485 0.0000 -5.7343
# 5 23.4577 -5.7720 9.3956 0.0000 37.5717 0.0000
# 6 0.0000 0.0000 0.0000 -5.7343 0.0000 48.1275
#
#
#
# Elastic Compliance Matrix: (Units=1/GPa)
#
#
# Indices 1 2 3 4 5 6 
#
# 1 0.013584 -0.007655 -0.001478 0.000000 -0.009287 0.000000
# 2 -0.007655 0.017727 -0.002180 0.000000 0.008048 0.000000
# 3 -0.001478 -0.002180 0.015249 0.000000 -0.003226 0.000000
# 4 0.000000 0.000000 0.000000 0.034764 0.000000 0.004142
# 5 -0.009287 0.008048 -0.003226 0.000000 0.034457 0.000000
# 6 0.000000 0.000000 0.000000 0.004142 0.000000 0.021272
#
#
# Mechanical properties :
#
#
# Convention : Reuss Voigt Hill
#
# Bulk Modulus (GPa) = 41.78125 47.03265 44.40695
# Shear Modulus (GPa) = 29.82287 35.56556 32.69422
#
# Velocity S-wave (km/s) = 3.64928 3.98517 3.82092
# Velocity P-wave (km/s) = 6.03436 6.49443 6.26862
#
# Compressibility (1/GPa) = 0.02393418
#
# Stress axis : x y z
#
# Youngs Moduli (GPa) = 73.61653 56.41092 65.57874
#
# Poissons Ratio (x) = 0.43180 0.09692
# Poissons Ratio (y) = 0.56350 0.14298
# Poissons Ratio (z) = 0.10880 0.12299
#
# Static dielectric constant tensor:
#      x y z
#    x 4.430270 0.000000 0.319660 
#    y 0.000000 3.905100 0.000000 
#    z 0.319660 0.000000 3.511080 
# 
# 
# High freq. dielectric constant tensor:
#      x y z
#    x 1.903400 0.000000 0.001910 
#    y 0.000000 1.874560 0.000000 
#    z 0.001910 0.000000 1.888030 
# 
# From -- ./inp_files/56925.got.cif
#   From: 2010.03.12/outbox.cif.g09.slc.cpg/sg5_29_cif.got.tgz:56925.got - 2010.03.31 09:47:26.
