data_PCOD8050701
_publ_section_title
;
Structure prediction by ZEFSAII (Michael W. Deem and Ramdas Pophale) SiO2 
 PCOD8050701
Probable space group: C 2
;
_chemical_formula_sum "Si O2"
_cell_formula_units_Z 26
_cell_length_a 7.941867
_cell_length_b 15.658001
_cell_length_c 12.661491
_cell_angle_alpha 90.000000
_cell_angle_beta 48.476258
_cell_angle_gamma 90.000000
_cell_volume 1178.801383
_symmetry_space_group_name_H-M "C 2"
_symmetry_group_IT_number 5
_symmetry_cell_setting 'monoclinic'
loop_
_space_group_symop_operation_xyz
x,y,z
-x,y,-z
1/2+x,1/2+y,z
1/2-x,1/2+y,-z
loop_
_atom_site_type_symbol
_atom_site_label
_atom_site_fract_x
_atom_site_fract_y
_atom_site_fract_z
Si Si1 0.261000 0.204130 0.900657
Si Si2 0.843263 0.964535 0.285557
Si Si3 0.223471 0.381502 0.975870
Si Si4 0.415997 0.237305 0.422837
Si Si5 0.879838 0.522145 0.814869
Si Si6 0.212927 0.060931 0.477317
Si Si7 0.000000 0.337968 0.500000
O O1 0.285202 0.281554 0.976978
O O2 0.380323 0.243045 0.746025
O O3 0.372145 0.112096 0.884622
O O4 0.000000 0.184072 0.000000
O O5 0.637930 0.897184 0.361022
O O6 0.081358 0.920421 0.175835
O O7 0.794775 0.032103 0.211469
O O8 0.857135 0.004170 0.395232
O O9 0.194647 0.438115 0.091657
O O10 0.000000 0.383588 0.000000
O O11 0.500000 0.275170 0.500000
O O12 0.355357 0.138754 0.463965
O O13 0.186012 0.283633 0.484841
O O14 0.131991 0.507446 0.668176
O O15 0.000000 0.093636 0.500000
#
# Coordination Sequence:
#
# PCOD8050701 Si02
#       7
#     4   4   4   4   4   4   2
#     4  10  22  42  66  95 131 175 231 274 342 415
#     4  12  23  44  66 100 139 176 230 283 346 416
#     4  11  24  42  65  95 134 177 231 288 338 410
#     4  11  24  44  71 100 138 182 229 289 346 413
#     4  11  23  43  67  95 134 184 223 286 347 405
#     4  11  22  41  72 102 135 181 229 284 349 414
#     4  12  24  42  64 104 138 174 228 288 332 424
#
# _framework density 22.056301999999999
#
# number of rings (size 3 to 8) (size 9 to 14) (size 15 to 20)
#    0.000    0.923    3.846    4.154    0.000    3.077 
#    0.000    1.538    0.000    0.000    0.000    0.000 
#    0.000    0.000    0.000    0.000    0.000    0.000 
#
# Total GULP energy -161097.608740 kJ/mol
# GULP energy per Si atom -12392.123749 kJ/mol
# Density = 2.200610 g / cm^3
# Si number density = 22.056302 Si / 1000 Ang^3
#
#
#
# Elastic Constant Matrix: (Units=GPa)
#
#
# Indices 1 2 3 4 5 6 
#
# 1 108.8646 34.2605 43.0150 0.0000 -8.1642 0.0000
# 2 34.2605 122.2568 45.8935 0.0000 16.5740 0.0000
# 3 43.0150 45.8935 106.8027 -0.0001 -6.7423 0.0000
# 4 0.0000 0.0000 -0.0001 34.7801 0.0001 -8.1022
# 5 -8.1642 16.5740 -6.7423 0.0001 33.9705 0.0000
# 6 0.0000 0.0000 0.0000 -8.1022 0.0000 19.6471
#
#
#
# Elastic Compliance Matrix: (Units=1/GPa)
#
#
# Indices 1 2 3 4 5 6 
#
# 1 0.011531 -0.002394 -0.003410 0.000000 0.003262 0.000000
# 2 -0.002394 0.011458 -0.004404 0.000000 -0.007039 0.000000
# 3 -0.003410 -0.004404 0.012874 0.000000 0.003884 0.000000
# 4 0.000000 0.000000 0.000000 0.031808 0.000000 0.013117
# 5 0.003262 -0.007039 0.003884 0.000000 0.034427 0.000000
# 6 0.000000 0.000000 0.000000 0.013117 0.000000 0.056307
#
#
# Mechanical properties :
#
#
# Convention : Reuss Voigt Hill
#
# Bulk Modulus (GPa) = 64.73174 64.91800 64.82487
# Shear Modulus (GPa) = 27.17867 31.99656 29.58762
#
# Velocity S-wave (km/s) = 3.51414 3.81291 3.66657
# Velocity P-wave (km/s) = 6.77331 6.99150 6.88327
#
# Compressibility (1/GPa) = 0.01544837
#
# Stress axis : x y z
#
# Youngs Moduli (GPa) = 86.72342 87.27740 77.67734
#
# Poissons Ratio (x) = 0.20892 0.26485
# Poissons Ratio (y) = 0.20759 0.34207
# Poissons Ratio (z) = 0.29569 0.38435
#
# Static dielectric constant tensor:
#      x y z
#    x 3.654750 0.000000 -0.253100 
#    y 0.000000 4.324590 0.000000 
#    z -0.253100 0.000000 4.280380 
# 
# 
# High freq. dielectric constant tensor:
#      x y z
#    x 1.839670 0.000000 -0.023960 
#    y 0.000000 1.880330 0.000000 
#    z -0.023960 0.000000 1.887010 
# 
# From -- ./inp_files/51071.got.cif
#   From: 2010.03.12/outbox.cif.g09.slc.cpg/sg5_26_cif.got.tgz:51071.got - 2010.03.31 09:47:26.
