data_PCOD8050326
_publ_section_title
;
Structure prediction by ZEFSAII (Michael W. Deem and Ramdas Pophale) SiO2 
 PCOD8050326
Probable space group: C 2
;
_chemical_formula_sum "Si O2"
_cell_formula_units_Z 30
_cell_length_a 11.307337
_cell_length_b 8.652542
_cell_length_c 15.154683
_cell_angle_alpha 90.000000
_cell_angle_beta 106.789549
_cell_angle_gamma 90.000000
_cell_volume 1419.487988
_symmetry_space_group_name_H-M "C 2"
_symmetry_group_IT_number 5
_symmetry_cell_setting 'monoclinic'
loop_
_space_group_symop_operation_xyz
x,y,z
-x,y,-z
1/2+x,1/2+y,z
1/2-x,1/2+y,-z
loop_
_atom_site_type_symbol
_atom_site_label
_atom_site_fract_x
_atom_site_fract_y
_atom_site_fract_z
Si Si1 0.030236 0.270030 0.168304
Si Si2 0.657336 0.088128 0.180049
Si Si3 0.651232 0.446002 0.656797
Si Si4 0.246568 0.113205 0.122677
Si Si5 0.000000 0.167061 0.500000
Si Si6 0.481714 0.165361 0.286490
Si Si7 0.595067 0.860838 0.367130
Si Si8 0.758188 0.281552 0.050350
O O1 0.072634 0.439049 0.144771
O O2 0.124168 0.141128 0.153331
O O3 0.025077 0.266765 0.273958
O O4 0.898389 0.232952 0.099254
O O5 0.587971 0.198786 0.236336
O O6 0.669367 0.178044 0.091721
O O7 0.790864 0.034252 0.246346
O O8 0.588162 0.565775 0.578687
O O9 0.550095 0.320306 0.666559
O O10 0.760640 0.363751 0.626513
O O11 0.359734 0.097897 0.213812
O O12 0.229858 0.958957 0.062701
O O13 0.271244 0.251959 0.058721
O O14 0.915130 0.274698 0.542643
O O15 0.535343 0.032211 0.362764
#
# Coordination Sequence:
#
# PCOD8050326 Si02
#       8
#     4   4   4   4   2   4   4   4
#     4  10  21  46  64  87 131 172 207 264 319 381
#     4  10  22  42  68  91 128 172 213 257 322 376
#     4  10  23  43  66  96 126 166 208 265 321 382
#     4  12  23  41  65  93 128 173 216 261 313 367
#     4  12  26  40  68 102 124 154 216 274 312 384
#     4  10  21  45  67  88 130 178 206 253 321 385
#     4  10  23  44  67  93 128 169 209 257 330 383
#     4  12  25  39  62  97 132 167 217 271 307 363
#
# _framework density 21.13438
#
# number of rings (size 3 to 8) (size 9 to 14) (size 15 to 20)
#    0.000    1.600    5.333    2.000    0.000    6.400 
#    2.400    0.000    0.000    0.000    0.000    0.000 
#    0.000    0.000    0.000    0.000    0.000    0.000 
#
# Total GULP energy -186029.843668 kJ/mol
# GULP energy per Si atom -12401.989578 kJ/mol
# Density = 2.108628 g / cm^3
# Si number density = 21.134380 Si / 1000 Ang^3
#
#
#
# Elastic Constant Matrix: (Units=GPa)
#
#
# Indices 1 2 3 4 5 6 
#
# 1 89.5306 29.4870 18.2404 0.0000 -5.0640 0.0000
# 2 29.4870 68.8251 23.8023 0.0000 -12.7716 0.0000
# 3 18.2404 23.8023 50.8345 0.0000 -17.1085 0.0000
# 4 0.0000 0.0000 0.0000 39.4582 0.0000 -0.2532
# 5 -5.0640 -12.7716 -17.1085 0.0000 26.1940 0.0000
# 6 0.0000 0.0000 0.0000 -0.2532 0.0000 24.1799
#
#
#
# Elastic Compliance Matrix: (Units=1/GPa)
#
#
# Indices 1 2 3 4 5 6 
#
# 1 0.013336 -0.004997 -0.003073 0.000000 -0.001865 0.000000
# 2 -0.004997 0.019549 -0.005739 0.000000 0.004817 0.000000
# 3 -0.003073 -0.005739 0.028609 0.000000 0.015293 0.000000
# 4 0.000000 0.000000 0.000000 0.025345 0.000000 0.000265
# 5 -0.001865 0.004817 0.015293 0.000000 0.050153 0.000000
# 6 0.000000 0.000000 0.000000 0.000265 0.000000 0.041359
#
#
# Mechanical properties :
#
#
# Convention : Reuss Voigt Hill
#
# Bulk Modulus (GPa) = 29.52057 39.13886 34.32972
# Shear Modulus (GPa) = 23.01368 27.14376 25.07872
#
# Velocity S-wave (km/s) = 3.30346 3.58766 3.44849
# Velocity P-wave (km/s) = 5.34311 5.97670 5.66877
#
# Compressibility (1/GPa) = 0.03387468
#
# Stress axis : x y z
#
# Youngs Moduli (GPa) = 74.98678 51.15309 34.95424
#
# Poissons Ratio (x) = 0.25560 0.10742
# Poissons Ratio (y) = 0.37469 0.20062
# Poissons Ratio (z) = 0.23046 0.29359
#
# Static dielectric constant tensor:
#      x y z
#    x 4.015540 0.000000 -0.110430 
#    y 0.000000 3.732870 0.000000 
#    z -0.110430 0.000000 3.744540 
# 
# 
# High freq. dielectric constant tensor:
#      x y z
#    x 1.836990 0.000000 -0.005740 
#    y 0.000000 1.822670 0.000000 
#    z -0.005740 0.000000 1.819290 
# 
# From -- ./inp_files/52270.got.cif
#   From: 2010.03.12/outbox.cif.g09.slc.cpg/sg5_27_cif.got.tgz:52270.got - 2010.03.31 09:47:26.
