data_PCOD8050236
_publ_section_title
;
Structure prediction by ZEFSAII (Michael W. Deem and Ramdas Pophale) SiO2 
 PCOD8050236
Probable space group: C 2
;
_chemical_formula_sum "Si O2"
_cell_formula_units_Z 22
_cell_length_a 26.062341
_cell_length_b 6.603875
_cell_length_c 16.203742
_cell_angle_alpha 90.000000
_cell_angle_beta 158.830110
_cell_angle_gamma 90.000000
_cell_volume 1007.155773
_symmetry_space_group_name_H-M "C 2"
_symmetry_group_IT_number 5
_symmetry_cell_setting 'monoclinic'
loop_
_space_group_symop_operation_xyz
x,y,z
-x,y,-z
1/2+x,1/2+y,z
1/2-x,1/2+y,-z
loop_
_atom_site_type_symbol
_atom_site_label
_atom_site_fract_x
_atom_site_fract_y
_atom_site_fract_z
Si Si1 0.858955 0.920950 0.254951
Si Si2 0.942091 0.471479 0.734692
Si Si3 0.661644 0.626328 0.051098
Si Si4 0.500000 0.931577 0.000000
Si Si5 0.843432 0.044171 0.777282
Si Si6 0.622484 0.239825 0.885484
O O1 0.782294 0.785985 0.208983
O O2 0.917107 0.780691 0.268082
O O3 0.000000 0.025745 0.500000
O O4 0.763014 0.108188 0.086696
O O5 0.772955 0.454252 0.461385
O O6 0.001662 0.623387 0.755051
O O7 0.010722 0.246743 0.832735
O O8 0.980034 0.558511 0.884351
O O9 0.704046 0.511427 0.199239
O O10 0.651295 0.458096 0.966491
O O11 0.640739 0.787978 0.210566
O O12 0.000000 0.939576 0.000000
#
# Coordination Sequence:
#
# PCOD8050236 Si02
#       6
#     4   4   4   2   4   4
#     4  11  23  41  67  95 130 170 209 264 319 376
#     4  10  21  42  67  90 135 172 209 269 320 380
#     4  10  22  42  62  96 132 165 219 264 320 381
#     4   8  20  42  62  96 130 164 216 262 316 374
#     4   9  20  41  64  94 130 170 209 268 321 371
#     4  11  23  41  65  98 128 168 218 257 321 385
#
# _framework density 21.843689000000001
#
# number of rings (size 3 to 8) (size 9 to 14) (size 15 to 20)
#    0.545    1.455    1.818    1.091    0.000    3.636 
#    4.909    0.000    0.000    0.000    0.000    0.000 
#    0.000    0.000    0.000    0.000    0.000    0.000 
#
# Total GULP energy -136291.580734 kJ/mol
# GULP energy per Si atom -12390.143703 kJ/mol
# Density = 2.179397 g / cm^3
# Si number density = 21.843689 Si / 1000 Ang^3
#
#
#
# Elastic Constant Matrix: (Units=GPa)
#
#
# Indices 1 2 3 4 5 6 
#
# 1 129.9806 11.8848 51.5414 0.0000 -13.8234 0.0000
# 2 11.8848 55.6269 27.3959 0.0000 1.5380 0.0000
# 3 51.5414 27.3959 151.1388 0.0000 -8.9409 0.0000
# 4 0.0000 0.0000 0.0000 7.7863 0.0000 3.8224
# 5 -13.8234 1.5380 -8.9409 0.0000 24.2449 0.0000
# 6 0.0000 0.0000 0.0000 3.8224 0.0000 24.9921
#
#
#
# Elastic Compliance Matrix: (Units=1/GPa)
#
#
# Indices 1 2 3 4 5 6 
#
# 1 0.009329 -0.000739 -0.002791 0.000000 0.004337 0.000000
# 2 -0.000739 0.019963 -0.003544 0.000000 -0.002994 0.000000
# 3 -0.002791 -0.003544 0.008311 0.000000 0.001698 0.000000
# 4 0.000000 0.000000 0.000000 0.138856 0.000000 -0.021237
# 5 0.004337 -0.002994 0.001698 0.000000 0.044535 0.000000
# 6 0.000000 0.000000 0.000000 -0.021237 0.000000 0.043261
#
#
# Mechanical properties :
#
#
# Convention : Reuss Voigt Hill
#
# Bulk Modulus (GPa) = 42.63266 57.59894 50.11580
# Shear Modulus (GPa) = 17.46911 27.79960 22.63435
#
# Velocity S-wave (km/s) = 2.83102 3.57131 3.22249
# Velocity P-wave (km/s) = 5.49962 6.59026 6.06949
#
# Compressibility (1/GPa) = 0.02345619
#
# Stress axis : x y z
#
# Youngs Moduli (GPa) = 107.19418 50.09318 120.32191
#
# Poissons Ratio (x) = 0.03699 0.33581
# Poissons Ratio (y) = 0.07916 0.42640
# Poissons Ratio (z) = 0.29917 0.17752
#
# Static dielectric constant tensor:
#      x y z
#    x 4.224900 0.000000 -0.030830 
#    y 0.000000 3.617240 0.000000 
#    z -0.030830 0.000000 3.700260 
# 
# 
# High freq. dielectric constant tensor:
#      x y z
#    x 1.879630 0.000000 -0.004840 
#    y 0.000000 1.835530 0.000000 
#    z -0.004840 0.000000 1.845080 
# 
# From -- ./inp_files/63720.got.cif
#   From: 2010.03.12/outbox.cif.g09.slc.cpg/sg5_32_cif.got.tgz:63720.got - 2010.03.31 09:47:26.
