data_PCOD8050484
_publ_section_title
;
Structure prediction by ZEFSAII (Michael W. Deem and Ramdas Pophale) SiO2 
 PCOD8050484
Probable space group: C 2
;
_chemical_formula_sum "Si O2"
_cell_formula_units_Z 18
_cell_length_a 12.609830
_cell_length_b 5.077013
_cell_length_c 13.066712
_cell_angle_alpha 90.000000
_cell_angle_beta 79.693319
_cell_angle_gamma 90.000000
_cell_volume 823.036274
_symmetry_space_group_name_H-M "C 2"
_symmetry_group_IT_number 5
_symmetry_cell_setting 'monoclinic'
loop_
_space_group_symop_operation_xyz
x,y,z
-x,y,-z
1/2+x,1/2+y,z
1/2-x,1/2+y,-z
loop_
_atom_site_type_symbol
_atom_site_label
_atom_site_fract_x
_atom_site_fract_y
_atom_site_fract_z
Si Si1 0.222506 0.033390 0.442732
Si Si2 0.822410 0.898767 0.000741
Si Si3 0.028430 0.898784 0.831773
Si Si4 0.500000 0.737888 0.500000
Si Si5 0.921190 0.405678 0.302321
O O1 0.263805 0.318972 0.471082
O O2 0.095796 0.053692 0.439514
O O3 0.291663 0.957991 0.329353
O O4 0.876480 0.885653 0.102217
O O5 0.768872 0.619687 0.985498
O O6 0.913460 0.962947 0.901411
O O7 0.019033 0.618101 0.777703
O O8 0.057192 0.117630 0.744286
O O9 0.460913 0.921992 0.413246
#
# Coordination Sequence:
#
# PCOD8050484 Si02
#       5
#     4   4   4   2   4
#     4  10  22  40  60  87 124 168 217 262 302 358
#     4  11  24  45  70  95 126 165 206 262 329 384
#     4  11  25  43  65  98 130 159 213 268 311 378
#     4  10  24  42  64  90 132 178 212 254 312 368
#     4  11  23  41  65  94 130 171 212 260 310 370
#
# _framework density 21.870236999999999
#
# number of rings (size 3 to 8) (size 9 to 14) (size 15 to 20)
#    0.000    1.333    0.000    5.333    0.000   16.889 
#    0.000    6.667    0.000    0.000    0.000    0.000 
#    0.000    0.000    0.000    0.000    0.000    0.000 
#
# Total GULP energy -111623.446898 kJ/mol
# GULP energy per Si atom -12402.605211 kJ/mol
# Density = 2.182046 g / cm^3
# Si number density = 21.870237 Si / 1000 Ang^3
#
#
#
# Elastic Constant Matrix: (Units=GPa)
#
#
# Indices 1 2 3 4 5 6 
#
# 1 119.0637 22.6559 41.7066 0.0000 -7.3303 0.0000
# 2 22.6559 82.4500 24.7455 0.0000 5.7265 0.0000
# 3 41.7066 24.7455 110.1325 0.0000 0.8129 0.0000
# 4 0.0000 0.0000 0.0000 36.7018 0.0000 -7.7355
# 5 -7.3303 5.7265 0.8129 0.0000 32.1938 0.0000
# 6 0.0000 0.0000 0.0000 -7.7355 0.0000 34.3970
#
#
#
# Elastic Compliance Matrix: (Units=1/GPa)
#
#
# Indices 1 2 3 4 5 6 
#
# 1 0.010137 -0.001949 -0.003421 0.000000 0.002741 0.000000
# 2 -0.001949 0.013544 -0.002284 0.000000 -0.002795 0.000000
# 3 -0.003421 -0.002284 0.010894 0.000000 -0.000648 0.000000
# 4 0.000000 0.000000 0.000000 0.028602 0.000000 0.006432
# 5 0.002741 -0.002795 -0.000648 0.000000 0.032200 0.000000
# 6 0.000000 0.000000 0.000000 0.006432 0.000000 0.030519
#
#
# Mechanical properties :
#
#
# Convention : Reuss Voigt Hill
#
# Bulk Modulus (GPa) = 51.90707 54.42915 53.16811
# Shear Modulus (GPa) = 33.86935 35.49437 34.68186
#
# Velocity S-wave (km/s) = 3.93956 4.03296 3.98653
# Velocity P-wave (km/s) = 6.66927 6.82845 6.74933
#
# Compressibility (1/GPa) = 0.01926520
#
# Stress axis : x y z
#
# Youngs Moduli (GPa) = 98.64973 73.83396 91.79717
#
# Poissons Ratio (x) = 0.14391 0.31405
# Poissons Ratio (y) = 0.19228 0.20970
# Poissons Ratio (z) = 0.33749 0.16867
#
# Static dielectric constant tensor:
#      x y z
#    x 4.233180 0.000000 -0.204070 
#    y 0.000000 3.894030 0.000000 
#    z -0.204070 0.000000 3.891230 
# 
# 
# High freq. dielectric constant tensor:
#      x y z
#    x 1.870510 0.000000 -0.018090 
#    y 0.000000 1.868860 0.000000 
#    z -0.018090 0.000000 1.858080 
# 
# From -- ./inp_files/37762.got.cif
#   From: 2010.03.12/outbox.cif.g09.slc.cpg/sg5_19_cif.got.tgz:37762.got - 2010.03.31 09:47:26.
