data_PCOD8050877
_publ_section_title
;
Structure prediction by ZEFSAII (Michael W. Deem and Ramdas Pophale) SiO2 
 PCOD8050877
Probable space group: C 2
;
_chemical_formula_sum "Si O2"
_cell_formula_units_Z 22
_cell_length_a 5.626621
_cell_length_b 13.563922
_cell_length_c 15.270031
_cell_angle_alpha 90.000000
_cell_angle_beta 53.061045
_cell_angle_gamma 90.000000
_cell_volume 931.471936
_symmetry_space_group_name_H-M "C 2"
_symmetry_group_IT_number 5
_symmetry_cell_setting 'monoclinic'
loop_
_space_group_symop_operation_xyz
x,y,z
-x,y,-z
1/2+x,1/2+y,z
1/2-x,1/2+y,-z
loop_
_atom_site_type_symbol
_atom_site_label
_atom_site_fract_x
_atom_site_fract_y
_atom_site_fract_z
Si Si1 0.500000 0.114900 0.500000
Si Si2 0.657660 0.016919 0.060460
Si Si3 0.469949 0.930647 0.601385
Si Si4 0.991715 0.735872 0.898920
Si Si5 0.364359 0.764526 0.317105
Si Si6 0.666024 0.374951 0.208619
O O1 0.766269 0.181059 0.406180
O O2 0.596543 0.042495 0.559688
O O3 0.452531 0.944470 0.164485
O O4 0.655181 0.130600 0.091153
O O5 0.500000 0.011415 0.000000
O O6 0.000000 0.981229 0.000000
O O7 0.500000 0.875971 0.500000
O O8 0.658992 0.869690 0.628703
O O9 0.130594 0.938339 0.711542
O O10 0.810547 0.825449 0.893356
O O11 0.313209 0.733229 0.784917
O O12 0.000000 0.758063 0.000000
O O13 0.160348 0.781862 0.277085
#
# Coordination Sequence:
#
# PCOD8050877 Si02
#       6
#     2   4   4   4   4   4
#     4  10  22  44  74 100 146 188 242 314 380 452
#     4  11  28  46  71 107 152 204 257 309 377 450
#     4   9  22  44  67 101 146 183 248 308 379 450
#     4  10  26  47  70 105 154 199 256 310 378 462
#     4  11  23  41  74 107 141 194 249 308 383 450
#     4  11  25  42  74 107 146 195 254 315 376 453
#
# _framework density 23.618534
#
# number of rings (size 3 to 8) (size 9 to 14) (size 15 to 20)
#    0.545    1.091    0.000    2.182   12.727    1.455 
#    0.000    5.455    0.000    0.000    0.000    0.000 
#    0.000    0.000    0.000    0.000    0.000    0.000 
#
# Total GULP energy -136291.969241 kJ/mol
# GULP energy per Si atom -12390.179022 kJ/mol
# Density = 2.356478 g / cm^3
# Si number density = 23.618534 Si / 1000 Ang^3
#
#
#
# Elastic Constant Matrix: (Units=GPa)
#
#
# Indices 1 2 3 4 5 6 
#
# 1 98.5591 45.5097 43.4132 0.0000 5.5812 0.0000
# 2 45.5097 140.1072 75.2147 0.0000 -3.8213 0.0000
# 3 43.4132 75.2147 133.5303 0.0000 7.8638 -0.0001
# 4 0.0000 0.0000 0.0000 49.9346 0.0000 4.6197
# 5 5.5812 -3.8213 7.8638 0.0000 16.3713 0.0001
# 6 0.0000 0.0000 -0.0001 4.6197 0.0001 7.1290
#
#
#
# Elastic Compliance Matrix: (Units=1/GPa)
#
#
# Indices 1 2 3 4 5 6 
#
# 1 0.012756 -0.003088 -0.002171 0.000000 -0.004027 0.000000
# 2 -0.003088 0.011447 -0.005828 0.000000 0.006524 0.000000
# 3 -0.002171 -0.005828 0.011849 0.000000 -0.006312 0.000000
# 4 0.000000 0.000000 0.000000 0.021303 0.000000 -0.013805
# 5 -0.004027 0.006524 -0.006312 0.000000 0.067010 -0.000001
# 6 0.000000 0.000000 0.000000 -0.013805 -0.000001 0.149217
#
#
# Mechanical properties :
#
#
# Convention : Reuss Voigt Hill
#
# Bulk Modulus (GPa) = 72.05195 77.83021 74.94108
# Shear Modulus (GPa) = 16.64536 28.55757 22.60147
#
# Velocity S-wave (km/s) = 2.65761 3.48101 3.09680
# Velocity P-wave (km/s) = 6.32376 7.01293 6.67724
#
# Compressibility (1/GPa) = 0.01387887
#
# Stress axis : x y z
#
# Youngs Moduli (GPa) = 78.39272 87.35785 84.39310
#
# Poissons Ratio (x) = 0.26976 0.18320
# Poissons Ratio (y) = 0.24208 0.49186
# Poissons Ratio (z) = 0.17017 0.50914
#
# Static dielectric constant tensor:
#      x y z
#    x 4.148510 0.000000 0.237530 
#    y 0.000000 4.349080 0.000000 
#    z 0.237530 0.000000 4.504680 
# 
# 
# High freq. dielectric constant tensor:
#      x y z
#    x 1.912720 0.000000 0.003840 
#    y 0.000000 1.939920 0.000000 
#    z 0.003840 0.000000 1.952000 
# 
# From -- ./inp_files/58689.got.cif
#   From: 2010.03.12/outbox.cif.g09.slc.cpg/sg5_30_cif.got.tgz:58689.got - 2010.03.31 09:47:26.
