data_PCOD8050612
_publ_section_title
;
Structure prediction by ZEFSAII (Michael W. Deem and Ramdas Pophale) SiO2 
 PCOD8050612
Probable space group: C 2
;
_chemical_formula_sum "Si O2"
_cell_formula_units_Z 24
_cell_length_a 12.265842
_cell_length_b 15.180178
_cell_length_c 7.390321
_cell_angle_alpha 90.000000
_cell_angle_beta 49.315318
_cell_angle_gamma 90.000000
_cell_volume 1043.478586
_symmetry_space_group_name_H-M "C 2"
_symmetry_group_IT_number 5
_symmetry_cell_setting 'monoclinic'
loop_
_space_group_symop_operation_xyz
x,y,z
-x,y,-z
1/2+x,1/2+y,z
1/2-x,1/2+y,-z
loop_
_atom_site_type_symbol
_atom_site_label
_atom_site_fract_x
_atom_site_fract_y
_atom_site_fract_z
Si Si1 0.392248 0.008310 0.276149
Si Si2 0.000000 0.813929 0.000000
Si Si3 0.450084 0.175702 0.748079
Si Si4 0.203137 0.394923 0.305646
Si Si5 0.806748 0.066038 0.058255
Si Si6 0.391536 0.592396 0.375886
Si Si7 0.000000 0.245539 0.500000
O O1 0.444323 0.096631 0.316720
O O2 0.229515 0.035690 0.383925
O O3 0.386003 0.926032 0.420393
O O4 0.500000 0.981047 0.000000
O O5 0.865503 0.875487 0.192986
O O6 0.037366 0.755852 0.131016
O O7 0.500000 0.211082 0.500000
O O8 0.284912 0.143052 0.936804
O O9 0.210389 0.477329 0.159891
O O10 0.126419 0.311679 0.293769
O O11 0.840007 0.099725 0.224910
O O12 0.951620 0.046150 0.788129
O O13 0.422229 0.688851 0.427812
#
# Coordination Sequence:
#
# PCOD8050612 Si02
#       7
#     4   2   4   4   4   4   2
#     4  11  23  44  73  99 133 191 242 278 339 435
#     4  12  26  42  76 106 144 176 232 298 352 400
#     4  12  22  43  74 105 134 191 238 279 338 432
#     4  11  23  44  68 102 142 179 221 297 358 395
#     4  10  22  44  73  90 136 187 231 272 345 428
#     4  10  22  41  67 100 127 179 234 278 337 418
#     4  12  24  40  64 102 140 164 218 294 346 388
#
# _framework density 22.999993
#
# number of rings (size 3 to 8) (size 9 to 14) (size 15 to 20)
#    0.000    1.000    4.167    5.000    2.333    0.000 
#    3.000    3.333    9.167    0.000    0.000    0.000 
#    0.000    0.000    0.000    0.000    0.000    0.000 
#
# Total GULP energy -148746.363031 kJ/mol
# GULP energy per Si atom -12395.530253 kJ/mol
# Density = 2.294764 g / cm^3
# Si number density = 22.999993 Si / 1000 Ang^3
#
#
#
# Elastic Constant Matrix: (Units=GPa)
#
#
# Indices 1 2 3 4 5 6 
#
# 1 22.8006 -3.5868 7.8031 0.0000 -14.5018 0.0000
# 2 -3.5868 78.5717 21.8135 0.0000 7.6791 0.0000
# 3 7.8031 21.8135 148.2969 0.0000 -20.2266 0.0000
# 4 0.0000 0.0000 0.0000 44.8389 0.0000 -16.2820
# 5 -14.5018 7.6791 -20.2266 0.0000 40.0091 0.0000
# 6 0.0000 0.0000 0.0000 -16.2820 0.0000 47.5151
#
#
#
# Elastic Compliance Matrix: (Units=1/GPa)
#
#
# Indices 1 2 3 4 5 6 
#
# 1 0.057040 0.000703 -0.000326 0.000000 0.020375 0.000000
# 2 0.000703 0.013837 -0.002578 0.000000 -0.003704 0.000000
# 3 -0.000326 -0.002578 0.007723 0.000000 0.004281 0.000000
# 4 0.000000 0.000000 0.000000 0.025472 0.000000 0.008728
# 5 0.020375 -0.003704 0.004281 0.000000 0.035255 0.000000
# 6 0.000000 0.000000 0.000000 0.008728 0.000000 0.024037
#
#
# Mechanical properties :
#
#
# Convention : Reuss Voigt Hill
#
# Bulk Modulus (GPa) = 13.47713 33.52540 23.50126
# Shear Modulus (GPa) = 25.97437 41.38189 33.67813
#
# Velocity S-wave (km/s) = 3.36418 4.24631 3.83073
# Velocity P-wave (km/s) = 4.57850 6.21687 5.45949
#
# Compressibility (1/GPa) = 0.07419979
#
# Stress axis : x y z
#
# Youngs Moduli (GPa) = 17.53157 72.27049 129.47617
#
# Poissons Ratio (x) = -0.05080 0.04217
# Poissons Ratio (y) = -0.01232 0.33373
# Poissons Ratio (z) = 0.00571 0.18628
#
# Static dielectric constant tensor:
#      x y z
#    x 4.166110 0.000000 0.056780 
#    y 0.000000 3.995640 0.000000 
#    z 0.056780 0.000000 2.796710 
# 
# 
# High freq. dielectric constant tensor:
#      x y z
#    x 1.912420 0.000000 -0.032150 
#    y 0.000000 1.893850 0.000000 
#    z -0.032150 0.000000 1.918200 
# 
# From -- ./inp_files/24524.got.cif
#   From: 2010.03.12/outbox.cif.g09.slc.cpg/sg5_13_cif.got.tgz:24524.got - 2010.03.31 09:47:26.
