data_PCOD8050964
_publ_section_title
;
Structure prediction by ZEFSAII (Michael W. Deem and Ramdas Pophale) SiO2 
 PCOD8050964
Probable space group: C 2
;
_chemical_formula_sum "Si O2"
_cell_formula_units_Z 30
_cell_length_a 8.036606
_cell_length_b 13.512030
_cell_length_c 12.470824
_cell_angle_alpha 90.000000
_cell_angle_beta 84.554920
_cell_angle_gamma 90.000000
_cell_volume 1348.106766
_symmetry_space_group_name_H-M "C 2"
_symmetry_group_IT_number 5
_symmetry_cell_setting 'monoclinic'
loop_
_space_group_symop_operation_xyz
x,y,z
-x,y,-z
1/2+x,1/2+y,z
1/2-x,1/2+y,-z
loop_
_atom_site_type_symbol
_atom_site_label
_atom_site_fract_x
_atom_site_fract_y
_atom_site_fract_z
Si Si1 0.337685 0.670230 0.582833
Si Si2 0.830331 0.809031 0.552044
Si Si3 0.638624 0.218366 0.220097
Si Si4 0.123993 0.489513 0.580797
Si Si5 0.891757 0.488291 0.785687
Si Si6 0.760806 0.785683 0.210202
Si Si7 0.189113 0.190626 0.999989
Si Si8 0.500000 0.045364 0.000000
O O1 0.500000 0.678674 0.500000
O O2 0.185899 0.714579 0.523421
O O3 0.282316 0.557362 0.603183
O O4 0.354282 0.729139 0.694204
O O5 0.815015 0.779438 0.677429
O O6 0.688099 0.886551 0.529069
O O7 0.000000 0.859523 0.500000
O O8 0.671146 0.100262 0.234077
O O9 0.446724 0.241923 0.204739
O O10 0.754894 0.248836 0.112185
O O11 0.000000 0.537471 0.500000
O O12 0.035511 0.461785 0.695288
O O13 0.745457 0.405792 0.776765
O O14 0.977475 0.477807 0.896984
O O15 0.683303 0.766732 0.098405
O O16 0.328379 0.108247 0.018946
O O17 0.000000 0.146171 0.000000
#
# Coordination Sequence:
#
# PCOD8050964 Si02
#       8
#     4   4   4   4   4   4   4   2
#     4  12  25  44  69 102 144 187 240 302 362 443
#     4  12  24  43  69 101 138 190 234 295 369 435
#     4  11  24  49  71 103 150 190 241 311 369 438
#     4  12  25  44  67 101 141 187 244 297 364 438
#     4  11  23  43  73 101 138 195 235 299 372 434
#     4  12  23  45  73 106 146 194 245 304 375 442
#     4  11  24  44  75 104 142 199 240 304 379 436
#     4  10  22  50  70 102 148 186 248 312 368 436
#
# _framework density 22.253432
#
# number of rings (size 3 to 8) (size 9 to 14) (size 15 to 20)
#    0.000    0.533    5.333    3.600    4.667    0.000 
#    2.400    6.667    0.000    0.000    0.000    0.000 
#    0.000    0.000    0.000    0.000    0.000    0.000 
#
# Total GULP energy -185906.035560 kJ/mol
# GULP energy per Si atom -12393.735704 kJ/mol
# Density = 2.220278 g / cm^3
# Si number density = 22.253432 Si / 1000 Ang^3
#
#
#
# Elastic Constant Matrix: (Units=GPa)
#
#
# Indices 1 2 3 4 5 6 
#
# 1 92.1709 44.1874 33.9789 0.0000 -22.0116 0.0000
# 2 44.1874 110.8758 38.4188 0.0000 -1.8491 0.0000
# 3 33.9789 38.4188 171.5017 0.0000 -11.3186 0.0000
# 4 0.0000 0.0000 0.0000 15.2772 0.0000 -6.6775
# 5 -22.0116 -1.8491 -11.3186 0.0000 37.4649 0.0000
# 6 0.0000 0.0000 0.0000 -6.6775 0.0000 28.1838
#
#
#
# Elastic Compliance Matrix: (Units=1/GPa)
#
#
# Indices 1 2 3 4 5 6 
#
# 1 0.016274 -0.005880 -0.001322 0.000000 0.008872 0.000000
# 2 -0.005880 0.011904 -0.001725 0.000000 -0.003388 0.000000
# 3 -0.001322 -0.001725 0.006553 0.000000 0.001118 0.000000
# 4 0.000000 0.000000 0.000000 0.073019 0.000000 0.017300
# 5 0.008872 -0.003388 0.001118 0.000000 0.032075 0.000000
# 6 0.000000 0.000000 0.000000 0.017300 0.000000 0.039580
#
#
# Mechanical properties :
#
#
# Convention : Reuss Voigt Hill
#
# Bulk Modulus (GPa) = 59.25091 67.52431 63.38761
# Shear Modulus (GPa) = 24.64462 33.38272 29.01367
#
# Velocity S-wave (km/s) = 3.33145 3.87733 3.61471
# Velocity P-wave (km/s) = 6.44061 7.10311 6.77995
#
# Compressibility (1/GPa) = 0.01687738
#
# Stress axis : x y z
#
# Youngs Moduli (GPa) = 61.44671 84.00740 152.60257
#
# Poissons Ratio (x) = 0.49395 0.20169
# Poissons Ratio (y) = 0.36130 0.26328
# Poissons Ratio (z) = 0.08121 0.14493
#
# Static dielectric constant tensor:
#      x y z
#    x 3.982170 0.000000 0.004390 
#    y 0.000000 3.865550 0.000000 
#    z 0.004390 0.000000 4.512720 
# 
# 
# High freq. dielectric constant tensor:
#      x y z
#    x 1.867980 0.000000 -0.005040 
#    y 0.000000 1.865710 0.000000 
#    z -0.005040 0.000000 1.902450 
# 
# From -- ./inp_files/36376.got.cif
#   From: 2010.03.12/outbox.cif.g09.slc.cpg/sg5_19_cif.got.tgz:36376.got - 2010.03.31 09:47:26.
