data_PCOD8050641
_publ_section_title
;
Structure prediction by ZEFSAII (Michael W. Deem and Ramdas Pophale) SiO2 
 PCOD8050641
Probable space group: C 2
;
_chemical_formula_sum "Si O2"
_cell_formula_units_Z 28
_cell_length_a 20.772085
_cell_length_b 8.334597
_cell_length_c 13.594262
_cell_angle_alpha 90.000000
_cell_angle_beta 151.039516
_cell_angle_gamma 90.000000
_cell_volume 1139.595596
_symmetry_space_group_name_H-M "C 2"
_symmetry_group_IT_number 5
_symmetry_cell_setting 'monoclinic'
loop_
_space_group_symop_operation_xyz
x,y,z
-x,y,-z
1/2+x,1/2+y,z
1/2-x,1/2+y,-z
loop_
_atom_site_type_symbol
_atom_site_label
_atom_site_fract_x
_atom_site_fract_y
_atom_site_fract_z
Si Si1 0.457192 0.213960 0.144334
Si Si2 0.272378 0.947549 0.215123
Si Si3 0.038606 0.862140 0.653414
Si Si4 0.665810 0.930870 0.916513
Si Si5 0.345645 0.598230 0.762864
Si Si6 0.065262 0.209587 0.448057
Si Si7 0.727540 0.268025 0.434828
O O1 0.522227 0.269041 0.335308
O O2 0.584336 0.176985 0.246194
O O3 0.369622 0.056597 0.045743
O O4 0.367566 0.353172 0.978624
O O5 0.318899 0.015419 0.171144
O O6 0.386879 0.823119 0.399428
O O7 0.245455 0.086462 0.259848
O O8 0.000000 0.773802 0.500000
O O9 0.196625 0.850859 0.872208
O O10 0.981370 0.041462 0.571782
O O11 0.557282 0.790775 0.772779
O O12 0.304973 0.451820 0.635918
O O13 0.305286 0.754383 0.644154
O O14 0.500000 0.603003 0.000000
O O15 0.186118 0.183780 0.534043
#
# Coordination Sequence:
#
# PCOD8050641 Si02
#       7
#     4   4   4   4   4   4   4
#     4  11  22  40  65  96 130 167 224 273 324 410
#     4  10  22  41  70  93 130 178 217 271 348 392
#     4  11  23  40  60  89 129 169 210 276 339 383
#     4  11  23  40  64  95 127 168 224 275 327 409
#     4  11  23  46  70  96 141 183 224 283 340 405
#     4  11  23  41  65  91 127 171 219 271 335 407
#     4  11  24  42  69 101 131 180 231 270 342 413
#
# _framework density 24.570119999999999
#
# number of rings (size 3 to 8) (size 9 to 14) (size 15 to 20)
#    0.000    1.143    1.429    6.429    2.000    2.286 
#    2.571    0.714    0.000    0.000    0.000    0.000 
#    0.000    0.000    0.000    0.000    0.000    0.000 
#
# Total GULP energy -173589.889563 kJ/mol
# GULP energy per Si atom -12399.277826 kJ/mol
# Density = 2.451420 g / cm^3
# Si number density = 24.570120 Si / 1000 Ang^3
#
#
#
# Elastic Constant Matrix: (Units=GPa)
#
#
# Indices 1 2 3 4 5 6 
#
# 1 110.7316 6.4690 39.0002 0.0000 18.6208 0.0000
# 2 6.4690 18.0260 0.9027 0.0000 3.5498 0.0000
# 3 39.0002 0.9027 113.6607 0.0000 4.7991 0.0000
# 4 0.0000 0.0000 0.0000 29.5116 0.0000 -7.4029
# 5 18.6208 3.5498 4.7991 0.0000 47.4705 0.0000
# 6 0.0000 0.0000 0.0000 -7.4029 0.0000 29.6060
#
#
#
# Elastic Compliance Matrix: (Units=1/GPa)
#
#
# Indices 1 2 3 4 5 6 
#
# 1 0.011123 -0.003068 -0.003633 0.000000 -0.003766 0.000000
# 2 -0.003068 0.057159 0.000732 0.000000 -0.003145 0.000000
# 3 -0.003633 0.000732 0.010024 0.000000 0.000357 0.000000
# 4 0.000000 0.000000 0.000000 0.036153 0.000000 0.009040
# 5 -0.003766 -0.003145 0.000357 0.000000 0.022742 0.000000
# 6 0.000000 0.000000 0.000000 0.009040 0.000000 0.036037
#
#
# Mechanical properties :
#
#
# Convention : Reuss Voigt Hill
#
# Bulk Modulus (GPa) = 15.06785 37.24024 26.15404
# Shear Modulus (GPa) = 24.11963 34.38737 29.25350
#
# Velocity S-wave (km/s) = 3.13655 3.74513 3.45427
# Velocity P-wave (km/s) = 4.38898 5.82159 5.15529
#
# Compressibility (1/GPa) = 0.06636648
#
# Stress axis : x y z
#
# Youngs Moduli (GPa) = 89.90302 17.49504 99.76157
#
# Poissons Ratio (x) = 0.05368 0.36246
# Poissons Ratio (y) = 0.27583 -0.07298
# Poissons Ratio (z) = 0.32664 -0.01280
#
# Static dielectric constant tensor:
#      x y z
#    x 4.710480 0.000000 -0.093520 
#    y 0.000000 4.018520 0.000000 
#    z -0.093520 0.000000 4.614620 
# 
# 
# High freq. dielectric constant tensor:
#      x y z
#    x 1.989080 0.000000 0.009310 
#    y 0.000000 1.945690 0.000000 
#    z 0.009310 0.000000 1.991180 
# 
# From -- ./inp_files/56936.got.cif
#   From: 2010.03.12/outbox.cif.g09.slc.cpg/sg5_29_cif.got.tgz:56936.got - 2010.03.31 09:47:26.
