data_PCOD8050092
_publ_section_title
;
Structure prediction by ZEFSAII (Michael W. Deem and Ramdas Pophale) SiO2 
 PCOD8050092
Probable space group: C 2
;
_chemical_formula_sum "Si O2"
_cell_formula_units_Z 20
_cell_length_a 7.821120
_cell_length_b 16.801380
_cell_length_c 8.852843
_cell_angle_alpha 90.000000
_cell_angle_beta 121.889727
_cell_angle_gamma 90.000000
_cell_volume 987.730199
_symmetry_space_group_name_H-M "C 2"
_symmetry_group_IT_number 5
_symmetry_cell_setting 'monoclinic'
loop_
_space_group_symop_operation_xyz
x,y,z
-x,y,-z
1/2+x,1/2+y,z
1/2-x,1/2+y,-z
loop_
_atom_site_type_symbol
_atom_site_label
_atom_site_fract_x
_atom_site_fract_y
_atom_site_fract_z
Si Si1 0.582350 0.861900 0.708758
Si Si2 0.165524 0.049132 0.858892
Si Si3 0.430040 0.693420 0.640812
Si Si4 0.470658 0.027881 0.770135
Si Si5 0.500000 0.135161 0.500000
Si Si6 0.000000 0.918585 0.000000
O O1 0.500000 0.871357 0.500000
O O2 0.506108 0.778015 0.739132
O O3 0.496749 0.933411 0.767763
O O4 0.824518 0.863535 0.846938
O O5 0.240029 0.036343 0.719944
O O6 0.017063 0.124248 0.788920
O O7 0.369929 0.066930 0.042206
O O8 0.058190 0.973434 0.883866
O O9 0.500000 0.683038 0.500000
O O10 0.189344 0.691655 0.551292
O O11 0.523544 0.073718 0.645060
#
# Coordination Sequence:
#
# PCOD8050092 Si02
#       6
#     4   4   4   4   2   2
#     4  10  22  42  62  95 132 168 211 269 324 380
#     4  10  21  40  64  97 122 168 220 259 320 388
#     4  11  23  41  62  96 131 167 215 266 325 381
#     4  10  21  40  67  92 127 170 216 260 320 389
#     4  12  22  42  64  94 128 174 214 260 322 384
#     4  10  22  42  68  90 130 176 216 264 322 382
#
# _framework density 20.248443999999999
#
# number of rings (size 3 to 8) (size 9 to 14) (size 15 to 20)
#    0.000    1.600    3.000    2.400    0.000    1.600 
#    7.200   10.000    0.000    0.000    0.000    0.000 
#    0.000    0.000    0.000    0.000    0.000    0.000 
#
# Total GULP energy -123901.958572 kJ/mol
# GULP energy per Si atom -12390.195857 kJ/mol
# Density = 2.020236 g / cm^3
# Si number density = 20.248444 Si / 1000 Ang^3
#
#
#
# Elastic Constant Matrix: (Units=GPa)
#
#
# Indices 1 2 3 4 5 6 
#
# 1 150.8474 53.4472 42.3351 0.0000 14.9282 0.0000
# 2 53.4472 122.3295 49.7593 0.0000 24.1670 0.0000
# 3 42.3351 49.7593 86.3556 0.0000 20.2463 0.0000
# 4 0.0000 0.0000 0.0000 31.6036 0.0000 9.3224
# 5 14.9282 24.1670 20.2463 0.0000 37.6240 0.0000
# 6 0.0000 0.0000 0.0000 9.3224 0.0000 22.9771
#
#
#
# Elastic Compliance Matrix: (Units=1/GPa)
#
#
# Indices 1 2 3 4 5 6 
#
# 1 0.008262 -0.002523 -0.002527 0.000000 -0.000298 0.000000
# 2 -0.002523 0.012019 -0.004707 0.000000 -0.004186 0.000000
# 3 -0.002527 -0.004707 0.016693 0.000000 -0.004957 0.000000
# 4 0.000000 0.000000 0.000000 0.035944 0.000000 -0.014583
# 5 -0.000298 -0.004186 -0.004957 0.000000 0.032053 0.000000
# 6 0.000000 0.000000 0.000000 -0.014583 0.000000 0.049438
#
#
# Mechanical properties :
#
#
# Convention : Reuss Voigt Hill
#
# Bulk Modulus (GPa) = 57.27352 72.29063 64.78207
# Shear Modulus (GPa) = 27.81769 32.70701 30.26235
#
# Velocity S-wave (km/s) = 3.71053 4.02342 3.87014
# Velocity P-wave (km/s) = 6.83404 7.57385 7.21344
#
# Compressibility (1/GPa) = 0.01746008
#
# Stress axis : x y z
#
# Youngs Moduli (GPa) = 121.03998 83.20442 59.90518
#
# Poissons Ratio (x) = 0.20993 0.15136
# Poissons Ratio (y) = 0.30540 0.28197
# Poissons Ratio (z) = 0.30582 0.39164
#
# Static dielectric constant tensor:
#      x y z
#    x 3.790260 0.000000 0.100440 
#    y 0.000000 3.663260 0.000000 
#    z 0.100440 0.000000 3.715760 
# 
# 
# High freq. dielectric constant tensor:
#      x y z
#    x 1.802780 0.000000 0.004610 
#    y 0.000000 1.783270 0.000000 
#    z 0.004610 0.000000 1.792120 
# 
# From -- ./inp_files/15300.got.cif
#   From: 2010.03.12/outbox.cif.g09.slc.cpg/sg5_8_cif.got.tgz:15300.got - 2010.03.31 09:47:26.
