data_PCOD8050761
_publ_section_title
;
Structure prediction by ZEFSAII (Michael W. Deem and Ramdas Pophale) SiO2 
 PCOD8050761
Probable space group: C 2
;
_chemical_formula_sum "Si O2"
_cell_formula_units_Z 22
_cell_length_a 24.207244
_cell_length_b 8.495036
_cell_length_c 14.207687
_cell_angle_alpha 90.000000
_cell_angle_beta 160.365807
_cell_angle_gamma 90.000000
_cell_volume 981.727490
_symmetry_space_group_name_H-M "C 2"
_symmetry_group_IT_number 5
_symmetry_cell_setting 'monoclinic'
loop_
_space_group_symop_operation_xyz
x,y,z
-x,y,-z
1/2+x,1/2+y,z
1/2-x,1/2+y,-z
loop_
_atom_site_type_symbol
_atom_site_label
_atom_site_fract_x
_atom_site_fract_y
_atom_site_fract_z
Si Si1 0.886168 0.047050 0.620302
Si Si2 0.785854 0.196414 0.901994
Si Si3 0.000000 0.525197 0.500000
Si Si4 0.181777 0.551181 0.108460
Si Si5 0.900703 0.727224 0.749385
Si Si6 0.163694 0.221997 0.803875
O O1 0.825740 0.069029 0.416495
O O2 0.777914 0.158490 0.513533
O O3 0.872110 0.867161 0.630030
O O4 0.076196 0.099144 0.932621
O O5 0.600338 0.131236 0.583080
O O6 0.811009 0.377317 0.920821
O O7 0.791647 0.159730 0.022541
O O8 0.865791 0.410490 0.234810
O O9 0.197444 0.679155 0.050009
O O10 0.005208 0.584287 0.872009
O O11 0.000000 0.791214 0.000000
O O12 0.000000 0.136128 0.500000
#
# Coordination Sequence:
#
# PCOD8050761 Si02
#       6
#     4   4   2   4   4   4
#     4  11  23  44  65  92 126 163 209 266 314 372
#     4  12  24  39  65  95 128 165 213 254 308 376
#     4  10  24  36  56  92 122 164 208 246 300 364
#     4  11  24  41  65  94 126 168 209 257 313 374
#     4  10  24  43  67  91 123 163 210 262 320 370
#     4  10  22  43  60  88 135 165 203 252 311 364
#
# _framework density 22.409476999999999
#
# number of rings (size 3 to 8) (size 9 to 14) (size 15 to 20)
#    0.545    0.727    1.818    3.273    1.273    5.818 
#    0.000    0.000    0.000    0.000    0.000    0.000 
#    0.000    0.000    0.000    0.000    0.000    0.000 
#
# Total GULP energy -136350.521996 kJ/mol
# GULP energy per Si atom -12395.502000 kJ/mol
# Density = 2.235847 g / cm^3
# Si number density = 22.409477 Si / 1000 Ang^3
#
#
#
# Elastic Constant Matrix: (Units=GPa)
#
#
# Indices 1 2 3 4 5 6 
#
# 1 112.3389 54.4556 41.9247 0.0000 26.1932 0.0000
# 2 54.4556 140.6534 48.4975 0.0000 21.7929 0.0000
# 3 41.9247 48.4975 85.2852 0.0000 40.7615 0.0000
# 4 0.0000 0.0000 0.0000 35.6538 0.0000 9.2383
# 5 26.1932 21.7929 40.7615 0.0000 41.9602 0.0000
# 6 0.0000 0.0000 0.0000 9.2383 0.0000 36.3513
#
#
#
# Elastic Compliance Matrix: (Units=1/GPa)
#
#
# Indices 1 2 3 4 5 6 
#
# 1 0.012264 -0.003364 -0.002411 0.000000 -0.003566 0.000000
# 2 -0.003364 0.009773 -0.004632 0.000000 0.001524 0.000000
# 3 -0.002411 -0.004632 0.025528 0.000000 -0.020888 0.000000
# 4 0.000000 0.000000 0.000000 0.030025 0.000000 -0.007630
# 5 -0.003566 0.001524 -0.020888 0.000000 0.045557 0.000000
# 6 0.000000 0.000000 0.000000 -0.007630 0.000000 0.029449
#
#
# Mechanical properties :
#
#
# Convention : Reuss Voigt Hill
#
# Bulk Modulus (GPa) = 37.38380 69.78146 53.58263
# Shear Modulus (GPa) = 27.42322 35.68637 31.55479
#
# Velocity S-wave (km/s) = 3.50198 3.99490 3.75654
# Velocity P-wave (km/s) = 5.75067 7.24471 6.54049
#
# Compressibility (1/GPa) = 0.02674955
#
# Stress axis : x y z
#
# Youngs Moduli (GPa) = 81.54149 102.32086 39.17274
#
# Poissons Ratio (x) = 0.34422 0.09446
# Poissons Ratio (y) = 0.27431 0.18145
# Poissons Ratio (z) = 0.19663 0.47396
#
# Static dielectric constant tensor:
#      x y z
#    x 4.038470 0.000000 0.238530 
#    y 0.000000 3.800140 0.000000 
#    z 0.238530 0.000000 4.063100 
# 
# 
# High freq. dielectric constant tensor:
#      x y z
#    x 1.882330 0.000000 0.019510 
#    y 0.000000 1.884640 0.000000 
#    z 0.019510 0.000000 1.881000 
# 
# From -- ./inp_files/57575.got.cif
#   From: 2010.03.12/outbox.cif.g09.slc.cpg/sg5_29_cif.got.tgz:57575.got - 2010.03.31 09:47:26.
