data_PCOD8050109
_publ_section_title
;
Structure prediction by ZEFSAII (Michael W. Deem and Ramdas Pophale) SiO2 
 PCOD8050109
Probable space group: C 2
;
_chemical_formula_sum "Si O2"
_cell_formula_units_Z 32
_cell_length_a 18.709312
_cell_length_b 14.659727
_cell_length_c 12.574140
_cell_angle_alpha 90.000000
_cell_angle_beta 28.415439
_cell_angle_gamma 90.000000
_cell_volume 1641.127444
_symmetry_space_group_name_H-M "C 2"
_symmetry_group_IT_number 5
_symmetry_cell_setting 'monoclinic'
loop_
_space_group_symop_operation_xyz
x,y,z
-x,y,-z
1/2+x,1/2+y,z
1/2-x,1/2+y,-z
loop_
_atom_site_type_symbol
_atom_site_label
_atom_site_fract_x
_atom_site_fract_y
_atom_site_fract_z
Si Si1 0.845800 0.400770 0.759380
Si Si2 0.585045 0.619856 0.646611
Si Si3 0.344639 0.304347 0.646459
Si Si4 0.872449 0.569000 0.882679
Si Si5 0.342272 0.514799 0.650550
Si Si6 0.695842 0.145031 0.451748
Si Si7 0.617103 0.509399 0.934034
Si Si8 0.181050 0.235892 0.055145
O O1 0.867966 0.483294 0.811097
O O2 0.719364 0.425333 0.837817
O O3 0.790091 0.310845 0.892406
O O4 0.000000 0.377885 0.500000
O O5 0.674969 0.571113 0.434834
O O6 0.703565 0.657402 0.575851
O O7 0.492016 0.704014 0.718771
O O8 0.469298 0.548898 0.850961
O O9 0.500000 0.280819 0.500000
O O10 0.332758 0.409500 0.630437
O O11 0.335357 0.246191 0.550880
O O12 0.210298 0.279368 0.901702
O O13 0.043950 0.593747 0.683054
O O14 0.793165 0.543909 0.096489
O O15 0.792410 0.652233 0.928856
O O16 0.500000 0.537683 0.500000
O O17 0.781074 0.089002 0.248745
O O18 0.500000 0.471666 0.000000
#
# Coordination Sequence:
#
# PCOD8050109 Si02
#       8
#     4   4   4   4   4   4   4   4
#     4  12  24  41  66 101 128 167 227 270 319 387
#     4  11  24  42  66  93 134 172 209 263 341 388
#     4  11  22  39  66  99 123 163 226 275 314 381
#     4  12  23  42  67  95 131 170 221 271 319 383
#     4  11  23  42  67  94 132 173 215 269 331 389
#     4  11  23  42  66  98 127 170 219 275 321 379
#     4  10  21  40  67  94 128 169 213 271 327 379
#     4  12  24  40  67  96 128 170 215 266 326 389
#
# _framework density 19.49879
#
# number of rings (size 3 to 8) (size 9 to 14) (size 15 to 20)
#    0.000    0.750    7.500    0.000    3.500    0.500 
#    2.250    2.500    0.000    0.000    0.000    0.000 
#    0.000    0.000    0.000    0.000    0.000    0.000 
#
# Total GULP energy -198502.254746 kJ/mol
# GULP energy per Si atom -12406.390922 kJ/mol
# Density = 1.945441 g / cm^3
# Si number density = 19.498790 Si / 1000 Ang^3
#
#
#
# Elastic Constant Matrix: (Units=GPa)
#
#
# Indices 1 2 3 4 5 6 
#
# 1 94.7132 44.9919 24.9006 -0.0001 -5.3008 0.0000
# 2 44.9919 75.2676 23.2046 -0.0001 7.7932 0.0001
# 3 24.9006 23.2046 93.7065 -0.0002 2.1877 0.0001
# 4 -0.0001 -0.0001 -0.0002 27.2061 0.0001 8.1824
# 5 -5.3008 7.7932 2.1877 0.0001 33.7738 -0.0001
# 6 0.0000 0.0001 0.0001 8.1824 -0.0001 20.6356
#
#
#
# Elastic Compliance Matrix: (Units=1/GPa)
#
#
# Indices 1 2 3 4 5 6 
#
# 1 0.015768 -0.009301 -0.001998 0.000000 0.004750 0.000000
# 2 -0.009301 0.020201 -0.002391 0.000000 -0.005966 0.000000
# 3 -0.001998 -0.002391 0.011807 0.000000 -0.000526 0.000000
# 4 0.000000 0.000000 0.000000 0.041733 0.000000 -0.016548
# 5 0.004750 -0.005966 -0.000526 0.000000 0.031765 0.000000
# 6 0.000000 0.000000 0.000000 -0.016548 0.000000 0.055022
#
#
# Mechanical properties :
#
#
# Convention : Reuss Voigt Hill
#
# Bulk Modulus (GPa) = 49.03191 49.98684 49.50938
# Shear Modulus (GPa) = 23.75588 27.69578 25.72583
#
# Velocity S-wave (km/s) = 3.49424 3.77289 3.63623
# Velocity P-wave (km/s) = 6.44052 6.68364 6.56321
#
# Compressibility (1/GPa) = 0.02039488
#
# Stress axis : x y z
#
# Youngs Moduli (GPa) = 63.42116 49.50293 84.69614
#
# Poissons Ratio (x) = 0.46044 0.16919
# Poissons Ratio (y) = 0.58990 0.20255
# Poissons Ratio (z) = 0.12669 0.11838
#
# Static dielectric constant tensor:
#      x y z
#    x 3.520890 0.000000 -0.008640 
#    y 0.000000 3.530980 0.000000 
#    z -0.008640 0.000000 3.776560 
# 
# 
# High freq. dielectric constant tensor:
#      x y z
#    x 1.753970 0.000000 0.003230 
#    y 0.000000 1.756170 0.000000 
#    z 0.003230 0.000000 1.770550 
# 
# From -- ./inp_files/31077.got.cif
#   From: 2010.03.12/outbox.cif.g09.slc.cpg/sg5_16_cif.got.tgz:31077.got - 2010.03.31 09:47:26.
