data_PCOD8050372
_publ_section_title
;
Structure prediction by ZEFSAII (Michael W. Deem and Ramdas Pophale) SiO2 
 PCOD8050372
Probable space group: C 2
;
_chemical_formula_sum "Si O2"
_cell_formula_units_Z 28
_cell_length_a 9.507843
_cell_length_b 10.676524
_cell_length_c 15.235574
_cell_angle_alpha 90.000000
_cell_angle_beta 120.987527
_cell_angle_gamma 90.000000
_cell_volume 1325.846029
_symmetry_space_group_name_H-M "C 2"
_symmetry_group_IT_number 5
_symmetry_cell_setting 'monoclinic'
loop_
_space_group_symop_operation_xyz
x,y,z
-x,y,-z
1/2+x,1/2+y,z
1/2-x,1/2+y,-z
loop_
_atom_site_type_symbol
_atom_site_label
_atom_site_fract_x
_atom_site_fract_y
_atom_site_fract_z
Si Si1 0.471342 0.877460 0.395628
Si Si2 0.456919 0.218945 0.721234
Si Si3 0.368227 0.314010 0.884496
Si Si4 0.760686 0.037401 0.439085
Si Si5 0.045396 0.965238 0.649748
Si Si6 0.760691 0.052188 0.769900
Si Si7 0.957404 0.186353 0.238124
O O1 0.500000 0.814496 0.500000
O O2 0.511772 0.774978 0.335590
O O3 0.598902 0.990472 0.433701
O O4 0.295761 0.948041 0.322530
O O5 0.428822 0.254137 0.812658
O O6 0.284694 0.167776 0.625336
O O7 0.497360 0.333007 0.671494
O O8 0.604108 0.118189 0.763849
O O9 0.350231 0.465107 0.871265
O O10 0.194363 0.253511 0.860037
O O11 0.500000 0.280598 0.000000
O O12 0.817145 0.941712 0.380133
O O13 0.898908 0.046645 0.557884
O O14 0.110190 0.052884 0.748999
O O15 0.885826 0.157598 0.773783
#
# Coordination Sequence:
#
# PCOD8050372 Si02
#       7
#     4   4   4   4   4   4   4
#     4  10  22  37  59  91 133 174 218 253 311 382
#     4  11  23  45  64  93 137 171 212 269 317 384
#     4  11  25  45  70  95 123 168 221 277 334 382
#     4  10  23  37  58  95 133 175 216 252 308 386
#     4  11  22  36  63  94 131 176 211 259 317 385
#     4  10  23  44  66  93 130 168 216 269 321 382
#     4  11  22  39  67  90 126 169 211 270 323 381
#
# _framework density 21.118593000000001
#
# number of rings (size 3 to 8) (size 9 to 14) (size 15 to 20)
#    0.000    1.429    2.857    1.714    6.000    1.143 
#   10.286    0.000    0.000    0.000    0.000    0.000 
#    0.000    0.000    0.000    0.000    0.000    0.000 
#
# Total GULP energy -173512.406709 kJ/mol
# GULP energy per Si atom -12393.743336 kJ/mol
# Density = 2.107053 g / cm^3
# Si number density = 21.118593 Si / 1000 Ang^3
#
#
#
# Elastic Constant Matrix: (Units=GPa)
#
#
# Indices 1 2 3 4 5 6 
#
# 1 93.5444 30.2679 31.5860 0.0000 8.0023 0.0000
# 2 30.2679 103.1492 44.3821 0.0000 2.2886 0.0000
# 3 31.5860 44.3821 100.4037 0.0000 9.9009 0.0000
# 4 0.0000 0.0000 0.0000 24.3035 0.0000 2.5323
# 5 8.0023 2.2886 9.9009 0.0000 19.2941 0.0000
# 6 0.0000 0.0000 0.0000 2.5323 0.0000 43.8387
#
#
#
# Elastic Compliance Matrix: (Units=1/GPa)
#
#
# Indices 1 2 3 4 5 6 
#
# 1 0.012676 -0.002566 -0.002491 0.000000 -0.003675 0.000000
# 2 -0.002566 0.012525 -0.004938 0.000000 0.002112 0.000000
# 3 -0.002491 -0.004938 0.013447 0.000000 -0.005281 0.000000
# 4 0.000000 0.000000 0.000000 0.041395 0.000000 -0.002391
# 5 -0.003675 0.002112 -0.005281 0.000000 0.055813 0.000000
# 6 0.000000 0.000000 0.000000 -0.002391 0.000000 0.022949
#
#
# Mechanical properties :
#
#
# Convention : Reuss Voigt Hill
#
# Bulk Modulus (GPa) = 53.59521 56.61881 55.10701
# Shear Modulus (GPa) = 27.02483 30.21134 28.61809
#
# Velocity S-wave (km/s) = 3.58113 3.78637 3.68518
# Velocity P-wave (km/s) = 6.52170 6.78112 6.65268
#
# Compressibility (1/GPa) = 0.01865838
#
# Stress axis : x y z
#
# Youngs Moduli (GPa) = 78.88970 79.83768 74.36676
#
# Poissons Ratio (x) = 0.20489 0.18524
# Poissons Ratio (y) = 0.20245 0.36720
# Poissons Ratio (z) = 0.19651 0.39421
#
# Static dielectric constant tensor:
#      x y z
#    x 3.994170 0.000000 0.154650 
#    y 0.000000 3.868560 0.000000 
#    z 0.154650 0.000000 3.596710 
# 
# 
# High freq. dielectric constant tensor:
#      x y z
#    x 1.838600 0.000000 0.008450 
#    y 0.000000 1.835600 0.000000 
#    z 0.008450 0.000000 1.794080 
# 
# From -- ./inp_files/50379.got.cif
#   From: 2010.03.12/outbox.cif.g09.slc.cpg/sg5_26_cif.got.tgz:50379.got - 2010.03.31 09:47:26.
