data_PCOD8050646
_publ_section_title
;
Structure prediction by ZEFSAII (Michael W. Deem and Ramdas Pophale) SiO2 
 PCOD8050646
Probable space group: C 2
;
_chemical_formula_sum "Si O2"
_cell_formula_units_Z 26
_cell_length_a 11.653668
_cell_length_b 18.796108
_cell_length_c 9.462709
_cell_angle_alpha 90.000000
_cell_angle_beta 36.694249
_cell_angle_gamma 90.000000
_cell_volume 1238.558238
_symmetry_space_group_name_H-M "C 2"
_symmetry_group_IT_number 5
_symmetry_cell_setting 'monoclinic'
loop_
_space_group_symop_operation_xyz
x,y,z
-x,y,-z
1/2+x,1/2+y,z
1/2-x,1/2+y,-z
loop_
_atom_site_type_symbol
_atom_site_label
_atom_site_fract_x
_atom_site_fract_y
_atom_site_fract_z
Si Si1 0.629726 0.464270 0.735158
Si Si2 0.472473 0.317609 0.299668
Si Si3 0.000000 0.501791 0.500000
Si Si4 0.607904 0.180727 0.755777
Si Si5 0.690230 0.125609 0.153915
Si Si6 0.965956 0.088464 0.378319
Si Si7 0.218650 0.269324 0.809628
O O1 0.545805 0.397545 0.734763
O O2 0.856132 0.452531 0.549900
O O3 0.626849 0.530804 0.632662
O O4 0.500000 0.479713 0.000000
O O5 0.411634 0.266434 0.229852
O O6 0.332367 0.300878 0.566601
O O7 0.692993 0.303762 0.133457
O O8 0.848344 0.549824 0.736450
O O9 0.511275 0.151466 0.708928
O O10 0.827584 0.156299 0.536197
O O11 0.500000 0.150639 0.000000
O O12 0.763512 0.183227 0.196964
O O13 0.838773 0.118338 0.879468
O O14 0.000000 0.054354 0.500000
O O15 0.000000 0.291943 0.000000
#
# Coordination Sequence:
#
# PCOD8050646 Si02
#       7
#     4   4   2   4   4   4   4
#     4  12  27  45  67  96 140 184 226 280 340 407
#     4  10  24  43  63  98 136 175 227 275 336 405
#     4  12  24  42  68 100 132 184 226 280 338 408
#     4  11  21  41  64  94 134 174 220 281 337 394
#     4  11  22  40  67 100 131 168 232 281 339 399
#     4  12  25  41  69 101 137 177 225 284 340 399
#     4  10  22  41  71  97 127 176 223 285 338 399
#
# _framework density 20.992149999999999
#
# number of rings (size 3 to 8) (size 9 to 14) (size 15 to 20)
#    0.000    0.923    4.615    3.231    4.308    1.231 
#    1.385    0.769    0.000    0.000    0.000    0.000 
#    0.000    0.000    0.000    0.000    0.000    0.000 
#
# Total GULP energy -161200.411593 kJ/mol
# GULP energy per Si atom -12400.031661 kJ/mol
# Density = 2.094437 g / cm^3
# Si number density = 20.992150 Si / 1000 Ang^3
#
#
#
# Elastic Constant Matrix: (Units=GPa)
#
#
# Indices 1 2 3 4 5 6 
#
# 1 120.8922 38.5638 45.2539 -0.0002 -15.3473 0.0000
# 2 38.5638 82.3727 21.7421 -0.0001 -3.4776 0.0000
# 3 45.2539 21.7421 121.7806 -0.0004 -4.1812 0.0003
# 4 -0.0002 -0.0001 -0.0004 14.7346 0.0002 9.8521
# 5 -15.3473 -3.4776 -4.1812 0.0002 39.4952 -0.0001
# 6 0.0000 0.0000 0.0003 9.8521 -0.0001 31.4791
#
#
#
# Elastic Compliance Matrix: (Units=1/GPa)
#
#
# Indices 1 2 3 4 5 6 
#
# 1 0.011350 -0.004280 -0.003327 0.000000 0.003681 0.000000
# 2 -0.004280 0.014385 -0.000995 0.000000 -0.000502 0.000000
# 3 -0.003327 -0.000995 0.009613 0.000000 -0.000363 0.000000
# 4 0.000000 0.000000 0.000000 0.085829 -0.000001 -0.026862
# 5 0.003681 -0.000502 -0.000363 -0.000001 0.026667 0.000000
# 6 0.000000 0.000000 0.000000 -0.026862 0.000000 0.040174
#
#
# Mechanical properties :
#
#
# Convention : Reuss Voigt Hill
#
# Bulk Modulus (GPa) = 55.11526 59.57389 57.34458
# Shear Modulus (GPa) = 23.66634 31.77418 27.72026
#
# Velocity S-wave (km/s) = 3.36131 3.89475 3.63782
# Velocity P-wave (km/s) = 6.43247 6.97611 6.70980
#
# Compressibility (1/GPa) = 0.01814380
#
# Stress axis : x y z
#
# Youngs Moduli (GPa) = 88.10638 69.51626 104.02537
#
# Poissons Ratio (x) = 0.29753 0.34611
# Poissons Ratio (y) = 0.37709 0.10351
# Poissons Ratio (z) = 0.29314 0.06917
#
# Static dielectric constant tensor:
#      x y z
#    x 4.112710 0.000000 -0.028940 
#    y 0.000000 3.616520 0.000000 
#    z -0.028940 0.000000 3.734610 
# 
# 
# High freq. dielectric constant tensor:
#      x y z
#    x 1.837790 0.000000 -0.000980 
#    y 0.000000 1.800580 0.000000 
#    z -0.000980 0.000000 1.826280 
# 
# From -- ./inp_files/21891.got.cif
#   From: 2010.03.12/outbox.cif.g09.slc.cpg/sg5_11_cif.got.tgz:21891.got - 2010.03.31 09:47:26.
