data_PCOD8050966
_publ_section_title
;
Structure prediction by ZEFSAII (Michael W. Deem and Ramdas Pophale) SiO2 
 PCOD8050966
Probable space group: C 2
;
_chemical_formula_sum "Si O2"
_cell_formula_units_Z 30
_cell_length_a 28.197008
_cell_length_b 8.083815
_cell_length_c 9.887417
_cell_angle_alpha 90.000000
_cell_angle_beta 138.306230
_cell_angle_gamma 90.000000
_cell_volume 1499.067867
_symmetry_space_group_name_H-M "C 2"
_symmetry_group_IT_number 5
_symmetry_cell_setting 'monoclinic'
loop_
_space_group_symop_operation_xyz
x,y,z
-x,y,-z
1/2+x,1/2+y,z
1/2-x,1/2+y,-z
loop_
_atom_site_type_symbol
_atom_site_label
_atom_site_fract_x
_atom_site_fract_y
_atom_site_fract_z
Si Si1 0.305410 0.228400 0.255833
Si Si2 0.221193 0.905315 0.068304
Si Si3 0.044978 0.846703 0.959446
Si Si4 0.596189 0.621674 0.889624
Si Si5 0.698816 0.212498 0.283089
Si Si6 0.211318 0.334432 0.286457
Si Si7 0.000000 0.346693 0.500000
Si Si8 0.033550 0.665328 0.435080
O O1 0.267217 0.308588 0.045647
O O2 0.278129 0.330249 0.326612
O O3 0.389889 0.244727 0.427653
O O4 0.284505 0.036216 0.223255
O O5 0.144714 0.995324 0.907759
O O6 0.225106 0.768093 0.192479
O O7 0.014910 0.701169 0.799047
O O8 0.041587 0.019287 0.868568
O O9 0.126371 0.805498 0.172204
O O10 0.000000 0.864118 0.000000
O O11 0.556697 0.733892 0.696648
O O12 0.644895 0.731854 0.090264
O O13 0.763171 0.254075 0.520105
O O14 0.684054 0.018473 0.252652
O O15 0.038311 0.466364 0.470322
O O16 0.000000 0.748510 0.500000
#
# Coordination Sequence:
#
# PCOD8050966 Si02
#       8
#     4   4   4   4   4   4   2   4
#     4  11  22  38  60  95 122 160 211 264 310 374
#     4  10  23  36  64  89 125 160 211 263 319 368
#     4  11  23  41  66  95 129 167 215 264 323 393
#     4  10  23  41  63  94 123 173 213 260 325 377
#     4  11  22  43  64  91 125 173 203 262 325 379
#     4  11  23  41  66  89 127 161 218 261 316 382
#     4  10  24  40  64  88 130 174 214 262 314 398
#     4  10  23  39  63  91 126 173 209 256 325 383
#
# _framework density 20.012436999999998
#
# number of rings (size 3 to 8) (size 9 to 14) (size 15 to 20)
#    0.400    1.067    0.000    6.400    8.400    0.000 
#    0.000    5.333    0.000    0.000    0.000    0.000 
#    0.000    0.000    0.000    0.000    0.000    0.000 
#
# Total GULP energy -186035.501631 kJ/mol
# GULP energy per Si atom -12402.366775 kJ/mol
# Density = 1.996689 g / cm^3
# Si number density = 20.012437 Si / 1000 Ang^3
#
#
#
# Elastic Constant Matrix: (Units=GPa)
#
#
# Indices 1 2 3 4 5 6 
#
# 1 68.4459 21.5910 7.5192 0.0000 -2.9476 0.0000
# 2 21.5910 104.8205 36.4000 0.0000 -8.2620 0.0000
# 3 7.5192 36.4000 109.2584 0.0000 1.0881 0.0000
# 4 0.0000 0.0000 0.0000 39.7046 0.0000 -4.9830
# 5 -2.9476 -8.2620 1.0881 0.0000 29.6495 0.0000
# 6 0.0000 0.0000 0.0000 -4.9830 0.0000 28.0482
#
#
#
# Elastic Compliance Matrix: (Units=1/GPa)
#
#
# Indices 1 2 3 4 5 6 
#
# 1 0.015639 -0.003157 -0.000031 0.000000 0.000676 0.000000
# 2 -0.003157 0.011726 -0.003720 0.000000 0.003090 0.000000
# 3 -0.000031 -0.003720 0.010408 0.000000 -0.001422 0.000000
# 4 0.000000 0.000000 0.000000 0.025760 0.000000 0.004577
# 5 0.000676 0.003090 -0.001422 0.000000 0.034708 0.000000
# 6 0.000000 0.000000 0.000000 0.004577 0.000000 0.036466
#
#
# Mechanical properties :
#
#
# Convention : Reuss Voigt Hill
#
# Bulk Modulus (GPa) = 41.74326 45.94949 43.84637
# Shear Modulus (GPa) = 31.94708 33.94807 32.94757
#
# Velocity S-wave (km/s) = 3.99978 4.12314 4.06193
# Velocity P-wave (km/s) = 6.49884 6.75851 6.62995
#
# Compressibility (1/GPa) = 0.02395597
#
# Stress axis : x y z
#
# Youngs Moduli (GPa) = 63.94467 85.28198 96.07748
#
# Poissons Ratio (x) = 0.26925 0.00300
# Poissons Ratio (y) = 0.20188 0.35741
# Poissons Ratio (z) = 0.00199 0.31725
#
# Static dielectric constant tensor:
#      x y z
#    x 3.450350 0.000000 -0.124860 
#    y 0.000000 3.703950 0.000000 
#    z -0.124860 0.000000 3.575220 
# 
# 
# High freq. dielectric constant tensor:
#      x y z
#    x 1.773470 0.000000 -0.004950 
#    y 0.000000 1.785300 0.000000 
#    z -0.004950 0.000000 1.788140 
# 
# From -- ./inp_files/31664.got.cif
#   From: 2010.03.12/outbox.cif.g09.slc.cpg/sg5_16_cif.got.tgz:31664.got - 2010.03.31 09:47:26.
