data_PCOD8050785
_publ_section_title
;
Structure prediction by ZEFSAII (Michael W. Deem and Ramdas Pophale) SiO2 
 PCOD8050785
Probable space group: C 2
;
_chemical_formula_sum "Si O2"
_cell_formula_units_Z 26
_cell_length_a 20.078773
_cell_length_b 11.468822
_cell_length_c 6.589675
_cell_angle_alpha 90.000000
_cell_angle_beta 129.224126
_cell_angle_gamma 90.000000
_cell_volume 1175.550692
_symmetry_space_group_name_H-M "C 2"
_symmetry_group_IT_number 5
_symmetry_cell_setting 'monoclinic'
loop_
_space_group_symop_operation_xyz
x,y,z
-x,y,-z
1/2+x,1/2+y,z
1/2-x,1/2+y,-z
loop_
_atom_site_type_symbol
_atom_site_label
_atom_site_fract_x
_atom_site_fract_y
_atom_site_fract_z
Si Si1 0.820420 0.064590 0.011519
Si Si2 0.300518 0.717940 0.329353
Si Si3 0.626281 0.125897 0.577736
Si Si4 0.407909 0.743639 0.922671
Si Si5 0.000000 0.703427 0.000000
Si Si6 0.906337 0.391758 0.275473
Si Si7 0.623444 0.299697 0.916393
O O1 0.727827 0.100426 0.732930
O O2 0.897863 0.138648 0.062384
O O3 0.820478 0.097542 0.250324
O O4 0.846174 0.931890 0.040654
O O5 0.336814 0.719538 0.621136
O O6 0.333512 0.829787 0.267666
O O7 0.199010 0.725184 0.162938
O O8 0.608185 0.248183 0.660045
O O9 0.592376 0.027691 0.669096
O O10 0.570910 0.125017 0.260471
O O11 0.500000 0.744552 0.000000
O O12 0.389386 0.866460 0.003431
O O13 0.043539 0.786330 0.914833
O O14 0.000000 0.336119 0.500000
#
# Coordination Sequence:
#
# PCOD8050785 Si02
#       7
#     4   4   4   4   2   4   4
#     4  10  24  44  70  94 139 185 227 284 351 407
#     4  10  22  43  67  97 133 176 227 285 340 409
#     4  11  25  48  69 102 139 187 231 287 348 411
#     4  11  23  41  67 101 132 172 234 283 342 414
#     4  12  26  44  72 102 146 180 238 284 344 430
#     4  11  21  40  67  97 131 173 221 282 346 395
#     4  11  24  47  68 101 139 182 231 284 349 412
#
# _framework density 22.117294000000001
#
# number of rings (size 3 to 8) (size 9 to 14) (size 15 to 20)
#    0.000    1.231    3.077    2.308    1.077    3.692 
#    9.692    0.000    0.000    0.000    0.000    0.000 
#    0.000    0.000    0.000    0.000    0.000    0.000 
#
# Total GULP energy -161132.355608 kJ/mol
# GULP energy per Si atom -12394.796585 kJ/mol
# Density = 2.206695 g / cm^3
# Si number density = 22.117294 Si / 1000 Ang^3
#
#
#
# Elastic Constant Matrix: (Units=GPa)
#
#
# Indices 1 2 3 4 5 6 
#
# 1 101.3560 42.8273 7.8117 0.0000 -5.9255 0.0000
# 2 42.8273 119.6750 38.8744 0.0000 -16.7407 0.0000
# 3 7.8117 38.8744 127.6456 0.0000 -3.2790 0.0000
# 4 0.0000 0.0000 0.0000 12.4044 0.0000 -11.5265
# 5 -5.9255 -16.7407 -3.2790 0.0000 22.7780 0.0000
# 6 0.0000 0.0000 0.0000 -11.5265 0.0000 23.3360
#
#
#
# Elastic Compliance Matrix: (Units=1/GPa)
#
#
# Indices 1 2 3 4 5 6 
#
# 1 0.011668 -0.004392 0.000621 0.000000 -0.000103 0.000000
# 2 -0.004392 0.011971 -0.003192 0.000000 0.007196 0.000000
# 3 0.000621 -0.003192 0.008745 0.000000 -0.000926 0.000000
# 4 0.000000 0.000000 0.000000 0.149008 0.000000 0.073600
# 5 -0.000103 0.007196 -0.000926 0.000000 0.049031 0.000000
# 6 0.000000 0.000000 0.000000 0.073600 0.000000 0.079206
#
#
# Mechanical properties :
#
#
# Convention : Reuss Voigt Hill
#
# Bulk Modulus (GPa) = 54.17803 58.63373 56.40588
# Shear Modulus (GPa) = 15.16498 28.98124 22.07311
#
# Velocity S-wave (km/s) = 2.62135 3.62379 3.16254
# Velocity P-wave (km/s) = 5.80611 6.63906 6.23651
#
# Compressibility (1/GPa) = 0.01845767
#
# Stress axis : x y z
#
# Youngs Moduli (GPa) = 85.70460 83.53442 114.35637
#
# Poissons Ratio (x) = 0.36685 -0.07099
# Poissons Ratio (y) = 0.37638 0.36505
# Poissons Ratio (z) = -0.05320 0.26666
#
# Static dielectric constant tensor:
#      x y z
#    x 4.378290 0.000000 0.289510 
#    y 0.000000 3.754350 0.000000 
#    z 0.289510 0.000000 4.621230 
# 
# 
# High freq. dielectric constant tensor:
#      x y z
#    x 1.889980 0.000000 0.005510 
#    y 0.000000 1.853300 0.000000 
#    z 0.005510 0.000000 1.869210 
# 
# From -- ./inp_files/9624.got.cif
#   From: 2010.03.12/outbox.cif.g09.slc.cpg/sg5_5_cif.got.tgz:9624.got - 2010.03.31 09:47:26.
