data_PCOD8050344
_publ_section_title
;
Structure prediction by ZEFSAII (Michael W. Deem and Ramdas Pophale) SiO2 
 PCOD8050344
Probable space group: C 2
;
_chemical_formula_sum "Si O2"
_cell_formula_units_Z 14
_cell_length_a 13.650920
_cell_length_b 5.237655
_cell_length_c 8.201133
_cell_angle_alpha 90.000000
_cell_angle_beta 77.576588
_cell_angle_gamma 90.000000
_cell_volume 572.641041
_symmetry_space_group_name_H-M "C 2"
_symmetry_group_IT_number 5
_symmetry_cell_setting 'monoclinic'
loop_
_space_group_symop_operation_xyz
x,y,z
-x,y,-z
1/2+x,1/2+y,z
1/2-x,1/2+y,-z
loop_
_atom_site_type_symbol
_atom_site_label
_atom_site_fract_x
_atom_site_fract_y
_atom_site_fract_z
Si Si1 0.107809 0.290340 0.270202
Si Si2 0.147140 0.802263 0.424886
Si Si3 0.000000 0.419239 0.000000
Si Si4 0.186835 0.616558 0.760156
O O1 0.090491 0.563886 0.361525
O O2 0.225989 0.275903 0.176966
O O3 0.083955 0.058469 0.403599
O O4 0.034768 0.251226 0.141585
O O5 0.148680 0.772632 0.617598
O O6 0.262754 0.847240 0.319926
O O7 0.095371 0.590078 0.917325
#
# Coordination Sequence:
#
# PCOD8050344 Si02
#       4
#     4   4   2   4
#     4  10  24  47  73 110 151 199 241 315 368 457
#     4  10  21  48  79  96 158 197 250 301 379 433
#     4  12  28  46  80 120 152 194 258 308 398 428
#     4  10  23  48  80 107 149 200 252 313 369 448
#
# _framework density 24.448125999999998
#
# number of rings (size 3 to 8) (size 9 to 14) (size 15 to 20)
#    1.714    0.000    2.857    0.000    4.000    2.286 
#    5.143    5.714    0.000    0.000    0.000    0.000 
#    0.000    0.000    0.000    0.000    0.000    0.000 
#
# Total GULP energy -86723.717757 kJ/mol
# GULP energy per Si atom -12389.102537 kJ/mol
# Density = 2.439248 g / cm^3
# Si number density = 24.448126 Si / 1000 Ang^3
#
#
#
# Elastic Constant Matrix: (Units=GPa)
#
#
# Indices 1 2 3 4 5 6 
#
# 1 121.0604 18.9935 30.0692 0.0000 32.3065 0.0000
# 2 18.9935 149.6623 11.2089 0.0000 27.1897 0.0000
# 3 30.0692 11.2089 52.4615 0.0000 9.0836 0.0000
# 4 0.0000 0.0000 0.0000 31.0449 0.0000 14.5704
# 5 32.3065 27.1897 9.0836 0.0000 64.9935 0.0000
# 6 0.0000 0.0000 0.0000 14.5704 0.0000 -31.4439
#
#
#
# Elastic Compliance Matrix: (Units=1/GPa)
#
#
# Indices 1 2 3 4 5 6 
#
# 1 0.010843 -0.000141 -0.005392 0.000000 -0.004577 0.000000
# 2 -0.000141 0.007290 -0.000985 0.000000 -0.002842 0.000000
# 3 -0.005392 -0.000985 0.022369 0.000000 -0.000034 0.000000
# 4 0.000000 0.000000 0.000000 0.026458 0.000000 0.012260
# 5 -0.004577 -0.002842 -0.000034 0.000000 0.018855 0.000000
# 6 0.000000 0.000000 0.000000 0.012260 0.000000 -0.026122
#
#
# Mechanical properties :
#
#
# Convention : Reuss Voigt Hill
#
# Bulk Modulus (GPa) = 36.40883 49.30305 42.85594
# Shear Modulus (GPa) = 61.06234 30.44640 45.75437
#
# Velocity S-wave (km/s) = 5.00305 3.53278 4.33076
# Velocity P-wave (km/s) = 6.94972 6.07049 6.52493
#
# Compressibility (1/GPa) = 0.02746587
#
# Stress axis : x y z
#
# Youngs Moduli (GPa) = 92.22254 137.18098 44.70546
#
# Poissons Ratio (x) = 0.01929 0.24107
# Poissons Ratio (y) = 0.01297 0.04403
# Poissons Ratio (z) = 0.49730 0.13509
#
# Static dielectric constant tensor:
#      x y z
#    x 4.481980 0.000000 0.080200 
#    y 0.000000 4.143460 0.000000 
#    z 0.080200 0.000000 3.964000 
# 
# 
# High freq. dielectric constant tensor:
#      x y z
#    x 1.985430 0.000000 0.010760 
#    y 0.000000 1.951660 0.000000 
#    z 0.010760 0.000000 1.949500 
# 
# From -- ./inp_files/22275.got.cif
#   From: 2010.03.12/outbox.cif.g09.slc.cpg/sg5_12_cif.got.tgz:22275.got - 2010.03.31 09:47:26.
