data_PCOD8050763
_publ_section_title
;
Structure prediction by ZEFSAII (Michael W. Deem and Ramdas Pophale) SiO2 
 PCOD8050763
Probable space group: C 2
;
_chemical_formula_sum "Si O2"
_cell_formula_units_Z 26
_cell_length_a 9.903224
_cell_length_b 8.821573
_cell_length_c 18.712513
_cell_angle_alpha 90.000000
_cell_angle_beta 132.418469
_cell_angle_gamma 90.000000
_cell_volume 1206.843938
_symmetry_space_group_name_H-M "C 2"
_symmetry_group_IT_number 5
_symmetry_cell_setting 'monoclinic'
loop_
_space_group_symop_operation_xyz
x,y,z
-x,y,-z
1/2+x,1/2+y,z
1/2-x,1/2+y,-z
loop_
_atom_site_type_symbol
_atom_site_label
_atom_site_fract_x
_atom_site_fract_y
_atom_site_fract_z
Si Si1 0.955159 0.241630 0.850302
Si Si2 0.231021 0.171946 0.837735
Si Si3 0.368413 0.408142 0.786797
Si Si4 0.000000 0.437806 0.000000
Si Si5 0.127941 0.769789 0.479598
Si Si6 0.077023 0.899275 0.720456
Si Si7 0.023788 0.426980 0.426798
O O1 0.755381 0.305222 0.761962
O O2 0.092814 0.275826 0.834045
O O3 0.939114 0.060000 0.851002
O O4 0.043273 0.324778 0.949980
O O5 0.375503 0.279632 0.850118
O O6 0.119224 0.079172 0.737248
O O7 0.328532 0.045873 0.922400
O O8 0.503877 0.352133 0.772812
O O9 0.166658 0.431753 0.682966
O O10 0.111409 0.593529 0.457088
O O11 0.340169 0.814478 0.568088
O O12 0.000000 0.817145 0.500000
O O13 0.075818 0.870747 0.392619
O O14 0.000000 0.370819 0.500000
#
# Coordination Sequence:
#
# PCOD8050763 Si02
#       7
#     4   4   4   2   4   4   4
#     4  10  23  44  67  91 130 167 203 268 323 388
#     4  10  25  40  70  95 127 162 216 264 319 395
#     4  11  23  40  66  96 129 173 218 260 319 375
#     4  10  24  46  64  98 130 158 208 270 330 390
#     4  11  25  39  63  91 134 174 221 264 314 367
#     4  10  22  43  60  95 133 168 211 268 315 373
#     4  11  24  41  60  92 133 176 218 265 308 374
#
# _framework density 21.543797000000001
#
# number of rings (size 3 to 8) (size 9 to 14) (size 15 to 20)
#    0.000    1.538    3.077    0.000    4.308    9.846 
#    0.000    0.000    0.000    0.000    0.000    0.000 
#    0.000    0.000    0.000    0.000    0.000    0.000 
#
# Total GULP energy -161194.376307 kJ/mol
# GULP energy per Si atom -12399.567408 kJ/mol
# Density = 2.149476 g / cm^3
# Si number density = 21.543797 Si / 1000 Ang^3
#
#
#
# Elastic Constant Matrix: (Units=GPa)
#
#
# Indices 1 2 3 4 5 6 
#
# 1 137.5730 59.0759 23.5362 0.0000 4.7195 0.0000
# 2 59.0759 82.5425 29.1289 0.0000 -10.6955 0.0000
# 3 23.5362 29.1289 63.8171 0.0000 -2.4508 0.0000
# 4 0.0000 0.0000 0.0000 37.1527 0.0000 3.6734
# 5 4.7195 -10.6955 -2.4508 0.0000 27.6780 0.0000
# 6 0.0000 0.0000 0.0000 3.6734 0.0000 40.0508
#
#
#
# Elastic Compliance Matrix: (Units=1/GPa)
#
#
# Indices 1 2 3 4 5 6 
#
# 1 0.011187 -0.008534 -0.000432 0.000000 -0.005243 0.000000
# 2 -0.008534 0.021679 -0.006392 0.000000 0.009266 0.000000
# 3 -0.000432 -0.006392 0.018718 0.000000 -0.000739 0.000000
# 4 0.000000 0.000000 0.000000 0.027162 0.000000 -0.002491
# 5 -0.005243 0.009266 -0.000739 0.000000 0.040539 0.000000
# 6 0.000000 0.000000 0.000000 -0.002491 0.000000 0.025197
#
#
# Mechanical properties :
#
#
# Convention : Reuss Voigt Hill
#
# Bulk Modulus (GPa) = 47.91843 56.37940 52.14892
# Shear Modulus (GPa) = 27.44920 32.45572 29.95246
#
# Velocity S-wave (km/s) = 3.57334 3.88558 3.73273
# Velocity P-wave (km/s) = 6.27022 6.80858 6.54494
#
# Compressibility (1/GPa) = 0.02086880
#
# Stress axis : x y z
#
# Youngs Moduli (GPa) = 89.38848 46.12781 53.42337
#
# Poissons Ratio (x) = 0.39363 0.02309
# Poissons Ratio (y) = 0.76280 0.34149
# Poissons Ratio (z) = 0.03863 0.29485
#
# Static dielectric constant tensor:
#      x y z
#    x 3.965650 0.000000 0.062670 
#    y 0.000000 3.835450 0.000000 
#    z 0.062670 0.000000 3.857880 
# 
# 
# High freq. dielectric constant tensor:
#      x y z
#    x 1.854550 0.000000 0.010630 
#    y 0.000000 1.844680 0.000000 
#    z 0.010630 0.000000 1.842370 
# 
# From -- ./inp_files/59307.got.cif
#   From: 2010.03.12/outbox.cif.g09.slc.cpg/sg5_30_cif.got.tgz:59307.got - 2010.03.31 09:47:26.
