data_PCOD8050073
_publ_section_title
;
Structure prediction by ZEFSAII (Michael W. Deem and Ramdas Pophale) SiO2 
 PCOD8050073
Probable space group: C 2
;
_chemical_formula_sum "Si O2"
_cell_formula_units_Z 32
_cell_length_a 8.411684
_cell_length_b 12.956865
_cell_length_c 16.568553
_cell_angle_alpha 90.000000
_cell_angle_beta 125.442603
_cell_angle_gamma 90.000000
_cell_volume 1471.172152
_symmetry_space_group_name_H-M "C 2"
_symmetry_group_IT_number 5
_symmetry_cell_setting 'monoclinic'
loop_
_space_group_symop_operation_xyz
x,y,z
-x,y,-z
1/2+x,1/2+y,z
1/2-x,1/2+y,-z
loop_
_atom_site_type_symbol
_atom_site_label
_atom_site_fract_x
_atom_site_fract_y
_atom_site_fract_z
Si Si1 0.854852 0.421340 0.230340
Si Si2 0.915619 0.870725 0.333601
Si Si3 0.679385 0.072913 0.300034
Si Si4 0.093473 0.908470 0.850588
Si Si5 0.795309 0.124159 0.163805
Si Si6 0.290503 0.321810 0.958459
Si Si7 0.120581 0.240184 0.340522
Si Si8 0.289799 0.750480 0.458635
O O1 0.635048 0.424780 0.197223
O O2 0.866751 0.387879 0.138622
O O3 0.970923 0.529083 0.269341
O O4 0.967213 0.332956 0.313349
O O5 0.880484 0.857883 0.228452
O O6 0.800236 0.777811 0.340359
O O7 0.143234 0.848369 0.417855
O O8 0.845215 0.982210 0.346301
O O9 0.657043 0.120178 0.203020
O O10 0.737823 0.162040 0.378923
O O11 0.198581 0.018608 0.883348
O O12 0.220747 0.835153 0.948141
O O13 0.716015 0.204431 0.074631
O O14 0.013053 0.148812 0.260698
O O15 0.500000 0.370871 0.000000
O O16 0.200845 0.198715 0.449625
O O17 0.500000 0.798019 0.500000
#
# Coordination Sequence:
#
# PCOD8050073 Si02
#       8
#     4   4   4   4   4   4   4   4
#     4   9  20  41  64  90 132 169 214 278 334 385
#     4  10  24  43  63  93 138 173 218 284 332 398
#     4  10  23  41  66  95 131 177 220 283 336 403
#     4  10  21  41  64  98 128 173 222 266 336 403
#     4  10  21  40  63  92 131 165 217 279 326 396
#     4   9  20  38  64  92 127 170 216 266 330 402
#     4  10  21  42  61  90 130 169 218 270 335 393
#     4  12  23  39  69  96 127 176 227 266 348 407
#
# _framework density 21.751363000000001
#
# number of rings (size 3 to 8) (size 9 to 14) (size 15 to 20)
#    0.000    2.000    1.250    1.125    5.250    3.000 
#    0.000   10.625    0.000    3.000    0.000    0.000 
#    0.000    0.000    0.000    0.000    0.000    0.000 
#
# Total GULP energy -198291.492809 kJ/mol
# GULP energy per Si atom -12393.218301 kJ/mol
# Density = 2.170186 g / cm^3
# Si number density = 21.751363 Si / 1000 Ang^3
#
#
#
# Elastic Constant Matrix: (Units=GPa)
#
#
# Indices 1 2 3 4 5 6 
#
# 1 86.5845 28.5840 31.2992 0.0000 -15.0931 0.0000
# 2 28.5840 75.8440 50.2154 0.0000 -9.8222 0.0000
# 3 31.2992 50.2154 122.4812 0.0000 -20.3432 0.0000
# 4 0.0000 0.0000 0.0000 31.5428 0.0000 -6.4440
# 5 -15.0931 -9.8222 -20.3432 0.0000 27.8317 0.0000
# 6 0.0000 0.0000 0.0000 -6.4440 0.0000 26.1632
#
#
#
# Elastic Compliance Matrix: (Units=1/GPa)
#
#
# Indices 1 2 3 4 5 6 
#
# 1 0.014200 -0.003900 -0.001115 0.000000 0.005510 0.000000
# 2 -0.003900 0.019198 -0.006943 0.000000 -0.000415 0.000000
# 3 -0.001115 -0.006943 0.012279 0.000000 0.005921 0.000000
# 4 0.000000 0.000000 0.000000 0.033383 0.000000 0.008222
# 5 0.005510 -0.000415 0.005921 0.000000 0.043099 0.000000
# 6 0.000000 0.000000 0.000000 0.008222 0.000000 0.040247
#
#
# Mechanical properties :
#
#
# Convention : Reuss Voigt Hill
#
# Bulk Modulus (GPa) = 45.95241 56.12298 51.03769
# Shear Modulus (GPa) = 25.82956 28.76161 27.29559
#
# Velocity S-wave (km/s) = 3.44974 3.64028 3.54629
# Velocity P-wave (km/s) = 6.08602 6.59749 6.34691
#
# Compressibility (1/GPa) = 0.02176165
#
# Stress axis : x y z
#
# Youngs Moduli (GPa) = 70.42074 52.08835 81.43792
#
# Poissons Ratio (x) = 0.20316 0.09077
# Poissons Ratio (y) = 0.27466 0.56544
# Poissons Ratio (z) = 0.07849 0.36166
#
# Static dielectric constant tensor:
#      x y z
#    x 3.974850 0.000000 -0.021680 
#    y 0.000000 3.746820 0.000000 
#    z -0.021680 0.000000 4.195220 
# 
# 
# High freq. dielectric constant tensor:
#      x y z
#    x 1.850640 0.000000 -0.003450 
#    y 0.000000 1.836980 0.000000 
#    z -0.003450 0.000000 1.865420 
# 
# From -- ./inp_files/50968.got.cif
#   From: 2010.03.12/outbox.cif.g09.slc.cpg/sg5_26_cif.got.tgz:50968.got - 2010.03.31 09:47:26.
