data_PCOD8050890
_publ_section_title
;
Structure prediction by ZEFSAII (Michael W. Deem and Ramdas Pophale) SiO2 
 PCOD8050890
Probable space group: C 2
;
_chemical_formula_sum "Si O2"
_cell_formula_units_Z 30
_cell_length_a 16.190310
_cell_length_b 8.963910
_cell_length_c 27.374063
_cell_angle_alpha 90.000000
_cell_angle_beta 159.227979
_cell_angle_gamma 90.000000
_cell_volume 1408.939658
_symmetry_space_group_name_H-M "C 2"
_symmetry_group_IT_number 5
_symmetry_cell_setting 'monoclinic'
loop_
_space_group_symop_operation_xyz
x,y,z
-x,y,-z
1/2+x,1/2+y,z
1/2-x,1/2+y,-z
loop_
_atom_site_type_symbol
_atom_site_label
_atom_site_fract_x
_atom_site_fract_y
_atom_site_fract_z
Si Si1 0.758534 0.601580 0.391537
Si Si2 0.312201 0.334792 0.580509
Si Si3 0.412652 0.654287 0.399997
Si Si4 0.000000 0.870841 0.000000
Si Si5 0.116235 0.583908 0.784242
Si Si6 0.104540 0.593842 0.886255
Si Si7 0.339771 0.755912 0.104651
Si Si8 0.815108 0.894457 0.474247
O O1 0.654213 0.453365 0.357779
O O2 0.568097 0.673227 0.250788
O O3 0.824778 0.719522 0.470131
O O4 0.000000 0.556398 0.500000
O O5 0.535490 0.223146 0.706643
O O6 0.306753 0.423943 0.527271
O O7 0.068573 0.244231 0.447187
O O8 0.500000 0.716500 0.500000
O O9 0.455597 0.476020 0.419479
O O10 0.141161 0.678274 0.241505
O O11 0.139422 0.772328 0.036608
O O12 0.180267 0.983567 0.127558
O O13 0.195543 0.639127 0.882306
O O14 0.899544 0.471867 0.672796
O O15 0.093691 0.414444 0.881946
O O16 0.262420 0.650958 0.017434
#
# Coordination Sequence:
#
# PCOD8050890 Si02
#       8
#     4   4   4   2   4   4   4   4
#     4  12  24  43  67 103 138 168 223 286 332 396
#     4  11  25  38  66 102 129 170 225 279 330 402
#     4  11  20  41  67  90 127 179 213 273 337 387
#     4  10  22  48  70  88 132 186 218 278 340 398
#     4  10  22  45  66  87 137 177 218 276 336 400
#     4  11  23  43  68  95 134 178 226 268 337 405
#     4  11  26  44  70  99 136 181 227 277 338 405
#     4  11  21  42  65  94 132 168 226 274 342 389
#
# _framework density 21.292608999999999
#
# number of rings (size 3 to 8) (size 9 to 14) (size 15 to 20)
#    0.000    1.067    5.333    3.200    3.733    1.067 
#   12.000    0.667    0.000    0.000    0.000    0.000 
#    0.000    0.000    0.000    0.000    0.000    0.000 
#
# Total GULP energy -185923.330847 kJ/mol
# GULP energy per Si atom -12394.888723 kJ/mol
# Density = 2.124415 g / cm^3
# Si number density = 21.292609 Si / 1000 Ang^3
#
#
#
# Elastic Constant Matrix: (Units=GPa)
#
#
# Indices 1 2 3 4 5 6 
#
# 1 76.8369 5.6018 30.6292 -0.0111 -14.3601 -0.0064
# 2 5.6018 72.4333 13.8991 -0.0063 -14.6321 -0.0036
# 3 30.6292 13.8991 89.9890 0.0075 -9.5339 -0.0183
# 4 -0.0111 -0.0063 0.0075 25.4280 -0.0143 -7.3683
# 5 -14.3601 -14.6321 -9.5339 -0.0143 30.0464 -0.0017
# 6 -0.0064 -0.0036 -0.0183 -7.3683 -0.0017 35.9317
#
#
#
# Elastic Compliance Matrix: (Units=1/GPa)
#
#
# Indices 1 2 3 4 5 6 
#
# 1 0.016158 0.001047 -0.004956 0.000014 0.006660 0.000004
# 2 0.001047 0.015614 -0.001976 0.000010 0.007477 0.000003
# 3 -0.004956 -0.001976 0.013195 -0.000005 0.000856 0.000005
# 4 0.000014 0.000010 -0.000005 0.041811 0.000030 0.008574
# 5 0.006660 0.007477 0.000856 0.000030 0.040378 0.000011
# 6 0.000004 0.000003 0.000005 0.008574 0.000011 0.029589
#
#
# Mechanical properties :
#
#
# Convention : Reuss Voigt Hill
#
# Bulk Modulus (GPa) = 30.12223 37.72437 33.92330
# Shear Modulus (GPa) = 27.84246 30.88982 29.36614
#
# Velocity S-wave (km/s) = 3.62001 3.81298 3.71775
# Velocity P-wave (km/s) = 5.62585 6.09431 5.86476
#
# Compressibility (1/GPa) = 0.03319808
#
# Stress axis : x y z
#
# Youngs Moduli (GPa) = 61.88707 64.04328 75.78546
#
# Poissons Ratio (x) = -0.06703 0.37558
# Poissons Ratio (y) = -0.06477 0.14973
# Poissons Ratio (z) = 0.30670 0.12653
#
# Static dielectric constant tensor:
#      x y z
#    x 3.745500 0.000030 0.047000 
#    y 0.000030 3.834020 -0.000040 
#    z 0.047000 -0.000040 3.909220 
# 
# 
# High freq. dielectric constant tensor:
#      x y z
#    x 1.827430 0.000000 -0.001750 
#    y 0.000000 1.838020 0.000000 
#    z -0.001750 0.000000 1.830630 
# 
# From -- ./inp_files/72127.got.cif
#   From: 2010.03.12/outbox.cif.g09.slc.cpg/sg5_37_cif.got.tgz:72127.got - 2010.03.31 09:47:26.
