data_PCOD8050857
_publ_section_title
;
Structure prediction by ZEFSAII (Michael W. Deem and Ramdas Pophale) SiO2 
 PCOD8050857
Probable space group: C 2
;
_chemical_formula_sum "Si O2"
_cell_formula_units_Z 20
_cell_length_a 5.446399
_cell_length_b 22.447303
_cell_length_c 7.780644
_cell_angle_alpha 90.000000
_cell_angle_beta 58.094441
_cell_angle_gamma 90.000000
_cell_volume 807.525313
_symmetry_space_group_name_H-M "C 2"
_symmetry_group_IT_number 5
_symmetry_cell_setting 'monoclinic'
loop_
_space_group_symop_operation_xyz
x,y,z
-x,y,-z
1/2+x,1/2+y,z
1/2-x,1/2+y,-z
loop_
_atom_site_type_symbol
_atom_site_label
_atom_site_fract_x
_atom_site_fract_y
_atom_site_fract_z
Si Si1 0.830304 0.941040 0.240437
Si Si2 0.000000 0.544354 0.500000
Si Si3 0.577313 0.753079 0.667643
Si Si4 0.825365 0.374767 0.239203
Si Si5 0.703606 0.146120 0.208707
Si Si6 0.000000 0.723810 0.000000
O O1 0.519369 0.910718 0.308940
O O2 0.014190 0.903377 0.310461
O O3 0.778509 0.002475 0.365481
O O4 0.000000 0.953709 0.000000
O O5 0.986254 0.588552 0.669086
O O6 0.500000 0.755635 0.500000
O O7 0.765253 0.809687 0.655692
O O8 0.723226 0.689674 0.657502
O O9 0.286111 0.763716 0.889823
O O10 0.000000 0.371102 0.000000
O O11 0.484766 0.182183 0.171625
O O12 0.000000 0.128291 0.000000
#
# Coordination Sequence:
#
# PCOD8050857 Si02
#       6
#     4   2   4   4   4   2
#     4  10  25  48  71 105 140 195 242 299 356 426
#     4  12  24  48  70 100 140 192 252 302 350 424
#     4  11  24  42  72 111 144 183 235 301 370 441
#     4  10  23  47  74 103 148 187 238 296 367 431
#     4  10  23  45  70 106 142 187 240 298 368 432
#     4  10  22  44  70 108 140 192 228 294 378 440
#
# _framework density 24.767026000000001
#
# number of rings (size 3 to 8) (size 9 to 14) (size 15 to 20)
#    0.000    1.600    0.000    3.600    8.400    0.800 
#   23.400    0.000    0.000    0.000    0.000    0.000 
#    0.000    0.000    0.000    0.000    0.000    0.000 
#
# Total GULP energy -123920.128189 kJ/mol
# GULP energy per Si atom -12392.012819 kJ/mol
# Density = 2.471066 g / cm^3
# Si number density = 24.767026 Si / 1000 Ang^3
#
#
#
# Elastic Constant Matrix: (Units=GPa)
#
#
# Indices 1 2 3 4 5 6 
#
# 1 155.1588 64.1823 53.9495 0.0000 8.8745 0.0000
# 2 64.1823 174.1346 73.1087 0.0000 6.1399 0.0000
# 3 53.9495 73.1087 82.1192 0.0000 -0.0468 0.0000
# 4 0.0000 0.0000 0.0000 -3.9410 0.0000 -21.5176
# 5 8.8745 6.1399 -0.0468 0.0000 48.6298 0.0000
# 6 0.0000 0.0000 0.0000 -21.5176 0.0000 -47.2407
#
#
#
# Elastic Compliance Matrix: (Units=1/GPa)
#
#
# Indices 1 2 3 4 5 6 
#
# 1 0.008621 -0.001196 -0.004599 0.000000 -0.001427 0.000000
# 2 -0.001196 0.009403 -0.007586 0.000000 -0.000976 0.000000
# 3 -0.004599 -0.007586 0.021954 0.000000 0.001818 0.000000
# 4 0.000000 0.000000 0.000000 0.170647 0.000000 -0.077728
# 5 -0.001427 -0.000976 0.001818 0.000000 0.020949 0.000000
# 6 0.000000 0.000000 0.000000 -0.077728 0.000000 0.014236
#
#
# Mechanical properties :
#
#
# Convention : Reuss Voigt Hill
#
# Bulk Modulus (GPa) = 75.67545 88.21039 81.94292
# Shear Modulus (GPa) = 18.05206 14.16776 16.10991
#
# Velocity S-wave (km/s) = 2.70270 2.39433 2.55317
# Velocity P-wave (km/s) = 6.35301 6.58310 6.46907
#
# Compressibility (1/GPa) = 0.01321433
#
# Stress axis : x y z
#
# Youngs Moduli (GPa) = 116.00112 106.35147 45.55051
#
# Poissons Ratio (x) = 0.12720 0.20951
# Poissons Ratio (y) = 0.13874 0.34554
# Poissons Ratio (z) = 0.53354 0.80677
#
# Static dielectric constant tensor:
#      x y z
#    x 4.489990 0.000000 -0.104620 
#    y 0.000000 4.427120 0.000000 
#    z -0.104620 0.000000 4.858620 
# 
# 
# High freq. dielectric constant tensor:
#      x y z
#    x 1.974510 0.000000 -0.006120 
#    y 0.000000 1.976580 0.000000 
#    z -0.006120 0.000000 2.026130 
# 
# From -- ./inp_files/12409.got.cif
#   From: 2010.03.12/outbox.cif.g09.slc.cpg/sg5_7_cif.got.tgz:12409.got - 2010.03.31 09:47:26.
