data_PCOD8050627
_publ_section_title
;
Structure prediction by ZEFSAII (Michael W. Deem and Ramdas Pophale) SiO2 
 PCOD8050627
Probable space group: C 2
;
_chemical_formula_sum "Si O2"
_cell_formula_units_Z 22
_cell_length_a 14.242984
_cell_length_b 5.116268
_cell_length_c 13.560287
_cell_angle_alpha 90.000000
_cell_angle_beta 73.109502
_cell_angle_gamma 90.000000
_cell_volume 945.523575
_symmetry_space_group_name_H-M "C 2"
_symmetry_group_IT_number 5
_symmetry_cell_setting 'monoclinic'
loop_
_space_group_symop_operation_xyz
x,y,z
-x,y,-z
1/2+x,1/2+y,z
1/2-x,1/2+y,-z
loop_
_atom_site_type_symbol
_atom_site_label
_atom_site_fract_x
_atom_site_fract_y
_atom_site_fract_z
Si Si1 0.716816 0.280760 0.456062
Si Si2 0.854692 0.479687 0.039321
Si Si3 0.000000 0.872871 0.500000
Si Si4 0.626671 0.474783 0.074209
Si Si5 0.985401 0.967608 0.288887
Si Si6 0.870274 0.461646 0.263639
O O1 0.726710 0.509441 0.536636
O O2 0.602011 0.207805 0.472967
O O3 0.763884 0.414592 0.345065
O O4 0.742881 0.473841 0.041293
O O5 0.859268 0.526891 0.153609
O O6 0.911534 0.719921 0.971634
O O7 0.908991 0.223969 0.979196
O O8 0.005964 0.042342 0.397317
O O9 0.587020 0.457139 0.197863
O O10 0.927177 0.692578 0.303124
O O11 0.926252 0.191747 0.253984
#
# Coordination Sequence:
#
# PCOD8050627 Si02
#       6
#     4   4   2   4   4   4
#     4  12  25  47  70 101 139 180 235 289 345 418
#     4  10  22  41  68  90 140 169 228 281 340 404
#     4  12  26  48  74  98 142 192 226 304 340 420
#     4  10  22  42  63 100 125 184 222 276 343 417
#     4  12  26  41  69  97 138 177 236 276 355 405
#     4  12  24  44  65 103 134 177 225 295 336 418
#
# _framework density 23.267534000000001
#
# number of rings (size 3 to 8) (size 9 to 14) (size 15 to 20)
#    0.000    0.727    3.636    3.273    0.000    7.273 
#    0.000    7.273    0.000    0.000    0.000    0.000 
#    0.000    0.000    0.000    0.000    0.000    0.000 
#
# Total GULP energy -136360.772883 kJ/mol
# GULP energy per Si atom -12396.433898 kJ/mol
# Density = 2.321458 g / cm^3
# Si number density = 23.267534 Si / 1000 Ang^3
#
#
#
# Elastic Constant Matrix: (Units=GPa)
#
#
# Indices 1 2 3 4 5 6 
#
# 1 83.2333 15.4502 13.6160 0.0000 -16.6363 0.0000
# 2 15.4502 82.4542 28.6547 0.0000 -35.3913 -0.0001
# 3 13.6160 28.6547 184.9608 0.0000 -6.3126 0.0000
# 4 0.0000 0.0000 0.0000 34.6124 0.0000 -4.9442
# 5 -16.6363 -35.3913 -6.3126 0.0000 23.7464 0.0000
# 6 0.0000 -0.0001 0.0000 -4.9442 0.0000 1.1194
#
#
#
# Elastic Compliance Matrix: (Units=1/GPa)
#
#
# Indices 1 2 3 4 5 6 
#
# 1 0.014864 0.005535 -0.001327 0.000000 0.018310 0.000001
# 2 0.005535 0.038180 -0.004287 0.000001 0.059640 0.000005
# 3 -0.001327 -0.004287 0.005973 0.000000 -0.005731 -0.000001
# 4 0.000000 0.000001 0.000000 0.078282 0.000001 0.345766
# 5 0.018310 0.059640 -0.005731 0.000001 0.142303 0.000008
# 6 0.000001 0.000005 -0.000001 0.345766 0.000008 2.420587
#
#
# Mechanical properties :
#
#
# Convention : Reuss Voigt Hill
#
# Bulk Modulus (GPa) = 16.98987 51.78779 34.38883
# Shear Modulus (GPa) = 1.83826 31.42413 16.63119
#
# Velocity S-wave (km/s) = 0.88981 3.67898 2.67644
# Velocity P-wave (km/s) = 2.89370 6.35235 4.93588
#
# Compressibility (1/GPa) = 0.05885861
#
# Stress axis : x y z
#
# Youngs Moduli (GPa) = 67.27792 26.19195 167.42669
#
# Poissons Ratio (x) = -0.14497 0.22214
# Poissons Ratio (y) = -0.37237 0.71773
# Poissons Ratio (z) = 0.08926 0.11228
#
# Static dielectric constant tensor:
#      x y z
#    x 5.159450 0.000000 -0.902690 
#    y 0.000000 4.344090 0.000000 
#    z -0.902690 0.000000 4.912790 
# 
# 
# High freq. dielectric constant tensor:
#      x y z
#    x 1.920110 0.000000 -0.017390 
#    y 0.000000 1.914560 0.000000 
#    z -0.017390 0.000000 1.939450 
# 
# From -- ./inp_files/41071.got.cif
#   From: 2010.03.12/outbox.cif.g09.slc.cpg/sg5_21_cif.got.tgz:41071.got - 2010.03.31 09:47:26.
