data_PCOD8050170
_publ_section_title
;
Structure prediction by ZEFSAII (Michael W. Deem and Ramdas Pophale) SiO2 
 PCOD8050170
Probable space group: C 2
;
_chemical_formula_sum "Si O2"
_cell_formula_units_Z 30
_cell_length_a 7.993898
_cell_length_b 13.684039
_cell_length_c 21.341097
_cell_angle_alpha 90.000000
_cell_angle_beta 35.852542
_cell_angle_gamma 90.000000
_cell_volume 1367.306124
_symmetry_space_group_name_H-M "C 2"
_symmetry_group_IT_number 5
_symmetry_cell_setting 'monoclinic'
loop_
_space_group_symop_operation_xyz
x,y,z
-x,y,-z
1/2+x,1/2+y,z
1/2-x,1/2+y,-z
loop_
_atom_site_type_symbol
_atom_site_label
_atom_site_fract_x
_atom_site_fract_y
_atom_site_fract_z
Si Si1 0.149915 0.667120 0.735245
Si Si2 0.197773 0.139450 0.076999
Si Si3 0.310161 0.237067 0.720223
Si Si4 0.797270 0.773861 0.939633
Si Si5 0.666223 0.758362 0.512762
Si Si6 0.529637 0.457071 0.917142
Si Si7 0.500000 0.399130 0.500000
Si Si8 0.841436 0.445924 0.281409
O O1 0.467262 0.686673 0.613007
O O2 0.145745 0.552245 0.755855
O O3 0.917180 0.705583 0.756058
O O4 0.070194 0.727538 0.821307
O O5 0.993789 0.179853 0.196060
O O6 0.012720 0.068516 0.089611
O O7 0.500000 0.085970 0.000000
O O8 0.298629 0.235037 0.009607
O O9 0.543371 0.202269 0.597743
O O10 0.290046 0.356501 0.720019
O O11 0.813923 0.890520 0.942412
O O12 0.500000 0.742976 0.000000
O O13 0.500000 0.797683 0.500000
O O14 0.762401 0.840735 0.532424
O O15 0.835641 0.416949 0.802159
O O16 0.500000 0.447311 0.000000
O O17 0.674399 0.463768 0.397396
#
# Coordination Sequence:
#
# PCOD8050170 Si02
#       8
#     4   4   4   4   4   4   2   4
#     4  11  22  41  69  96 134 180 219 278 350 398
#     4  12  24  42  64  95 132 174 222 283 343 404
#     4  10  21  41  65  98 135 172 223 278 335 410
#     4  12  23  40  63  93 130 172 219 277 338 403
#     4   9  21  40  68  93 135 175 219 284 335 402
#     4  12  25  42  64  93 129 175 228 275 338 412
#     4  10  22  40  70 100 130 176 230 270 346 410
#     4  11  22  39  68  98 129 176 226 275 340 409
#
# _framework density 21.940953
#
# number of rings (size 3 to 8) (size 9 to 14) (size 15 to 20)
#    0.000    1.067    2.667    4.400    2.800    1.067 
#    2.400    0.000   11.733    0.000    0.000    0.000 
#    0.000    0.000    0.000    0.000    0.000    0.000 
#
# Total GULP energy -185829.342878 kJ/mol
# GULP energy per Si atom -12388.622859 kJ/mol
# Density = 2.189101 g / cm^3
# Si number density = 21.940953 Si / 1000 Ang^3
#
#
#
# Elastic Constant Matrix: (Units=GPa)
#
#
# Indices 1 2 3 4 5 6 
#
# 1 60.1470 30.5131 32.9854 -0.3857 -7.0016 0.7878
# 2 30.5131 117.2470 45.4839 -0.1702 2.5661 0.3931
# 3 32.9854 45.4839 175.4397 -1.7620 -4.8696 3.5097
# 4 -0.3857 -0.1702 -1.7620 11.5202 0.4071 52.5160
# 5 -7.0016 2.5661 -4.8696 0.4071 26.4505 -0.7834
# 6 0.7878 0.3931 3.5097 52.5160 -0.7834 -82.4741
#
#
#
# Elastic Compliance Matrix: (Units=1/GPa)
#
#
# Indices 1 2 3 4 5 6 
#
# 1 0.021025 -0.004579 -0.002613 -0.000007 0.005529 0.000011
# 2 -0.004579 0.010530 -0.001940 0.000008 -0.002592 -0.000046
# 3 -0.002613 -0.001940 0.006710 -0.000059 0.000739 0.000207
# 4 -0.000007 0.000008 -0.000059 0.022243 0.000063 0.014160
# 5 0.005529 -0.002592 0.000739 0.000063 0.039649 -0.000264
# 6 0.000011 -0.000046 0.000207 0.014160 -0.000264 -0.003097
#
#
# Mechanical properties :
#
#
# Convention : Reuss Voigt Hill
#
# Bulk Modulus (GPa) = 49.99610 63.42204 56.70907
# Shear Modulus (GPa) = 40.98667 7.35607 24.17137
#
# Velocity S-wave (km/s) = 4.32678 1.83302 3.32272
# Velocity P-wave (km/s) = 6.91357 5.78346 6.37361
#
# Compressibility (1/GPa) = 0.02000156
#
# Stress axis : x y z
#
# Youngs Moduli (GPa) = 47.56162 94.96464 149.03284
#
# Poissons Ratio (x) = 0.43487 0.38938
# Poissons Ratio (y) = 0.21780 0.28912
# Poissons Ratio (z) = 0.12426 0.18423
#
# Static dielectric constant tensor:
#      x y z
#    x 4.746830 -0.003050 -0.835470 
#    y -0.003050 3.672880 0.002250 
#    z -0.835470 0.002250 4.986490 
# 
# 
# High freq. dielectric constant tensor:
#      x y z
#    x 1.841630 0.000000 -0.008570 
#    y 0.000000 1.848120 0.000000 
#    z -0.008570 0.000000 1.895020 
# 
# From -- ./inp_files/68002.got.cif
#   From: 2010.03.12/outbox.cif.g09.slc.cpg/sg5_35_cif.got.tgz:68002.got - 2010.03.31 09:47:26.
