data_PCOD8050867
_publ_section_title
;
Structure prediction by ZEFSAII (Michael W. Deem and Ramdas Pophale) SiO2 
 PCOD8050867
Probable space group: C 2
;
_chemical_formula_sum "Si O2"
_cell_formula_units_Z 32
_cell_length_a 22.215048
_cell_length_b 8.905911
_cell_length_c 15.116504
_cell_angle_alpha 90.000000
_cell_angle_beta 152.859424
_cell_angle_gamma 90.000000
_cell_volume 1364.296195
_symmetry_space_group_name_H-M "C 2"
_symmetry_group_IT_number 5
_symmetry_cell_setting 'monoclinic'
loop_
_space_group_symop_operation_xyz
x,y,z
-x,y,-z
1/2+x,1/2+y,z
1/2-x,1/2+y,-z
loop_
_atom_site_type_symbol
_atom_site_label
_atom_site_fract_x
_atom_site_fract_y
_atom_site_fract_z
Si Si1 0.837510 0.254880 0.100259
Si Si2 0.603143 0.608796 0.468614
Si Si3 0.984626 0.740747 0.079625
Si Si4 0.765703 0.298999 0.496190
Si Si5 0.169005 0.770053 0.553822
Si Si6 0.148142 0.649401 0.702096
Si Si7 0.993942 0.521913 0.744019
Si Si8 0.792854 0.312804 0.238254
O O1 0.786125 0.237197 0.132930
O O2 0.956537 0.139104 0.240864
O O3 0.889498 0.423703 0.146682
O O4 0.717165 0.207353 0.880898
O O5 0.704820 0.648828 0.522118
O O6 0.615160 0.435024 0.504107
O O7 0.627513 0.708064 0.588807
O O8 0.110356 0.836887 0.278039
O O9 0.960389 0.586659 0.102063
O O10 0.855083 0.843110 0.920294
O O11 0.000000 0.687583 0.000000
O O12 0.778463 0.268399 0.618315
O O13 0.859603 0.428013 0.582702
O O14 0.232808 0.710875 0.728636
O O15 0.044227 0.660357 0.369586
O O16 0.135249 0.470590 0.677720
O O17 0.000000 0.716160 0.500000
#
# Coordination Sequence:
#
# PCOD8050867 Si02
#       8
#     4   4   4   4   4   4   4   4
#     4  11  28  47  75 105 141 194 243 298 379 429
#     4  11  24  47  72 109 143 191 243 303 365 441
#     4  11  24  42  74 109 140 192 244 290 367 429
#     4  10  22  44  72 102 148 188 238 296 367 429
#     4  11  24  42  73 104 141 192 240 299 365 428
#     4  12  29  48  70 105 145 193 249 305 367 440
#     4  10  24  47  74 102 148 190 239 307 358 438
#     4  12  27  48  74 103 152 191 240 308 366 444
#
# _framework density 23.455317999999998
#
# number of rings (size 3 to 8) (size 9 to 14) (size 15 to 20)
#    0.000    1.000    1.250    4.875   10.500    1.000 
#    0.000    1.875    0.000    0.000    0.000    0.000 
#    0.000    0.000    0.000    0.000    0.000    0.000 
#
# Total GULP energy -198419.607912 kJ/mol
# GULP energy per Si atom -12401.225494 kJ/mol
# Density = 2.340193 g / cm^3
# Si number density = 23.455318 Si / 1000 Ang^3
#
#
#
# Elastic Constant Matrix: (Units=GPa)
#
#
# Indices 1 2 3 4 5 6 
#
# 1 128.7634 27.2026 53.4400 0.0000 -24.4370 0.0000
# 2 27.2026 123.5352 31.5631 0.0000 -12.4582 0.0000
# 3 53.4400 31.5631 124.1232 0.0000 -2.3596 0.0000
# 4 0.0000 0.0000 0.0000 26.9408 0.0000 -10.3769
# 5 -24.4370 -12.4582 -2.3596 0.0000 49.9999 0.0000
# 6 0.0000 0.0000 0.0000 -10.3769 0.0000 28.8936
#
#
#
# Elastic Compliance Matrix: (Units=1/GPa)
#
#
# Indices 1 2 3 4 5 6 
#
# 1 0.010616 -0.000759 -0.004286 0.000000 0.004797 0.000000
# 2 -0.000759 0.008928 -0.001910 0.000000 0.001764 0.000000
# 3 -0.004286 -0.001910 0.010348 0.000000 -0.002083 0.000000
# 4 0.000000 0.000000 0.000000 0.043078 0.000000 0.015471
# 5 0.004797 0.001764 -0.002083 0.000000 0.022686 0.000000
# 6 0.000000 0.000000 0.000000 0.015471 0.000000 0.040166
#
#
# Mechanical properties :
#
#
# Convention : Reuss Voigt Hill
#
# Bulk Modulus (GPa) = 62.57277 66.75926 64.66601
# Shear Modulus (GPa) = 32.24590 38.78126 35.51358
#
# Velocity S-wave (km/s) = 3.71183 4.07063 3.89536
# Velocity P-wave (km/s) = 6.71607 7.11459 6.91820
#
# Compressibility (1/GPa) = 0.01598139
#
# Stress axis : x y z
#
# Youngs Moduli (GPa) = 94.19899 112.00982 96.63608
#
# Poissons Ratio (x) = 0.08498 0.41422
# Poissons Ratio (y) = 0.07147 0.18458
# Poissons Ratio (z) = 0.40378 0.21395
#
# Static dielectric constant tensor:
#      x y z
#    x 4.553390 0.000000 -0.183140 
#    y 0.000000 4.087080 0.000000 
#    z -0.183140 0.000000 4.176700 
# 
# 
# High freq. dielectric constant tensor:
#      x y z
#    x 1.953930 0.000000 -0.009940 
#    y 0.000000 1.918360 0.000000 
#    z -0.009940 0.000000 1.918700 
# 
# From -- ./inp_files/57707.got.cif
#   From: 2010.03.12/outbox.cif.g09.slc.cpg/sg5_29_cif.got.tgz:57707.got - 2010.03.31 09:47:26.
