data_PCOD8050283
_publ_section_title
;
Structure prediction by ZEFSAII (Michael W. Deem and Ramdas Pophale) SiO2 
 PCOD8050283
Probable space group: C 2
;
_chemical_formula_sum "Si O2"
_cell_formula_units_Z 28
_cell_length_a 7.063673
_cell_length_b 9.759588
_cell_length_c 22.250085
_cell_angle_alpha 90.000000
_cell_angle_beta 134.302474
_cell_angle_gamma 90.000000
_cell_volume 1097.746477
_symmetry_space_group_name_H-M "C 2"
_symmetry_group_IT_number 5
_symmetry_cell_setting 'monoclinic'
loop_
_space_group_symop_operation_xyz
x,y,z
-x,y,-z
1/2+x,1/2+y,z
1/2-x,1/2+y,-z
loop_
_atom_site_type_symbol
_atom_site_label
_atom_site_fract_x
_atom_site_fract_y
_atom_site_fract_z
Si Si1 0.796509 0.917370 0.672669
Si Si2 0.003963 0.121257 0.802590
Si Si3 0.726876 0.625503 0.625347
Si Si4 0.626487 0.914598 0.254302
Si Si5 0.291149 0.722841 0.035628
Si Si6 0.081084 0.513861 0.908562
Si Si7 0.367455 0.103155 0.527479
O O1 0.742483 0.756801 0.672746
O O2 0.078197 0.942820 0.704111
O O3 0.554039 0.969211 0.576870
O O4 0.805644 0.999147 0.738451
O O5 0.985656 0.161344 0.869091
O O6 0.297229 0.075442 0.855631
O O7 0.925836 0.254369 0.745002
O O8 0.904215 0.502621 0.691521
O O9 0.851563 0.677839 0.589025
O O10 0.432355 0.564532 0.555071
O O11 0.401602 0.967727 0.157219
O O12 0.366709 0.880005 0.037867
O O13 0.000000 0.716174 0.000000
O O14 0.291676 0.631374 0.974688
O O15 0.500000 0.187049 0.500000
#
# Coordination Sequence:
#
# PCOD8050283 Si02
#       7
#     4   4   4   4   4   4   4
#     4  11  23  43  67 100 134 174 234 282 342 416
#     4   9  20  39  66  94 138 181 220 283 347 400
#     4  11  26  44  70 102 132 182 236 279 352 416
#     4  10  21  43  68  96 138 180 227 288 343 410
#     4   9  18  37  59  92 133 176 229 280 341 403
#     4   9  19  36  63  94 132 180 225 282 340 406
#     4  11  25  46  66 100 138 177 223 292 346 412
#
# _framework density 25.506799999999998
#
# number of rings (size 3 to 8) (size 9 to 14) (size 15 to 20)
#    0.000    2.000    1.429    0.857    2.000    4.571 
#    5.143   17.857    0.000    0.000    0.000    0.000 
#    0.000    0.000    0.000    0.000    0.000    0.000 
#
# Total GULP energy -173434.350895 kJ/mol
# GULP energy per Si atom -12388.167921 kJ/mol
# Density = 2.544875 g / cm^3
# Si number density = 25.506800 Si / 1000 Ang^3
#
#
#
# Elastic Constant Matrix: (Units=GPa)
#
#
# Indices 1 2 3 4 5 6 
#
# 1 82.1561 18.9441 36.7638 0.0000 10.1215 0.0000
# 2 18.9441 173.2326 98.4017 0.0000 5.4980 0.0000
# 3 36.7638 98.4017 155.6864 0.0000 -8.5827 0.0000
# 4 0.0000 0.0000 0.0000 36.9500 0.0000 -0.5109
# 5 10.1215 5.4980 -8.5827 0.0000 21.8666 0.0000
# 6 0.0000 0.0000 0.0000 -0.5109 0.0000 25.2575
#
#
#
# Elastic Compliance Matrix: (Units=1/GPa)
#
#
# Indices 1 2 3 4 5 6 
#
# 1 0.015260 0.001519 -0.005084 0.000000 -0.009441 0.000000
# 2 0.001519 0.009633 -0.006766 0.000000 -0.005781 0.000000
# 3 -0.005084 -0.006766 0.012392 0.000000 0.008918 0.000000
# 4 0.000000 0.000000 0.000000 0.027071 0.000000 0.000548
# 5 -0.009441 -0.005781 0.008918 0.000000 0.055055 0.000000
# 6 0.000000 0.000000 0.000000 0.000548 0.000000 0.039603
#
#
# Mechanical properties :
#
#
# Convention : Reuss Voigt Hill
#
# Bulk Modulus (GPa) = 60.15939 79.92159 70.04049
# Shear Modulus (GPa) = 26.99527 33.94588 30.47057
#
# Velocity S-wave (km/s) = 3.25677 3.65205 3.46006
# Velocity P-wave (km/s) = 6.14645 7.01318 6.59407
#
# Compressibility (1/GPa) = 0.01662251
#
# Stress axis : x y z
#
# Youngs Moduli (GPa) = 65.53195 103.80668 80.69902
#
# Poissons Ratio (x) = -0.15764 0.41025
# Poissons Ratio (y) = -0.09952 0.54601
# Poissons Ratio (z) = 0.33314 0.70236
#
# Static dielectric constant tensor:
#      x y z
#    x 4.295650 0.000000 -0.150810 
#    y 0.000000 4.563590 0.000000 
#    z -0.150810 0.000000 5.477970 
# 
# 
# High freq. dielectric constant tensor:
#      x y z
#    x 1.998300 0.000000 0.014440 
#    y 0.000000 1.999420 0.000000 
#    z 0.014440 0.000000 2.044210 
# 
# From -- ./inp_files/70117.got.cif
#   From: 2010.03.12/outbox.cif.g09.slc.cpg/sg5_36_cif.got.tgz:70117.got - 2010.03.31 09:47:26.
