data_PCOD8050841
_publ_section_title
;
Structure prediction by ZEFSAII (Michael W. Deem and Ramdas Pophale) SiO2 
 PCOD8050841
Probable space group: C 2
;
_chemical_formula_sum "Si O2"
_cell_formula_units_Z 20
_cell_length_a 28.840871
_cell_length_b 5.086693
_cell_length_c 12.517509
_cell_angle_alpha 90.000000
_cell_angle_beta 28.140327
_cell_angle_gamma 90.000000
_cell_volume 866.095266
_symmetry_space_group_name_H-M "C 2"
_symmetry_group_IT_number 5
_symmetry_cell_setting 'monoclinic'
loop_
_space_group_symop_operation_xyz
x,y,z
-x,y,-z
1/2+x,1/2+y,z
1/2-x,1/2+y,-z
loop_
_atom_site_type_symbol
_atom_site_label
_atom_site_fract_x
_atom_site_fract_y
_atom_site_fract_z
Si Si1 0.889847 0.284060 0.462939
Si Si2 0.193565 0.319857 0.587644
Si Si3 0.261596 0.379387 0.045308
Si Si4 0.416360 0.530035 0.890543
Si Si5 0.573587 0.022418 0.013622
O O1 0.827727 0.193572 0.485962
O O2 0.819619 0.393119 0.697196
O O3 0.957175 0.518796 0.276563
O O4 0.963674 0.058551 0.360223
O O5 0.265847 0.569527 0.429589
O O6 0.097270 0.436286 0.844338
O O7 0.231927 0.588006 0.015478
O O8 0.369414 0.451952 0.872372
O O9 0.371938 0.809222 0.019224
O O10 0.386802 0.311073 0.039115
#
# Coordination Sequence:
#
# PCOD8050841 Si02
#       5
#     4   4   4   4   4
#     4  10  27  45  72 103 143 187 236 290 353 422
#     4  12  25  41  72 106 147 188 231 287 353 425
#     4  12  27  47  72 103 139 184 245 302 354 413
#     4  10  24  46  71  97 144 179 236 289 360 413
#     4  10  22  44  68 104 140 182 230 279 353 428
#
# _framework density 23.092148000000002
#
# number of rings (size 3 to 8) (size 9 to 14) (size 15 to 20)
#    1.200    0.000    0.000    5.400    5.600    0.800 
#    3.600    0.000    0.000    0.000    0.000    0.000 
#    0.000    0.000    0.000    0.000    0.000    0.000 
#
# Total GULP energy -123885.726929 kJ/mol
# GULP energy per Si atom -12388.572693 kJ/mol
# Density = 2.303959 g / cm^3
# Si number density = 23.092148 Si / 1000 Ang^3
#
#
#
# Elastic Constant Matrix: (Units=GPa)
#
#
# Indices 1 2 3 4 5 6 
#
# 1 124.6246 23.8595 49.9751 -0.0001 -4.1836 -0.0001
# 2 23.8595 105.9818 20.0090 -0.0002 -9.3711 0.0006
# 3 49.9751 20.0090 119.9375 0.0001 10.1710 -0.0002
# 4 -0.0001 -0.0002 0.0001 33.2235 0.0000 6.3700
# 5 -4.1836 -9.3711 10.1710 0.0000 31.7932 -0.0002
# 6 -0.0001 0.0006 -0.0002 6.3700 -0.0002 34.5738
#
#
#
# Elastic Compliance Matrix: (Units=1/GPa)
#
#
# Indices 1 2 3 4 5 6 
#
# 1 0.010008 -0.001269 -0.004151 0.000000 0.002271 0.000000
# 2 -0.001269 0.010294 -0.001472 0.000000 0.003338 0.000000
# 3 -0.004151 -0.001472 0.010686 0.000000 -0.004399 0.000000
# 4 0.000000 0.000000 0.000000 0.031201 0.000000 -0.005749
# 5 0.002271 0.003338 -0.004399 0.000000 0.034143 0.000000
# 6 0.000000 0.000000 0.000000 -0.005749 0.000000 0.029983
#
#
# Mechanical properties :
#
#
# Convention : Reuss Voigt Hill
#
# Bulk Modulus (GPa) = 58.12243 59.80347 58.96295
# Shear Modulus (GPa) = 34.28583 37.03146 35.65865
#
# Velocity S-wave (km/s) = 3.85741 4.00889 3.93388
# Velocity P-wave (km/s) = 6.71297 6.88348 6.79876
#
# Compressibility (1/GPa) = 0.01720506
#
# Stress axis : x y z
#
# Youngs Moduli (GPa) = 99.92264 97.14189 93.58190
#
# Poissons Ratio (x) = 0.12323 0.38845
# Poissons Ratio (y) = 0.12676 0.13774
# Poissons Ratio (z) = 0.41477 0.14298
#
# Static dielectric constant tensor:
#      x y z
#    x 4.040200 0.000000 -0.124530 
#    y 0.000000 3.946590 0.000000 
#    z -0.124530 0.000000 3.973370 
# 
# 
# High freq. dielectric constant tensor:
#      x y z
#    x 1.901980 0.000000 -0.002070 
#    y 0.000000 1.910000 0.000000 
#    z -0.002070 0.000000 1.907770 
# 
# From -- ./inp_files/41062.got.cif
#   From: 2010.03.12/outbox.cif.g09.slc.cpg/sg5_21_cif.got.tgz:41062.got - 2010.03.31 09:47:26.
