data_PCOD8050269
_publ_section_title
;
Structure prediction by ZEFSAII (Michael W. Deem and Ramdas Pophale) SiO2 
 PCOD8050269
Probable space group: C 2
;
_chemical_formula_sum "Si O2"
_cell_formula_units_Z 32
_cell_length_a 8.162353
_cell_length_b 13.049647
_cell_length_c 15.468159
_cell_angle_alpha 90.000000
_cell_angle_beta 119.647991
_cell_angle_gamma 90.000000
_cell_volume 1431.900923
_symmetry_space_group_name_H-M "C 2"
_symmetry_group_IT_number 5
_symmetry_cell_setting 'monoclinic'
loop_
_space_group_symop_operation_xyz
x,y,z
-x,y,-z
1/2+x,1/2+y,z
1/2-x,1/2+y,-z
loop_
_atom_site_type_symbol
_atom_site_label
_atom_site_fract_x
_atom_site_fract_y
_atom_site_fract_z
Si Si1 0.895420 0.443530 0.204785
Si Si2 0.964007 0.905324 0.343311
Si Si3 0.713895 0.098867 0.305650
Si Si4 0.025962 0.939350 0.851016
Si Si5 0.849862 0.150321 0.160806
Si Si6 0.158760 0.325972 0.971897
Si Si7 0.141835 0.267235 0.323490
Si Si8 0.294288 0.770466 0.469089
O O1 0.673463 0.460085 0.156427
O O2 0.930166 0.414651 0.112673
O O3 0.009941 0.545730 0.258909
O O4 0.971013 0.350751 0.284941
O O5 0.816451 0.815043 0.319573
O O6 0.012006 0.905123 0.255736
O O7 0.157742 0.869891 0.439474
O O8 0.883046 0.013844 0.356958
O O9 0.723042 0.154476 0.214879
O O10 0.730107 0.181078 0.386756
O O11 0.154868 0.040737 0.886176
O O12 0.144911 0.854855 0.932506
O O13 0.779536 0.231596 0.072593
O O14 0.066424 0.172308 0.247087
O O15 0.000000 0.295005 0.000000
O O16 0.197894 0.224317 0.432176
O O17 0.500000 0.812792 0.500000
#
# Coordination Sequence:
#
# PCOD8050269 Si02
#       8
#     4   4   4   4   4   4   4   4
#     4  10  23  44  68  97 141 174 232 291 351 411
#     4  10  24  44  68  95 143 184 229 297 355 410
#     4  10  23  45  68  98 140 190 226 299 353 421
#     4  11  23  44  67 103 133 181 236 282 348 428
#     4  10  22  43  68  96 138 173 226 287 345 420
#     4  11  23  44  70  98 136 182 225 284 352 424
#     4  10  21  43  65  95 136 180 228 281 351 411
#     4  12  23  40  71 102 135 182 244 278 358 429
#
# _framework density 22.347913999999999
#
# number of rings (size 3 to 8) (size 9 to 14) (size 15 to 20)
#    0.000    1.500    1.250    4.500    3.500    3.000 
#    2.250    3.750    0.000    0.000    0.000    0.000 
#    0.000    0.000    0.000    0.000    0.000    0.000 
#
# Total GULP energy -198376.496876 kJ/mol
# GULP energy per Si atom -12398.531055 kJ/mol
# Density = 2.229705 g / cm^3
# Si number density = 22.347914 Si / 1000 Ang^3
#
#
#
# Elastic Constant Matrix: (Units=GPa)
#
#
# Indices 1 2 3 4 5 6 
#
# 1 94.2589 26.2708 12.3131 0.0000 8.8260 0.0000
# 2 26.2708 64.9030 28.4867 0.0000 -1.8659 0.0000
# 3 12.3131 28.4867 79.6487 0.0000 -0.7934 0.0000
# 4 0.0000 0.0000 0.0000 20.0934 0.0000 -9.0045
# 5 8.8260 -1.8659 -0.7934 0.0000 40.5408 0.0000
# 6 0.0000 0.0000 0.0000 -9.0045 0.0000 27.9871
#
#
#
# Elastic Compliance Matrix: (Units=1/GPa)
#
#
# Indices 1 2 3 4 5 6 
#
# 1 0.012293 -0.004997 -0.000142 0.000000 -0.002909 0.000000
# 2 -0.004997 0.020329 -0.006479 0.000000 0.001897 0.000000
# 3 -0.000142 -0.006479 0.014895 0.000000 0.000024 0.000000
# 4 0.000000 0.000000 0.000000 0.058152 0.000000 0.018710
# 5 -0.002909 0.001897 0.000024 0.000000 0.025388 0.000000
# 6 0.000000 0.000000 0.000000 0.018710 0.000000 0.041750
#
#
# Mechanical properties :
#
#
# Convention : Reuss Voigt Hill
#
# Bulk Modulus (GPa) = 41.18736 41.43909 41.31322
# Shear Modulus (GPa) = 24.49350 29.17360 26.83355
#
# Velocity S-wave (km/s) = 3.31419 3.61699 3.46890
# Velocity P-wave (km/s) = 5.75458 6.00220 5.87970
#
# Compressibility (1/GPa) = 0.02427929
#
# Stress axis : x y z
#
# Youngs Moduli (GPa) = 81.34893 49.19184 67.13809
#
# Poissons Ratio (x) = 0.24581 0.00954
# Poissons Ratio (y) = 0.40650 0.43500
# Poissons Ratio (z) = 0.01156 0.31872
#
# Static dielectric constant tensor:
#      x y z
#    x 3.973700 0.000000 -0.007440 
#    y 0.000000 4.018480 0.000000 
#    z -0.007440 0.000000 4.182260 
# 
# 
# High freq. dielectric constant tensor:
#      x y z
#    x 1.880410 0.000000 -0.004200 
#    y 0.000000 1.870110 0.000000 
#    z -0.004200 0.000000 1.887900 
# 
# From -- ./inp_files/50967.got.cif
#   From: 2010.03.12/outbox.cif.g09.slc.cpg/sg5_26_cif.got.tgz:50967.got - 2010.03.31 09:47:26.
