data_PCOD8050905
_publ_section_title
;
Structure prediction by ZEFSAII (Michael W. Deem and Ramdas Pophale) SiO2 
 PCOD8050905
Probable space group: C 2
;
_chemical_formula_sum "Si O2"
_cell_formula_units_Z 30
_cell_length_a 13.689477
_cell_length_b 17.801367
_cell_length_c 10.637526
_cell_angle_alpha 90.000000
_cell_angle_beta 148.808534
_cell_angle_gamma 90.000000
_cell_volume 1342.537486
_symmetry_space_group_name_H-M "C 2"
_symmetry_group_IT_number 5
_symmetry_cell_setting 'monoclinic'
loop_
_space_group_symop_operation_xyz
x,y,z
-x,y,-z
1/2+x,1/2+y,z
1/2-x,1/2+y,-z
loop_
_atom_site_type_symbol
_atom_site_label
_atom_site_fract_x
_atom_site_fract_y
_atom_site_fract_z
Si Si1 0.800041 0.986480 0.737897
Si Si2 0.500000 0.978086 0.000000
Si Si3 0.340833 0.867838 0.233013
Si Si4 0.671054 0.120125 0.443288
Si Si5 0.855479 0.385661 0.623569
Si Si6 0.302816 0.216954 0.002176
Si Si7 0.032903 0.233769 0.176443
Si Si8 0.710677 0.590403 0.712939
O O1 0.730166 0.945726 0.786566
O O2 0.813889 0.920158 0.647148
O O3 0.653839 0.047326 0.516571
O O4 0.000000 0.021535 0.000000
O O5 0.637063 0.927737 0.235433
O O6 0.638862 0.030259 0.065918
O O7 0.500000 0.831100 0.500000
O O8 0.438057 0.895385 0.211934
O O9 0.180929 0.803441 0.030425
O O10 0.722502 0.098240 0.357768
O O11 0.855420 0.157075 0.704642
O O12 0.495983 0.177718 0.260290
O O13 0.830210 0.296060 0.609091
O O14 0.161491 0.218879 0.964194
O O15 0.220299 0.168944 0.796008
O O16 0.000000 0.262917 0.000000
O O17 0.500000 0.558473 0.500000
#
# Coordination Sequence:
#
# PCOD8050905 Si02
#       8
#     4   2   4   4   4   4   4   4
#     4  11  24  43  68 105 141 182 232 293 360 425
#     4  12  22  46  68  98 140 180 224 290 356 422
#     4   9  22  42  68 102 136 184 235 294 351 421
#     4  12  25  44  67 103 142 180 237 288 365 421
#     4  10  22  45  70  96 136 186 229 286 360 418
#     4  11  23  43  73 101 137 184 243 290 353 422
#     4  11  25  46  69  98 141 188 232 299 354 427
#     4  12  23  40  68 103 136 180 232 292 348 427
#
# _framework density 22.345745000000001
#
# number of rings (size 3 to 8) (size 9 to 14) (size 15 to 20)
#    0.000    1.067    4.667    0.800    5.600    1.600 
#   16.800    0.000    0.000    0.000    0.000    0.000 
#    0.000    0.000    0.000    0.000    0.000    0.000 
#
# Total GULP energy -185832.844031 kJ/mol
# GULP energy per Si atom -12388.856269 kJ/mol
# Density = 2.229488 g / cm^3
# Si number density = 22.345745 Si / 1000 Ang^3
#
#
#
# Elastic Constant Matrix: (Units=GPa)
#
#
# Indices 1 2 3 4 5 6 
#
# 1 87.6523 53.1883 26.4476 0.0000 1.4451 0.0000
# 2 53.1883 107.0819 34.2569 0.0000 5.1754 0.0000
# 3 26.4476 34.2569 93.2679 0.0000 9.5649 0.0000
# 4 0.0000 0.0000 0.0000 46.7113 0.0000 -2.1870
# 5 1.4451 5.1754 9.5649 0.0000 31.6618 0.0000
# 6 0.0000 0.0000 0.0000 -2.1870 0.0000 24.2528
#
#
#
# Elastic Compliance Matrix: (Units=1/GPa)
#
#
# Indices 1 2 3 4 5 6 
#
# 1 0.016662 -0.007685 -0.002015 0.000000 0.001105 0.000000
# 2 -0.007685 0.014136 -0.002902 0.000000 -0.001083 0.000000
# 3 -0.002015 -0.002902 0.012694 0.000000 -0.003269 0.000000
# 4 0.000000 0.000000 0.000000 0.021499 0.000000 0.001939
# 5 0.001105 -0.001083 -0.003269 0.000000 0.032698 0.000000
# 6 0.000000 0.000000 0.000000 0.001939 0.000000 0.041407
#
#
# Mechanical properties :
#
#
# Convention : Reuss Voigt Hill
#
# Bulk Modulus (GPa) = 54.67961 57.30972 55.99467
# Shear Modulus (GPa) = 29.34327 32.13247 30.73787
#
# Velocity S-wave (km/s) = 3.62767 3.79617 3.71288
# Velocity P-wave (km/s) = 6.48611 6.70202 6.59495
#
# Compressibility (1/GPa) = 0.01828835
#
# Stress axis : x y z
#
# Youngs Moduli (GPa) = 60.01774 70.73932 78.77472
#
# Poissons Ratio (x) = 0.54360 0.15877
# Poissons Ratio (y) = 0.46121 0.22861
# Poissons Ratio (z) = 0.12096 0.20529
#
# Static dielectric constant tensor:
#      x y z
#    x 3.917070 0.000000 -0.056350 
#    y 0.000000 4.231360 0.000000 
#    z -0.056350 0.000000 4.013910 
# 
# 
# High freq. dielectric constant tensor:
#      x y z
#    x 1.867430 0.000000 -0.012770 
#    y 0.000000 1.893610 0.000000 
#    z -0.012770 0.000000 1.868770 
# 
# From -- ./inp_files/43340.got.cif
#   From: 2010.03.12/outbox.cif.g09.slc.cpg/sg5_22_cif.got.tgz:43340.got - 2010.03.31 09:47:26.
