data_PCOD8050801
_publ_section_title
;
Structure prediction by ZEFSAII (Michael W. Deem and Ramdas Pophale) SiO2 
 PCOD8050801
Probable space group: C 2
;
_chemical_formula_sum "Si O2"
_cell_formula_units_Z 20
_cell_length_a 16.866594
_cell_length_b 7.600307
_cell_length_c 8.321793
_cell_angle_alpha 90.000000
_cell_angle_beta 121.719589
_cell_angle_gamma 90.000000
_cell_volume 907.437761
_symmetry_space_group_name_H-M "C 2"
_symmetry_group_IT_number 5
_symmetry_cell_setting 'monoclinic'
loop_
_space_group_symop_operation_xyz
x,y,z
-x,y,-z
1/2+x,1/2+y,z
1/2-x,1/2+y,-z
loop_
_atom_site_type_symbol
_atom_site_label
_atom_site_fract_x
_atom_site_fract_y
_atom_site_fract_z
Si Si1 0.904784 0.892360 0.802605
Si Si2 0.256547 0.988059 0.160903
Si Si3 0.588364 0.110189 0.473243
Si Si4 0.129826 0.173654 0.778500
Si Si5 0.923145 0.208402 0.624769
O O1 0.813856 0.858029 0.815765
O O2 0.912770 0.761886 0.660632
O O3 0.882312 0.097054 0.729529
O O4 0.000000 0.870417 0.000000
O O5 0.341090 0.875957 0.179180
O O6 0.312603 0.132413 0.327599
O O7 0.204633 0.060011 0.951162
O O8 0.500000 0.126921 0.500000
O O9 0.589656 0.918988 0.384989
O O10 0.121648 0.121961 0.582525
O O11 0.030931 0.155959 0.756480
#
# Coordination Sequence:
#
# PCOD8050801 Si02
#       5
#     4   4   4   4   4
#     4  12  28  43  68 104 137 174 225 283 334 390
#     4  11  25  44  67 105 129 179 230 270 339 394
#     4  11  26  47  68  97 137 180 225 274 336 402
#     4  10  22  43  71  94 132 177 228 269 331 404
#     4  10  22  49  67  95 135 183 219 276 338 392
#
# _framework density 22.04008
#
# number of rings (size 3 to 8) (size 9 to 14) (size 15 to 20)
#    0.000    1.200    6.000    0.000   14.000    0.800 
#    3.600    0.000    0.000    0.000    0.000    0.000 
#    0.000    0.000    0.000    0.000    0.000    0.000 
#
# Total GULP energy -123890.619229 kJ/mol
# GULP energy per Si atom -12389.061923 kJ/mol
# Density = 2.198992 g / cm^3
# Si number density = 22.040080 Si / 1000 Ang^3
#
#
#
# Elastic Constant Matrix: (Units=GPa)
#
#
# Indices 1 2 3 4 5 6 
#
# 1 58.1938 21.7834 48.7474 0.0000 7.9922 0.0000
# 2 21.7834 84.0973 48.0879 0.0000 -14.2162 0.0000
# 3 48.7474 48.0879 156.6215 0.0000 28.1175 0.0000
# 4 0.0000 0.0000 0.0000 38.7347 0.0000 -2.1861
# 5 7.9922 -14.2162 28.1175 0.0000 33.0848 0.0000
# 6 0.0000 0.0000 0.0000 -2.1861 0.0000 24.5263
#
#
#
# Elastic Compliance Matrix: (Units=1/GPa)
#
#
# Indices 1 2 3 4 5 6 
#
# 1 0.023672 -0.002893 -0.006171 0.000000 -0.001717 0.000000
# 2 -0.002893 0.020073 -0.008185 0.000000 0.016281 0.000000
# 3 -0.006171 -0.008185 0.013196 0.000000 -0.013241 0.000000
# 4 0.000000 0.000000 0.000000 0.025947 0.000000 0.002313
# 5 -0.001717 0.016281 -0.013241 0.000000 0.048889 0.000000
# 6 0.000000 0.000000 0.000000 0.002313 0.000000 0.040979
#
#
# Mechanical properties :
#
#
# Convention : Reuss Voigt Hill
#
# Bulk Modulus (GPa) = 44.56020 59.57222 52.06621
# Shear Modulus (GPa) = 23.28439 31.28875 27.28657
#
# Velocity S-wave (km/s) = 3.25384 3.77188 3.52240
# Velocity P-wave (km/s) = 5.86331 6.78655 6.34175
#
# Compressibility (1/GPa) = 0.02244155
#
# Stress axis : x y z
#
# Youngs Moduli (GPa) = 42.24350 49.81808 75.78099
#
# Poissons Ratio (x) = 0.14413 0.46767
# Poissons Ratio (y) = 0.12221 0.62030
# Poissons Ratio (z) = 0.26070 0.40778
#
# Static dielectric constant tensor:
#      x y z
#    x 3.925140 0.000000 0.208920 
#    y 0.000000 3.820780 0.000000 
#    z 0.208920 0.000000 4.365720 
# 
# 
# High freq. dielectric constant tensor:
#      x y z
#    x 1.864700 0.000000 0.017970 
#    y 0.000000 1.852520 0.000000 
#    z 0.017970 0.000000 1.889740 
# 
# From -- ./inp_files/26383.got.cif
#   From: 2010.03.12/outbox.cif.g09.slc.cpg/sg5_14_cif.got.tgz:26383.got - 2010.03.31 09:47:26.
