data_PCOD8050392
_publ_section_title
;
Structure prediction by ZEFSAII (Michael W. Deem and Ramdas Pophale) SiO2 
 PCOD8050392
Probable space group: C 2
;
_chemical_formula_sum "Si O2"
_cell_formula_units_Z 20
_cell_length_a 13.800683
_cell_length_b 9.890095
_cell_length_c 12.750703
_cell_angle_alpha 90.000000
_cell_angle_beta 34.287710
_cell_angle_gamma 90.000000
_cell_volume 980.420934
_symmetry_space_group_name_H-M "C 2"
_symmetry_group_IT_number 5
_symmetry_cell_setting 'monoclinic'
loop_
_space_group_symop_operation_xyz
x,y,z
-x,y,-z
1/2+x,1/2+y,z
1/2-x,1/2+y,-z
loop_
_atom_site_type_symbol
_atom_site_label
_atom_site_fract_x
_atom_site_fract_y
_atom_site_fract_z
Si Si1 0.616966 0.441090 0.739785
Si Si2 0.964476 0.228074 0.917384
Si Si3 0.358999 0.212367 0.923259
Si Si4 0.654299 0.802599 0.294115
Si Si5 0.553421 0.954861 0.682476
O O1 0.542082 0.579423 0.848384
O O2 0.464324 0.351563 0.828414
O O3 0.753002 0.478769 0.528245
O O4 0.302296 0.359061 0.236129
O O5 0.060394 0.324087 0.749654
O O6 0.762139 0.219641 0.070733
O O7 0.000000 0.290620 0.000000
O O8 0.486598 0.085297 0.805013
O O9 0.241103 0.198388 0.134096
O O10 0.500000 0.731938 0.500000
O O11 0.570645 0.928169 0.305829
#
# Coordination Sequence:
#
# PCOD8050392 Si02
#       5
#     4   4   4   4   4
#     4  11  21  39  62  84 113 156 195 231 283 350
#     4  11  22  38  58  83 115 154 191 234 286 338
#     4  11  21  37  60  88 117 151 192 241 285 337
#     4   9  20  38  63  88 113 151 195 232 284 352
#     4  10  22  38  59  89 118 146 190 242 287 335
#
# _framework density 20.399401000000001
#
# number of rings (size 3 to 8) (size 9 to 14) (size 15 to 20)
#    0.000    1.600    0.000    6.600    0.000    1.600 
#    0.000    3.000    0.000    0.000    0.000    0.000 
#    0.000    0.000    0.000    0.000    0.000    0.000 
#
# Total GULP energy -124017.951358 kJ/mol
# GULP energy per Si atom -12401.795136 kJ/mol
# Density = 2.035297 g / cm^3
# Si number density = 20.399401 Si / 1000 Ang^3
#
#
#
# Elastic Constant Matrix: (Units=GPa)
#
#
# Indices 1 2 3 4 5 6 
#
# 1 121.2041 18.4855 45.5946 0.0000 1.1718 0.0000
# 2 18.4855 50.0816 33.9622 0.0000 7.7184 0.0000
# 3 45.5946 33.9622 139.1360 0.0000 -0.2577 0.0000
# 4 0.0000 0.0000 0.0000 37.9437 0.0000 -1.5781
# 5 1.1718 7.7184 -0.2577 0.0000 24.8865 0.0000
# 6 0.0000 0.0000 0.0000 -1.5781 0.0000 15.9751
#
#
#
# Elastic Compliance Matrix: (Units=1/GPa)
#
#
# Indices 1 2 3 4 5 6 
#
# 1 0.009527 -0.001685 -0.002710 0.000000 0.000046 0.000000
# 2 -0.001685 0.025706 -0.005737 0.000000 -0.007952 0.000000
# 3 -0.002710 -0.005737 0.009479 0.000000 0.002005 0.000000
# 4 0.000000 0.000000 0.000000 0.026464 0.000000 0.002614
# 5 0.000046 -0.007952 0.002005 0.000000 0.042668 0.000000
# 6 0.000000 0.000000 0.000000 0.002614 0.000000 0.062856
#
#
# Mechanical properties :
#
#
# Convention : Reuss Voigt Hill
#
# Bulk Modulus (GPa) = 40.90626 56.27847 48.59236
# Shear Modulus (GPa) = 24.37681 29.91969 27.14825
#
# Velocity S-wave (km/s) = 3.46059 3.83390 3.65202
# Velocity P-wave (km/s) = 6.00532 6.87361 6.45408
#
# Compressibility (1/GPa) = 0.02444614
#
# Stress axis : x y z
#
# Youngs Moduli (GPa) = 104.96745 38.90207 105.49108
#
# Poissons Ratio (x) = 0.06557 0.28592
# Poissons Ratio (y) = 0.17692 0.60520
# Poissons Ratio (z) = 0.28450 0.22318
#
# Static dielectric constant tensor:
#      x y z
#    x 3.884980 0.000000 -0.016580 
#    y 0.000000 3.438140 0.000000 
#    z -0.016580 0.000000 3.986380 
# 
# 
# High freq. dielectric constant tensor:
#      x y z
#    x 1.803310 0.000000 -0.004780 
#    y 0.000000 1.777680 0.000000 
#    z -0.004780 0.000000 1.810770 
# 
# From -- ./inp_files/42592.got.cif
#   From: 2010.03.12/outbox.cif.g09.slc.cpg/sg5_22_cif.got.tgz:42592.got - 2010.03.31 09:47:26.
