data_PCOD8050181
_publ_section_title
;
Structure prediction by ZEFSAII (Michael W. Deem and Ramdas Pophale) SiO2 
 PCOD8050181
Probable space group: C 2
;
_chemical_formula_sum "Si O2"
_cell_formula_units_Z 16
_cell_length_a 8.468475
_cell_length_b 12.487513
_cell_length_c 9.098115
_cell_angle_alpha 90.000000
_cell_angle_beta 123.070901
_cell_angle_gamma 90.000000
_cell_volume 806.258878
_symmetry_space_group_name_H-M "C 2"
_symmetry_group_IT_number 5
_symmetry_cell_setting 'monoclinic'
loop_
_space_group_symop_operation_xyz
x,y,z
-x,y,-z
1/2+x,1/2+y,z
1/2-x,1/2+y,-z
loop_
_atom_site_type_symbol
_atom_site_label
_atom_site_fract_x
_atom_site_fract_y
_atom_site_fract_z
Si Si1 0.787060 0.830680 0.357161
Si Si2 0.530319 0.626636 0.181837
Si Si3 0.322087 0.007755 0.507414
Si Si4 0.302851 0.044771 0.818118
O O1 0.649242 0.735624 0.241561
O O2 0.695947 0.882854 0.458047
O O3 0.000000 0.790594 0.500000
O O4 0.785797 0.923353 0.229660
O O5 0.640044 0.534019 0.320813
O O6 0.329714 0.630573 0.164880
O O7 0.500000 0.590063 0.000000
O O8 0.500000 0.033077 0.500000
O O9 0.330051 0.080660 0.660909
O O10 0.500000 0.042008 0.000000
#
# Coordination Sequence:
#
# PCOD8050181 Si02
#       4
#     4   4   4   4
#     4  10  22  43  69  97 142 171 227 283 339 395
#     4  12  23  40  71 103 134 186 225 272 350 404
#     4  10  21  41  66  98 138 180 220 285 334 398
#     4  10  21  42  68  96 146 175 221 288 333 399
#
# _framework density 19.844740999999999
#
# number of rings (size 3 to 8) (size 9 to 14) (size 15 to 20)
#    1.500    0.000    2.500    3.750    0.000    2.000 
#    0.000    0.000    0.000    0.000    0.000    0.000 
#    0.000    0.000    0.000    0.000    0.000    0.000 
#
# Total GULP energy -99106.406407 kJ/mol
# GULP energy per Si atom -12388.300801 kJ/mol
# Density = 1.979957 g / cm^3
# Si number density = 19.844741 Si / 1000 Ang^3
#
#
#
# Elastic Constant Matrix: (Units=GPa)
#
#
# Indices 1 2 3 4 5 6 
#
# 1 150.1779 21.5288 64.5859 0.0000 -6.5686 0.0000
# 2 21.5288 51.1280 26.4892 0.0000 3.6176 0.0000
# 3 64.5859 26.4892 169.5285 0.0000 -1.7883 0.0000
# 4 0.0000 0.0000 0.0000 -367.1580 0.0000 126.4686
# 5 -6.5686 3.6176 -1.7883 0.0000 44.4862 0.0000
# 6 0.0000 0.0000 0.0000 126.4686 0.0000 -0.9654
#
#
#
# Elastic Compliance Matrix: (Units=1/GPa)
#
#
# Indices 1 2 3 4 5 6 
#
# 1 0.008215 -0.002105 -0.002787 0.000000 0.001272 0.000000
# 2 -0.002105 0.021977 -0.002655 0.000000 -0.002205 0.000000
# 3 -0.002787 -0.002655 0.007377 0.000000 0.000101 0.000000
# 4 0.000000 0.000000 0.000000 0.000062 0.000000 0.008086
# 5 0.001272 -0.002205 0.000101 0.000000 0.022850 0.000000
# 6 0.000000 0.000000 0.000000 0.008086 0.000000 0.023476
#
#
# Mechanical properties :
#
#
# Convention : Reuss Voigt Hill
#
# Bulk Modulus (GPa) = 44.49761 66.22691 55.36226
# Shear Modulus (GPa) = 46.92989 -47.51205 -0.29108
#
# Velocity S-wave (km/s) = 4.86825 -4.89835 -0.38340
# Velocity P-wave (km/s) = 7.35332 1.20547 5.26899
#
# Compressibility (1/GPa) = 0.02247311
#
# Stress axis : x y z
#
# Youngs Moduli (GPa) = 121.73010 45.50262 135.56456
#
# Poissons Ratio (x) = 0.09578 0.37786
# Poissons Ratio (y) = 0.25624 0.35995
# Poissons Ratio (z) = 0.33930 0.12082
#
# Static dielectric constant tensor:
#      x y z
#    x 21.384500 0.000000 4.781130 
#    y 0.000000 3.246330 0.000000 
#    z 4.781130 0.000000 4.956320 
# 
# 
# High freq. dielectric constant tensor:
#      x y z
#    x 1.775640 0.000000 0.010690 
#    y 0.000000 1.744090 0.000000 
#    z 0.010690 0.000000 1.787690 
# 
# From -- ./inp_files/13763.got.cif
#   From: 2010.03.12/outbox.cif.g09.slc.cpg/sg5_7_cif.got.tgz:13763.got - 2010.03.31 09:47:26.
