data_PCOD8050456
_publ_section_title
;
Structure prediction by ZEFSAII (Michael W. Deem and Ramdas Pophale) SiO2 
 PCOD8050456
Probable space group: C 2
;
_chemical_formula_sum "Si O2"
_cell_formula_units_Z 32
_cell_length_a 19.663623
_cell_length_b 12.350893
_cell_length_c 14.639775
_cell_angle_alpha 90.000000
_cell_angle_beta 26.841531
_cell_angle_gamma 90.000000
_cell_volume 1605.378859
_symmetry_space_group_name_H-M "C 2"
_symmetry_group_IT_number 5
_symmetry_cell_setting 'monoclinic'
loop_
_space_group_symop_operation_xyz
x,y,z
-x,y,-z
1/2+x,1/2+y,z
1/2-x,1/2+y,-z
loop_
_atom_site_type_symbol
_atom_site_label
_atom_site_fract_x
_atom_site_fract_y
_atom_site_fract_z
Si Si1 0.110959 0.046120 0.503680
Si Si2 0.777540 0.056119 0.828666
Si Si3 0.974768 0.560554 0.422826
Si Si4 0.894912 0.735480 0.869350
Si Si5 0.856645 0.384197 0.890202
Si Si6 0.141154 0.888217 0.626102
Si Si7 0.892740 0.236786 0.358586
Si Si8 0.131925 0.077129 0.770386
O O1 0.209611 0.043188 0.294615
O O2 0.158572 0.152879 0.502220
O O3 0.935148 0.047707 0.691807
O O4 0.151125 0.939048 0.512901
O O5 0.705090 0.171873 0.937328
O O6 0.664802 0.963358 0.998249
O O7 0.796014 0.559715 0.617835
O O8 0.000000 0.575339 0.500000
O O9 0.057279 0.660421 0.273290
O O10 0.051485 0.447593 0.299181
O O11 0.041361 0.779684 0.745696
O O12 0.806528 0.844229 0.946895
O O13 0.936853 0.273849 0.826835
O O14 0.302276 0.849515 0.469858
O O15 0.080473 0.977451 0.768758
O O16 0.868787 0.185995 0.287954
O O17 0.000000 0.091145 0.000000
#
# Coordination Sequence:
#
# PCOD8050456 Si02
#       8
#     4   4   4   4   4   4   4   4
#     4  10  22  39  63  93 124 158 204 260 304 359
#     4  10  22  39  63  95 122 154 212 258 300 361
#     4  11  26  42  64  96 129 160 215 266 307 375
#     4  11  23  41  65  92 125 168 206 252 312 371
#     4  11  23  41  65  92 125 168 206 252 312 371
#     4  11  23  43  63  87 130 168 203 252 316 371
#     4  11  23  43  63  87 130 168 203 252 316 371
#     4  11  26  42  64  94 129 166 210 263 316 372
#
# _framework density 19.932988999999999
#
# number of rings (size 3 to 8) (size 9 to 14) (size 15 to 20)
#    0.000    1.250    5.000    0.000    3.500    4.000 
#    0.000    1.250    0.000    0.000    0.000    0.000 
#    0.000    0.000    0.000    0.000    0.000    0.000 
#
# Total GULP energy -198442.084196 kJ/mol
# GULP energy per Si atom -12402.630262 kJ/mol
# Density = 1.988762 g / cm^3
# Si number density = 19.932989 Si / 1000 Ang^3
#
#
#
# Elastic Constant Matrix: (Units=GPa)
#
#
# Indices 1 2 3 4 5 6 
#
# 1 73.0700 5.1847 18.6786 0.0000 -7.2766 0.0000
# 2 5.1847 70.6889 12.5919 -0.0001 -7.8462 0.0000
# 3 18.6786 12.5919 83.4225 0.0000 -0.1942 0.0000
# 4 0.0000 -0.0001 0.0000 32.1210 0.0000 -17.8200
# 5 -7.2766 -7.8462 -0.1942 0.0000 15.4934 0.0000
# 6 0.0000 0.0000 0.0000 -17.8200 0.0000 28.9937
#
#
#
# Elastic Compliance Matrix: (Units=1/GPa)
#
#
# Indices 1 2 3 4 5 6 
#
# 1 0.015271 0.000302 -0.003448 0.000000 0.007282 0.000000
# 2 0.000302 0.015428 -0.002378 0.000000 0.007925 0.000000
# 3 -0.003448 -0.002378 0.013112 0.000000 -0.002659 0.000000
# 4 0.000000 0.000000 0.000000 0.047240 0.000000 0.029034
# 5 0.007282 0.007925 -0.002659 0.000000 0.071944 0.000000
# 6 0.000000 0.000000 0.000000 0.029034 0.000000 0.052335
#
#
# Mechanical properties :
#
#
# Convention : Reuss Voigt Hill
#
# Bulk Modulus (GPa) = 30.52191 33.34353 31.93272
# Shear Modulus (GPa) = 21.07064 28.03668 24.55366
#
# Velocity S-wave (km/s) = 3.25479 3.75446 3.51352
# Velocity P-wave (km/s) = 5.42867 5.96312 5.70216
#
# Compressibility (1/GPa) = 0.03276335
#
# Stress axis : x y z
#
# Youngs Moduli (GPa) = 65.48540 64.81902 76.26666
#
# Poissons Ratio (x) = -0.01960 0.26296
# Poissons Ratio (y) = -0.01980 0.18136
# Poissons Ratio (z) = 0.22578 0.15413
#
# Static dielectric constant tensor:
#      x y z
#    x 3.537990 0.000000 -0.048340 
#    y 0.000000 3.631500 0.000000 
#    z -0.048340 0.000000 3.581950 
# 
# 
# High freq. dielectric constant tensor:
#      x y z
#    x 1.775700 0.000000 -0.008440 
#    y 0.000000 1.790690 0.000000 
#    z -0.008440 0.000000 1.779640 
# 
# From -- ./inp_files/54570.got.cif
#   From: 2010.03.12/outbox.cif.g09.slc.cpg/sg5_28_cif.got.tgz:54570.got - 2010.03.31 09:47:26.
