data_PCOD8050107
_publ_section_title
;
Structure prediction by ZEFSAII (Michael W. Deem and Ramdas Pophale) SiO2 
 PCOD8050107
Probable space group: C 2
;
_chemical_formula_sum "Si O2"
_cell_formula_units_Z 26
_cell_length_a 5.361615
_cell_length_b 19.315966
_cell_length_c 11.846363
_cell_angle_alpha 90.000000
_cell_angle_beta 113.579386
_cell_angle_gamma 90.000000
_cell_volume 1124.430824
_symmetry_space_group_name_H-M "C 2"
_symmetry_group_IT_number 5
_symmetry_cell_setting 'monoclinic'
loop_
_space_group_symop_operation_xyz
x,y,z
-x,y,-z
1/2+x,1/2+y,z
1/2-x,1/2+y,-z
loop_
_atom_site_type_symbol
_atom_site_label
_atom_site_fract_x
_atom_site_fract_y
_atom_site_fract_z
Si Si1 0.643873 0.052970 0.235365
Si Si2 0.556922 0.486269 0.140983
Si Si3 0.187719 0.250653 0.305889
Si Si4 0.348057 0.202322 0.854237
Si Si5 0.455257 0.343374 0.738052
Si Si6 0.500000 0.808072 0.500000
Si Si7 0.000000 0.079614 0.500000
Si Si8 0.000000 0.661777 0.500000
O O1 0.584252 0.134414 0.207062
O O2 0.832206 0.035281 0.377717
O O3 0.357301 0.016966 0.212420
O O4 0.808757 0.026513 0.155858
O O5 0.542818 0.407497 0.179457
O O6 0.500000 0.487916 0.000000
O O7 0.252668 0.327803 0.268712
O O8 0.088537 0.257146 0.416582
O O9 0.462282 0.205730 0.375836
O O10 0.978842 0.208963 0.187399
O O11 0.422105 0.272692 0.803094
O O12 0.500000 0.197360 0.000000
O O13 0.236360 0.355790 0.597946
O O14 0.777774 0.119849 0.534089
#
# Coordination Sequence:
#
# PCOD8050107 Si02
#       8
#     4   4   4   4   4   2   2   2
#     4  12  28  50  79 108 152 199 249 313 383 449
#     4  12  29  54  75 105 153 209 246 305 384 457
#     4  11  22  39  72 110 149 199 236 321 384 448
#     4  11  25  45  71 111 145 195 259 311 365 451
#     4  11  25  43  75 106 145 194 254 310 376 447
#     4  10  21  40  67 104 149 183 244 306 386 433
#     4  12  25  44  75 114 147 193 252 312 380 457
#     4  12  20  40  72 112 160 184 236 308 398 442
#
# _framework density 23.122809
#
# number of rings (size 3 to 8) (size 9 to 14) (size 15 to 20)
#    0.000    0.615    3.077    4.154    6.462    1.846 
#    2.769    0.000    0.000    0.000    0.000    0.000 
#    0.000    0.000    0.000    0.000    0.000    0.000 
#
# Total GULP energy -161048.710708 kJ/mol
# GULP energy per Si atom -12388.362362 kJ/mol
# Density = 2.307018 g / cm^3
# Si number density = 23.122809 Si / 1000 Ang^3
#
#
#
# Elastic Constant Matrix: (Units=GPa)
#
#
# Indices 1 2 3 4 5 6 
#
# 1 125.2310 48.6104 29.3713 0.0000 4.1242 0.0000
# 2 48.6104 121.7798 32.2808 0.0000 -3.7430 0.0000
# 3 29.3713 32.2808 146.9115 0.0000 10.4355 0.0000
# 4 0.0000 0.0000 0.0000 31.4621 0.0000 -7.6018
# 5 4.1242 -3.7430 10.4355 0.0000 42.3169 0.0000
# 6 0.0000 0.0000 0.0000 -7.6018 0.0000 37.8153
#
#
#
# Elastic Compliance Matrix: (Units=1/GPa)
#
#
# Indices 1 2 3 4 5 6 
#
# 1 0.009669 -0.003607 -0.001070 0.000000 -0.000998 0.000000
# 2 -0.003607 0.010132 -0.001622 0.000000 0.001648 0.000000
# 3 -0.001070 -0.001622 0.007512 0.000000 -0.001892 0.000000
# 4 0.000000 0.000000 0.000000 0.033407 0.000000 0.006716
# 5 -0.000998 0.001648 -0.001892 0.000000 0.024341 0.000000
# 6 0.000000 0.000000 0.000000 0.006716 0.000000 0.027794
#
#
# Mechanical properties :
#
#
# Convention : Reuss Voigt Hill
#
# Bulk Modulus (GPa) = 67.95741 68.27193 68.11467
# Shear Modulus (GPa) = 38.35639 41.22953 39.79296
#
# Velocity S-wave (km/s) = 4.07727 4.22722 4.15292
# Velocity P-wave (km/s) = 7.18464 7.30861 7.24689
#
# Compressibility (1/GPa) = 0.01471510
#
# Stress axis : x y z
#
# Youngs Moduli (GPa) = 103.42385 98.69871 133.12912
#
# Poissons Ratio (x) = 0.35597 0.14241
# Poissons Ratio (y) = 0.37301 0.21597
# Poissons Ratio (z) = 0.11064 0.16011
#
# Static dielectric constant tensor:
#      x y z
#    x 5.054210 0.000000 0.301130 
#    y 0.000000 4.053090 0.000000 
#    z 0.301130 0.000000 4.437090 
# 
# 
# High freq. dielectric constant tensor:
#      x y z
#    x 1.932940 0.000000 0.005880 
#    y 0.000000 1.894030 0.000000 
#    z 0.005880 0.000000 1.928630 
# 
# From -- ./inp_files/34029.got.cif
#   From: 2010.03.12/outbox.cif.g09.slc.cpg/sg5_18_cif.got.tgz:34029.got - 2010.03.31 09:47:26.
