data_PCOD8050121
_publ_section_title
;
Structure prediction by ZEFSAII (Michael W. Deem and Ramdas Pophale) SiO2 
 PCOD8050121
Probable space group: C 2
;
_chemical_formula_sum "Si O2"
_cell_formula_units_Z 24
_cell_length_a 14.979627
_cell_length_b 16.853236
_cell_length_c 8.697475
_cell_angle_alpha 90.000000
_cell_angle_beta 29.970380
_cell_angle_gamma 90.000000
_cell_volume 1096.878162
_symmetry_space_group_name_H-M "C 2"
_symmetry_group_IT_number 5
_symmetry_cell_setting 'monoclinic'
loop_
_space_group_symop_operation_xyz
x,y,z
-x,y,-z
1/2+x,1/2+y,z
1/2-x,1/2+y,-z
loop_
_atom_site_type_symbol
_atom_site_label
_atom_site_fract_x
_atom_site_fract_y
_atom_site_fract_z
Si Si1 0.192979 0.133980 0.654188
Si Si2 0.014308 0.724883 0.301167
Si Si3 0.858696 0.894936 0.826192
Si Si4 0.307241 0.464156 0.220859
Si Si5 0.149541 0.173439 0.389334
Si Si6 0.515449 0.845803 0.653818
O O1 0.331635 0.203300 0.487068
O O2 0.188555 0.117316 0.476857
O O3 0.252325 0.052821 0.647983
O O4 0.000000 0.162404 0.000000
O O5 0.047434 0.818508 0.236174
O O6 0.000000 0.697715 0.500000
O O7 0.174830 0.680977 0.975376
O O8 0.000000 0.935691 0.500000
O O9 0.812084 0.957747 0.028209
O O10 0.685415 0.864174 0.985269
O O11 0.163614 0.403108 0.509055
O O12 0.500000 0.443007 0.000000
O O13 0.075711 0.254855 0.577062
O O14 0.000000 0.136576 0.500000
O O15 0.500000 0.869514 0.500000
#
# Coordination Sequence:
#
# PCOD8050121 Si02
#       6
#     4   4   4   4   4   4
#     4  11  26  41  62 102 146 190 227 280 350 419
#     4  11  22  39  67 104 138 176 234 288 346 413
#     4  10  21  40  69 103 128 173 241 285 349 412
#     4  10  22  43  62  94 141 182 225 277 347 412
#     4  11  20  41  69 102 135 183 232 291 348 407
#     4   9  18  38  69  97 127 170 229 288 341 402
#
# _framework density 21.880278000000001
#
# number of rings (size 3 to 8) (size 9 to 14) (size 15 to 20)
#    0.000    1.667    5.000    1.500    4.667    2.000 
#    0.000   14.167    0.000    0.000    0.000    0.000 
#    0.000    0.000    0.000    0.000    0.000    0.000 
#
# Total GULP energy -148759.684413 kJ/mol
# GULP energy per Si atom -12396.640368 kJ/mol
# Density = 2.183048 g / cm^3
# Si number density = 21.880278 Si / 1000 Ang^3
#
#
#
# Elastic Constant Matrix: (Units=GPa)
#
#
# Indices 1 2 3 4 5 6 
#
# 1 96.3011 36.2641 33.5248 -0.0048 5.5796 0.0020
# 2 36.2641 79.0885 25.9254 -0.0049 -5.0136 0.0025
# 3 33.5248 25.9254 120.1770 -0.0078 8.1840 0.0045
# 4 -0.0048 -0.0049 -0.0078 17.6666 0.0041 -0.0027
# 5 5.5796 -5.0136 8.1840 0.0041 49.8111 -0.0021
# 6 0.0020 0.0025 0.0045 -0.0027 -0.0021 36.4680
#
#
#
# Elastic Compliance Matrix: (Units=1/GPa)
#
#
# Indices 1 2 3 4 5 6 
#
# 1 0.013378 -0.005436 -0.002447 0.000001 -0.001644 0.000000
# 2 -0.005436 0.015990 -0.002108 0.000001 0.002565 0.000000
# 3 -0.002447 -0.002108 0.009561 0.000003 -0.001509 -0.000001
# 4 0.000001 0.000001 0.000003 0.056604 -0.000005 0.000004
# 5 -0.001644 0.002565 -0.001509 -0.000005 0.020766 0.000001
# 6 0.000000 0.000000 -0.000001 0.000004 0.000001 0.027421
#
#
# Mechanical properties :
#
#
# Convention : Reuss Voigt Hill
#
# Bulk Modulus (GPa) = 52.77820 54.11057 53.44438
# Shear Modulus (GPa) = 29.40834 34.11262 31.76048
#
# Velocity S-wave (km/s) = 3.67012 3.95277 3.81406
# Velocity P-wave (km/s) = 6.49102 6.75400 6.62382
#
# Compressibility (1/GPa) = 0.01894722
#
# Stress axis : x y z
#
# Youngs Moduli (GPa) = 74.74686 62.53815 104.58914
#
# Poissons Ratio (x) = 0.33998 0.25597
# Poissons Ratio (y) = 0.40635 0.22044
# Poissons Ratio (z) = 0.18293 0.13181
#
# Static dielectric constant tensor:
#      x y z
#    x 4.031540 -0.000020 -0.264680 
#    y -0.000020 3.573570 0.000010 
#    z -0.264680 0.000010 4.487400 
# 
# 
# High freq. dielectric constant tensor:
#      x y z
#    x 1.849330 0.000000 -0.013690 
#    y 0.000000 1.831460 0.000000 
#    z -0.013690 0.000000 1.877270 
# 
# From -- ./inp_files/16707.got.cif
#   From: 2010.03.12/outbox.cif.g09.slc.cpg/sg5_9_cif.got.tgz:16707.got - 2010.03.31 09:47:26.
