data_PCOD8050357
_publ_section_title
;
Structure prediction by ZEFSAII (Michael W. Deem and Ramdas Pophale) SiO2 
 PCOD8050357
Probable space group: C 2
;
_chemical_formula_sum "Si O2"
_cell_formula_units_Z 28
_cell_length_a 11.128986
_cell_length_b 8.684170
_cell_length_c 15.271855
_cell_angle_alpha 90.000000
_cell_angle_beta 69.891339
_cell_angle_gamma 90.000000
_cell_volume 1385.992426
_symmetry_space_group_name_H-M "C 2"
_symmetry_group_IT_number 5
_symmetry_cell_setting 'monoclinic'
loop_
_space_group_symop_operation_xyz
x,y,z
-x,y,-z
1/2+x,1/2+y,z
1/2-x,1/2+y,-z
loop_
_atom_site_type_symbol
_atom_site_label
_atom_site_fract_x
_atom_site_fract_y
_atom_site_fract_z
Si Si1 0.852202 0.996340 0.553716
Si Si2 0.794396 0.437888 0.918078
Si Si3 0.699660 0.291274 0.105124
Si Si4 0.824474 0.789307 0.400068
Si Si5 0.967662 0.222751 0.102354
Si Si6 0.193211 0.999930 0.762630
Si Si7 0.892422 0.769194 0.693885
O O1 0.790894 0.898431 0.490124
O O2 0.833681 0.902587 0.647925
O O3 0.000000 0.035960 0.500000
O O4 0.778334 0.155781 0.580541
O O5 0.825488 0.617173 0.920397
O O6 0.731745 0.403237 0.839643
O O7 0.922457 0.336973 0.893029
O O8 0.693076 0.398521 0.021185
O O9 0.836457 0.316172 0.118873
O O10 0.598069 0.331299 0.207407
O O11 0.967227 0.721329 0.376071
O O12 0.826094 0.886745 0.311613
O O13 0.938861 0.092043 0.182446
O O14 0.000000 0.145180 0.000000
O O15 0.306231 0.117665 0.709756
#
# Coordination Sequence:
#
# PCOD8050357 Si02
#       7
#     4   4   4   4   4   4   4
#     4  10  23  41  60  84 110 141 183 231 283 339
#     4   9  18  34  55  81 117 154 188 228 271 319
#     4   9  19  34  55  84 113 150 192 228 272 324
#     4  11  23  39  61  85 109 144 183 228 286 337
#     4   8  16  33  55  76 111 154 185 222 270 313
#     4  10  22  36  56  86 113 148 189 226 275 330
#     4   9  21  39  57  82 114 143 184 233 274 326
#
# _framework density 20.202131999999999
#
# number of rings (size 3 to 8) (size 9 to 14) (size 15 to 20)
#    0.000    2.857    0.000    0.857    0.000   12.571 
#    0.000    5.714    0.000    0.000    0.000    0.000 
#    0.000    0.000    0.000    0.000    0.000    0.000 
#
# Total GULP energy -173517.534885 kJ/mol
# GULP energy per Si atom -12394.109635 kJ/mol
# Density = 2.015615 g / cm^3
# Si number density = 20.202132 Si / 1000 Ang^3
#
#
#
# Elastic Constant Matrix: (Units=GPa)
#
#
# Indices 1 2 3 4 5 6 
#
# 1 58.4726 32.1618 24.9030 0.0000 5.2111 0.0000
# 2 32.1618 76.1284 70.9263 0.0000 20.1515 0.0000
# 3 24.9030 70.9263 143.6858 0.0000 13.2843 0.0000
# 4 0.0000 0.0000 0.0000 47.9474 0.0000 -0.7147
# 5 5.2111 20.1515 13.2843 0.0000 28.5016 0.0000
# 6 0.0000 0.0000 0.0000 -0.7147 0.0000 29.0526
#
#
#
# Elastic Compliance Matrix: (Units=1/GPa)
#
#
# Indices 1 2 3 4 5 6 
#
# 1 0.022744 -0.012199 0.001742 0.000000 0.003655 0.000000
# 2 -0.012199 0.035662 -0.013966 0.000000 -0.016474 0.000000
# 3 0.001742 -0.013966 0.013239 0.000000 0.003386 0.000000
# 4 0.000000 0.000000 0.000000 0.020864 0.000000 0.000513
# 5 0.003655 -0.016474 0.003386 0.000000 0.044487 0.000000
# 6 0.000000 0.000000 0.000000 0.000513 0.000000 0.034433
#
#
# Mechanical properties :
#
#
# Convention : Reuss Voigt Hill
#
# Bulk Modulus (GPa) = 43.86260 59.36321 51.61291
# Shear Modulus (GPa) = 21.94185 31.12004 26.53094
#
# Velocity S-wave (km/s) = 3.29920 3.92909 3.62784
# Velocity P-wave (km/s) = 6.02262 7.07334 6.56902
#
# Compressibility (1/GPa) = 0.02279846
#
# Stress axis : x y z
#
# Youngs Moduli (GPa) = 43.96706 28.04109 75.53611
#
# Poissons Ratio (x) = 0.34207 -0.13157
# Poissons Ratio (y) = 0.53635 1.05495
# Poissons Ratio (z) = -0.07658 0.39163
#
# Static dielectric constant tensor:
#      x y z
#    x 3.651000 0.000000 -0.159270 
#    y 0.000000 3.386450 0.000000 
#    z -0.159270 0.000000 4.258630 
# 
# 
# High freq. dielectric constant tensor:
#      x y z
#    x 1.782090 0.000000 -0.004590 
#    y 0.000000 1.771330 0.000000 
#    z -0.004590 0.000000 1.810420 
# 
# From -- ./inp_files/52234.got.cif
#   From: 2010.03.12/outbox.cif.g09.slc.cpg/sg5_27_cif.got.tgz:52234.got - 2010.03.31 09:47:26.
