data_PCOD8050616
_publ_section_title
;
Structure prediction by ZEFSAII (Michael W. Deem and Ramdas Pophale) SiO2 
 PCOD8050616
Probable space group: C 2
;
_chemical_formula_sum "Si O2"
_cell_formula_units_Z 22
_cell_length_a 13.957181
_cell_length_b 4.991308
_cell_length_c 19.383362
_cell_angle_alpha 90.000000
_cell_angle_beta 42.028812
_cell_angle_gamma 90.000000
_cell_volume 904.054282
_symmetry_space_group_name_H-M "C 2"
_symmetry_group_IT_number 5
_symmetry_cell_setting 'monoclinic'
loop_
_space_group_symop_operation_xyz
x,y,z
-x,y,-z
1/2+x,1/2+y,z
1/2-x,1/2+y,-z
loop_
_atom_site_type_symbol
_atom_site_label
_atom_site_fract_x
_atom_site_fract_y
_atom_site_fract_z
Si Si1 0.848758 0.814270 0.953798
Si Si2 0.729657 0.903367 0.778208
Si Si3 0.290270 0.932842 0.519656
Si Si4 0.918698 0.660915 0.269175
Si Si5 0.079457 0.406027 0.311060
Si Si6 0.500000 0.101223 0.000000
O O1 0.967559 0.852988 0.830584
O O2 0.923219 0.799461 0.987974
O O3 0.764693 0.545767 0.982593
O O4 0.654872 0.961396 0.745558
O O5 0.857915 0.107628 0.728269
O O6 0.612970 0.909209 0.901418
O O7 0.790973 0.604764 0.740950
O O8 0.248672 0.737732 0.478113
O O9 0.206140 0.848820 0.633261
O O10 0.462745 0.912506 0.435680
O O11 0.999522 0.486905 0.283394
#
# Coordination Sequence:
#
# PCOD8050616 Si02
#       6
#     4   4   4   4   4   2
#     4  11  24  41  66  95 128 170 210 256 316 376
#     4  11  25  41  67  96 127 169 211 257 317 377
#     4  10  22  41  67  93 126 168 209 262 317 369
#     4  10  24  43  66  94 130 167 211 261 315 374
#     4  11  23  43  64  92 129 167 211 262 313 372
#     4  10  24  42  64  98 132 162 212 264 308 376
#
# _framework density 24.334824999999999
#
# number of rings (size 3 to 8) (size 9 to 14) (size 15 to 20)
#    0.000    1.455    0.000    4.364    0.000   15.273 
#    0.000    5.455    0.000    0.000    0.000    0.000 
#    0.000    0.000    0.000    0.000    0.000    0.000 
#
# Total GULP energy -136452.655592 kJ/mol
# GULP energy per Si atom -12404.786872 kJ/mol
# Density = 2.427944 g / cm^3
# Si number density = 24.334825 Si / 1000 Ang^3
#
#
#
# Elastic Constant Matrix: (Units=GPa)
#
#
# Indices 1 2 3 4 5 6 
#
# 1 85.1204 9.7028 57.9302 -0.0011 -6.9691 0.0084
# 2 9.7028 72.7254 22.6011 -0.0003 -6.4559 0.0252
# 3 57.9302 22.6011 197.1653 -0.0005 -2.6161 0.0035
# 4 -0.0011 -0.0003 -0.0005 30.7165 0.0000 -8.2077
# 5 -6.9691 -6.4559 -2.6161 0.0000 37.7330 -0.0006
# 6 0.0084 0.0252 0.0035 -8.2077 -0.0006 15.7039
#
#
#
# Elastic Compliance Matrix: (Units=1/GPa)
#
#
# Indices 1 2 3 4 5 6 
#
# 1 0.014921 -0.000442 -0.004302 -0.000001 0.002382 -0.000007
# 2 -0.000442 0.014479 -0.001499 -0.000007 0.002292 -0.000026
# 3 -0.004302 -0.001499 0.006500 0.000001 -0.000600 0.000004
# 4 -0.000001 -0.000007 0.000001 0.037841 -0.000001 0.019777
# 5 0.002382 0.002292 -0.000600 -0.000001 0.027292 -0.000004
# 6 -0.000007 -0.000026 0.000004 0.019777 -0.000004 0.074015
#
#
# Mechanical properties :
#
#
# Convention : Reuss Voigt Hill
#
# Bulk Modulus (GPa) = 42.71194 59.49769 51.10481
# Shear Modulus (GPa) = 25.59656 34.48248 30.03952
#
# Velocity S-wave (km/s) = 3.24674 3.76839 3.51725
# Velocity P-wave (km/s) = 5.62539 6.59068 6.12707
#
# Compressibility (1/GPa) = 0.02341266
#
# Stress axis : x y z
#
# Youngs Moduli (GPa) = 67.01908 69.06670 153.85322
#
# Poissons Ratio (x) = 0.03056 0.66184
# Poissons Ratio (y) = 0.02965 0.23067
# Poissons Ratio (z) = 0.28830 0.10355
#
# Static dielectric constant tensor:
#      x y z
#    x 4.374100 0.000000 -0.193500 
#    y 0.000000 3.977980 0.000000 
#    z -0.193500 0.000000 4.967620 
# 
# 
# High freq. dielectric constant tensor:
#      x y z
#    x 1.965640 0.000000 -0.012240 
#    y 0.000000 1.958340 0.000000 
#    z -0.012240 0.000000 1.993750 
# 
# From -- ./inp_files/48206.got.cif
#   From: 2010.03.12/outbox.cif.g09.slc.cpg/sg5_25_cif.got.tgz:48206.got - 2010.03.31 09:47:26.
