data_PCOD8050144
_publ_section_title
;
Structure prediction by ZEFSAII (Michael W. Deem and Ramdas Pophale) SiO2 
 PCOD8050144
Probable space group: C 2
;
_chemical_formula_sum "Si O2"
_cell_formula_units_Z 20
_cell_length_a 8.902936
_cell_length_b 24.776741
_cell_length_c 7.430986
_cell_angle_alpha 90.000000
_cell_angle_beta 145.118524
_cell_angle_gamma 90.000000
_cell_volume 937.409399
_symmetry_space_group_name_H-M "C 2"
_symmetry_group_IT_number 5
_symmetry_cell_setting 'monoclinic'
loop_
_space_group_symop_operation_xyz
x,y,z
-x,y,-z
1/2+x,1/2+y,z
1/2-x,1/2+y,-z
loop_
_atom_site_type_symbol
_atom_site_label
_atom_site_fract_x
_atom_site_fract_y
_atom_site_fract_z
Si Si1 0.001617 0.287230 0.789806
Si Si2 0.497980 0.353726 0.711097
Si Si3 0.500000 0.015776 0.500000
Si Si4 0.941122 0.167131 0.152147
Si Si5 0.500000 0.443454 0.000000
Si Si6 0.933767 0.602338 0.737322
O O1 0.727858 0.311724 0.454918
O O2 0.040768 0.227448 0.747842
O O3 0.000000 0.281602 0.000000
O O4 0.232244 0.327275 0.955157
O O5 0.500000 0.366557 0.500000
O O6 0.450086 0.408628 0.771712
O O7 0.429603 0.051620 0.602325
O O8 0.251331 0.979749 0.206893
O O9 0.147700 0.129842 0.460429
O O10 0.645585 0.146625 0.885210
O O11 0.000000 0.165460 0.000000
O O12 0.000000 0.580216 0.000000
#
# Coordination Sequence:
#
# PCOD8050144 Si02
#       6
#     4   4   2   4   2   4
#     4   9  19  36  64  92 128 173 200 245 325 385
#     4  10  21  41  61  91 129 159 211 266 309 385
#     4  12  26  46  66  88 128 172 222 276 328 374
#     4  11  20  41  68  95 135 178 208 259 325 393
#     4  12  26  42  68  92 118 174 222 270 330 364
#     4  12  25  43  65  96 132 168 219 274 323 388
#
# _framework density 21.335397
#
# number of rings (size 3 to 8) (size 9 to 14) (size 15 to 20)
#    0.000    1.200    2.000    4.200    0.000    4.800 
#   10.800    0.000    0.000    0.000    0.000    0.000 
#    0.000    0.000    0.000    0.000    0.000    0.000 
#
# Total GULP energy -124052.483379 kJ/mol
# GULP energy per Si atom -12405.248338 kJ/mol
# Density = 2.128684 g / cm^3
# Si number density = 21.335397 Si / 1000 Ang^3
#
#
#
# Elastic Constant Matrix: (Units=GPa)
#
#
# Indices 1 2 3 4 5 6 
#
# 1 61.8803 25.7561 15.7378 0.0000 -11.1490 0.0000
# 2 25.7561 122.6025 27.9654 0.0000 0.2761 0.0000
# 3 15.7378 27.9654 86.6761 0.0000 14.2914 0.0000
# 4 0.0000 0.0000 0.0000 37.6538 0.0000 2.6116
# 5 -11.1490 0.2761 14.2914 0.0000 43.2147 0.0000
# 6 0.0000 0.0000 0.0000 2.6116 0.0000 -2.4709
#
#
#
# Elastic Compliance Matrix: (Units=1/GPa)
#
#
# Indices 1 2 3 4 5 6 
#
# 1 0.019557 -0.003323 -0.003505 0.000000 0.006226 0.000000
# 2 -0.003323 0.009405 -0.002411 0.000000 -0.000120 0.000000
# 3 -0.003505 -0.002411 0.013854 0.000000 -0.005470 0.000000
# 4 0.000000 0.000000 0.000000 0.024744 0.000000 0.026153
# 5 0.006226 -0.000120 -0.005470 0.000000 0.026556 0.000000
# 6 0.000000 0.000000 0.000000 0.026153 0.000000 -0.377075
#
#
# Mechanical properties :
#
#
# Convention : Reuss Voigt Hill
#
# Bulk Modulus (GPa) = 41.09140 45.56418 43.32779
# Shear Modulus (GPa) = -19.50316 29.12617 4.81150
#
# Velocity S-wave (km/s) = -3.02673 3.69881 1.50335
# Velocity P-wave (km/s) = 2.66210 6.29636 4.83378
#
# Compressibility (1/GPa) = 0.02433599
#
# Stress axis : x y z
#
# Youngs Moduli (GPa) = 51.13389 106.32895 72.18330
#
# Poissons Ratio (x) = 0.35332 0.25303
# Poissons Ratio (y) = 0.16991 0.17405
# Poissons Ratio (z) = 0.17924 0.25639
#
# Static dielectric constant tensor:
#      x y z
#    x 4.185310 0.000000 0.175160 
#    y 0.000000 3.931260 0.000000 
#    z 0.175160 0.000000 4.131110 
# 
# 
# High freq. dielectric constant tensor:
#      x y z
#    x 1.840370 0.000000 0.006190 
#    y 0.000000 1.835840 0.000000 
#    z 0.006190 0.000000 1.852030 
# 
# From -- ./inp_files/2811.got.cif
#   From: 2010.03.12/outbox.cif.g09.slc.cpg/sg5_2_cif.got.tgz:2811.got - 2010.03.31 09:47:26.
