data_PCOD8050618
_publ_section_title
;
Structure prediction by ZEFSAII (Michael W. Deem and Ramdas Pophale) SiO2 
 PCOD8050618
Probable space group: C 2
;
_chemical_formula_sum "Si O2"
_cell_formula_units_Z 28
_cell_length_a 10.847560
_cell_length_b 15.394503
_cell_length_c 7.938749
_cell_angle_alpha 90.000000
_cell_angle_beta 72.490450
_cell_angle_gamma 90.000000
_cell_volume 1264.289339
_symmetry_space_group_name_H-M "C 2"
_symmetry_group_IT_number 5
_symmetry_cell_setting 'monoclinic'
loop_
_space_group_symop_operation_xyz
x,y,z
-x,y,-z
1/2+x,1/2+y,z
1/2-x,1/2+y,-z
loop_
_atom_site_type_symbol
_atom_site_label
_atom_site_fract_x
_atom_site_fract_y
_atom_site_fract_z
Si Si1 0.500000 0.525841 0.500000
Si Si2 0.481684 0.666554 0.767381
Si Si3 0.922309 0.724817 0.691059
Si Si4 0.500000 0.302411 0.000000
Si Si5 0.783874 0.889192 0.584473
Si Si6 0.501586 0.863342 0.312538
Si Si7 0.274001 0.416822 0.190921
Si Si8 0.801920 0.113709 0.097960
O O1 0.541985 0.590330 0.629616
O O2 0.374801 0.468789 0.604173
O O3 0.474268 0.760069 0.684109
O O4 0.590333 0.675648 0.864403
O O5 0.338867 0.632658 0.886721
O O6 0.843299 0.804019 0.643473
O O7 0.838211 0.645634 0.794272
O O8 0.000000 0.685810 0.500000
O O9 0.007547 0.749900 0.820193
O O10 0.629693 0.359303 0.960682
O O11 0.634984 0.893825 0.714600
O O12 0.784668 0.885557 0.380657
O O13 0.500000 0.901579 0.500000
O O14 0.629019 0.904886 0.173111
O O15 0.319356 0.514729 0.145346
#
# Coordination Sequence:
#
# PCOD8050618 Si02
#       8
#     2   4   4   2   4   4   4   4
#     4  12  22  40  70 100 124 176 242 286 330 422
#     4  11  22  42  66  97 132 176 229 280 341 413
#     4  12  25  45  72 100 141 183 230 289 352 417
#     4  12  24  44  76 102 132 186 242 280 342 422
#     4  11  22  41  67 104 129 183 229 281 355 409
#     4  10  22  41  67  95 135 176 228 281 354 414
#     4  11  23  43  67 100 138 181 231 292 338 414
#     4  11  25  42  64 100 137 176 224 286 348 402
#
# _framework density 22.146826999999998
#
# number of rings (size 3 to 8) (size 9 to 14) (size 15 to 20)
#    0.000    0.857    5.714    1.714    2.000    1.714 
#    2.571    0.000    0.000    0.000    0.000    0.000 
#    0.000    0.000    0.000    0.000    0.000    0.000 
#
# Total GULP energy -173444.887832 kJ/mol
# GULP energy per Si atom -12388.920559 kJ/mol
# Density = 2.209642 g / cm^3
# Si number density = 22.146827 Si / 1000 Ang^3
#
#
#
# Elastic Constant Matrix: (Units=GPa)
#
#
# Indices 1 2 3 4 5 6 
#
# 1 97.1037 19.1803 29.6697 0.0000 -25.8694 0.0000
# 2 19.1803 67.1621 22.1992 0.0000 -5.5915 0.0000
# 3 29.6697 22.1992 84.5364 0.0000 -16.2567 0.0000
# 4 0.0000 0.0000 0.0000 23.0883 0.0000 -14.9907
# 5 -25.8694 -5.5915 -16.2567 0.0000 39.8321 0.0000
# 6 0.0000 0.0000 0.0000 -14.9907 0.0000 20.4024
#
#
#
# Elastic Compliance Matrix: (Units=1/GPa)
#
#
# Indices 1 2 3 4 5 6 
#
# 1 0.013558 -0.002359 -0.002723 0.000000 0.007363 0.000000
# 2 -0.002359 0.016728 -0.003698 0.000000 -0.000693 0.000000
# 3 -0.002723 -0.003698 0.014450 0.000000 0.003610 0.000000
# 4 0.000000 0.000000 0.000000 0.082824 0.000000 0.060855
# 5 0.007363 -0.000693 0.003610 0.000000 0.031263 0.000000
# 6 0.000000 0.000000 0.000000 0.060855 0.000000 0.093727
#
#
# Mechanical properties :
#
#
# Convention : Reuss Voigt Hill
#
# Bulk Modulus (GPa) = 36.79755 43.43340 40.11548
# Shear Modulus (GPa) = 17.91035 28.51475 23.21255
#
# Velocity S-wave (km/s) = 2.84687 3.59211 3.24098
# Velocity P-wave (km/s) = 5.23999 6.07112 5.67080
#
# Compressibility (1/GPa) = 0.02717572
#
# Stress axis : x y z
#
# Youngs Moduli (GPa) = 73.75878 59.78145 69.20298
#
# Poissons Ratio (x) = 0.14101 0.18844
# Poissons Ratio (y) = 0.17398 0.25592
# Poissons Ratio (z) = 0.20085 0.22108
#
# Static dielectric constant tensor:
#      x y z
#    x 4.149670 0.000000 -0.228630 
#    y 0.000000 3.689010 0.000000 
#    z -0.228630 0.000000 4.473520 
# 
# 
# High freq. dielectric constant tensor:
#      x y z
#    x 1.867520 0.000000 -0.012310 
#    y 0.000000 1.857890 0.000000 
#    z -0.012310 0.000000 1.876240 
# 
# From -- ./inp_files/20454.got.cif
#   From: 2010.03.12/outbox.cif.g09.slc.cpg/sg5_11_cif.got.tgz:20454.got - 2010.03.31 09:47:26.
