data_PCOD8050114
_publ_section_title
;
Structure prediction by ZEFSAII (Michael W. Deem and Ramdas Pophale) SiO2 
 PCOD8050114
Probable space group: C 2
;
_chemical_formula_sum "Si O2"
_cell_formula_units_Z 20
_cell_length_a 19.261334
_cell_length_b 9.474440
_cell_length_c 5.151851
_cell_angle_alpha 90.000000
_cell_angle_beta 97.913988
_cell_angle_gamma 90.000000
_cell_volume 931.208881
_symmetry_space_group_name_H-M "C 2"
_symmetry_group_IT_number 5
_symmetry_cell_setting 'monoclinic'
loop_
_space_group_symop_operation_xyz
x,y,z
-x,y,-z
1/2+x,1/2+y,z
1/2-x,1/2+y,-z
loop_
_atom_site_type_symbol
_atom_site_label
_atom_site_fract_x
_atom_site_fract_y
_atom_site_fract_z
Si Si1 0.710410 0.579490 0.441975
Si Si2 0.457295 0.245183 0.228817
Si Si3 0.542126 0.911798 0.774853
Si Si4 0.176362 0.234081 0.940208
Si Si5 0.695936 0.300308 0.700372
O O1 0.658723 0.636578 0.185832
O O2 0.709990 0.410333 0.470602
O O3 0.788366 0.644879 0.420177
O O4 0.684514 0.629056 0.707810
O O5 0.500000 0.295811 0.500000
O O6 0.380444 0.313425 0.211490
O O7 0.448280 0.078538 0.215077
O O8 0.500000 0.300513 0.000000
O O9 0.500000 0.861420 0.500000
O O10 0.500000 0.856830 0.000000
O O11 0.618227 0.845489 0.830444
O O12 0.246798 0.325110 0.040750
#
# Coordination Sequence:
#
# PCOD8050114 Si02
#       5
#     4   4   4   4   4
#     4  10  25  38  66 100 130 173 219 271 337 376
#     4  10  24  40  65  98 133 179 218 272 331 393
#     4  10  21  40  67  97 134 172 223 272 327 393
#     4  10  24  39  66  98 131 170 222 270 334 378
#     4  10  26  41  70  96 140 168 230 269 331 398
#
# _framework density 21.477459
#
# number of rings (size 3 to 8) (size 9 to 14) (size 15 to 20)
#    1.200    0.800    0.000    1.200   11.200    1.600 
#    0.000    4.000    0.000    0.000    0.000    0.000 
#    0.000    0.000    0.000    0.000    0.000    0.000 
#
# Total GULP energy -123914.538176 kJ/mol
# GULP energy per Si atom -12391.453818 kJ/mol
# Density = 2.142858 g / cm^3
# Si number density = 21.477459 Si / 1000 Ang^3
#
#
#
# Elastic Constant Matrix: (Units=GPa)
#
#
# Indices 1 2 3 4 5 6 
#
# 1 154.1525 45.7611 61.6311 0.0000 9.5729 0.0000
# 2 45.7611 46.1961 24.9284 0.0000 -0.0581 0.0000
# 3 61.6311 24.9284 169.7691 0.0000 -1.9122 0.0000
# 4 0.0000 0.0000 0.0000 32.3986 0.0000 -14.6782
# 5 9.5729 -0.0581 -1.9122 0.0000 40.8374 0.0000
# 6 0.0000 0.0000 0.0000 -14.6782 0.0000 35.1209
#
#
#
# Elastic Compliance Matrix: (Units=1/GPa)
#
#
# Indices 1 2 3 4 5 6 
#
# 1 0.010245 -0.008829 -0.002451 0.000000 -0.002529 0.000000
# 2 -0.008829 0.031119 -0.001341 0.000000 0.002051 0.000000
# 3 -0.002451 -0.001341 0.006987 0.000000 0.000900 0.000000
# 4 0.000000 0.000000 0.000000 0.038075 0.000000 0.015913
# 5 -0.002529 0.002051 0.000900 0.000000 0.025125 0.000000
# 6 0.000000 0.000000 0.000000 0.015913 0.000000 0.035124
#
#
# Mechanical properties :
#
#
# Convention : Reuss Voigt Hill
#
# Bulk Modulus (GPa) = 43.27417 70.52876 56.90146
# Shear Modulus (GPa) = 27.83637 37.52450 32.68043
#
# Velocity S-wave (km/s) = 3.60401 4.18444 3.90502
# Velocity P-wave (km/s) = 6.12461 7.50039 6.84714
#
# Compressibility (1/GPa) = 0.02310848
#
# Stress axis : x y z
#
# Youngs Moduli (GPa) = 97.60716 32.13467 143.11630
#
# Poissons Ratio (x) = 0.28372 0.35083
# Poissons Ratio (y) = 0.86178 0.19194
# Poissons Ratio (z) = 0.23927 0.04310
#
# Static dielectric constant tensor:
#      x y z
#    x 3.593820 0.000000 0.047740 
#    y 0.000000 3.644490 0.000000 
#    z 0.047740 0.000000 3.935190 
# 
# 
# High freq. dielectric constant tensor:
#      x y z
#    x 1.828710 0.000000 -0.009340 
#    y 0.000000 1.823470 0.000000 
#    z -0.009340 0.000000 1.858960 
# 
# From -- ./inp_files/9296.got.cif
#   From: 2010.03.12/outbox.cif.g09.slc.cpg/sg5_5_cif.got.tgz:9296.got - 2010.03.31 09:47:26.
