data_PCOD8050402
_publ_section_title
;
Structure prediction by ZEFSAII (Michael W. Deem and Ramdas Pophale) SiO2 
 PCOD8050402
Probable space group: C 2
;
_chemical_formula_sum "Si O2"
_cell_formula_units_Z 30
_cell_length_a 12.051627
_cell_length_b 16.524097
_cell_length_c 14.076013
_cell_angle_alpha 90.000000
_cell_angle_beta 31.195565
_cell_angle_gamma 90.000000
_cell_volume 1451.910908
_symmetry_space_group_name_H-M "C 2"
_symmetry_group_IT_number 5
_symmetry_cell_setting 'monoclinic'
loop_
_space_group_symop_operation_xyz
x,y,z
-x,y,-z
1/2+x,1/2+y,z
1/2-x,1/2+y,-z
loop_
_atom_site_type_symbol
_atom_site_label
_atom_site_fract_x
_atom_site_fract_y
_atom_site_fract_z
Si Si1 0.292730 0.835400 0.211211
Si Si2 0.258052 0.694348 0.477243
Si Si3 0.578992 0.184017 0.813067
Si Si4 0.685357 0.614611 0.182589
Si Si5 0.493645 0.440560 0.710681
Si Si6 0.500000 0.201925 0.500000
Si Si7 0.112923 0.372192 0.655939
Si Si8 0.892066 0.863962 0.982812
O O1 0.109854 0.872600 0.279934
O O2 0.361608 0.891199 0.250283
O O3 0.205381 0.752275 0.316072
O O4 0.500000 0.814000 0.000000
O O5 0.190073 0.669243 0.631985
O O6 0.487861 0.660581 0.280865
O O7 0.264056 0.790760 0.465164
O O8 0.088455 0.653427 0.526886
O O9 0.754453 0.161076 0.763879
O O10 0.483689 0.274198 0.895599
O O11 0.384016 0.120514 0.964648
O O12 0.620895 0.521709 0.241618
O O13 0.751323 0.441162 0.500835
O O14 0.451881 0.423217 0.852236
O O15 0.863366 0.366327 0.811883
O O16 0.000000 0.897758 0.000000
#
# Coordination Sequence:
#
# PCOD8050402 Si02
#       8
#     4   4   4   4   4   2   4   4
#     4  11  20  35  62  94 129 169 214 277 340 390
#     4  11  21  40  62  94 132 175 223 277 336 408
#     4  11  22  42  69  99 133 175 225 282 344 407
#     4  11  26  41  65 100 135 171 225 291 348 398
#     4  12  25  43  64 102 141 173 229 292 345 404
#     4  10  22  38  62  94 120 170 228 264 322 414
#     4  11  22  38  69  95 135 178 231 280 338 410
#     4  12  23  42  70  99 133 182 236 275 336 426
#
# _framework density 20.662423
#
# number of rings (size 3 to 8) (size 9 to 14) (size 15 to 20)
#    0.000    0.800    8.000    0.400    1.867    3.733 
#    0.000    2.667    0.000    0.000    0.000    0.000 
#    0.000    0.000    0.000    0.000    0.000    0.000 
#
# Total GULP energy -185924.888575 kJ/mol
# GULP energy per Si atom -12394.992572 kJ/mol
# Density = 2.061539 g / cm^3
# Si number density = 20.662423 Si / 1000 Ang^3
#
#
#
# Elastic Constant Matrix: (Units=GPa)
#
#
# Indices 1 2 3 4 5 6 
#
# 1 149.6261 18.5368 53.1939 -0.0310 -9.2125 0.0050
# 2 18.5368 46.1404 23.0207 0.0069 -2.2103 0.0037
# 3 53.1939 23.0207 126.6004 0.0397 -6.3969 0.0425
# 4 -0.0310 0.0069 0.0397 24.3309 0.0246 -8.7591
# 5 -9.2125 -2.2103 -6.3969 0.0246 38.7520 -0.0150
# 6 0.0050 0.0037 0.0425 -8.7591 -0.0150 21.3514
#
#
#
# Elastic Compliance Matrix: (Units=1/GPa)
#
#
# Indices 1 2 3 4 5 6 
#
# 1 0.008041 -0.001666 -0.003009 0.000019 0.001320 0.000013
# 2 -0.001666 0.024197 -0.003681 -0.000002 0.000376 0.000003
# 3 -0.003009 -0.003681 0.009868 -0.000030 0.000704 -0.000030
# 4 0.000019 -0.000002 -0.000030 0.048222 -0.000024 0.019782
# 5 0.001320 0.000376 0.000704 -0.000024 0.026256 0.000007
# 6 0.000013 0.000003 -0.000030 0.019782 0.000007 0.054951
#
#
# Mechanical properties :
#
#
# Convention : Reuss Voigt Hill
#
# Bulk Modulus (GPa) = 39.37918 56.87442 48.12680
# Shear Modulus (GPa) = 25.41805 32.06123 28.73964
#
# Velocity S-wave (km/s) = 3.51117 3.94340 3.73354
# Velocity P-wave (km/s) = 5.96133 6.95120 6.47521
#
# Compressibility (1/GPa) = 0.02539413
#
# Stress axis : x y z
#
# Youngs Moduli (GPa) = 124.36793 41.32784 101.33751
#
# Poissons Ratio (x) = 0.06885 0.30491
# Poissons Ratio (y) = 0.20718 0.37301
# Poissons Ratio (z) = 0.37421 0.15212
#
# Static dielectric constant tensor:
#      x y z
#    x 4.087060 -0.000020 0.031150 
#    y -0.000020 3.452250 0.000040 
#    z 0.031150 0.000040 3.967200 
# 
# 
# High freq. dielectric constant tensor:
#      x y z
#    x 1.819670 0.000000 -0.004590 
#    y 0.000000 1.765390 0.000010 
#    z -0.004590 0.000010 1.829320 
# 
# From -- ./inp_files/53417.got.cif
#   From: 2010.03.12/outbox.cif.g09.slc.cpg/sg5_27_cif.got.tgz:53417.got - 2010.03.31 09:47:26.
