data_PCOD8050069
_publ_section_title
;
Structure prediction by ZEFSAII (Michael W. Deem and Ramdas Pophale) SiO2 
 PCOD8050069
Probable space group: C 2
;
_chemical_formula_sum "Si O2"
_cell_formula_units_Z 30
_cell_length_a 8.692726
_cell_length_b 12.944564
_cell_length_c 24.995122
_cell_angle_alpha 90.000000
_cell_angle_beta 28.685346
_cell_angle_gamma 90.000000
_cell_volume 1350.016697
_symmetry_space_group_name_H-M "C 2"
_symmetry_group_IT_number 5
_symmetry_cell_setting 'monoclinic'
loop_
_space_group_symop_operation_xyz
x,y,z
-x,y,-z
1/2+x,1/2+y,z
1/2-x,1/2+y,-z
loop_
_atom_site_type_symbol
_atom_site_label
_atom_site_fract_x
_atom_site_fract_y
_atom_site_fract_z
Si Si1 0.339659 0.512220 0.871853
Si Si2 0.343429 0.186262 0.825605
Si Si3 0.500000 0.516453 0.000000
Si Si4 0.584670 0.892312 0.856448
Si Si5 0.724118 0.932588 0.547774
Si Si6 0.546280 0.134595 0.321805
Si Si7 0.258080 0.832249 0.760557
Si Si8 0.338807 0.344037 0.665864
O O1 0.300287 0.471174 0.823880
O O2 0.572518 0.610335 0.797584
O O3 0.503529 0.420076 0.856982
O O4 0.000000 0.545920 0.000000
O O5 0.152600 0.089542 0.907736
O O6 0.102365 0.278303 0.878839
O O7 0.554590 0.148527 0.709934
O O8 0.576020 0.225574 0.802708
O O9 0.729875 0.438871 0.962095
O O10 0.719072 0.896516 0.755918
O O11 0.402130 0.868928 0.658740
O O12 0.000000 0.882395 0.500000
O O13 0.872383 0.918216 0.443462
O O14 0.668530 0.050523 0.582622
O O15 0.493157 0.235655 0.373082
O O16 0.533309 0.824112 0.720758
#
# Coordination Sequence:
#
# PCOD8050069 Si02
#       8
#     4   4   2   4   4   4   4   4
#     4  10  21  40  63  89 132 178 216 267 332 386
#     4  10  24  43  64  98 134 177 229 273 342 408
#     4  12  26  40  72  98 134 186 228 272 350 390
#     4  10  25  42  62  99 138 169 233 282 323 411
#     4   9  20  40  67  91 123 172 212 271 347 390
#     4  10  22  42  64  95 128 169 226 269 333 411
#     4   9  21  40  64  90 131 169 214 279 325 400
#     4  10  22  43  64  97 132 167 219 284 342 394
#
# _framework density 22.221948999999999
#
# number of rings (size 3 to 8) (size 9 to 14) (size 15 to 20)
#    0.000    2.133    0.000    0.800   13.067    1.067 
#    7.200   11.333    0.000    3.200    0.000    0.000 
#    0.000    0.000    0.000    0.000    0.000    0.000 
#
# Total GULP energy -185885.589374 kJ/mol
# GULP energy per Si atom -12392.372625 kJ/mol
# Density = 2.217137 g / cm^3
# Si number density = 22.221949 Si / 1000 Ang^3
#
#
#
# Elastic Constant Matrix: (Units=GPa)
#
#
# Indices 1 2 3 4 5 6 
#
# 1 75.7368 15.0648 23.6402 -0.0345 18.1635 0.4286
# 2 15.0648 83.1387 37.4500 0.1357 13.5117 0.1179
# 3 23.6402 37.4500 94.4406 -0.3609 8.7917 0.9424
# 4 -0.0345 0.1357 -0.3609 43.7108 0.0011 1.1387
# 5 18.1635 13.5117 8.7917 0.0011 29.9968 -0.3574
# 6 0.4286 0.1179 0.9424 1.1387 -0.3574 25.1441
#
#
#
# Elastic Compliance Matrix: (Units=1/GPa)
#
#
# Indices 1 2 3 4 5 6 
#
# 1 0.016372 -0.000052 -0.003242 -0.000006 -0.008943 -0.000284
# 2 -0.000052 0.015422 -0.005613 -0.000096 -0.005269 0.000068
# 3 -0.003242 -0.005613 0.013584 0.000138 0.000505 -0.000427
# 4 -0.000006 -0.000096 0.000138 0.022906 -0.000007 -0.001042
# 5 -0.008943 -0.005269 0.000505 -0.000007 0.040986 0.000741
# 6 -0.000284 0.000068 -0.000427 -0.001042 0.000741 0.039849
#
#
# Mechanical properties :
#
#
# Convention : Reuss Voigt Hill
#
# Bulk Modulus (GPa) = 36.27998 45.06956 40.67477
# Shear Modulus (GPa) = 28.38916 31.58108 29.98512
#
# Velocity S-wave (km/s) = 3.57813 3.77393 3.67733
# Velocity P-wave (km/s) = 5.78207 6.27021 6.03108
#
# Compressibility (1/GPa) = 0.02756341
#
# Stress axis : x y z
#
# Youngs Moduli (GPa) = 61.07809 64.84058 73.61676
#
# Poissons Ratio (x) = 0.00340 0.23868
# Poissons Ratio (y) = 0.00320 0.41322
# Poissons Ratio (z) = 0.19803 0.36396
#
# Static dielectric constant tensor:
#      x y z
#    x 4.102680 -0.000350 -0.007250 
#    y -0.000350 3.939380 0.000320 
#    z -0.007250 0.000320 4.125440 
# 
# 
# High freq. dielectric constant tensor:
#      x y z
#    x 1.873980 0.000000 0.002450 
#    y 0.000000 1.867980 0.000000 
#    z 0.002450 0.000000 1.875170 
# 
# From -- ./inp_files/68004.got.cif
#   From: 2010.03.12/outbox.cif.g09.slc.cpg/sg5_35_cif.got.tgz:68004.got - 2010.03.31 09:47:26.
