data_PCOD8050953
_publ_section_title
;
Structure prediction by ZEFSAII (Michael W. Deem and Ramdas Pophale) SiO2 
 PCOD8050953
Probable space group: C 2
;
_chemical_formula_sum "Si O2"
_cell_formula_units_Z 26
_cell_length_a 14.497046
_cell_length_b 11.443454
_cell_length_c 13.018307
_cell_angle_alpha 90.000000
_cell_angle_beta 31.501224
_cell_angle_gamma 90.000000
_cell_volume 1128.473579
_symmetry_space_group_name_H-M "C 2"
_symmetry_group_IT_number 5
_symmetry_cell_setting 'monoclinic'
loop_
_space_group_symop_operation_xyz
x,y,z
-x,y,-z
1/2+x,1/2+y,z
1/2-x,1/2+y,-z
loop_
_atom_site_type_symbol
_atom_site_label
_atom_site_fract_x
_atom_site_fract_y
_atom_site_fract_z
Si Si1 0.161431 0.500000 0.727577
Si Si2 0.000000 0.928130 0.500000
Si Si3 0.599988 0.833661 0.507387
Si Si4 0.004059 0.265871 0.819700
Si Si5 0.800812 0.575851 0.528705
Si Si6 0.968088 0.739239 0.140693
Si Si7 0.394190 0.256246 0.779539
O O1 0.327121 0.507873 0.648454
O O2 0.069063 0.374162 0.826843
O O3 0.243428 0.514657 0.536777
O O4 0.011129 0.598306 0.891483
O O5 0.970547 0.852298 0.630416
O O6 0.500000 0.793032 0.500000
O O7 0.485461 0.809133 0.718668
O O8 0.766046 0.749877 0.367088
O O9 0.668872 0.966653 0.423474
O O10 0.137800 0.158773 0.714644
O O11 0.811480 0.227876 0.044047
O O12 0.988265 0.641545 0.348011
O O13 0.087428 0.795157 0.117388
O O14 0.000000 0.801396 0.000000
#
# Coordination Sequence:
#
# PCOD8050953 Si02
#       7
#     4   2   4   4   4   4   4
#     4  10  23  41  68 102 137 177 227 291 336 404
#     4  12  24  42  70  98 140 178 226 288 344 394
#     4  11  23  43  68  97 138 179 225 282 337 404
#     4  11  22  46  70  97 136 183 225 282 346 402
#     4  10  22  48  64  96 145 174 230 282 334 417
#     4  11  24  46  67 103 142 177 231 285 339 418
#     4  11  24  44  71 100 135 178 226 284 343 399
#
# _framework density 23.039971999999999
#
# number of rings (size 3 to 8) (size 9 to 14) (size 15 to 20)
#    0.000    1.231    4.615    1.846    4.308    1.231 
#   16.615    0.000    0.000    0.000    0.000    0.000 
#    0.000    0.000    0.000    0.000    0.000    0.000 
#
# Total GULP energy -161144.156068 kJ/mol
# GULP energy per Si atom -12395.704313 kJ/mol
# Density = 2.298753 g / cm^3
# Si number density = 23.039972 Si / 1000 Ang^3
#
#
#
# Elastic Constant Matrix: (Units=GPa)
#
#
# Indices 1 2 3 4 5 6 
#
# 1 82.8503 7.8399 20.7003 0.0001 -9.3258 0.0000
# 2 7.8399 76.3858 21.0404 -0.0002 -11.7734 0.0001
# 3 20.7003 21.0404 108.1729 -0.0005 -21.4636 0.0004
# 4 0.0001 -0.0002 -0.0005 14.8550 0.0002 -6.8168
# 5 -9.3258 -11.7734 -21.4636 0.0002 44.1623 -0.0001
# 6 0.0000 0.0001 0.0004 -6.8168 -0.0001 30.9928
#
#
#
# Elastic Compliance Matrix: (Units=1/GPa)
#
#
# Indices 1 2 3 4 5 6 
#
# 1 0.012805 -0.000510 -0.002038 0.000000 0.001578 0.000000
# 2 -0.000510 0.014135 -0.002131 0.000000 0.002625 0.000000
# 3 -0.002038 -0.002131 0.010902 0.000000 0.004300 0.000000
# 4 0.000000 0.000000 0.000000 0.074875 0.000000 0.016469
# 5 0.001578 0.002625 0.004300 0.000000 0.025767 0.000000
# 6 0.000000 0.000000 0.000000 0.016469 0.000000 0.035888
#
#
# Mechanical properties :
#
#
# Convention : Reuss Voigt Hill
#
# Bulk Modulus (GPa) = 35.10658 40.73002 37.91830
# Shear Modulus (GPa) = 25.87660 32.52391 29.20026
#
# Velocity S-wave (km/s) = 3.35493 3.76124 3.56388
# Velocity P-wave (km/s) = 5.50252 6.04805 5.78172
#
# Compressibility (1/GPa) = 0.02848469
#
# Stress axis : x y z
#
# Youngs Moduli (GPa) = 78.09435 70.74465 91.72426
#
# Poissons Ratio (x) = 0.03606 0.18696
# Poissons Ratio (y) = 0.03980 0.19547
# Poissons Ratio (z) = 0.15918 0.15076
#
# Static dielectric constant tensor:
#      x y z
#    x 4.307830 0.000000 0.015590 
#    y 0.000000 4.034990 0.000000 
#    z 0.015590 0.000000 3.916540 
# 
# 
# High freq. dielectric constant tensor:
#      x y z
#    x 1.917760 0.000000 -0.000860 
#    y 0.000000 1.901640 0.000000 
#    z -0.000860 0.000000 1.898120 
# 
# From -- ./inp_files/54549.got.cif
#   From: 2010.03.12/outbox.cif.g09.slc.cpg/sg5_28_cif.got.tgz:54549.got - 2010.03.31 09:47:26.
