data_PCOD8050684
_publ_section_title
;
Structure prediction by ZEFSAII (Michael W. Deem and Ramdas Pophale) SiO2 
 PCOD8050684
Probable space group: C 2
;
_chemical_formula_sum "Si O2"
_cell_formula_units_Z 22
_cell_length_a 6.406599
_cell_length_b 22.537794
_cell_length_c 7.680901
_cell_angle_alpha 90.000000
_cell_angle_beta 117.032425
_cell_angle_gamma 90.000000
_cell_volume 987.885659
_symmetry_space_group_name_H-M "C 2"
_symmetry_group_IT_number 5
_symmetry_cell_setting 'monoclinic'
loop_
_space_group_symop_operation_xyz
x,y,z
-x,y,-z
1/2+x,1/2+y,z
1/2-x,1/2+y,-z
loop_
_atom_site_type_symbol
_atom_site_label
_atom_site_fract_x
_atom_site_fract_y
_atom_site_fract_z
Si Si1 0.000000 0.243181 0.000000
Si Si2 0.740168 0.322257 0.680770
Si Si3 0.000000 0.253421 0.500000
Si Si4 0.246626 0.170322 0.817411
Si Si5 0.993138 0.053768 0.788612
Si Si6 0.322675 0.958850 0.775548
Si Si7 0.000000 0.521090 0.500000
O O1 0.049742 0.199378 0.862172
O O2 0.775114 0.285433 0.873319
O O3 0.500000 0.305223 0.500000
O O4 0.948315 0.298772 0.636806
O O5 0.754035 0.391077 0.726429
O O6 0.778333 0.209326 0.369393
O O7 0.500000 0.173331 0.000000
O O8 0.164919 0.102342 0.765885
O O9 0.722939 0.062875 0.628112
O O10 0.082689 0.992241 0.737877
O O11 0.000000 0.054246 0.000000
O O12 0.444826 0.980436 0.645329
O O13 0.500000 0.968813 0.000000
#
# Coordination Sequence:
#
# PCOD8050684 Si02
#       7
#     2   4   2   4   4   4   2
#     4  10  22  42  64  98 130 180 222 278 346 400
#     4  11  22  43  68  97 134 176 230 286 345 411
#     4  10  25  42  68 102 132 183 232 280 352 410
#     4  11  24  43  67  99 138 176 231 286 340 417
#     4  12  26  45  70 104 142 190 235 288 356 418
#     4  12  25  47  73 103 144 188 234 294 354 419
#     4  12  27  46  70 100 144 187 236 288 356 416
#
# _framework density 22.269783
#
# number of rings (size 3 to 8) (size 9 to 14) (size 15 to 20)
#    0.000    0.727    3.636    3.818    2.545    0.000 
#    6.545    0.909    0.000    0.000    0.000    0.000 
#    0.000    0.000    0.000    0.000    0.000    0.000 
#
# Total GULP energy -136366.799526 kJ/mol
# GULP energy per Si atom -12396.981775 kJ/mol
# Density = 2.221910 g / cm^3
# Si number density = 22.269783 Si / 1000 Ang^3
#
#
#
# Elastic Constant Matrix: (Units=GPa)
#
#
# Indices 1 2 3 4 5 6 
#
# 1 69.4133 27.8055 32.1078 0.0000 19.0996 0.0000
# 2 27.8055 126.2966 28.7469 0.0000 6.2799 0.0000
# 3 32.1078 28.7469 125.5682 0.0000 22.3037 0.0000
# 4 0.0000 0.0000 0.0000 14.0824 0.0000 -13.0163
# 5 19.0996 6.2799 22.3037 0.0000 56.1689 0.0000
# 6 0.0000 0.0000 0.0000 -13.0163 0.0000 21.9710
#
#
#
# Elastic Compliance Matrix: (Units=1/GPa)
#
#
# Indices 1 2 3 4 5 6 
#
# 1 0.018392 -0.003097 -0.003168 0.000000 -0.004650 0.000000
# 2 -0.003097 0.008876 -0.001346 0.000000 0.000595 0.000000
# 3 -0.003168 -0.001346 0.009537 0.000000 -0.002559 0.000000
# 4 0.000000 0.000000 0.000000 0.156958 0.000000 0.092987
# 5 -0.004650 0.000595 -0.002559 0.000000 0.020334 0.000000
# 6 0.000000 0.000000 0.000000 0.092987 0.000000 0.100603
#
#
# Mechanical properties :
#
#
# Convention : Reuss Voigt Hill
#
# Bulk Modulus (GPa) = 46.33220 55.39983 50.86602
# Shear Modulus (GPa) = 14.83169 33.95231 24.39200
#
# Velocity S-wave (km/s) = 2.58350 3.90884 3.31312
# Velocity P-wave (km/s) = 5.45430 6.73073 6.12585
#
# Compressibility (1/GPa) = 0.02158326
#
# Stress axis : x y z
#
# Youngs Moduli (GPa) = 54.37222 112.65765 104.86007
#
# Poissons Ratio (x) = 0.34889 0.33218
# Poissons Ratio (y) = 0.16838 0.14114
# Poissons Ratio (z) = 0.17225 0.15163
#
# Static dielectric constant tensor:
#      x y z
#    x 3.803830 0.000000 0.051050 
#    y 0.000000 4.057360 0.000000 
#    z 0.051050 0.000000 4.654890 
# 
# 
# High freq. dielectric constant tensor:
#      x y z
#    x 1.857360 0.000000 0.005240 
#    y 0.000000 1.885820 0.000000 
#    z 0.005240 0.000000 1.905480 
# 
# From -- ./inp_files/12463.got.cif
#   From: 2010.03.12/outbox.cif.g09.slc.cpg/sg5_7_cif.got.tgz:12463.got - 2010.03.31 09:47:26.
