data_PCOD8050811
_publ_section_title
;
Structure prediction by ZEFSAII (Michael W. Deem and Ramdas Pophale) SiO2 
 PCOD8050811
Probable space group: C 2
;
_chemical_formula_sum "Si O2"
_cell_formula_units_Z 26
_cell_length_a 8.883879
_cell_length_b 19.156095
_cell_length_c 7.598659
_cell_angle_alpha 90.000000
_cell_angle_beta 125.622898
_cell_angle_gamma 90.000000
_cell_volume 1051.154679
_symmetry_space_group_name_H-M "C 2"
_symmetry_group_IT_number 5
_symmetry_cell_setting 'monoclinic'
loop_
_space_group_symop_operation_xyz
x,y,z
-x,y,-z
1/2+x,1/2+y,z
1/2-x,1/2+y,-z
loop_
_atom_site_type_symbol
_atom_site_label
_atom_site_fract_x
_atom_site_fract_y
_atom_site_fract_z
Si Si1 0.300664 0.131840 0.942140
Si Si2 0.457852 0.247343 0.280532
Si Si3 0.792112 0.319923 0.353718
Si Si4 0.754221 0.466955 0.463095
Si Si5 0.500000 0.569010 0.500000
Si Si6 0.340454 0.995136 0.140789
Si Si7 0.309475 0.858694 0.960199
O O1 0.141077 0.124558 0.686438
O O2 0.500000 0.115651 0.000000
O O3 0.310241 0.203300 0.062430
O O4 0.260841 0.070723 0.051488
O O5 0.500000 0.211949 0.500000
O O6 0.647566 0.257285 0.297857
O O7 0.358899 0.321297 0.255683
O O8 0.756673 0.381370 0.477948
O O9 0.773801 0.343453 0.140890
O O10 0.000000 0.290124 0.500000
O O11 0.590399 0.513784 0.427420
O O12 0.735042 0.473231 0.242500
O O13 0.940114 0.495649 0.676598
O O14 0.295261 0.943321 0.943515
O O15 0.500000 0.832619 0.000000
#
# Coordination Sequence:
#
# PCOD8050811 Si02
#       7
#     4   4   4   4   2   4   4
#     4  12  27  52  74 112 155 204 257 326 386 467
#     4  12  30  49  74 110 160 209 263 324 387 471
#     4  11  22  46  77 114 152 200 257 321 387 457
#     4  10  22  43  75 117 149 196 252 321 382 455
#     4  12  28  46  80 114 152 206 256 320 394 468
#     4  10  22  45  76 105 160 197 248 322 377 456
#     4  11  23  45  73 111 149 205 252 315 387 455
#
# _framework density 24.734705999999999
#
# number of rings (size 3 to 8) (size 9 to 14) (size 15 to 20)
#    0.000    0.923    4.615    2.769    5.385    0.615 
#   11.077    0.000    0.000    0.000    0.000    0.000 
#    0.000    0.000    0.000    0.000    0.000    0.000 
#
# Total GULP energy -161044.723704 kJ/mol
# GULP energy per Si atom -12388.055670 kJ/mol
# Density = 2.467841 g / cm^3
# Si number density = 24.734706 Si / 1000 Ang^3
#
#
#
# Elastic Constant Matrix: (Units=GPa)
#
#
# Indices 1 2 3 4 5 6 
#
# 1 130.0031 38.8062 39.4490 0.0000 15.7788 0.0000
# 2 38.8062 107.1127 53.8599 0.0000 10.2464 0.0000
# 3 39.4490 53.8599 121.9967 0.0000 14.0863 0.0000
# 4 0.0000 0.0000 0.0000 48.4959 0.0000 2.9008
# 5 15.7788 10.2464 14.0863 0.0000 30.1494 0.0000
# 6 0.0000 0.0000 0.0000 2.9008 0.0000 24.6868
#
#
#
# Elastic Compliance Matrix: (Units=1/GPa)
#
#
# Indices 1 2 3 4 5 6 
#
# 1 0.009251 -0.002214 -0.001630 0.000000 -0.003328 0.000000
# 2 -0.002214 0.012612 -0.004747 0.000000 -0.000910 0.000000
# 3 -0.001630 -0.004747 0.011136 0.000000 -0.002736 0.000000
# 4 0.000000 0.000000 0.000000 0.020766 0.000000 -0.002440
# 5 -0.003328 -0.000910 -0.002736 0.000000 0.036498 0.000000
# 6 0.000000 0.000000 0.000000 -0.002440 0.000000 0.040794
#
#
# Mechanical properties :
#
#
# Convention : Reuss Voigt Hill
#
# Bulk Modulus (GPa) = 63.22121 69.26029 66.24075
# Shear Modulus (GPa) = 32.57083 35.79957 34.18520
#
# Velocity S-wave (km/s) = 3.63272 3.80852 3.72166
# Velocity P-wave (km/s) = 6.57349 6.88490 6.73099
#
# Compressibility (1/GPa) = 0.01581748
#
# Stress axis : x y z
#
# Youngs Moduli (GPa) = 108.09102 79.28916 89.80065
#
# Poissons Ratio (x) = 0.17553 0.14637
# Poissons Ratio (y) = 0.23929 0.42630
# Poissons Ratio (z) = 0.17618 0.37640
#
# Static dielectric constant tensor:
#      x y z
#    x 4.556960 0.000000 -0.047380 
#    y 0.000000 4.689910 0.000000 
#    z -0.047380 0.000000 4.614070 
# 
# 
# High freq. dielectric constant tensor:
#      x y z
#    x 1.985800 0.000000 -0.008420 
#    y 0.000000 1.976200 0.000000 
#    z -0.008420 0.000000 1.989550 
# 
# From -- ./inp_files/17083.got.cif
#   From: 2010.03.12/outbox.cif.g09.slc.cpg/sg5_9_cif.got.tgz:17083.got - 2010.03.31 09:47:26.
