data_PCOD8050675
_publ_section_title
;
Structure prediction by ZEFSAII (Michael W. Deem and Ramdas Pophale) SiO2 
 PCOD8050675
Probable space group: C 2
;
_chemical_formula_sum "Si O2"
_cell_formula_units_Z 30
_cell_length_a 13.931954
_cell_length_b 8.172179
_cell_length_c 23.486466
_cell_angle_alpha 90.000000
_cell_angle_beta 150.668796
_cell_angle_gamma 90.000000
_cell_volume 1309.897090
_symmetry_space_group_name_H-M "C 2"
_symmetry_group_IT_number 5
_symmetry_cell_setting 'monoclinic'
loop_
_space_group_symop_operation_xyz
x,y,z
-x,y,-z
1/2+x,1/2+y,z
1/2-x,1/2+y,-z
loop_
_atom_site_type_symbol
_atom_site_label
_atom_site_fract_x
_atom_site_fract_y
_atom_site_fract_z
Si Si1 0.269787 0.829090 0.792740
Si Si2 0.580948 0.718860 0.246126
Si Si3 0.711053 0.391355 0.028100
Si Si4 0.331078 0.238900 0.566274
Si Si5 0.466459 0.120792 0.846513
Si Si6 0.268566 0.541761 0.382160
Si Si7 0.000000 0.137978 0.000000
Si Si8 0.184383 0.540234 0.553004
O O1 0.361219 0.711386 0.790608
O O2 0.038540 0.825805 0.674407
O O3 0.318837 0.022651 0.811684
O O4 0.347979 0.757667 0.891592
O O5 0.351091 0.762916 0.134052
O O6 0.628182 0.555391 0.306824
O O7 0.727892 0.853279 0.348856
O O8 0.622665 0.521840 0.023850
O O9 0.846959 0.497711 0.056733
O O10 0.535844 0.297092 0.904982
O O11 0.317033 0.080442 0.599599
O O12 0.179095 0.370028 0.515356
O O13 0.295350 0.186835 0.482699
O O14 0.355444 0.147158 0.728821
O O15 0.500000 0.580320 0.500000
O O16 0.000000 0.553907 0.500000
#
# Coordination Sequence:
#
# PCOD8050675 Si02
#       8
#     4   4   4   4   4   4   2   4
#     4  10  23  43  65  95 132 188 223 290 356 410
#     4  10  22  42  70  90 140 181 221 290 354 406
#     4  10  22  42  64 102 130 184 227 286 352 411
#     4  12  26  42  70  99 136 184 234 281 365 411
#     4  10  23  42  71  96 139 183 228 289 353 415
#     4  10  22  42  70 103 137 179 231 287 344 426
#     4  12  24  40  66  98 140 174 238 286 338 432
#     4  12  26  46  68 104 141 184 233 297 346 429
#
# _framework density 22.902562
#
# number of rings (size 3 to 8) (size 9 to 14) (size 15 to 20)
#    0.000    1.600    1.333    4.800    5.600    4.800 
#    2.400    0.000    0.000    0.000    0.000    0.000 
#    0.000    0.000    0.000    0.000    0.000    0.000 
#
# Total GULP energy -185893.909096 kJ/mol
# GULP energy per Si atom -12392.927273 kJ/mol
# Density = 2.285044 g / cm^3
# Si number density = 22.902562 Si / 1000 Ang^3
#
#
#
# Elastic Constant Matrix: (Units=GPa)
#
#
# Indices 1 2 3 4 5 6 
#
# 1 84.9285 29.8837 26.4964 0.0003 -6.0441 -0.0001
# 2 29.8837 42.2234 16.0343 0.0002 -15.6021 -0.0001
# 3 26.4964 16.0343 101.3026 0.0011 -13.0945 -0.0002
# 4 0.0003 0.0002 0.0011 30.7019 0.0002 -6.5917
# 5 -6.0441 -15.6021 -13.0945 0.0002 37.4928 -0.0001
# 6 -0.0001 -0.0001 -0.0002 -6.5917 -0.0001 23.5183
#
#
#
# Elastic Compliance Matrix: (Units=1/GPa)
#
#
# Indices 1 2 3 4 5 6 
#
# 1 0.016622 -0.011876 -0.002891 0.000000 -0.003272 0.000000
# 2 -0.011876 0.037409 -0.001100 0.000000 0.013269 0.000000
# 3 -0.002891 -0.001100 0.011187 0.000000 0.002983 0.000000
# 4 0.000000 0.000000 0.000000 0.034657 0.000000 0.009714
# 5 -0.003272 0.013269 0.002983 0.000000 0.032708 0.000000
# 6 0.000000 0.000000 0.000000 0.009714 0.000000 0.045243
#
#
# Mechanical properties :
#
#
# Convention : Reuss Voigt Hill
#
# Bulk Modulus (GPa) = 29.86334 41.47592 35.66963
# Shear Modulus (GPa) = 22.65301 28.74526 25.69914
#
# Velocity S-wave (km/s) = 3.14841 3.54660 3.35342
# Velocity P-wave (km/s) = 5.12682 5.90933 5.53193
#
# Compressibility (1/GPa) = 0.03348587
#
# Stress axis : x y z
#
# Youngs Moduli (GPa) = 60.15985 26.73136 89.38715
#
# Poissons Ratio (x) = 0.31745 0.25841
# Poissons Ratio (y) = 0.71444 0.09832
# Poissons Ratio (z) = 0.17392 0.02940
#
# Static dielectric constant tensor:
#      x y z
#    x 4.024690 0.000000 -0.322880 
#    y 0.000000 3.972700 0.000000 
#    z -0.322880 0.000000 4.846740 
# 
# 
# High freq. dielectric constant tensor:
#      x y z
#    x 1.903950 0.000000 -0.002840 
#    y 0.000000 1.894360 0.000000 
#    z -0.002840 0.000000 1.910370 
# 
# From -- ./inp_files/68721.got.cif
#   From: 2010.03.12/outbox.cif.g09.slc.cpg/sg5_35_cif.got.tgz:68721.got - 2010.03.31 09:47:26.
