data_PCOD8050697
_publ_section_title
;
Structure prediction by ZEFSAII (Michael W. Deem and Ramdas Pophale) SiO2 
 PCOD8050697
Probable space group: C 2
;
_chemical_formula_sum "Si O2"
_cell_formula_units_Z 28
_cell_length_a 27.098526
_cell_length_b 8.892451
_cell_length_c 5.173342
_cell_angle_alpha 90.000000
_cell_angle_beta 94.568420
_cell_angle_gamma 90.000000
_cell_volume 1242.671559
_symmetry_space_group_name_H-M "C 2"
_symmetry_group_IT_number 5
_symmetry_cell_setting 'monoclinic'
loop_
_space_group_symop_operation_xyz
x,y,z
-x,y,-z
1/2+x,1/2+y,z
1/2-x,1/2+y,-z
loop_
_atom_site_type_symbol
_atom_site_label
_atom_site_fract_x
_atom_site_fract_y
_atom_site_fract_z
Si Si1 0.784776 0.109060 0.579227
Si Si2 0.000000 0.658606 0.500000
Si Si3 0.401146 0.247404 0.673767
Si Si4 0.139954 0.986383 0.013194
Si Si5 0.396607 0.908570 0.825405
Si Si6 0.142004 0.259737 0.706570
Si Si7 0.301184 0.310062 0.331100
Si Si8 0.000000 0.457728 0.000000
O O1 0.801221 0.223468 0.354884
O O2 0.736094 0.169702 0.704607
O O3 0.772675 0.943154 0.470101
O O4 0.833594 0.102872 0.780048
O O5 0.049040 0.759913 0.475912
O O6 0.989147 0.558707 0.245626
O O7 0.351991 0.260749 0.484773
O O8 0.398322 0.088902 0.819348
O O9 0.403271 0.387244 0.876049
O O10 0.183304 0.870258 0.943589
O O11 0.118899 0.093200 0.772913
O O12 0.386586 0.839980 0.539142
O O13 0.358260 0.863787 0.036731
O O14 0.451716 0.853400 0.932039
#
# Coordination Sequence:
#
# PCOD8050697 Si02
#       8
#     4   2   4   4   4   4   4   2
#     4  10  23  44  62 100 136 188 222 287 336 420
#     4  10  22  42  72 100 142 172 232 296 352 390
#     4  10  24  42  69 107 131 185 233 298 338 419
#     4  10  23  44  66  97 145 182 231 286 348 416
#     4  11  23  41  75 101 135 179 238 282 354 404
#     4  11  23  43  68  99 137 188 217 286 346 418
#     4  10  24  41  67  96 142 176 237 278 347 410
#     4  10  22  42  66 110 138 170 224 308 338 412
#
# _framework density 22.5321
#
# number of rings (size 3 to 8) (size 9 to 14) (size 15 to 20)
#    0.000    1.714    1.429    1.714    8.000    4.571 
#    0.000    0.000    9.429    0.000    0.000    0.000 
#    0.000    0.000    0.000    0.000    0.000    0.000 
#
# Total GULP energy -173483.906620 kJ/mol
# GULP energy per Si atom -12391.707616 kJ/mol
# Density = 2.248082 g / cm^3
# Si number density = 22.532100 Si / 1000 Ang^3
#
#
#
# Elastic Constant Matrix: (Units=GPa)
#
#
# Indices 1 2 3 4 5 6 
#
# 1 94.8508 54.6311 29.5513 0.0000 -21.1994 0.0000
# 2 54.6311 85.6699 42.1907 0.0000 -10.4747 0.0000
# 3 29.5513 42.1907 123.9322 0.0000 -18.5924 0.0000
# 4 0.0000 0.0000 0.0000 41.2772 0.0000 -9.7615
# 5 -21.1994 -10.4747 -18.5924 0.0000 33.5512 0.0000
# 6 0.0000 0.0000 0.0000 -9.7615 0.0000 30.1335
#
#
#
# Elastic Compliance Matrix: (Units=1/GPa)
#
#
# Indices 1 2 3 4 5 6 
#
# 1 0.018740 -0.011208 0.000653 0.000000 0.008704 0.000000
# 2 -0.011208 0.020837 -0.004917 0.000000 -0.003301 0.000000
# 3 0.000653 -0.004917 0.010273 0.000000 0.004570 0.000000
# 4 0.000000 0.000000 0.000000 0.026236 0.000000 0.008499
# 5 0.008704 -0.003301 0.004570 0.000000 0.036807 0.000000
# 6 0.000000 0.000000 0.000000 0.008499 0.000000 0.035939
#
#
# Mechanical properties :
#
#
# Convention : Reuss Voigt Hill
#
# Bulk Modulus (GPa) = 52.88992 61.91100 57.40046
# Shear Modulus (GPa) = 26.87056 32.86438 29.86747
#
# Velocity S-wave (km/s) = 3.45707 3.82325 3.64476
# Velocity P-wave (km/s) = 6.28166 6.85756 6.57592
#
# Compressibility (1/GPa) = 0.01890719
#
# Stress axis : x y z
#
# Youngs Moduli (GPa) = 53.36169 47.99051 97.34586
#
# Poissons Ratio (x) = 0.53786 -0.06353
# Poissons Ratio (y) = 0.59806 0.47860
# Poissons Ratio (z) = -0.03483 0.23595
#
# Static dielectric constant tensor:
#      x y z
#    x 3.956380 0.000000 -0.174790 
#    y 0.000000 4.120640 0.000000 
#    z -0.174790 0.000000 4.086520 
# 
# 
# High freq. dielectric constant tensor:
#      x y z
#    x 1.864810 0.000000 -0.016980 
#    y 0.000000 1.884800 0.000000 
#    z -0.016980 0.000000 1.902080 
# 
# From -- ./inp_files/10802.got.cif
#   From: 2010.03.12/outbox.cif.g09.slc.cpg/sg5_6_cif.got.tgz:10802.got - 2010.03.31 09:47:26.
