data_PCOD8050469
_publ_section_title
;
Structure prediction by ZEFSAII (Michael W. Deem and Ramdas Pophale) SiO2 
 PCOD8050469
Probable space group: C 2
;
_chemical_formula_sum "Si O2"
_cell_formula_units_Z 24
_cell_length_a 14.494708
_cell_length_b 11.732679
_cell_length_c 14.923919
_cell_angle_alpha 90.000000
_cell_angle_beta 29.434834
_cell_angle_gamma 90.000000
_cell_volume 1247.251840
_symmetry_space_group_name_H-M "C 2"
_symmetry_group_IT_number 5
_symmetry_cell_setting 'monoclinic'
loop_
_space_group_symop_operation_xyz
x,y,z
-x,y,-z
1/2+x,1/2+y,z
1/2-x,1/2+y,-z
loop_
_atom_site_type_symbol
_atom_site_label
_atom_site_fract_x
_atom_site_fract_y
_atom_site_fract_z
Si Si1 0.030355 0.704020 0.265938
Si Si2 0.500000 0.597786 0.500000
Si Si3 0.767819 0.789977 0.335123
Si Si4 0.387837 0.969102 0.404141
Si Si5 0.716109 0.512841 0.980018
Si Si6 0.491021 0.442025 0.665590
Si Si7 0.000000 0.911662 0.000000
O O1 0.940258 0.762325 0.254328
O O2 0.897467 0.604986 0.422080
O O3 0.063057 0.809219 0.306452
O O4 0.228453 0.647280 0.069405
O O5 0.656343 0.674158 0.414497
O O6 0.411376 0.516537 0.651293
O O7 0.637192 0.889481 0.487592
O O8 0.841020 0.831878 0.177475
O O9 0.217721 0.950910 0.478666
O O10 0.588855 0.938918 0.187293
O O11 0.598666 0.487670 0.167221
O O12 0.589622 0.490158 0.000381
#
# Coordination Sequence:
#
# PCOD8050469 Si02
#       7
#     4   2   4   4   4   4   2
#     4   9  21  43  62  91 128 168 205 261 314 377
#     4  12  24  38  66  96 124 176 202 268 326 364
#     4  11  22  38  66  98 125 164 219 261 309 385
#     4   9  20  43  62  92 125 167 206 255 321 368
#     4  10  22  39  66  89 127 163 210 261 313 369
#     4  11  22  44  61  96 131 164 210 261 322 375
#     4  12  22  38  66 100 122 158 226 264 302 380
#
# _framework density 19.242304000000001
#
# number of rings (size 3 to 8) (size 9 to 14) (size 15 to 20)
#    1.000    0.667    5.000    1.000    2.333    1.333 
#    3.000    0.000    3.667    0.000    0.000    0.000 
#    0.000    0.000    0.000    0.000    0.000    0.000 
#
# Total GULP energy -148708.342479 kJ/mol
# GULP energy per Si atom -12392.361873 kJ/mol
# Density = 1.919851 g / cm^3
# Si number density = 19.242304 Si / 1000 Ang^3
#
#
#
# Elastic Constant Matrix: (Units=GPa)
#
#
# Indices 1 2 3 4 5 6 
#
# 1 66.8292 48.7274 47.1570 0.0023 19.9253 -0.0011
# 2 48.7274 151.2929 29.3976 -0.0017 12.6446 0.0017
# 3 47.1570 29.3976 82.0396 -0.0021 4.8189 0.0021
# 4 0.0023 -0.0017 -0.0021 32.3390 -0.0001 -1.6758
# 5 19.9253 12.6446 4.8189 -0.0001 29.7729 -0.0001
# 6 -0.0011 0.0017 0.0021 -1.6758 -0.0001 33.1838
#
#
#
# Elastic Compliance Matrix: (Units=1/GPa)
#
#
# Indices 1 2 3 4 5 6 
#
# 1 0.040008 -0.007456 -0.019120 -0.000004 -0.020514 0.000003
# 2 -0.007456 0.008704 0.001101 0.000001 0.001115 -0.000001
# 3 -0.019120 0.001101 0.022273 0.000003 0.008723 -0.000002
# 4 -0.000004 0.000001 0.000003 0.031004 0.000002 0.001566
# 5 -0.020514 0.001115 0.008723 0.000002 0.045431 -0.000001
# 6 0.000003 -0.000001 -0.000002 0.001566 -0.000001 0.030214
#
#
# Mechanical properties :
#
#
# Convention : Reuss Voigt Hill
#
# Bulk Modulus (GPa) = 49.91281 61.19176 55.55229
# Shear Modulus (GPa) = 21.25297 30.71778 25.98537
#
# Velocity S-wave (km/s) = 3.32699 3.99979 3.67881
# Velocity P-wave (km/s) = 6.38388 7.29389 6.85400
#
# Compressibility (1/GPa) = 0.02003494
#
# Stress axis : x y z
#
# Youngs Moduli (GPa) = 24.99499 114.89196 44.89802
#
# Poissons Ratio (x) = 0.85661 0.85846
# Poissons Ratio (y) = 0.18636 -0.04944
# Poissons Ratio (z) = 0.47791 -0.12653
#
# Static dielectric constant tensor:
#      x y z
#    x 3.402340 0.000000 -0.057090 
#    y 0.000000 3.742890 0.000000 
#    z -0.057090 0.000000 3.429020 
# 
# 
# High freq. dielectric constant tensor:
#      x y z
#    x 1.731370 0.000000 -0.006720 
#    y 0.000000 1.758690 0.000000 
#    z -0.006720 0.000000 1.738590 
# 
# From -- ./inp_files/23146.got.cif
#   From: 2010.03.12/outbox.cif.g09.slc.cpg/sg5_12_cif.got.tgz:23146.got - 2010.03.31 09:47:26.
