data_PCOD8050147
_publ_section_title
;
Structure prediction by ZEFSAII (Michael W. Deem and Ramdas Pophale) SiO2 
 PCOD8050147
Probable space group: C 2
;
_chemical_formula_sum "Si O2"
_cell_formula_units_Z 26
_cell_length_a 7.627914
_cell_length_b 9.630452
_cell_length_c 16.582334
_cell_angle_alpha 90.000000
_cell_angle_beta 118.028564
_cell_angle_gamma 90.000000
_cell_volume 1075.270804
_symmetry_space_group_name_H-M "C 2"
_symmetry_group_IT_number 5
_symmetry_cell_setting 'monoclinic'
loop_
_space_group_symop_operation_xyz
x,y,z
-x,y,-z
1/2+x,1/2+y,z
1/2-x,1/2+y,-z
loop_
_atom_site_type_symbol
_atom_site_label
_atom_site_fract_x
_atom_site_fract_y
_atom_site_fract_z
Si Si1 0.500000 0.589911 0.500000
Si Si2 0.442500 0.938483 0.282114
Si Si3 0.887059 0.926125 0.323662
Si Si4 0.856901 0.576954 0.109963
Si Si5 0.191223 0.159629 0.799189
Si Si6 0.231551 0.794374 0.026137
Si Si7 0.064105 0.664384 0.422211
O O1 0.499864 0.492766 0.422829
O O2 0.300787 0.681351 0.463922
O O3 0.652863 0.918416 0.284307
O O4 0.302991 0.028058 0.189549
O O5 0.349402 0.785274 0.274114
O O6 0.477298 0.014456 0.375399
O O7 0.972991 0.771256 0.336860
O O8 0.935347 0.022723 0.255410
O O9 0.812864 0.450989 0.037369
O O10 0.082676 0.619189 0.156303
O O11 0.734947 0.712169 0.051415
O O12 0.139587 0.212704 0.877574
O O13 0.000000 0.796266 0.000000
O O14 0.000000 0.694132 0.500000
#
# Coordination Sequence:
#
# PCOD8050147 Si02
#       7
#     2   4   4   4   4   4   4
#     4  10  24  44  62  94 134 162 214 286 318 386
#     4   9  21  42  61  89 130 164 213 273 316 387
#     4  10  21  41  62  89 130 161 214 273 316 383
#     4   9  18  37  60  88 123 165 206 263 318 379
#     4   9  19  38  61  87 129 166 205 265 322 378
#     4   9  18  35  60  87 122 164 210 257 320 384
#     4  11  24  45  67  96 128 174 222 269 331 387
#
# _framework density 24.179953999999999
#
# number of rings (size 3 to 8) (size 9 to 14) (size 15 to 20)
#    0.000    2.462    0.769    0.000    2.154    1.231 
#   11.077   16.154    0.000    0.000    0.000    0.000 
#    0.000    0.000    0.000    0.000    0.000    0.000 
#
# Total GULP energy -161083.823915 kJ/mol
# GULP energy per Si atom -12391.063378 kJ/mol
# Density = 2.412492 g / cm^3
# Si number density = 24.179954 Si / 1000 Ang^3
#
#
#
# Elastic Constant Matrix: (Units=GPa)
#
#
# Indices 1 2 3 4 5 6 
#
# 1 33.8254 30.4012 20.7589 0.0000 0.5989 0.0000
# 2 30.4012 146.0607 61.3057 0.0000 15.9186 0.0000
# 3 20.7589 61.3057 111.1148 0.0000 13.1147 0.0000
# 4 0.0000 0.0000 0.0000 65.7951 0.0000 7.7750
# 5 0.5989 15.9186 13.1147 0.0000 17.2261 0.0000
# 6 0.0000 0.0000 0.0000 7.7750 0.0000 28.2318
#
#
#
# Elastic Compliance Matrix: (Units=1/GPa)
#
#
# Indices 1 2 3 4 5 6 
#
# 1 0.038439 -0.007147 -0.004241 0.000000 0.008497 0.000000
# 2 -0.007147 0.010637 -0.003739 0.000000 -0.006735 0.000000
# 3 -0.004241 -0.003739 0.012558 0.000000 -0.005958 0.000000
# 4 0.000000 0.000000 0.000000 0.015710 0.000000 -0.004327
# 5 0.008497 -0.006735 -0.005958 0.000000 0.068516 0.000000
# 6 0.000000 0.000000 0.000000 -0.004327 0.000000 0.036613
#
#
# Mechanical properties :
#
#
# Convention : Reuss Voigt Hill
#
# Bulk Modulus (GPa) = 31.86613 57.32580 44.59597
# Shear Modulus (GPa) = 22.40275 34.15295 28.27785
#
# Velocity S-wave (km/s) = 3.04715 3.76233 3.42347
# Velocity P-wave (km/s) = 5.05841 6.52939 5.84040
#
# Compressibility (1/GPa) = 0.03138128
#
# Stress axis : x y z
#
# Youngs Moduli (GPa) = 26.01512 94.00883 79.62948
#
# Poissons Ratio (x) = 0.67185 0.33772
# Poissons Ratio (y) = 0.18592 0.29772
# Poissons Ratio (z) = 0.11033 0.35149
#
# Static dielectric constant tensor:
#      x y z
#    x 3.683250 0.000000 0.012010 
#    y 0.000000 4.799460 0.000000 
#    z 0.012010 0.000000 5.031940 
# 
# 
# High freq. dielectric constant tensor:
#      x y z
#    x 1.904960 0.000000 0.013060 
#    y 0.000000 1.967990 0.000000 
#    z 0.013060 0.000000 1.983970 
# 
# From -- ./inp_files/64336.got.cif
#   From: 2010.03.12/outbox.cif.g09.slc.cpg/sg5_33_cif.got.tgz:64336.got - 2010.03.31 09:47:26.
