data_PCOD8050336
_publ_section_title
;
Structure prediction by ZEFSAII (Michael W. Deem and Ramdas Pophale) SiO2 
 PCOD8050336
Probable space group: C 2
;
_chemical_formula_sum "Si O2"
_cell_formula_units_Z 20
_cell_length_a 14.111678
_cell_length_b 4.592640
_cell_length_c 20.133613
_cell_angle_alpha 90.000000
_cell_angle_beta 149.892451
_cell_angle_gamma 90.000000
_cell_volume 654.548316
_symmetry_space_group_name_H-M "C 2"
_symmetry_group_IT_number 5
_symmetry_cell_setting 'monoclinic'
loop_
_space_group_symop_operation_xyz
x,y,z
-x,y,-z
1/2+x,1/2+y,z
1/2-x,1/2+y,-z
loop_
_atom_site_type_symbol
_atom_site_label
_atom_site_fract_x
_atom_site_fract_y
_atom_site_fract_z
Si Si1 0.717556 0.123220 0.433154
Si Si2 0.859324 0.378487 0.094604
Si Si3 0.000000 0.294622 0.500000
Si Si4 0.654855 0.465129 0.800688
Si Si5 0.500000 0.624726 0.000000
Si Si6 0.273869 0.679139 0.749071
O O1 0.816669 0.308677 0.553573
O O2 0.527387 0.268994 0.288826
O O3 0.859963 0.089680 0.457216
O O4 0.846641 0.286145 0.165981
O O5 0.079247 0.322954 0.212374
O O6 0.700183 0.210756 0.953599
O O7 0.112447 0.502220 0.616976
O O8 0.671585 0.442500 0.729722
O O9 0.848685 0.326930 0.947780
O O10 0.611512 0.463971 0.128110
#
# Coordination Sequence:
#
# PCOD8050336 Si02
#       6
#     4   4   2   4   2   4
#     4  12  27  50  75 109 154 200 252 315 377 446
#     4  12  24  46  76 112 148 198 256 309 378 450
#     4  12  24  48  78 114 148 206 256 306 378 458
#     4  10  21  46  72 108 152 192 248 315 372 438
#     4   8  18  44  68 108 142 190 238 306 366 440
#     4  10  21  46  73 110 150 195 250 310 372 449
#
# _framework density 30.555419000000001
#
# number of rings (size 3 to 8) (size 9 to 14) (size 15 to 20)
#    1.200    0.000    6.000    0.000    0.000    2.400 
#   10.800    2.000    0.000    0.000    0.000    0.000 
#    0.000    0.000    0.000    0.000    0.000    0.000 
#
# Total GULP energy -123892.142184 kJ/mol
# GULP energy per Si atom -12389.214218 kJ/mol
# Density = 3.048587 g / cm^3
# Si number density = 30.555419 Si / 1000 Ang^3
#
#
#
# Elastic Constant Matrix: (Units=GPa)
#
#
# Indices 1 2 3 4 5 6 
#
# 1 200.0216 9.8690 1.3142 0.0012 21.5040 -0.0222
# 2 9.8690 48.1659 -7.6100 0.0001 -7.5990 -0.0451
# 3 1.3142 -7.6100 154.8535 -0.0007 -9.1213 0.0034
# 4 0.0012 0.0001 -0.0007 22.7711 0.0013 -13.6863
# 5 21.5040 -7.5990 -9.1213 0.0013 53.0840 -0.0011
# 6 -0.0222 -0.0451 0.0034 -13.6863 -0.0011 24.4425
#
#
#
# Elastic Compliance Matrix: (Units=1/GPa)
#
#
# Indices 1 2 3 4 5 6 
#
# 1 0.005337 -0.001517 -0.000263 0.000002 -0.002424 0.000003
# 2 -0.001517 0.021909 0.001324 0.000035 0.003979 0.000059
# 3 -0.000263 0.001324 0.006609 0.000001 0.001432 0.000002
# 4 0.000002 0.000035 0.000001 0.066192 0.000004 0.037063
# 5 -0.002424 0.003979 0.001432 0.000004 0.020636 0.000008
# 6 0.000003 0.000059 0.000002 0.037063 0.000008 0.061665
#
#
# Mechanical properties :
#
#
# Convention : Reuss Voigt Hill
#
# Bulk Modulus (GPa) = 30.35536 45.57637 37.96587
# Shear Modulus (GPa) = 25.74117 46.69071 36.21594
#
# Velocity S-wave (km/s) = 2.90563 3.91329 3.44649
# Velocity P-wave (km/s) = 4.60576 5.94700 5.31883
#
# Compressibility (1/GPa) = 0.03294311
#
# Stress axis : x y z
#
# Youngs Moduli (GPa) = 187.38248 45.64251 151.30122
#
# Poissons Ratio (x) = 0.06926 0.03974
# Poissons Ratio (y) = 0.28434 -0.20031
# Poissons Ratio (z) = 0.04922 -0.06043
#
# Static dielectric constant tensor:
#      x y z
#    x 6.132440 -0.000010 0.078940 
#    y -0.000010 4.945940 -0.000010 
#    z 0.078940 -0.000010 6.034610 
# 
# 
# High freq. dielectric constant tensor:
#      x y z
#    x 2.281730 0.000000 -0.002350 
#    y 0.000000 2.207880 0.000000 
#    z -0.002350 0.000000 2.287850 
# 
# From -- ./inp_files/41038.got.cif
#   From: 2010.03.12/outbox.cif.g09.slc.cpg/sg5_21_cif.got.tgz:41038.got - 2010.03.31 09:47:26.
