data_PCOD8050853
_publ_section_title
;
Structure prediction by ZEFSAII (Michael W. Deem and Ramdas Pophale) SiO2 
 PCOD8050853
Probable space group: C 2
;
_chemical_formula_sum "Si O2"
_cell_formula_units_Z 18
_cell_length_a 16.378329
_cell_length_b 6.338126
_cell_length_c 9.523364
_cell_angle_alpha 90.000000
_cell_angle_beta 126.798683
_cell_angle_gamma 90.000000
_cell_volume 791.617078
_symmetry_space_group_name_H-M "C 2"
_symmetry_group_IT_number 5
_symmetry_cell_setting 'monoclinic'
loop_
_space_group_symop_operation_xyz
x,y,z
-x,y,-z
1/2+x,1/2+y,z
1/2-x,1/2+y,-z
loop_
_atom_site_type_symbol
_atom_site_label
_atom_site_fract_x
_atom_site_fract_y
_atom_site_fract_z
Si Si1 0.651112 0.273460 0.155261
Si Si2 0.815523 0.550407 0.230616
Si Si3 0.000000 0.813657 0.500000
Si Si4 0.872765 0.357893 0.002001
Si Si5 0.998647 0.982135 0.196962
O O1 0.769978 0.343700 0.265424
O O2 0.604006 0.390997 0.242285
O O3 0.593877 0.341149 0.953898
O O4 0.633852 0.019373 0.138398
O O5 0.867039 0.488495 0.138717
O O6 0.900814 0.665211 0.411932
O O7 0.722495 0.705417 0.107239
O O8 0.001997 0.968988 0.635762
O O9 0.978037 0.221835 0.120098
#
# Coordination Sequence:
#
# PCOD8050853 Si02
#       5
#     4   4   2   4   4
#     4  10  22  44  69  98 129 190 234 271 327 420
#     4  11  22  40  68 100 135 176 231 275 345 402
#     4  12  24  46  60 108 146 174 218 292 358 400
#     4  11  20  44  73  96 132 188 234 274 324 432
#     4  10  24  42  69 100 137 176 233 279 347 398
#
# _framework density 22.738264000000001
#
# number of rings (size 3 to 8) (size 9 to 14) (size 15 to 20)
#    0.000    1.333    4.444    1.333    0.000    8.000 
#    4.000    0.000    0.000    0.000    0.000    0.000 
#    0.000    0.000    0.000    0.000    0.000    0.000 
#
# Total GULP energy -111540.639505 kJ/mol
# GULP energy per Si atom -12393.404389 kJ/mol
# Density = 2.268651 g / cm^3
# Si number density = 22.738264 Si / 1000 Ang^3
#
#
#
# Elastic Constant Matrix: (Units=GPa)
#
#
# Indices 1 2 3 4 5 6 
#
# 1 97.7528 39.1631 21.5794 0.0000 -16.6980 0.0000
# 2 39.1631 132.7990 11.4309 0.0000 -13.2893 0.0000
# 3 21.5794 11.4309 76.5845 0.0000 -14.5433 0.0000
# 4 0.0000 0.0000 0.0000 32.4183 0.0000 0.4294
# 5 -16.6980 -13.2893 -14.5433 0.0000 33.3266 0.0000
# 6 0.0000 0.0000 0.0000 0.4294 0.0000 39.0449
#
#
#
# Elastic Compliance Matrix: (Units=1/GPa)
#
#
# Indices 1 2 3 4 5 6 
#
# 1 0.012700 -0.003135 -0.002333 0.000000 0.004095 0.000000
# 2 -0.003135 0.008645 -0.000055 0.000000 0.001852 0.000000
# 3 -0.002333 -0.000055 0.014716 0.000000 0.005231 0.000000
# 4 0.000000 0.000000 0.000000 0.030851 0.000000 -0.000339
# 5 0.004095 0.001852 0.005231 0.000000 0.035079 0.000000
# 6 0.000000 0.000000 0.000000 -0.000339 0.000000 0.025615
#
#
# Mechanical properties :
#
#
# Convention : Reuss Voigt Hill
#
# Bulk Modulus (GPa) = 39.97517 50.16479 45.06998
# Shear Modulus (GPa) = 34.01542 36.62215 35.31878
#
# Velocity S-wave (km/s) = 3.87195 4.01758 3.94544
# Velocity P-wave (km/s) = 6.13254 6.60537 6.37335
#
# Compressibility (1/GPa) = 0.02501553
#
# Stress axis : x y z
#
# Youngs Moduli (GPa) = 78.73793 115.67697 67.95101
#
# Poissons Ratio (x) = 0.36262 0.15853
# Poissons Ratio (y) = 0.24682 0.00375
# Poissons Ratio (z) = 0.18370 0.00639
#
# Static dielectric constant tensor:
#      x y z
#    x 4.202900 0.000000 0.099610 
#    y 0.000000 4.658650 0.000000 
#    z 0.099610 0.000000 3.672300 
# 
# 
# High freq. dielectric constant tensor:
#      x y z
#    x 1.901330 0.000000 -0.004210 
#    y 0.000000 1.911650 0.000000 
#    z -0.004210 0.000000 1.853400 
# 
# From -- ./inp_files/25921.got.cif
#   From: 2010.03.12/outbox.cif.g09.slc.cpg/sg5_13_cif.got.tgz:25921.got - 2010.03.31 09:47:26.
