data_PCOD8050789
_publ_section_title
;
Structure prediction by ZEFSAII (Michael W. Deem and Ramdas Pophale) SiO2 
 PCOD8050789
Probable space group: C 2
;
_chemical_formula_sum "Si O2"
_cell_formula_units_Z 32
_cell_length_a 11.288639
_cell_length_b 8.480929
_cell_length_c 27.603863
_cell_angle_alpha 90.000000
_cell_angle_beta 35.067190
_cell_angle_gamma 90.000000
_cell_volume 1518.352517
_symmetry_space_group_name_H-M "C 2"
_symmetry_group_IT_number 5
_symmetry_cell_setting 'monoclinic'
loop_
_space_group_symop_operation_xyz
x,y,z
-x,y,-z
1/2+x,1/2+y,z
1/2-x,1/2+y,-z
loop_
_atom_site_type_symbol
_atom_site_label
_atom_site_fract_x
_atom_site_fract_y
_atom_site_fract_z
Si Si1 0.511629 0.041860 0.595743
Si Si2 0.762139 0.140394 0.945031
Si Si3 0.436053 0.655037 0.072416
Si Si4 0.647490 0.301351 0.894329
Si Si5 0.796349 0.304045 0.543567
Si Si6 0.341147 0.803093 0.727055
Si Si7 0.583998 0.371436 0.172903
Si Si8 0.604789 0.539893 0.678294
O O1 0.662003 0.180128 0.559926
O O2 0.311770 0.110644 0.634135
O O3 0.635541 0.932502 0.517949
O O4 0.450854 0.952313 0.665747
O O5 0.796942 0.260213 0.888856
O O6 0.917150 0.206182 0.933204
O O7 0.816108 0.962043 0.907637
O O8 0.529395 0.161525 0.045510
O O9 0.456687 0.468091 0.061244
O O10 0.212768 0.731178 0.154702
O O11 0.500000 0.731489 0.000000
O O12 0.787420 0.326728 0.800924
O O13 0.659647 0.380711 0.631582
O O14 0.000000 0.226063 0.500000
O O15 0.499159 0.656014 0.674194
O O16 0.126179 0.779610 0.770783
O O17 0.553208 0.501155 0.225298
#
# Coordination Sequence:
#
# PCOD8050789 Si02
#       8
#     4   4   4   4   4   4   4   4
#     4  10  23  41  69  97 133 170 210 262 319 387
#     4  11  24  44  62  86 128 169 218 275 326 385
#     4  12  26  40  64  92 120 167 223 273 324 387
#     4  11  24  43  62  91 127 167 217 271 328 383
#     4  10  22  43  67  99 132 167 213 256 315 392
#     4  11  22  44  64  94 134 168 215 271 321 383
#     4  11  25  40  64  92 126 172 217 271 328 383
#     4  10  23  41  62  94 132 169 210 262 320 386
#
# _framework density 21.075475999999998
#
# number of rings (size 3 to 8) (size 9 to 14) (size 15 to 20)
#    0.000    1.250    3.750    1.500    3.500    2.000 
#    2.250    0.000    0.000    0.000    0.000    0.000 
#    0.000    0.000    0.000    0.000    0.000    0.000 
#
# Total GULP energy -198266.446784 kJ/mol
# GULP energy per Si atom -12391.652924 kJ/mol
# Density = 2.102751 g / cm^3
# Si number density = 21.075476 Si / 1000 Ang^3
#
#
#
# Elastic Constant Matrix: (Units=GPa)
#
#
# Indices 1 2 3 4 5 6 
#
# 1 151.0318 47.5548 33.9931 0.0004 -17.0072 0.0005
# 2 47.5548 68.4391 27.6498 0.0007 -28.0372 0.0006
# 3 33.9931 27.6498 83.5649 0.0013 0.7915 0.0002
# 4 0.0004 0.0007 0.0013 21.0632 -0.0001 -4.5274
# 5 -17.0072 -28.0372 0.7915 -0.0001 42.0329 0.0000
# 6 0.0005 0.0006 0.0002 -4.5274 0.0000 44.1723
#
#
#
# Elastic Compliance Matrix: (Units=1/GPa)
#
#
# Indices 1 2 3 4 5 6 
#
# 1 0.008698 -0.005326 -0.001776 0.000000 0.000000 0.000000
# 2 -0.005326 0.028116 -0.007295 0.000000 0.016736 0.000000
# 3 -0.001776 -0.007295 0.015158 -0.000001 -0.005870 0.000000
# 4 0.000000 0.000000 -0.000001 0.048546 0.000000 0.004976
# 5 0.000000 0.016736 -0.005870 0.000000 0.035065 0.000000
# 6 0.000000 0.000000 0.000000 0.004976 0.000000 0.023149
#
#
# Mechanical properties :
#
#
# Convention : Reuss Voigt Hill
#
# Bulk Modulus (GPa) = 43.14354 57.93680 50.54017
# Shear Modulus (GPa) = 25.60798 34.37622 29.99210
#
# Velocity S-wave (km/s) = 3.48955 4.04307 3.77647
# Velocity P-wave (km/s) = 6.06229 7.02460 6.56111
#
# Compressibility (1/GPa) = 0.02317844
#
# Stress axis : x y z
#
# Youngs Moduli (GPa) = 114.97068 35.56692 65.96994
#
# Poissons Ratio (x) = 0.18944 0.11715
# Poissons Ratio (y) = 0.61237 0.48124
# Poissons Ratio (z) = 0.20417 0.25945
#
# Static dielectric constant tensor:
#      x y z
#    x 4.066460 0.000000 0.061900 
#    y 0.000000 3.571360 0.000000 
#    z 0.061900 0.000000 3.963400 
# 
# 
# High freq. dielectric constant tensor:
#      x y z
#    x 1.842130 0.000000 0.005820 
#    y 0.000000 1.803600 0.000000 
#    z 0.005820 0.000000 1.832070 
# 
# From -- ./inp_files/71731.got.cif
#   From: 2010.03.12/outbox.cif.g09.slc.cpg/sg5_36_cif.got.tgz:71731.got - 2010.03.31 09:47:26.
