data_PCOD8050526
_publ_section_title
;
Structure prediction by ZEFSAII (Michael W. Deem and Ramdas Pophale) SiO2 
 PCOD8050526
Probable space group: C 2
;
_chemical_formula_sum "Si O2"
_cell_formula_units_Z 20
_cell_length_a 11.130600
_cell_length_b 9.185229
_cell_length_c 9.406128
_cell_angle_alpha 90.000000
_cell_angle_beta 77.333204
_cell_angle_gamma 90.000000
_cell_volume 938.250368
_symmetry_space_group_name_H-M "C 2"
_symmetry_group_IT_number 5
_symmetry_cell_setting 'monoclinic'
loop_
_space_group_symop_operation_xyz
x,y,z
-x,y,-z
1/2+x,1/2+y,z
1/2-x,1/2+y,-z
loop_
_atom_site_type_symbol
_atom_site_label
_atom_site_fract_x
_atom_site_fract_y
_atom_site_fract_z
Si Si1 0.328462 0.589740 0.558801
Si Si2 0.779391 0.175654 0.147858
Si Si3 0.358620 0.261717 0.532418
Si Si4 0.504411 0.690942 0.720338
Si Si5 0.388789 0.923513 0.930588
O O1 0.336215 0.428554 0.492675
O O2 0.192012 0.655840 0.580296
O O3 0.385057 0.593112 0.704535
O O4 0.406903 0.701030 0.439344
O O5 0.701093 0.236481 0.298935
O O6 0.914519 0.121976 0.171032
O O7 0.704202 0.049376 0.090680
O O8 0.804701 0.304099 0.030654
O O9 0.500000 0.223126 0.500000
O O10 0.453756 0.850005 0.776463
O O11 0.500000 0.985129 0.000000
#
# Coordination Sequence:
#
# PCOD8050526 Si02
#       5
#     4   4   4   4   4
#     4  10  22  40  65  95 127 166 203 259 316 376
#     4  10  24  43  65  95 124 169 214 255 314 371
#     4  11  24  41  62  98 128 161 214 254 317 375
#     4   9  20  41  67  88 128 161 205 256 319 363
#     4  10  23  44  64  93 127 167 211 261 309 371
#
# _framework density 21.316272000000001
#
# number of rings (size 3 to 8) (size 9 to 14) (size 15 to 20)
#    0.000    2.000    2.000    0.000    8.400    4.800 
#    3.600    0.000    0.000    0.000    0.000    0.000 
#    0.000    0.000    0.000    0.000    0.000    0.000 
#
# Total GULP energy -123885.092939 kJ/mol
# GULP energy per Si atom -12388.509294 kJ/mol
# Density = 2.126776 g / cm^3
# Si number density = 21.316272 Si / 1000 Ang^3
#
#
#
# Elastic Constant Matrix: (Units=GPa)
#
#
# Indices 1 2 3 4 5 6 
#
# 1 194.5285 94.2862 44.5409 0.0000 35.1398 0.0000
# 2 94.2862 90.7279 41.3930 0.0000 19.8135 0.0000
# 3 44.5409 41.3930 77.8965 0.0000 3.3084 0.0000
# 4 0.0000 0.0000 0.0000 24.5742 0.0000 9.9434
# 5 35.1398 19.8135 3.3084 0.0000 37.8467 0.0000
# 6 0.0000 0.0000 0.0000 9.9434 0.0000 40.0560
#
#
#
# Elastic Compliance Matrix: (Units=1/GPa)
#
#
# Indices 1 2 3 4 5 6 
#
# 1 0.011117 -0.010120 -0.000769 0.000000 -0.004957 0.000000
# 2 -0.010120 0.025855 -0.007806 0.000000 -0.003457 0.000000
# 3 -0.000769 -0.007806 0.017285 0.000000 0.003289 0.000000
# 4 0.000000 0.000000 0.000000 0.045237 0.000000 -0.011230
# 5 -0.004957 -0.003457 0.003289 0.000000 0.032547 0.000000
# 6 0.000000 0.000000 0.000000 -0.011230 0.000000 0.027753
#
#
# Mechanical properties :
#
#
# Convention : Reuss Voigt Hill
#
# Bulk Modulus (GPa) = 59.28058 80.39923 69.83990
# Shear Modulus (GPa) = 24.65427 32.69089 28.67258
#
# Velocity S-wave (km/s) = 3.40456 3.92038 3.67154
# Velocity P-wave (km/s) = 6.58218 7.63490 7.12800
#
# Compressibility (1/GPa) = 0.01686893
#
# Stress axis : x y z
#
# Youngs Moduli (GPa) = 89.95203 38.67739 57.85335
#
# Poissons Ratio (x) = 0.39141 0.04447
# Poissons Ratio (y) = 0.91031 0.45158
# Poissons Ratio (z) = 0.06914 0.30190
#
# Static dielectric constant tensor:
#      x y z
#    x 4.618730 0.000000 0.343560 
#    y 0.000000 3.577890 0.000000 
#    z 0.343560 0.000000 3.998350 
# 
# 
# High freq. dielectric constant tensor:
#      x y z
#    x 1.862950 0.000000 0.012660 
#    y 0.000000 1.809910 0.000000 
#    z 0.012660 0.000000 1.826160 
# 
# From -- ./inp_files/18252.got.cif
#   From: 2010.03.12/outbox.cif.g09.slc.cpg/sg5_10_cif.got.tgz:18252.got - 2010.03.31 09:47:26.
