data_PCOD8050335
_publ_section_title
;
Structure prediction by ZEFSAII (Michael W. Deem and Ramdas Pophale) SiO2 
 PCOD8050335
Probable space group: C 2
;
_chemical_formula_sum "Si O2"
_cell_formula_units_Z 16
_cell_length_a 8.364856
_cell_length_b 12.978534
_cell_length_c 8.998701
_cell_angle_alpha 90.000000
_cell_angle_beta 132.647763
_cell_angle_gamma 90.000000
_cell_volume 718.564637
_symmetry_space_group_name_H-M "C 2"
_symmetry_group_IT_number 5
_symmetry_cell_setting 'monoclinic'
loop_
_space_group_symop_operation_xyz
x,y,z
-x,y,-z
1/2+x,1/2+y,z
1/2-x,1/2+y,-z
loop_
_atom_site_type_symbol
_atom_site_label
_atom_site_fract_x
_atom_site_fract_y
_atom_site_fract_z
Si Si1 0.080884 0.219950 0.389896
Si Si2 0.443275 0.067420 0.627763
Si Si3 0.718021 0.061446 0.067861
Si Si4 0.261766 0.395169 0.325076
O O1 0.328452 0.179164 0.559793
O O2 0.085091 0.309391 0.266020
O O3 0.000000 0.261451 0.500000
O O4 0.927712 0.128435 0.235602
O O5 0.500000 0.030935 0.500000
O O6 0.262373 0.992305 0.581394
O O7 0.671806 0.061524 0.862097
O O8 0.733705 0.942678 0.140519
O O9 0.500000 0.113339 0.000000
O O10 0.500000 0.348245 0.500000
#
# Coordination Sequence:
#
# PCOD8050335 Si02
#       4
#     4   4   4   4
#     4  12  22  44  73 105 144 183 232 290 348 416
#     4  11  23  45  69 102 148 182 231 292 346 413
#     4  10  21  46  69  97 150 180 225 300 340 405
#     4  11  22  45  73 101 142 185 229 291 347 412
#
# _framework density 22.266613
#
# number of rings (size 3 to 8) (size 9 to 14) (size 15 to 20)
#    0.000    1.000    7.500    1.500    0.000    1.000 
#   27.000    0.000    0.000    0.000    0.000    0.000 
#    0.000    0.000    0.000    0.000    0.000    0.000 
#
# Total GULP energy -99118.427240 kJ/mol
# GULP energy per Si atom -12389.803405 kJ/mol
# Density = 2.221593 g / cm^3
# Si number density = 22.266613 Si / 1000 Ang^3
#
#
#
# Elastic Constant Matrix: (Units=GPa)
#
#
# Indices 1 2 3 4 5 6 
#
# 1 50.2704 22.4222 45.4131 0.0000 -3.2204 0.0000
# 2 22.4222 106.7169 44.7163 0.0000 0.6972 0.0000
# 3 45.4131 44.7163 157.9816 0.0000 -16.3004 0.0000
# 4 0.0000 0.0000 0.0000 21.2296 0.0000 -3.0172
# 5 -3.2204 0.6972 -16.3004 0.0000 38.3454 0.0000
# 6 0.0000 0.0000 0.0000 -3.0172 0.0000 43.5699
#
#
#
# Elastic Compliance Matrix: (Units=1/GPa)
#
#
# Indices 1 2 3 4 5 6 
#
# 1 0.027610 -0.002769 -0.007225 0.000000 -0.000702 0.000000
# 2 -0.002769 0.010997 -0.002470 0.000000 -0.001482 0.000000
# 3 -0.007225 -0.002470 0.009463 0.000000 0.003461 0.000000
# 4 0.000000 0.000000 0.000000 0.047572 0.000000 0.003294
# 5 -0.000702 -0.001482 0.003461 0.000000 0.027518 0.000000
# 6 0.000000 0.000000 0.000000 0.003294 0.000000 0.023180
#
#
# Mechanical properties :
#
#
# Convention : Reuss Voigt Hill
#
# Bulk Modulus (GPa) = 43.21206 60.00802 51.61004
# Shear Modulus (GPa) = 27.93592 34.12346 31.02969
#
# Velocity S-wave (km/s) = 3.54589 3.91896 3.73708
# Velocity P-wave (km/s) = 6.01774 6.89100 6.46912
#
# Compressibility (1/GPa) = 0.02314169
#
# Stress axis : x y z
#
# Youngs Moduli (GPa) = 36.21917 90.93503 105.67528
#
# Poissons Ratio (x) = 0.25179 0.76354
# Poissons Ratio (y) = 0.10029 0.26098
# Poissons Ratio (z) = 0.26170 0.22458
#
# Static dielectric constant tensor:
#      x y z
#    x 3.988340 0.000000 -0.083740 
#    y 0.000000 3.831570 0.000000 
#    z -0.083740 0.000000 4.206380 
# 
# 
# High freq. dielectric constant tensor:
#      x y z
#    x 1.873960 0.000000 -0.000080 
#    y 0.000000 1.857430 0.000000 
#    z -0.000080 0.000000 1.877810 
# 
# From -- ./inp_files/13881.got.cif
#   From: 2010.03.12/outbox.cif.g09.slc.cpg/sg5_7_cif.got.tgz:13881.got - 2010.03.31 09:47:26.
