data_PCOD8050145
_publ_section_title
;
Structure prediction by ZEFSAII (Michael W. Deem and Ramdas Pophale) SiO2 
 PCOD8050145
Probable space group: C 2
;
_chemical_formula_sum "Si O2"
_cell_formula_units_Z 24
_cell_length_a 13.741043
_cell_length_b 14.908926
_cell_length_c 5.040871
_cell_angle_alpha 90.000000
_cell_angle_beta 90.877029
_cell_angle_gamma 90.000000
_cell_volume 1032.572990
_symmetry_space_group_name_H-M "C 2"
_symmetry_group_IT_number 5
_symmetry_cell_setting 'monoclinic'
loop_
_space_group_symop_operation_xyz
x,y,z
-x,y,-z
1/2+x,1/2+y,z
1/2-x,1/2+y,-z
loop_
_atom_site_type_symbol
_atom_site_label
_atom_site_fract_x
_atom_site_fract_y
_atom_site_fract_z
Si Si1 0.389828 0.389690 0.053249
Si Si2 0.000000 0.404246 0.000000
Si Si3 0.500000 0.022113 0.500000
Si Si4 0.729709 0.357344 0.447413
Si Si5 0.675395 0.590407 0.958452
Si Si6 0.906587 0.257469 0.307139
Si Si7 0.707765 0.059040 0.534276
O O1 0.352073 0.350517 0.329582
O O2 0.383218 0.497588 0.051740
O O3 0.500000 0.361513 0.000000
O O4 0.324225 0.342649 0.831212
O O5 0.036207 0.463271 0.249684
O O6 0.913261 0.340276 0.099774
O O7 0.593769 0.082287 0.583354
O O8 0.810183 0.278190 0.478629
O O9 0.783707 0.452258 0.445865
O O10 0.600526 0.668143 0.871496
O O11 0.764261 0.591605 0.755689
O O12 0.721455 0.607073 0.250208
O O13 0.000000 0.249245 0.500000
#
# Coordination Sequence:
#
# PCOD8050145 Si02
#       7
#     4   2   2   4   4   4   4
#     4  10  22  42  66  92 125 175 225 270 319 382
#     4  12  24  36  66 104 134 168 214 270 346 396
#     4  12  22  40  72  96 130 170 236 274 326 392
#     4  10  22  39  65  95 130 166 221 272 319 395
#     4  10  25  39  63  95 138 170 214 275 336 398
#     4  12  27  41  67 103 143 174 212 276 353 398
#     4  10  21  41  61  96 128 176 221 272 324 389
#
# _framework density 23.242909000000001
#
# number of rings (size 3 to 8) (size 9 to 14) (size 15 to 20)
#    0.000    1.333    2.500    1.500   10.500    2.667 
#    0.000    0.000    7.333    0.000    0.000    0.000 
#    0.000    0.000    0.000    0.000    0.000    0.000 
#
# Total GULP energy -148809.909938 kJ/mol
# GULP energy per Si atom -12400.825828 kJ/mol
# Density = 2.319001 g / cm^3
# Si number density = 23.242909 Si / 1000 Ang^3
#
#
#
# Elastic Constant Matrix: (Units=GPa)
#
#
# Indices 1 2 3 4 5 6 
#
# 1 133.8021 25.8960 28.7898 0.0000 1.3747 0.0000
# 2 25.8960 52.0599 21.3596 0.0000 10.8940 0.0000
# 3 28.7898 21.3596 118.2471 0.0000 2.7897 0.0000
# 4 0.0000 0.0000 0.0000 21.3445 0.0000 5.1395
# 5 1.3747 10.8940 2.7897 0.0000 36.1036 0.0000
# 6 0.0000 0.0000 0.0000 5.1395 0.0000 16.5634
#
#
#
# Elastic Compliance Matrix: (Units=1/GPa)
#
#
# Indices 1 2 3 4 5 6 
#
# 1 0.008512 -0.003859 -0.001398 0.000000 0.000948 0.000000
# 2 -0.003859 0.023870 -0.003212 0.000000 -0.006808 0.000000
# 3 -0.001398 -0.003212 0.009370 0.000000 0.000298 0.000000
# 4 0.000000 0.000000 0.000000 0.050633 0.000000 -0.015711
# 5 0.000948 -0.006808 0.000298 0.000000 0.029693 0.000000
# 6 0.000000 0.000000 0.000000 -0.015711 0.000000 0.065249
#
#
# Mechanical properties :
#
#
# Convention : Reuss Voigt Hill
#
# Bulk Modulus (GPa) = 40.29691 50.68886 45.49289
# Shear Modulus (GPa) = 23.52540 30.00654 26.76597
#
# Velocity S-wave (km/s) = 3.18489 3.59694 3.39717
# Velocity P-wave (km/s) = 5.55874 6.25351 5.91633
#
# Compressibility (1/GPa) = 0.02481580
#
# Stress axis : x y z
#
# Youngs Moduli (GPa) = 117.48737 41.89280 106.72053
#
# Poissons Ratio (x) = 0.16166 0.14916
# Poissons Ratio (y) = 0.45337 0.34276
# Poissons Ratio (z) = 0.16421 0.13455
#
# Static dielectric constant tensor:
#      x y z
#    x 4.057130 0.000000 -0.074160 
#    y 0.000000 3.952870 0.000000 
#    z -0.074160 0.000000 4.362100 
# 
# 
# High freq. dielectric constant tensor:
#      x y z
#    x 1.920430 0.000000 -0.003750 
#    y 0.000000 1.886410 0.000000 
#    z -0.003750 0.000000 1.933690 
# 
# From -- ./inp_files/5195.got.cif
#   From: 2010.03.12/outbox.cif.g09.slc.cpg/sg5_3_cif.got.tgz:5195.got - 2010.03.31 09:47:26.
