data_PCOD8050204
_publ_section_title
;
Structure prediction by ZEFSAII (Michael W. Deem and Ramdas Pophale) SiO2 
 PCOD8050204
Probable space group: C 2
;
_chemical_formula_sum "Si O2"
_cell_formula_units_Z 22
_cell_length_a 7.414639
_cell_length_b 11.965159
_cell_length_c 16.019486
_cell_angle_alpha 90.000000
_cell_angle_beta 41.132262
_cell_angle_gamma 90.000000
_cell_volume 934.868600
_symmetry_space_group_name_H-M "C 2"
_symmetry_group_IT_number 5
_symmetry_cell_setting 'monoclinic'
loop_
_space_group_symop_operation_xyz
x,y,z
-x,y,-z
1/2+x,1/2+y,z
1/2-x,1/2+y,-z
loop_
_atom_site_type_symbol
_atom_site_label
_atom_site_fract_x
_atom_site_fract_y
_atom_site_fract_z
Si Si1 0.572802 0.358580 0.604222
Si Si2 0.176822 0.083919 0.355737
Si Si3 0.500000 0.838509 0.000000
Si Si4 0.110396 0.321111 0.333400
Si Si5 0.729119 0.172685 0.220787
Si Si6 0.991541 0.963872 0.905242
O O1 0.387202 0.468815 0.669229
O O2 0.726115 0.348943 0.638859
O O3 0.380323 0.246802 0.662360
O O4 0.795112 0.365449 0.451367
O O5 0.102094 0.187930 0.321296
O O6 0.496364 0.089404 0.266354
O O7 0.000000 0.099923 0.500000
O O8 0.310607 0.762922 0.123542
O O9 0.304829 0.916809 0.013472
O O10 0.262744 0.378611 0.203293
O O11 0.970778 0.083966 0.156459
O O12 0.000000 0.987904 0.000000
#
# Coordination Sequence:
#
# PCOD8050204 Si02
#       6
#     4   4   2   4   4   4
#     4  10  21  41  75 102 142 191 233 304 381 417
#     4  11  20  42  74 103 149 188 230 309 373 429
#     4  12  26  52  68 104 154 190 246 316 350 424
#     4  10  21  45  68 108 147 186 239 309 367 426
#     4  11  24  46  70 103 145 187 246 304 357 427
#     4  12  27  49  77 105 148 203 249 292 367 444
#
# _framework density 23.532719
#
# number of rings (size 3 to 8) (size 9 to 14) (size 15 to 20)
#    0.000    1.091    8.182    1.091    2.545    0.000 
#    4.909    0.000    0.000    0.000    0.000    0.000 
#    0.000    0.000    0.000    0.000    0.000    0.000 
#
# Total GULP energy -136381.047820 kJ/mol
# GULP energy per Si atom -12398.277075 kJ/mol
# Density = 2.347916 g / cm^3
# Si number density = 23.532719 Si / 1000 Ang^3
#
#
#
# Elastic Constant Matrix: (Units=GPa)
#
#
# Indices 1 2 3 4 5 6 
#
# 1 42.9795 52.1890 27.0541 -0.0045 -20.5444 0.0046
# 2 52.1890 191.3494 44.7876 -0.0053 -15.5949 0.0038
# 3 27.0541 44.7876 122.3071 -0.0078 -14.4604 0.0053
# 4 -0.0045 -0.0053 -0.0078 25.2449 0.0037 -12.9040
# 5 -20.5444 -15.5949 -14.4604 0.0037 25.8691 -0.0036
# 6 0.0046 0.0038 0.0053 -12.9040 -0.0036 38.7450
#
#
#
# Elastic Compliance Matrix: (Units=1/GPa)
#
#
# Indices 1 2 3 4 5 6 
#
# 1 0.057454 -0.011752 -0.004121 0.000000 0.036240 -0.000002
# 2 -0.011752 0.008267 -0.001009 0.000000 -0.004913 0.000000
# 3 -0.004121 -0.001009 0.009635 0.000002 0.001505 0.000000
# 4 0.000000 0.000000 0.000002 0.047739 -0.000003 0.015900
# 5 0.036240 -0.004913 0.001505 -0.000003 0.065316 0.000001
# 6 -0.000002 0.000000 0.000000 0.015900 0.000001 0.031105
#
#
# Mechanical properties :
#
#
# Convention : Reuss Voigt Hill
#
# Bulk Modulus (GPa) = 24.04241 67.18860 45.61551
# Shear Modulus (GPa) = 18.71658 33.47882 26.09770
#
# Velocity S-wave (km/s) = 2.82324 3.77590 3.33377
# Velocity P-wave (km/s) = 4.56797 6.90094 5.85189
#
# Compressibility (1/GPa) = 0.04159317
#
# Stress axis : x y z
#
# Youngs Moduli (GPa) = 17.40532 120.96335 103.78912
#
# Poissons Ratio (x) = 1.42156 0.42767
# Poissons Ratio (y) = 0.20455 0.10469
# Poissons Ratio (z) = 0.07172 0.12201
#
# Static dielectric constant tensor:
#      x y z
#    x 3.813320 0.000000 -0.440480 
#    y 0.000000 4.584160 0.000000 
#    z -0.440480 0.000000 4.728280 
# 
# 
# High freq. dielectric constant tensor:
#      x y z
#    x 1.892890 0.000000 -0.025590 
#    y 0.000000 1.952070 0.000000 
#    z -0.025590 0.000000 1.946550 
# 
# From -- ./inp_files/59465.got.cif
#   From: 2010.03.12/outbox.cif.g09.slc.cpg/sg5_30_cif.got.tgz:59465.got - 2010.03.31 09:47:26.
