data_PCOD8050317
_publ_section_title
;
Structure prediction by ZEFSAII (Michael W. Deem and Ramdas Pophale) SiO2 
 PCOD8050317
Probable space group: C 2
;
_chemical_formula_sum "Si O2"
_cell_formula_units_Z 24
_cell_length_a 9.581619
_cell_length_b 11.450149
_cell_length_c 10.616312
_cell_angle_alpha 90.000000
_cell_angle_beta 94.596998
_cell_angle_gamma 90.000000
_cell_volume 1160.979006
_symmetry_space_group_name_H-M "C 2"
_symmetry_group_IT_number 5
_symmetry_cell_setting 'monoclinic'
loop_
_space_group_symop_operation_xyz
x,y,z
-x,y,-z
1/2+x,1/2+y,z
1/2-x,1/2+y,-z
loop_
_atom_site_type_symbol
_atom_site_label
_atom_site_fract_x
_atom_site_fract_y
_atom_site_fract_z
Si Si1 0.500000 0.928270 0.500000
Si Si2 0.747280 0.542179 0.356133
Si Si3 0.000000 0.079346 0.500000
Si Si4 0.168889 0.863874 0.149785
Si Si5 0.886341 0.175234 0.234483
Si Si6 0.649946 0.792882 0.294093
Si Si7 0.141851 0.919975 0.865781
O O1 0.596200 0.849614 0.418624
O O2 0.400232 0.013186 0.415434
O O3 0.620759 0.502027 0.441726
O O4 0.728275 0.476730 0.223670
O O5 0.741970 0.680564 0.336401
O O6 0.079790 0.154791 0.614210
O O7 0.242236 0.745698 0.205323
O O8 0.003385 0.850599 0.163564
O O9 0.202359 0.887873 0.006368
O O10 0.017626 0.254348 0.196970
O O11 0.883156 0.058173 0.151592
O O12 0.745319 0.885002 0.229412
#
# Coordination Sequence:
#
# PCOD8050317 Si02
#       7
#     2   4   2   4   4   4   4
#     4  12  25  44  67 106 140 171 228 283 344 410
#     4  11  24  43  68 100 137 175 226 282 338 407
#     4  10  21  44  73  96 132 181 218 279 348 392
#     4  11  25  44  68  98 139 176 231 279 331 406
#     4  11  23  46  70  98 139 172 230 287 332 406
#     4  11  24  44  71  99 132 180 224 276 349 393
#     4  11  26  45  69  99 133 190 226 276 342 396
#
# _framework density 20.672207
#
# number of rings (size 3 to 8) (size 9 to 14) (size 15 to 20)
#    0.000    1.000    5.000    3.000    2.333    3.333 
#    0.000    0.000    0.000    0.000    0.000    0.000 
#    0.000    0.000    0.000    0.000    0.000    0.000 
#
# Total GULP energy -148768.322710 kJ/mol
# GULP energy per Si atom -12397.360226 kJ/mol
# Density = 2.062516 g / cm^3
# Si number density = 20.672207 Si / 1000 Ang^3
#
#
#
# Elastic Constant Matrix: (Units=GPa)
#
#
# Indices 1 2 3 4 5 6 
#
# 1 107.5980 55.7932 61.6623 0.0000 10.3385 0.0000
# 2 55.7932 93.5826 37.3164 0.0000 9.3998 0.0000
# 3 61.6623 37.3164 123.0034 0.0000 10.4323 0.0000
# 4 0.0000 0.0000 0.0000 19.6353 0.0000 -8.2599
# 5 10.3385 9.3998 10.4323 0.0000 41.8950 0.0000
# 6 0.0000 0.0000 0.0000 -8.2599 0.0000 21.6338
#
#
#
# Elastic Compliance Matrix: (Units=1/GPa)
#
#
# Indices 1 2 3 4 5 6 
#
# 1 0.016712 -0.007463 -0.006034 0.000000 -0.000947 0.000000
# 2 -0.007463 0.015630 -0.000878 0.000000 -0.001447 0.000000
# 3 -0.006034 -0.000878 0.011521 0.000000 -0.001183 0.000000
# 4 0.000000 0.000000 0.000000 0.060674 0.000000 0.023165
# 5 -0.000947 -0.001447 -0.001183 0.000000 0.024722 0.000000
# 6 0.000000 0.000000 0.000000 0.023165 0.000000 0.055069
#
#
# Mechanical properties :
#
#
# Convention : Reuss Voigt Hill
#
# Bulk Modulus (GPa) = 66.15879 70.41419 68.28649
# Shear Modulus (GPa) = 22.92366 27.92697 25.42531
#
# Velocity S-wave (km/s) = 3.33365 3.67950 3.51084
# Velocity P-wave (km/s) = 6.84769 7.22412 7.03842
#
# Compressibility (1/GPa) = 0.01511515
#
# Stress axis : x y z
#
# Youngs Moduli (GPa) = 59.83642 63.97798 86.79589
#
# Poissons Ratio (x) = 0.47744 0.52369
# Poissons Ratio (y) = 0.44654 0.07622
# Poissons Ratio (z) = 0.36103 0.05618
#
# Static dielectric constant tensor:
#      x y z
#    x 4.050710 0.000000 0.092080 
#    y 0.000000 3.664180 0.000000 
#    z 0.092080 0.000000 3.799060 
# 
# 
# High freq. dielectric constant tensor:
#      x y z
#    x 1.816910 0.000000 0.006320 
#    y 0.000000 1.802280 0.000000 
#    z 0.006320 0.000000 1.811050 
# 
# From -- ./inp_files/35441.got.cif
#   From: 2010.03.12/outbox.cif.g09.slc.cpg/sg5_18_cif.got.tgz:35441.got - 2010.03.31 09:47:26.
