data_PCOD8050217
_publ_section_title
;
Structure prediction by ZEFSAII (Michael W. Deem and Ramdas Pophale) SiO2 
 PCOD8050217
Probable space group: C 2
;
_chemical_formula_sum "Si O2"
_cell_formula_units_Z 20
_cell_length_a 26.647071
_cell_length_b 4.848257
_cell_length_c 12.790314
_cell_angle_alpha 90.000000
_cell_angle_beta 31.609016
_cell_angle_gamma 90.000000
_cell_volume 866.058024
_symmetry_space_group_name_H-M "C 2"
_symmetry_group_IT_number 5
_symmetry_cell_setting 'monoclinic'
loop_
_space_group_symop_operation_xyz
x,y,z
-x,y,-z
1/2+x,1/2+y,z
1/2-x,1/2+y,-z
loop_
_atom_site_type_symbol
_atom_site_label
_atom_site_fract_x
_atom_site_fract_y
_atom_site_fract_z
Si Si1 0.437876 0.988890 0.830157
Si Si2 0.148424 0.003597 0.914370
Si Si3 0.754796 0.703575 0.422746
Si Si4 0.149194 0.371369 0.420970
Si Si5 0.186675 0.239418 0.129682
O O1 0.394857 0.850753 0.802852
O O2 0.551305 0.031810 0.617274
O O3 0.412817 0.784294 0.972356
O O4 0.393807 0.287285 0.927067
O O5 0.151081 0.855346 0.795106
O O6 0.259162 0.080039 0.749755
O O7 0.781421 0.401880 0.418453
O O8 0.673221 0.669630 0.477318
O O9 0.141108 0.206688 0.326299
O O10 0.278855 0.439414 0.967186
#
# Coordination Sequence:
#
# PCOD8050217 Si02
#       5
#     4   4   4   4   4
#     4  12  22  43  63  96 124 164 204 248 310 373
#     4  10  24  41  65  88 131 155 207 257 304 359
#     4  10  21  42  64  87 123 163 201 259 310 350
#     4  10  25  40  68  91 125 165 207 252 306 368
#     4  12  21  40  63  90 128 165 195 253 308 362
#
# _framework density 23.093140999999999
#
# number of rings (size 3 to 8) (size 9 to 14) (size 15 to 20)
#    1.200    0.000    4.000    1.800    0.000    6.400 
#    0.000   10.000    0.000    0.000    0.000    0.000 
#    0.000    0.000    0.000    0.000    0.000    0.000 
#
# Total GULP energy -123900.000239 kJ/mol
# GULP energy per Si atom -12390.000024 kJ/mol
# Density = 2.304058 g / cm^3
# Si number density = 23.093141 Si / 1000 Ang^3
#
#
#
# Elastic Constant Matrix: (Units=GPa)
#
#
# Indices 1 2 3 4 5 6 
#
# 1 61.5469 0.5045 31.9468 -0.0060 6.7517 0.0007
# 2 0.5045 74.2854 15.4499 -0.0078 -13.3963 0.0003
# 3 31.9468 15.4499 120.2264 0.0009 -25.6413 -0.0014
# 4 -0.0060 -0.0078 0.0009 18.4544 -0.0026 6.1400
# 5 6.7517 -13.3963 -25.6413 -0.0026 43.1465 0.0003
# 6 0.0007 0.0003 -0.0014 6.1400 0.0003 22.6075
#
#
#
# Elastic Compliance Matrix: (Units=1/GPa)
#
#
# Indices 1 2 3 4 5 6 
#
# 1 0.020758 -0.000011 -0.007109 0.000007 -0.007476 -0.000003
# 2 -0.000011 0.014369 -0.001021 0.000007 0.003856 -0.000002
# 3 -0.007109 -0.001021 0.012033 -0.000003 0.007946 0.000002
# 4 0.000007 0.000007 -0.000003 0.059570 0.000003 -0.016179
# 5 -0.007476 0.003856 0.007946 0.000003 0.030266 -0.000001
# 6 -0.000003 -0.000002 0.000002 -0.016179 -0.000001 0.048627
#
#
# Mechanical properties :
#
#
# Convention : Reuss Voigt Hill
#
# Bulk Modulus (GPa) = 32.38535 39.09567 35.74051
# Shear Modulus (GPa) = 23.56281 30.71887 27.14084
#
# Velocity S-wave (km/s) = 3.19774 3.65117 3.43195
# Velocity P-wave (km/s) = 5.26197 5.89415 5.58701
#
# Compressibility (1/GPa) = 0.03087816
#
# Stress axis : x y z
#
# Youngs Moduli (GPa) = 48.17404 69.59185 83.10739
#
# Poissons Ratio (x) = 0.00074 0.59081
# Poissons Ratio (y) = 0.00052 0.08488
# Poissons Ratio (z) = 0.34247 0.07107
#
# Static dielectric constant tensor:
#      x y z
#    x 3.949650 0.000000 0.301910 
#    y 0.000000 3.848550 0.000000 
#    z 0.301910 0.000000 4.194120 
# 
# 
# High freq. dielectric constant tensor:
#      x y z
#    x 1.891350 0.000000 0.026500 
#    y 0.000000 1.893630 0.000000 
#    z 0.026500 0.000000 1.913360 
# 
# From -- ./inp_files/48200.got.cif
#   From: 2010.03.12/outbox.cif.g09.slc.cpg/sg5_25_cif.got.tgz:48200.got - 2010.03.31 09:47:26.
