data_PCOD8050745
_publ_section_title
;
Structure prediction by ZEFSAII (Michael W. Deem and Ramdas Pophale) SiO2 
 PCOD8050745
Probable space group: C 2
;
_chemical_formula_sum "Si O2"
_cell_formula_units_Z 26
_cell_length_a 22.043808
_cell_length_b 8.509454
_cell_length_c 11.757540
_cell_angle_alpha 90.000000
_cell_angle_beta 148.255615
_cell_angle_gamma 90.000000
_cell_volume 1160.374910
_symmetry_space_group_name_H-M "C 2"
_symmetry_group_IT_number 5
_symmetry_cell_setting 'monoclinic'
loop_
_space_group_symop_operation_xyz
x,y,z
-x,y,-z
1/2+x,1/2+y,z
1/2-x,1/2+y,-z
loop_
_atom_site_type_symbol
_atom_site_label
_atom_site_fract_x
_atom_site_fract_y
_atom_site_fract_z
Si Si1 0.124026 0.030590 0.392704
Si Si2 0.344096 0.088268 0.858120
Si Si3 0.715101 0.253786 0.029734
Si Si4 0.036420 0.799495 0.438265
Si Si5 0.544605 0.760473 0.945526
Si Si6 0.500000 0.343870 0.000000
Si Si7 0.251405 0.109963 0.151142
O O1 0.263302 0.049857 0.619445
O O2 0.095017 0.930799 0.456829
O O3 0.084136 0.947870 0.212594
O O4 0.060720 0.200842 0.302423
O O5 0.257295 0.131832 0.823935
O O6 0.425813 0.942798 0.022396
O O7 0.423201 0.237201 0.959213
O O8 0.753940 0.427007 0.126551
O O9 0.577174 0.233076 0.801988
O O10 0.776610 0.205370 0.010127
O O11 0.124747 0.655986 0.600406
O O12 0.000000 0.878327 0.500000
O O13 0.654707 0.651155 0.090736
O O14 0.500000 0.725329 0.000000
#
# Coordination Sequence:
#
# PCOD8050745 Si02
#       7
#     4   4   4   4   4   2   4
#     4  12  26  45  71 101 141 194 234 291 361 422
#     4  12  27  44  71 106 138 192 241 296 355 429
#     4  11  24  47  73 106 142 188 241 296 363 419
#     4  10  22  42  72 103 140 182 234 293 354 418
#     4  12  25  44  68 105 144 183 240 291 351 430
#     4  12  26  46  66 100 150 182 238 298 354 428
#     4  11  23  44  77 102 146 190 234 301 357 425
#
# _framework density 22.406552000000001
#
# number of rings (size 3 to 8) (size 9 to 14) (size 15 to 20)
#    0.000    0.615    6.154    0.923    4.308    1.231 
#    0.000    1.538    0.000    0.000    0.000    0.000 
#    0.000    0.000    0.000    0.000    0.000    0.000 
#
# Total GULP energy -161166.365495 kJ/mol
# GULP energy per Si atom -12397.412730 kJ/mol
# Density = 2.235555 g / cm^3
# Si number density = 22.406552 Si / 1000 Ang^3
#
#
#
# Elastic Constant Matrix: (Units=GPa)
#
#
# Indices 1 2 3 4 5 6 
#
# 1 110.9798 44.0552 21.7825 0.0000 -7.3933 0.0000
# 2 44.0552 156.2171 57.5876 0.0000 -10.8542 0.0000
# 3 21.7825 57.5876 96.0279 0.0000 -6.3541 0.0000
# 4 0.0000 0.0000 0.0000 39.5504 0.0000 -1.0480
# 5 -7.3933 -10.8542 -6.3541 0.0000 28.6831 0.0000
# 6 0.0000 0.0000 0.0000 -1.0480 0.0000 30.4537
#
#
#
# Elastic Compliance Matrix: (Units=1/GPa)
#
#
# Indices 1 2 3 4 5 6 
#
# 1 0.010254 -0.002523 -0.000712 0.000000 0.001531 0.000000
# 2 -0.002523 0.008959 -0.004688 0.000000 0.001702 0.000000
# 3 -0.000712 -0.004688 0.013454 0.000000 0.001023 0.000000
# 4 0.000000 0.000000 0.000000 0.025307 0.000000 0.000871
# 5 0.001531 0.001702 0.001023 0.000000 0.036129 0.000000
# 6 0.000000 0.000000 0.000000 0.000871 0.000000 0.032867
#
#
# Mechanical properties :
#
#
# Convention : Reuss Voigt Hill
#
# Bulk Modulus (GPa) = 59.44578 67.78615 63.61597
# Shear Modulus (GPa) = 33.68766 35.72410 34.70588
#
# Velocity S-wave (km/s) = 3.88167 3.99727 3.93990
# Velocity P-wave (km/s) = 6.83213 7.18490 7.01073
#
# Compressibility (1/GPa) = 0.01682205
#
# Stress axis : x y z
#
# Youngs Moduli (GPa) = 97.52439 111.61650 74.32692
#
# Poissons Ratio (x) = 0.28161 0.05289
# Poissons Ratio (y) = 0.24606 0.34844
# Poissons Ratio (z) = 0.06940 0.52325
#
# Static dielectric constant tensor:
#      x y z
#    x 4.204130 0.000000 -0.077780 
#    y 0.000000 4.028110 0.000000 
#    z -0.077780 0.000000 4.234390 
# 
# 
# High freq. dielectric constant tensor:
#      x y z
#    x 1.892180 0.000000 -0.006130 
#    y 0.000000 1.884390 0.000000 
#    z -0.006130 0.000000 1.881470 
# 
# From -- ./inp_files/47378.got.cif
#   From: 2010.03.12/outbox.cif.g09.slc.cpg/sg5_24_cif.got.tgz:47378.got - 2010.03.31 09:47:26.
