data_PCOD8050462
_publ_section_title
;
Structure prediction by ZEFSAII (Michael W. Deem and Ramdas Pophale) SiO2 
 PCOD8050462
Probable space group: C 2
;
_chemical_formula_sum "Si O2"
_cell_formula_units_Z 30
_cell_length_a 9.311262
_cell_length_b 11.347581
_cell_length_c 16.311274
_cell_angle_alpha 90.000000
_cell_angle_beta 55.813728
_cell_angle_gamma 90.000000
_cell_volume 1425.667471
_symmetry_space_group_name_H-M "C 2"
_symmetry_group_IT_number 5
_symmetry_cell_setting 'monoclinic'
loop_
_space_group_symop_operation_xyz
x,y,z
-x,y,-z
1/2+x,1/2+y,z
1/2-x,1/2+y,-z
loop_
_atom_site_type_symbol
_atom_site_label
_atom_site_fract_x
_atom_site_fract_y
_atom_site_fract_z
Si Si1 0.102715 0.966140 0.667231
Si Si2 0.869058 0.345977 0.470822
Si Si3 0.773792 0.850093 0.737050
Si Si4 0.815112 0.678382 0.582816
Si Si5 0.089034 0.843930 0.839909
Si Si6 0.000000 0.028104 0.000000
Si Si7 0.450755 0.925955 0.749636
Si Si8 0.834327 0.666301 0.855410
O O1 0.221339 0.932326 0.551859
O O2 0.125251 0.876678 0.734375
O O3 0.899227 0.964271 0.708014
O O4 0.174750 0.093044 0.671637
O O5 0.777389 0.227580 0.468735
O O6 0.000000 0.307553 0.500000
O O7 0.968589 0.413154 0.366111
O O8 0.856163 0.780942 0.633964
O O9 0.579818 0.890507 0.780999
O O10 0.768310 0.773070 0.820664
O O11 0.000000 0.617404 0.500000
O O12 0.283658 0.839310 0.815829
O O13 0.989656 0.945791 0.922349
O O14 0.977141 0.721503 0.874343
O O15 0.169392 0.110662 0.954715
O O16 0.412781 0.064471 0.772591
#
# Coordination Sequence:
#
# PCOD8050462 Si02
#       8
#     4   4   4   4   4   2   4   4
#     4  11  22  39  61  87 125 169 211 253 300 364
#     4  11  22  38  57  92 128 171 215 249 295 367
#     4  10  23  41  59  92 124 162 217 254 295 371
#     4  11  22  37  58  85 125 172 208 256 301 346
#     4  10  22  42  66  95 125 156 212 258 311 385
#     4  10  22  42  66  98 118 160 200 262 326 378
#     4  10  22  39  64  92 131 166 207 253 303 360
#     4  10  23  43  69  90 126 164 199 260 322 369
#
# _framework density 21.042774999999999
#
# number of rings (size 3 to 8) (size 9 to 14) (size 15 to 20)
#    0.000    1.600    2.667    2.000    1.867    4.267 
#    4.800    2.667    0.000    0.000    0.000    0.000 
#    0.000    0.000    0.000    0.000    0.000    0.000 
#
# Total GULP energy -185927.085913 kJ/mol
# GULP energy per Si atom -12395.139061 kJ/mol
# Density = 2.099488 g / cm^3
# Si number density = 21.042775 Si / 1000 Ang^3
#
#
#
# Elastic Constant Matrix: (Units=GPa)
#
#
# Indices 1 2 3 4 5 6 
#
# 1 149.4277 50.9594 40.5856 0.0000 -30.4786 0.0000
# 2 50.9594 84.2405 36.7759 0.0000 -19.2375 0.0000
# 3 40.5856 36.7759 95.2499 0.0000 -23.9344 0.0000
# 4 0.0000 0.0000 0.0000 34.8075 0.0000 -4.4515
# 5 -30.4786 -19.2375 -23.9344 0.0000 28.2801 0.0000
# 6 0.0000 0.0000 0.0000 -4.4515 0.0000 37.8889
#
#
#
# Elastic Compliance Matrix: (Units=1/GPa)
#
#
# Indices 1 2 3 4 5 6 
#
# 1 0.009690 -0.003870 -0.000853 0.000000 0.007088 0.000000
# 2 -0.003870 0.016801 -0.003828 0.000000 0.004018 0.000000
# 3 -0.000853 -0.003828 0.014549 0.000000 0.008790 0.000000
# 4 0.000000 0.000000 0.000000 0.029168 0.000000 0.003427
# 5 0.007088 0.004018 0.008790 0.000000 0.053171 0.000000
# 6 0.000000 0.000000 0.000000 0.003427 0.000000 0.026796
#
#
# Mechanical properties :
#
#
# Convention : Reuss Voigt Hill
#
# Bulk Modulus (GPa) = 41.77842 65.06221 53.42032
# Shear Modulus (GPa) = 28.52973 33.56846 31.04910
#
# Velocity S-wave (km/s) = 3.68611 3.99839 3.84542
# Velocity P-wave (km/s) = 6.16552 7.23203 6.71997
#
# Compressibility (1/GPa) = 0.02393580
#
# Stress axis : x y z
#
# Youngs Moduli (GPa) = 103.20373 59.52129 68.73355
#
# Poissons Ratio (x) = 0.23037 0.05865
# Poissons Ratio (y) = 0.39944 0.26311
# Poissons Ratio (z) = 0.08807 0.22785
#
# Static dielectric constant tensor:
#      x y z
#    x 4.195420 0.000000 -0.158330 
#    y 0.000000 3.844840 0.000000 
#    z -0.158330 0.000000 3.689610 
# 
# 
# High freq. dielectric constant tensor:
#      x y z
#    x 1.837490 0.000000 -0.009690 
#    y 0.000000 1.807120 0.000000 
#    z -0.009690 0.000000 1.817120 
# 
# From -- ./inp_files/59573.got.cif
#   From: 2010.03.12/outbox.cif.g09.slc.cpg/sg5_30_cif.got.tgz:59573.got - 2010.03.31 09:47:26.
