data_PCOD8050912
_publ_section_title
;
Structure prediction by ZEFSAII (Michael W. Deem and Ramdas Pophale) SiO2 
 PCOD8050912
Probable space group: C 2
;
_chemical_formula_sum "Si O2"
_cell_formula_units_Z 20
_cell_length_a 15.388092
_cell_length_b 8.791223
_cell_length_c 11.030380
_cell_angle_alpha 90.000000
_cell_angle_beta 29.897873
_cell_angle_gamma 90.000000
_cell_volume 743.791117
_symmetry_space_group_name_H-M "C 2"
_symmetry_group_IT_number 5
_symmetry_cell_setting 'monoclinic'
loop_
_space_group_symop_operation_xyz
x,y,z
-x,y,-z
1/2+x,1/2+y,z
1/2-x,1/2+y,-z
loop_
_atom_site_type_symbol
_atom_site_label
_atom_site_fract_x
_atom_site_fract_y
_atom_site_fract_z
Si Si1 0.908709 0.929390 0.497896
Si Si2 0.105478 0.406908 0.695847
Si Si3 0.655596 0.636733 0.054633
Si Si4 0.687240 0.477035 0.790875
Si Si5 0.836539 0.651946 0.075922
O O1 0.753781 0.842566 0.610690
O O2 0.000000 0.833702 0.500000
O O3 0.043037 0.992262 0.236206
O O4 0.830673 0.072862 0.663890
O O5 0.190597 0.478873 0.473175
O O6 0.967584 0.278441 0.829551
O O7 0.010515 0.548879 0.875514
O O8 0.768434 0.575155 0.803469
O O9 0.796762 0.688657 0.982622
O O10 0.500000 0.560008 0.000000
O O11 0.637563 0.306252 0.885573
#
# Coordination Sequence:
#
# PCOD8050912 Si02
#       5
#     4   4   4   4   4
#     4  10  22  45  73 104 146 195 243 299 369 437
#     4  12  25  47  78 106 150 198 241 306 373 424
#     4  11  25  46  73 110 147 189 250 302 356 444
#     4  12  25  45  76 105 147 192 247 297 366 440
#     4  11  25  46  75 106 147 198 239 297 375 439
#
# _framework density 26.889271000000001
#
# number of rings (size 3 to 8) (size 9 to 14) (size 15 to 20)
#    0.000    0.800    4.000    3.000    0.000    4.000 
#    3.600    0.000    0.000    0.000    0.000    0.000 
#    0.000    0.000    0.000    0.000    0.000    0.000 
#
# Total GULP energy -123959.540086 kJ/mol
# GULP energy per Si atom -12395.954009 kJ/mol
# Density = 2.682807 g / cm^3
# Si number density = 26.889271 Si / 1000 Ang^3
#
#
#
# Elastic Constant Matrix: (Units=GPa)
#
#
# Indices 1 2 3 4 5 6 
#
# 1 162.0506 -3.2359 31.2338 0.0000 -4.3146 0.0000
# 2 -3.2359 25.4869 15.9493 0.0000 -2.7092 0.0000
# 3 31.2338 15.9493 119.5018 0.0000 26.2692 0.0000
# 4 0.0000 0.0000 0.0000 15.4099 0.0000 1.4726
# 5 -4.3146 -2.7092 26.2692 0.0000 51.8023 0.0000
# 6 0.0000 0.0000 0.0000 1.4726 0.0000 39.0688
#
#
#
# Elastic Compliance Matrix: (Units=1/GPa)
#
#
# Indices 1 2 3 4 5 6 
#
# 1 0.006773 0.002681 -0.002569 0.000000 0.002007 0.000000
# 2 0.002681 0.045468 -0.008262 0.000000 0.006791 0.000000
# 3 -0.002569 -0.008262 0.011575 0.000000 -0.006516 0.000000
# 4 0.000000 0.000000 0.000000 0.065128 0.000000 -0.002455
# 5 0.002007 0.006791 -0.006516 0.000000 0.023131 0.000000
# 6 0.000000 0.000000 0.000000 -0.002455 0.000000 0.025688
#
#
# Mechanical properties :
#
#
# Convention : Reuss Voigt Hill
#
# Bulk Modulus (GPa) = 21.04573 43.88152 32.46362
# Shear Modulus (GPa) = 23.82066 38.79567 31.30817
#
# Velocity S-wave (km/s) = 2.97960 3.80253 3.41594
# Velocity P-wave (km/s) = 4.43635 5.96940 5.25904
#
# Compressibility (1/GPa) = 0.04751559
#
# Stress axis : x y z
#
# Youngs Moduli (GPa) = 147.64253 21.99336 86.39615
#
# Poissons Ratio (x) = -0.05897 0.22198
# Poissons Ratio (y) = -0.39585 0.71380
# Poissons Ratio (z) = 0.37935 0.18171
#
# Static dielectric constant tensor:
#      x y z
#    x 5.775900 0.000000 0.035120 
#    y 0.000000 4.444240 0.000000 
#    z 0.035120 0.000000 4.984860 
# 
# 
# High freq. dielectric constant tensor:
#      x y z
#    x 2.113820 0.000000 0.015340 
#    y 0.000000 2.056520 0.000000 
#    z 0.015340 0.000000 2.083150 
# 
# From -- ./inp_files/44284.got.cif
#   From: 2010.03.12/outbox.cif.g09.slc.cpg/sg5_23_cif.got.tgz:44284.got - 2010.03.31 09:47:26.
