data_PCOD8050746
_publ_section_title
;
Structure prediction by ZEFSAII (Michael W. Deem and Ramdas Pophale) SiO2 
 PCOD8050746
Probable space group: C 2
;
_chemical_formula_sum "Si O2"
_cell_formula_units_Z 28
_cell_length_a 8.611598
_cell_length_b 17.172710
_cell_length_c 13.637725
_cell_angle_alpha 90.000000
_cell_angle_beta 142.690562
_cell_angle_gamma 90.000000
_cell_volume 1222.426387
_symmetry_space_group_name_H-M "C 2"
_symmetry_group_IT_number 5
_symmetry_cell_setting 'monoclinic'
loop_
_space_group_symop_operation_xyz
x,y,z
-x,y,-z
1/2+x,1/2+y,z
1/2-x,1/2+y,-z
loop_
_atom_site_type_symbol
_atom_site_label
_atom_site_fract_x
_atom_site_fract_y
_atom_site_fract_z
Si Si1 0.768891 0.672990 0.184035
Si Si2 0.105292 0.225967 0.304894
Si Si3 0.475307 0.881084 0.150852
Si Si4 0.086899 0.534993 0.303229
Si Si5 0.601456 0.412603 0.797320
Si Si6 0.954077 0.070482 0.320309
Si Si7 0.272987 0.276354 0.591723
O O1 0.773934 0.689462 0.302660
O O2 0.825944 0.581914 0.194006
O O3 0.999690 0.722351 0.250114
O O4 0.500000 0.697465 0.000000
O O5 0.937283 0.155595 0.264263
O O6 0.276442 0.264189 0.476281
O O7 0.932036 0.296049 0.175671
O O8 0.716176 0.880150 0.197724
O O9 0.523168 0.943156 0.262973
O O10 0.218339 0.901006 0.963341
O O11 0.198425 0.561662 0.255029
O O12 0.289273 0.556261 0.488749
O O13 0.548491 0.504377 0.764247
O O14 0.335397 0.365348 0.652426
O O15 0.000000 0.250671 0.500000
#
# Coordination Sequence:
#
# PCOD8050746 Si02
#       7
#     4   4   4   4   4   4   4
#     4  12  26  44  72 107 148 186 238 304 368 435
#     4  12  24  43  73 106 136 190 243 302 361 434
#     4  10  22  43  72 102 141 194 238 290 366 440
#     4  10  22  44  69 101 144 188 241 293 361 440
#     4  10  22  44  69 101 144 191 239 292 361 439
#     4  10  22  42  72 103 140 187 245 300 357 433
#     4  12  25  46  72 106 146 188 247 305 359 438
#
# _framework density 22.905265
#
# number of rings (size 3 to 8) (size 9 to 14) (size 15 to 20)
#    0.000    1.143    2.857    3.000    2.000    1.143 
#    5.143    5.714    0.000    0.000    0.000    0.000 
#    0.000    0.000    0.000    0.000    0.000    0.000 
#
# Total GULP energy -173603.800715 kJ/mol
# GULP energy per Si atom -12400.271480 kJ/mol
# Density = 2.285313 g / cm^3
# Si number density = 22.905265 Si / 1000 Ang^3
#
#
#
# Elastic Constant Matrix: (Units=GPa)
#
#
# Indices 1 2 3 4 5 6 
#
# 1 74.5602 47.3035 47.7757 -0.0038 2.8037 0.0001
# 2 47.3035 192.6043 51.5239 -0.0003 -11.4115 -0.0019
# 3 47.7757 51.5239 106.9573 -0.0208 4.0797 -0.0143
# 4 -0.0038 -0.0003 -0.0208 40.6256 -0.0093 -3.1303
# 5 2.8037 -11.4115 4.0797 -0.0093 30.1847 -0.0046
# 6 0.0001 -0.0019 -0.0143 -3.1303 -0.0046 40.9573
#
#
#
# Elastic Compliance Matrix: (Units=1/GPa)
#
#
# Indices 1 2 3 4 5 6 
#
# 1 0.020239 -0.003092 -0.007473 -0.000003 -0.002039 -0.000003
# 2 -0.003092 0.006652 -0.001940 -0.000001 0.003064 0.000000
# 3 -0.007473 -0.001940 0.013694 0.000006 -0.001890 0.000005
# 4 -0.000003 -0.000001 0.000006 0.024761 0.000007 0.001892
# 5 -0.002039 0.003064 -0.001890 0.000007 0.034733 0.000004
# 6 -0.000003 0.000000 0.000005 0.001892 0.000004 0.024560
#
#
# Mechanical properties :
#
#
# Convention : Reuss Voigt Hill
#
# Bulk Modulus (GPa) = 64.20729 74.14755 69.17742
# Shear Modulus (GPa) = 32.29118 37.52144 34.90631
#
# Velocity S-wave (km/s) = 3.75877 4.05175 3.90801
# Velocity P-wave (km/s) = 6.85057 7.37093 7.11551
#
# Compressibility (1/GPa) = 0.01557455
#
# Stress axis : x y z
#
# Youngs Moduli (GPa) = 49.40970 150.33051 73.02388
#
# Poissons Ratio (x) = 0.46488 0.54570
# Poissons Ratio (y) = 0.15279 0.14167
# Poissons Ratio (z) = 0.36923 0.29164
#
# Static dielectric constant tensor:
#      x y z
#    x 3.910020 -0.000010 -0.117320 
#    y -0.000010 4.350190 -0.000010 
#    z -0.117320 -0.000010 3.976460 
# 
# 
# High freq. dielectric constant tensor:
#      x y z
#    x 1.876980 0.000000 -0.009480 
#    y 0.000000 1.921040 0.000000 
#    z -0.009480 0.000000 1.898300 
# 
# From -- ./inp_files/51384.got.cif
#   From: 2010.03.12/outbox.cif.g09.slc.cpg/sg5_26_cif.got.tgz:51384.got - 2010.03.31 09:47:26.
