data_PCOD8050480
_publ_section_title
;
Structure prediction by ZEFSAII (Michael W. Deem and Ramdas Pophale) SiO2 
 PCOD8050480
Probable space group: C 2
;
_chemical_formula_sum "Si O2"
_cell_formula_units_Z 32
_cell_length_a 12.538307
_cell_length_b 12.543429
_cell_length_c 21.314604
_cell_angle_alpha 90.000000
_cell_angle_beta 151.304605
_cell_angle_gamma 90.000000
_cell_volume 1609.578225
_symmetry_space_group_name_H-M "C 2"
_symmetry_group_IT_number 5
_symmetry_cell_setting 'monoclinic'
loop_
_space_group_symop_operation_xyz
x,y,z
-x,y,-z
1/2+x,1/2+y,z
1/2-x,1/2+y,-z
loop_
_atom_site_type_symbol
_atom_site_label
_atom_site_fract_x
_atom_site_fract_y
_atom_site_fract_z
Si Si1 0.576706 0.445610 0.385947
Si Si2 0.561022 0.097531 0.371613
Si Si3 0.771097 0.937460 0.856127
Si Si4 0.759518 0.769456 0.624801
Si Si5 0.955523 0.761864 0.860082
Si Si6 0.605169 0.028985 0.121938
Si Si7 0.901000 0.773967 0.381891
Si Si8 0.428041 0.854591 0.123916
O O1 0.738948 0.537959 0.491458
O O2 0.696838 0.367878 0.399016
O O3 0.360683 0.497308 0.242691
O O4 0.504415 0.384827 0.411735
O O5 0.642731 0.158666 0.351521
O O6 0.467707 0.180421 0.371602
O O7 0.355679 0.020020 0.252770
O O8 0.827078 0.830174 0.846482
O O9 0.609660 0.915258 0.830609
O O10 0.000000 0.988928 0.000000
O O11 0.500000 0.753929 0.500000
O O12 0.871813 0.796230 0.748746
O O13 0.906484 0.638153 0.845450
O O14 0.218534 0.782008 0.998039
O O15 0.473555 0.937607 0.091480
O O16 0.500000 0.045771 0.000000
O O17 0.634970 0.777588 0.243491
O O18 0.000000 0.747461 0.500000
#
# Coordination Sequence:
#
# PCOD8050480 Si02
#       8
#     4   4   4   4   4   4   4   4
#     4  10  23  41  59  84 119 154 193 240 289 347
#     4  11  23  38  60  87 116 151 193 242 292 342
#     4  10  22  40  59  85 118 153 192 237 288 345
#     4  11  23  40  60  87 118 154 196 242 291 347
#     4  11  23  39  61  89 119 154 195 241 289 346
#     4  11  22  39  62  88 117 155 195 238 292 347
#     4  10  23  39  59  85 115 151 193 238 289 344
#     4  10  22  40  61  85 117 156 193 236 289 346
#
# _framework density 19.880984999999999
#
# number of rings (size 3 to 8) (size 9 to 14) (size 15 to 20)
#    0.000    1.500    0.000    4.875    0.000   11.000 
#    0.000    1.250    0.000    0.000    0.000    0.000 
#    0.000    0.000    0.000    0.000    0.000    0.000 
#
# Total GULP energy -198474.157893 kJ/mol
# GULP energy per Si atom -12404.634868 kJ/mol
# Density = 1.983574 g / cm^3
# Si number density = 19.880985 Si / 1000 Ang^3
#
#
#
# Elastic Constant Matrix: (Units=GPa)
#
#
# Indices 1 2 3 4 5 6 
#
# 1 90.1017 14.9166 46.6385 -0.0005 8.3068 0.0002
# 2 14.9166 72.1548 34.9451 0.0015 20.0028 0.0005
# 3 46.6385 34.9451 120.7828 0.0082 11.9176 0.0007
# 4 -0.0005 0.0015 0.0082 24.8822 0.0006 1.7020
# 5 8.3068 20.0028 11.9176 0.0006 35.5391 -0.0003
# 6 0.0002 0.0005 0.0007 1.7020 -0.0003 7.2051
#
#
#
# Elastic Compliance Matrix: (Units=1/GPa)
#
#
# Indices 1 2 3 4 5 6 
#
# 1 0.013949 0.000093 -0.005260 0.000002 -0.001549 0.000000
# 2 0.000093 0.018495 -0.004507 0.000001 -0.008920 -0.000001
# 3 -0.005260 -0.004507 0.011628 -0.000004 -0.000133 0.000000
# 4 0.000002 0.000001 -0.000004 0.040850 0.000000 -0.009650
# 5 -0.001549 -0.008920 -0.000133 0.000000 0.033565 0.000002
# 6 0.000000 -0.000001 0.000000 -0.009650 0.000002 0.141069
#
#
# Mechanical properties :
#
#
# Convention : Reuss Voigt Hill
#
# Bulk Modulus (GPa) = 40.44659 52.89328 46.66994
# Shear Modulus (GPa) = 17.41278 25.96123 21.68700
#
# Velocity S-wave (km/s) = 2.96269 3.61755 3.30637
# Velocity P-wave (km/s) = 5.66497 6.64166 6.17266
#
# Compressibility (1/GPa) = 0.02472396
#
# Stress axis : x y z
#
# Youngs Moduli (GPa) = 71.69103 54.06721 86.00233
#
# Poissons Ratio (x) = -0.00505 0.45240
# Poissons Ratio (y) = -0.00669 0.38761
# Poissons Ratio (z) = 0.37711 0.24368
#
# Static dielectric constant tensor:
#      x y z
#    x 3.646940 0.000010 -0.050590 
#    y 0.000010 3.629350 0.000000 
#    z -0.050590 0.000000 3.670270 
# 
# 
# High freq. dielectric constant tensor:
#      x y z
#    x 1.789170 0.000000 0.001510 
#    y 0.000000 1.777160 0.000000 
#    z 0.001510 0.000000 1.792700 
# 
# From -- ./inp_files/65347.got.cif
#   From: 2010.03.12/outbox.cif.g09.slc.cpg/sg5_33_cif.got.tgz:65347.got - 2010.03.31 09:47:26.
