data_PCOD8050409
_publ_section_title
;
Structure prediction by ZEFSAII (Michael W. Deem and Ramdas Pophale) SiO2 
 PCOD8050409
Probable space group: C 2
;
_chemical_formula_sum "Si O2"
_cell_formula_units_Z 26
_cell_length_a 5.083093
_cell_length_b 13.207029
_cell_length_c 18.210221
_cell_angle_alpha 90.000000
_cell_angle_beta 82.486477
_cell_angle_gamma 90.000000
_cell_volume 1212.002352
_symmetry_space_group_name_H-M "C 2"
_symmetry_group_IT_number 5
_symmetry_cell_setting 'monoclinic'
loop_
_space_group_symop_operation_xyz
x,y,z
-x,y,-z
1/2+x,1/2+y,z
1/2-x,1/2+y,-z
loop_
_atom_site_type_symbol
_atom_site_label
_atom_site_fract_x
_atom_site_fract_y
_atom_site_fract_z
Si Si1 0.989314 0.731940 0.315368
Si Si2 0.442262 0.259719 0.853911
Si Si3 0.566087 0.639787 0.618924
Si Si4 0.929744 0.352243 0.919376
Si Si5 0.909637 0.905945 0.420024
Si Si6 0.500000 0.779526 0.500000
Si Si7 0.280596 0.077491 0.950214
O O1 0.942659 0.752544 0.231730
O O2 0.247595 0.661591 0.317970
O O3 0.737718 0.671287 0.356365
O O4 0.059032 0.838244 0.353582
O O5 0.689948 0.284075 0.897818
O O6 0.299649 0.155063 0.882077
O O7 0.205783 0.342895 0.864406
O O8 0.584225 0.521147 0.603065
O O9 0.677655 0.702012 0.543550
O O10 0.832719 0.466674 0.916412
O O11 0.000000 0.318317 0.000000
O O12 0.620888 0.854316 0.433864
O O13 0.000000 0.888408 0.500000
O O14 0.500000 0.109644 0.000000
O O15 0.000000 0.081971 0.000000
#
# Coordination Sequence:
#
# PCOD8050409 Si02
#       7
#     4   4   4   4   4   2   4
#     4  11  27  43  61  98 133 168 218 260 321 399
#     4  12  24  42  66  92 137 176 205 264 326 381
#     4  11  24  41  64  91 126 163 214 268 326 377
#     4  11  23  41  68  98 125 166 221 264 310 378
#     4  11  23  40  68  91 125 169 218 274 327 370
#     4  10  22  38  64  94 120 152 218 272 320 382
#     4  11  23  39  64  97 127 164 218 265 308 373
#
# _framework density 21.452107000000002
#
# number of rings (size 3 to 8) (size 9 to 14) (size 15 to 20)
#    0.000    0.923    2.308    5.538    2.154    2.462 
#    0.000    0.000    0.000    0.000    0.000    0.000 
#    0.000    0.000    0.000    0.000    0.000    0.000 
#
# Total GULP energy -161126.494325 kJ/mol
# GULP energy per Si atom -12394.345717 kJ/mol
# Density = 2.140328 g / cm^3
# Si number density = 21.452107 Si / 1000 Ang^3
#
#
#
# Elastic Constant Matrix: (Units=GPa)
#
#
# Indices 1 2 3 4 5 6 
#
# 1 123.1368 51.1378 33.4493 0.0000 5.9868 0.0000
# 2 51.1378 165.1012 77.3829 0.0000 1.4508 0.0000
# 3 33.4493 77.3829 120.3612 0.0000 3.6731 0.0000
# 4 0.0000 0.0000 0.0000 23.0542 0.0000 -4.0339
# 5 5.9868 1.4508 3.6731 0.0000 31.1254 0.0000
# 6 0.0000 0.0000 0.0000 -4.0339 0.0000 29.8350
#
#
#
# Elastic Compliance Matrix: (Units=1/GPa)
#
#
# Indices 1 2 3 4 5 6 
#
# 1 0.009492 -0.002451 -0.001013 0.000000 -0.001592 0.000000
# 2 -0.002451 0.009304 -0.005321 0.000000 0.000666 0.000000
# 3 -0.001013 -0.005321 0.012041 0.000000 -0.000978 0.000000
# 4 0.000000 0.000000 0.000000 0.044427 0.000000 0.006007
# 5 -0.001592 0.000666 -0.000978 0.000000 0.032519 0.000000
# 6 0.000000 0.000000 0.000000 0.006007 0.000000 0.034330
#
#
# Mechanical properties :
#
#
# Convention : Reuss Voigt Hill
#
# Bulk Modulus (GPa) = 75.38198 81.39324 78.38761
# Shear Modulus (GPa) = 30.46832 33.24485 31.85658
#
# Velocity S-wave (km/s) = 3.77277 3.94092 3.85776
# Velocity P-wave (km/s) = 7.36168 7.66368 7.51420
#
# Compressibility (1/GPa) = 0.01326577
#
# Stress axis : x y z
#
# Youngs Moduli (GPa) = 105.35651 107.47902 83.05068
#
# Poissons Ratio (x) = 0.26342 0.08417
# Poissons Ratio (y) = 0.25822 0.44192
# Poissons Ratio (z) = 0.10678 0.57190
#
# Static dielectric constant tensor:
#      x y z
#    x 3.922030 0.000000 -0.015540 
#    y 0.000000 3.892970 0.000000 
#    z -0.015540 0.000000 3.801310 
# 
# 
# High freq. dielectric constant tensor:
#      x y z
#    x 1.848190 0.000000 0.002760 
#    y 0.000000 1.853370 0.000000 
#    z 0.002760 0.000000 1.831210 
# 
# From -- ./inp_files/58703.got.cif
#   From: 2010.03.12/outbox.cif.g09.slc.cpg/sg5_30_cif.got.tgz:58703.got - 2010.03.31 09:47:26.
