data_PCOD8050091
_publ_section_title
;
Structure prediction by ZEFSAII (Michael W. Deem and Ramdas Pophale) SiO2 
 PCOD8050091
Probable space group: C 2
;
_chemical_formula_sum "Si O2"
_cell_formula_units_Z 28
_cell_length_a 30.295142
_cell_length_b 8.880249
_cell_length_c 5.551203
_cell_angle_alpha 90.000000
_cell_angle_beta 57.092860
_cell_angle_gamma 90.000000
_cell_volume 1253.813476
_symmetry_space_group_name_H-M "C 2"
_symmetry_group_IT_number 5
_symmetry_cell_setting 'monoclinic'
loop_
_space_group_symop_operation_xyz
x,y,z
-x,y,-z
1/2+x,1/2+y,z
1/2-x,1/2+y,-z
loop_
_atom_site_type_symbol
_atom_site_label
_atom_site_fract_x
_atom_site_fract_y
_atom_site_fract_z
Si Si1 0.847639 0.320090 0.169969
Si Si2 0.500000 0.239814 0.500000
Si Si3 0.333638 0.318186 0.211399
Si Si4 0.390807 0.545996 0.327674
Si Si5 0.697432 0.578919 0.013209
Si Si6 0.392407 0.085005 0.748954
Si Si7 0.500000 0.421845 0.000000
Si Si8 0.691199 0.054715 0.382372
O O1 0.883624 0.195342 0.191473
O O2 0.806602 0.399723 0.471798
O O3 0.813261 0.244860 0.060612
O O4 0.886799 0.445850 0.948020
O O5 0.452931 0.129591 0.559574
O O6 0.512453 0.331223 0.214079
O O7 0.381588 0.391135 0.214694
O O8 0.301707 0.201822 0.471233
O O9 0.299325 0.456965 0.213121
O O10 0.358514 0.230057 0.916784
O O11 0.349311 0.542750 0.667825
O O12 0.451729 0.531412 0.221349
O O13 0.757067 0.567169 0.946514
O O14 0.366113 0.043938 0.571426
#
# Coordination Sequence:
#
# PCOD8050091 Si02
#       8
#     4   2   4   4   4   4   2   4
#     4  10  25  44  62 102 146 178 233 290 362 428
#     4  12  26  48  80 108 140 188 248 310 358 426
#     4  10  21  40  64  96 130 176 233 288 346 418
#     4  11  24  44  68  99 139 178 239 288 360 422
#     4  11  23  41  67  99 141 187 231 290 355 433
#     4  11  24  44  68  99 139 178 239 288 360 422
#     4  12  26  48  80 108 140 188 248 310 358 426
#     4  11  23  41  67  99 141 187 231 290 355 433
#
# _framework density 22.331868
#
# number of rings (size 3 to 8) (size 9 to 14) (size 15 to 20)
#    0.000    1.143    1.429    4.286    4.000    9.143 
#    5.143    0.000    0.000    0.000    0.000    0.000 
#    0.000    0.000    0.000    0.000    0.000    0.000 
#
# Total GULP energy -173457.406035 kJ/mol
# GULP energy per Si atom -12389.814717 kJ/mol
# Density = 2.228104 g / cm^3
# Si number density = 22.331868 Si / 1000 Ang^3
#
#
#
# Elastic Constant Matrix: (Units=GPa)
#
#
# Indices 1 2 3 4 5 6 
#
# 1 115.6145 23.0712 40.6394 0.0000 -22.7362 0.0000
# 2 23.0712 109.5964 28.3010 0.0000 -5.5819 0.0000
# 3 40.6394 28.3010 96.9834 0.0000 -10.5976 0.0000
# 4 0.0000 0.0000 0.0000 -10.6389 0.0000 -8.3186
# 5 -22.7362 -5.5819 -10.5976 0.0000 45.4276 0.0000
# 6 0.0000 0.0000 0.0000 -8.3186 0.0000 15.9223
#
#
#
# Elastic Compliance Matrix: (Units=1/GPa)
#
#
# Indices 1 2 3 4 5 6 
#
# 1 0.011111 -0.001118 -0.003835 0.000000 0.004529 0.000000
# 2 -0.001118 0.009994 -0.002437 0.000000 0.000100 0.000000
# 3 -0.003835 -0.002437 0.012711 0.000000 0.000746 0.000000
# 4 0.000000 0.000000 0.000000 -0.066734 0.000000 -0.034865
# 5 0.004529 0.000100 0.000746 0.000000 0.024466 0.000000
# 6 0.000000 0.000000 0.000000 -0.034865 0.000000 0.044590
#
#
# Mechanical properties :
#
#
# Convention : Reuss Voigt Hill
#
# Bulk Modulus (GPa) = 52.53132 56.24639 54.38886
# Shear Modulus (GPa) = 87.31568 25.48772 56.40170
#
# Velocity S-wave (km/s) = 6.25971 3.38200 5.03100
# Velocity P-wave (km/s) = 8.70744 6.36332 7.62599
#
# Compressibility (1/GPa) = 0.01903626
#
# Stress axis : x y z
#
# Youngs Moduli (GPa) = 89.99943 100.05859 78.67404
#
# Poissons Ratio (x) = 0.11187 0.30170
# Poissons Ratio (y) = 0.10063 0.19173
# Poissons Ratio (z) = 0.34513 0.24384
#
# Static dielectric constant tensor:
#      x y z
#    x 4.258220 0.000000 0.141800 
#    y 0.000000 4.165840 0.000000 
#    z 0.141800 0.000000 3.955110 
# 
# 
# High freq. dielectric constant tensor:
#      x y z
#    x 1.875400 0.000000 0.001510 
#    y 0.000000 1.893110 0.000000 
#    z 0.001510 0.000000 1.874190 
# 
# From -- ./inp_files/10822.got.cif
#   From: 2010.03.12/outbox.cif.g09.slc.cpg/sg5_6_cif.got.tgz:10822.got - 2010.03.31 09:47:26.
