data_PCOD8050353
_publ_section_title
;
Structure prediction by ZEFSAII (Michael W. Deem and Ramdas Pophale) SiO2 
 PCOD8050353
Probable space group: C 2
;
_chemical_formula_sum "Si O2"
_cell_formula_units_Z 26
_cell_length_a 10.876338
_cell_length_b 8.774513
_cell_length_c 20.930025
_cell_angle_alpha 90.000000
_cell_angle_beta 35.830762
_cell_angle_gamma 90.000000
_cell_volume 1169.292128
_symmetry_space_group_name_H-M "C 2"
_symmetry_group_IT_number 5
_symmetry_cell_setting 'monoclinic'
loop_
_space_group_symop_operation_xyz
x,y,z
-x,y,-z
1/2+x,1/2+y,z
1/2-x,1/2+y,-z
loop_
_atom_site_type_symbol
_atom_site_label
_atom_site_fract_x
_atom_site_fract_y
_atom_site_fract_z
Si Si1 0.000000 0.115700 0.500000
Si Si2 0.718294 0.269728 0.939120
Si Si3 0.087430 0.097125 0.027335
Si Si4 0.647163 0.321621 0.648965
Si Si5 0.622140 0.664417 0.698042
Si Si6 0.286700 0.887797 0.449228
Si Si7 0.164579 0.603482 0.270812
O O1 0.825718 0.221326 0.610106
O O2 0.891503 0.009955 0.492854
O O3 0.897908 0.232167 0.812275
O O4 0.762513 0.198083 0.990705
O O5 0.500000 0.210525 0.000000
O O6 0.717740 0.451142 0.948785
O O7 0.885791 0.039491 0.152225
O O8 0.000000 0.184032 0.000000
O O9 0.601480 0.482331 0.699734
O O10 0.745049 0.329799 0.537138
O O11 0.431739 0.225313 0.738508
O O12 0.715120 0.740157 0.595625
O O13 0.792715 0.695640 0.681470
O O14 0.515318 0.961827 0.346937
#
# Coordination Sequence:
#
# PCOD8050353 Si02
#       7
#     2   4   4   4   4   4   4
#     4  10  22  36  54  82 116 156 196 236 288 350
#     4  10  23  42  65  93 125 164 208 264 325 380
#     4  10  22  42  64  91 124 161 211 265 320 380
#     4  11  23  38  58  88 122 160 203 246 299 362
#     4  11  23  40  63  91 124 160 206 257 309 370
#     4  11  21  38  61  86 122 161 199 245 299 360
#     4  10  23  40  60  88 122 162 203 253 313 372
#
# _framework density 22.235675000000001
#
# number of rings (size 3 to 8) (size 9 to 14) (size 15 to 20)
#    0.000    1.538    0.000    5.538    0.000    7.385 
#    0.000    7.692    0.000    0.000    0.000    0.000 
#    0.000    0.000    0.000    0.000    0.000    0.000 
#
# Total GULP energy -161187.785317 kJ/mol
# GULP energy per Si atom -12399.060409 kJ/mol
# Density = 2.218507 g / cm^3
# Si number density = 22.235675 Si / 1000 Ang^3
#
#
#
# Elastic Constant Matrix: (Units=GPa)
#
#
# Indices 1 2 3 4 5 6 
#
# 1 116.7632 14.2907 20.6536 0.0000 -12.1084 0.0000
# 2 14.2907 91.0369 17.8735 0.0000 -11.3212 0.0000
# 3 20.6536 17.8735 46.9103 0.0000 -1.7466 -0.0001
# 4 0.0000 0.0000 0.0000 37.7347 0.0000 8.7549
# 5 -12.1084 -11.3212 -1.7466 0.0000 36.6896 0.0000
# 6 0.0000 0.0000 -0.0001 8.7549 0.0000 29.2417
#
#
#
# Elastic Compliance Matrix: (Units=1/GPa)
#
#
# Indices 1 2 3 4 5 6 
#
# 1 0.009612 -0.000370 -0.003984 0.000000 0.002868 0.000000
# 2 -0.000370 0.012341 -0.004410 0.000000 0.003476 0.000000
# 3 -0.003984 -0.004410 0.024696 0.000000 -0.001500 0.000000
# 4 0.000000 0.000000 0.000000 0.028479 0.000000 -0.008527
# 5 0.002868 0.003476 -0.001500 0.000000 0.029203 0.000000
# 6 0.000000 0.000000 0.000000 -0.008527 0.000000 0.036751
#
#
# Mechanical properties :
#
#
# Convention : Reuss Voigt Hill
#
# Bulk Modulus (GPa) = 34.33983 40.03844 37.18913
# Shear Modulus (GPa) = 29.70609 34.19270 31.94940
#
# Velocity S-wave (km/s) = 3.65905 3.92566 3.79470
# Velocity P-wave (km/s) = 5.77310 6.21234 5.99674
#
# Compressibility (1/GPa) = 0.02912070
#
# Stress axis : x y z
#
# Youngs Moduli (GPa) = 104.03883 81.03296 40.49278
#
# Poissons Ratio (x) = 0.02998 0.16133
# Poissons Ratio (y) = 0.03849 0.17856
# Poissons Ratio (z) = 0.41451 0.35733
#
# Static dielectric constant tensor:
#      x y z
#    x 4.386480 0.000000 -0.143810 
#    y 0.000000 3.923870 0.000000 
#    z -0.143810 0.000000 3.848390 
# 
# 
# High freq. dielectric constant tensor:
#      x y z
#    x 1.891140 0.000000 -0.013170 
#    y 0.000000 1.871910 0.000000 
#    z -0.013170 0.000000 1.870140 
# 
# From -- ./inp_files/52331.got.cif
#   From: 2010.03.12/outbox.cif.g09.slc.cpg/sg5_27_cif.got.tgz:52331.got - 2010.03.31 09:47:26.
