data_PCOD8050531
_publ_section_title
;
Structure prediction by ZEFSAII (Michael W. Deem and Ramdas Pophale) SiO2 
 PCOD8050531
Probable space group: C 2
;
_chemical_formula_sum "Si O2"
_cell_formula_units_Z 30
_cell_length_a 8.151572
_cell_length_b 11.433375
_cell_length_c 14.463298
_cell_angle_alpha 90.000000
_cell_angle_beta 81.453622
_cell_angle_gamma 90.000000
_cell_volume 1333.010976
_symmetry_space_group_name_H-M "C 2"
_symmetry_group_IT_number 5
_symmetry_cell_setting 'monoclinic'
loop_
_space_group_symop_operation_xyz
x,y,z
-x,y,-z
1/2+x,1/2+y,z
1/2-x,1/2+y,-z
loop_
_atom_site_type_symbol
_atom_site_label
_atom_site_fract_x
_atom_site_fract_y
_atom_site_fract_z
Si Si1 0.198890 0.707310 0.117904
Si Si2 0.098255 0.127767 0.724735
Si Si3 0.998772 0.487821 0.157288
Si Si4 0.922368 0.288179 0.597426
Si Si5 0.413663 0.030953 0.651764
Si Si6 0.500000 0.801438 0.000000
Si Si7 0.038936 0.779353 0.603642
Si Si8 0.128900 0.922337 0.224230
O O1 0.294897 0.695228 0.207747
O O2 0.062456 0.609064 0.102925
O O3 0.338367 0.719179 0.026476
O O4 0.105463 0.831424 0.141116
O O5 0.976638 0.217322 0.683215
O O6 0.995747 0.027577 0.784321
O O7 0.226433 0.071195 0.639172
O O8 0.107687 0.485011 0.240690
O O9 0.037271 0.380756 0.086316
O O10 0.808810 0.484129 0.206562
O O11 0.991384 0.421633 0.590921
O O12 0.726682 0.307987 0.612452
O O13 0.000000 0.226467 0.500000
O O14 0.531099 0.141985 0.628751
O O15 0.911891 0.858502 0.674194
O O16 0.000000 0.803159 0.500000
#
# Coordination Sequence:
#
# PCOD8050531 Si02
#       8
#     4   4   4   4   4   2   4   4
#     4  10  23  45  68  97 139 176 219 281 336 412
#     4  11  23  41  66  95 126 178 226 270 340 408
#     4  10  22  41  73  93 135 178 220 274 343 405
#     4  12  26  40  63  95 129 176 232 286 341 395
#     4  11  23  45  65  91 129 181 223 275 345 405
#     4  10  22  40  66 108 130 170 222 286 338 404
#     4  12  25  43  63  97 139 177 233 291 332 397
#     4  11  22  42  66  95 131 178 227 273 339 399
#
# _framework density 22.505441999999999
#
# number of rings (size 3 to 8) (size 9 to 14) (size 15 to 20)
#    0.000    1.067    4.000    3.600    1.867    2.667 
#    2.400    4.000    0.000    0.000    0.000    0.000 
#    0.000    0.000    0.000    0.000    0.000    0.000 
#
# Total GULP energy -185894.857753 kJ/mol
# GULP energy per Si atom -12392.990517 kJ/mol
# Density = 2.245422 g / cm^3
# Si number density = 22.505442 Si / 1000 Ang^3
#
#
#
# Elastic Constant Matrix: (Units=GPa)
#
#
# Indices 1 2 3 4 5 6 
#
# 1 73.2058 31.5365 20.6720 0.0000 -15.9261 0.0000
# 2 31.5365 111.7509 12.5655 0.0000 -20.3953 0.0000
# 3 20.6720 12.5655 81.0004 0.0000 -23.6624 0.0000
# 4 0.0000 0.0000 0.0000 27.8236 0.0000 -13.1004
# 5 -15.9261 -20.3953 -23.6624 0.0000 38.1154 0.0000
# 6 0.0000 0.0000 0.0000 -13.1004 0.0000 34.1081
#
#
#
# Elastic Compliance Matrix: (Units=1/GPa)
#
#
# Indices 1 2 3 4 5 6 
#
# 1 0.016796 -0.003836 -0.002737 0.000000 0.003266 0.000000
# 2 -0.003836 0.010793 0.000640 0.000000 0.004569 0.000000
# 3 -0.002737 0.000640 0.015527 0.000000 0.008838 0.000000
# 4 0.000000 0.000000 0.000000 0.043875 0.000000 0.016852
# 5 0.003266 0.004569 0.008838 0.000000 0.035532 0.000000
# 6 0.000000 0.000000 0.000000 0.016852 0.000000 0.035791
#
#
# Mechanical properties :
#
#
# Convention : Reuss Voigt Hill
#
# Bulk Modulus (GPa) = 32.00182 43.94502 37.97342
# Shear Modulus (GPa) = 27.68576 33.42163 30.55369
#
# Velocity S-wave (km/s) = 3.51120 3.85781 3.68858
# Velocity P-wave (km/s) = 5.53972 6.27793 5.92034
#
# Compressibility (1/GPa) = 0.03124822
#
# Stress axis : x y z
#
# Youngs Moduli (GPa) = 59.53731 92.65203 64.40527
#
# Poissons Ratio (x) = 0.35542 0.17630
# Poissons Ratio (y) = 0.22839 -0.04119
# Poissons Ratio (z) = 0.16297 -0.05925
#
# Static dielectric constant tensor:
#      x y z
#    x 3.953000 0.000000 -0.311850 
#    y 0.000000 4.298970 0.000000 
#    z -0.311850 0.000000 4.031160 
# 
# 
# High freq. dielectric constant tensor:
#      x y z
#    x 1.877220 0.000000 -0.023840 
#    y 0.000000 1.902390 0.000000 
#    z -0.023840 0.000000 1.877670 
# 
# From -- ./inp_files/50486.got.cif
#   From: 2010.03.12/outbox.cif.g09.slc.cpg/sg5_26_cif.got.tgz:50486.got - 2010.03.31 09:47:26.
