data_PCOD8050369
_publ_section_title
;
Structure prediction by ZEFSAII (Michael W. Deem and Ramdas Pophale) SiO2 
 PCOD8050369
Probable space group: C 2
;
_chemical_formula_sum "Si O2"
_cell_formula_units_Z 32
_cell_length_a 14.049559
_cell_length_b 18.447636
_cell_length_c 13.418975
_cell_angle_alpha 90.000000
_cell_angle_beta 150.767394
_cell_angle_gamma 90.000000
_cell_volume 1698.476691
_symmetry_space_group_name_H-M "C 2"
_symmetry_group_IT_number 5
_symmetry_cell_setting 'monoclinic'
loop_
_space_group_symop_operation_xyz
x,y,z
-x,y,-z
1/2+x,1/2+y,z
1/2-x,1/2+y,-z
loop_
_atom_site_type_symbol
_atom_site_label
_atom_site_fract_x
_atom_site_fract_y
_atom_site_fract_z
Si Si1 0.770298 0.113790 0.782499
Si Si2 0.494051 0.351698 0.609616
Si Si3 0.168221 0.258837 0.406491
Si Si4 0.364722 0.007681 0.190854
Si Si5 0.852264 0.256234 0.954219
Si Si6 0.047754 0.971527 0.271917
Si Si7 0.803127 0.607289 0.512873
Si Si8 0.884757 0.387170 0.498000
O O1 0.681058 0.038962 0.741313
O O2 0.725588 0.184514 0.810013
O O3 0.683387 0.125735 0.593347
O O4 0.000000 0.103495 0.000000
O O5 0.500000 0.370852 0.500000
O O6 0.322526 0.294828 0.472980
O O7 0.701631 0.320988 0.835659
O O8 0.447408 0.425705 0.623223
O O9 0.252520 0.181839 0.523107
O O10 0.133769 0.306952 0.473348
O O11 0.969730 0.244229 0.164114
O O12 0.496878 0.071715 0.261455
O O13 0.489961 0.934906 0.311200
O O14 0.173698 0.986255 0.958147
O O15 0.000000 0.275808 0.000000
O O16 0.171873 0.927636 0.299325
O O17 0.131281 0.050204 0.371405
O O18 0.000000 0.381322 0.500000
#
# Coordination Sequence:
#
# PCOD8050369 Si02
#       8
#     4   4   4   4   4   4   4   4
#     4  11  18  30  53  81 112 138 171 227 289 333
#     4  11  21  35  56  82 113 147 184 228 282 339
#     4  11  21  37  56  83 115 149 186 231 279 339
#     4  11  20  34  55  79 113 146 183 230 290 337
#     4  11  19  33  54  86 117 145 175 223 290 340
#     4  10  22  37  54  83 112 144 189 235 282 333
#     4  11  20  34  53  81 110 144 185 229 281 338
#     4  10  23  37  55  81 111 152 197 231 273 328
#
# _framework density 18.840412000000001
#
# number of rings (size 3 to 8) (size 9 to 14) (size 15 to 20)
#    0.000    1.250    5.000    3.375    0.000    0.000 
#    0.000    0.625    0.000    0.000    0.000    0.000 
#    0.000    0.000    0.000    0.000    0.000    0.000 
#
# Total GULP energy -198324.869974 kJ/mol
# GULP energy per Si atom -12395.304373 kJ/mol
# Density = 1.879753 g / cm^3
# Si number density = 18.840412 Si / 1000 Ang^3
#
#
#
# Elastic Constant Matrix: (Units=GPa)
#
#
# Indices 1 2 3 4 5 6 
#
# 1 72.7953 45.2646 20.9145 0.0001 3.7785 0.0000
# 2 45.2646 143.6636 38.4373 0.0000 -0.2708 0.0000
# 3 20.9145 38.4373 105.3870 0.0001 4.9317 0.0000
# 4 0.0001 0.0000 0.0001 26.1432 0.0001 4.8088
# 5 3.7785 -0.2708 4.9317 0.0001 7.3064 0.0000
# 6 0.0000 0.0000 0.0000 4.8088 0.0000 25.5260
#
#
#
# Elastic Compliance Matrix: (Units=1/GPa)
#
#
# Indices 1 2 3 4 5 6 
#
# 1 0.017833 -0.005314 -0.001198 0.000000 -0.008611 0.000000
# 2 -0.005314 0.009333 -0.002576 0.000000 0.004833 0.000000
# 3 -0.001198 -0.002576 0.010988 0.000000 -0.006893 0.000000
# 4 0.000000 0.000000 0.000000 0.039624 -0.000001 -0.007465
# 5 -0.008611 0.004833 -0.006893 -0.000001 0.146152 0.000000
# 6 0.000000 0.000000 0.000000 -0.007465 0.000000 0.040582
#
#
# Mechanical properties :
#
#
# Convention : Reuss Voigt Hill
#
# Bulk Modulus (GPa) = 50.05229 59.00874 54.53052
# Shear Modulus (GPa) = 17.28024 26.27710 21.77867
#
# Velocity S-wave (km/s) = 3.03180 3.73865 3.40362
# Velocity P-wave (km/s) = 6.23537 7.07283 6.66726
#
# Compressibility (1/GPa) = 0.01997910
#
# Stress axis : x y z
#
# Youngs Moduli (GPa) = 56.07665 107.14279 91.00432
#
# Poissons Ratio (x) = 0.56940 0.10900
# Poissons Ratio (y) = 0.29801 0.23439
# Poissons Ratio (z) = 0.06717 0.27596
#
# Static dielectric constant tensor:
#      x y z
#    x 3.233130 0.000000 0.358570 
#    y 0.000000 3.708760 0.000000 
#    z 0.358570 0.000000 3.554910 
# 
# 
# High freq. dielectric constant tensor:
#      x y z
#    x 1.694760 0.000000 0.033250 
#    y 0.000000 1.742520 0.000000 
#    z 0.033250 0.000000 1.737310 
# 
# From -- ./inp_files/54928.got.cif
#   From: 2010.03.12/outbox.cif.g09.slc.cpg/sg5_28_cif.got.tgz:54928.got - 2010.03.31 09:47:26.
