data_PCOD8050509
_publ_section_title
;
Structure prediction by ZEFSAII (Michael W. Deem and Ramdas Pophale) SiO2 
 PCOD8050509
Probable space group: C 2
;
_chemical_formula_sum "Si O2"
_cell_formula_units_Z 24
_cell_length_a 9.325684
_cell_length_b 17.967719
_cell_length_c 9.675140
_cell_angle_alpha 90.000000
_cell_angle_beta 135.247947
_cell_angle_gamma 90.000000
_cell_volume 1141.374959
_symmetry_space_group_name_H-M "C 2"
_symmetry_group_IT_number 5
_symmetry_cell_setting 'monoclinic'
loop_
_space_group_symop_operation_xyz
x,y,z
-x,y,-z
1/2+x,1/2+y,z
1/2-x,1/2+y,-z
loop_
_atom_site_type_symbol
_atom_site_label
_atom_site_fract_x
_atom_site_fract_y
_atom_site_fract_z
Si Si1 0.165968 0.768920 0.321933
Si Si2 0.129846 0.535031 0.953931
Si Si3 0.571048 0.783370 0.752165
Si Si4 0.522288 0.635693 0.854497
Si Si5 0.887216 0.615547 0.566312
Si Si6 0.130953 0.894760 0.956113
O O1 0.361775 0.801081 0.533316
O O2 0.242457 0.753803 0.217581
O O3 0.084170 0.691703 0.327635
O O4 0.994824 0.833564 0.218949
O O5 0.979420 0.546129 0.717613
O O6 0.261148 0.609780 0.056097
O O7 0.306566 0.472170 0.070083
O O8 0.000000 0.520465 0.000000
O O9 0.525223 0.724676 0.842034
O O10 0.645575 0.861274 0.863150
O O11 0.347739 0.600826 0.635351
O O12 0.500000 0.613027 0.000000
O O13 0.000000 0.626360 0.500000
O O14 0.000000 0.915699 0.000000
#
# Coordination Sequence:
#
# PCOD8050509 Si02
#       6
#     4   4   4   4   4   4
#     4   9  19  39  63  94 123 163 209 264 323 379
#     4  12  26  43  62  95 133 177 218 267 324 385
#     4   9  19  37  64  94 124 161 210 264 319 383
#     4  11  22  40  67  96 129 169 217 271 323 382
#     4  11  23  41  68 100 127 169 218 272 323 384
#     4  10  22  40  63  89 129 173 211 256 322 388
#
# _framework density 21.027270999999999
#
# number of rings (size 3 to 8) (size 9 to 14) (size 15 to 20)
#    0.000    1.667    1.667    2.500    0.000    5.333 
#    6.000    0.000    0.000    0.000    0.000    0.000 
#    0.000    0.000    0.000    0.000    0.000    0.000 
#
# Total GULP energy -148711.876545 kJ/mol
# GULP energy per Si atom -12392.656379 kJ/mol
# Density = 2.097941 g / cm^3
# Si number density = 21.027271 Si / 1000 Ang^3
#
#
#
# Elastic Constant Matrix: (Units=GPa)
#
#
# Indices 1 2 3 4 5 6 
#
# 1 93.8503 32.1855 36.2536 0.0000 4.3957 0.0000
# 2 32.1855 72.4741 41.2309 0.0000 1.3041 0.0000
# 3 36.2536 41.2309 96.4471 0.0000 8.3980 0.0000
# 4 0.0000 0.0000 0.0000 27.3244 0.0000 11.9409
# 5 4.3957 1.3041 8.3980 0.0000 28.8547 0.0000
# 6 0.0000 0.0000 0.0000 11.9409 0.0000 36.9204
#
#
#
# Elastic Compliance Matrix: (Units=1/GPa)
#
#
# Indices 1 2 3 4 5 6 
#
# 1 0.013331 -0.004094 -0.003181 0.000000 -0.000920 0.000000
# 2 -0.004094 0.019552 -0.006973 0.000000 0.001770 0.000000
# 3 -0.003181 -0.006973 0.014852 0.000000 -0.003523 0.000000
# 4 0.000000 0.000000 0.000000 0.042621 0.000000 -0.013785
# 5 -0.000920 0.001770 -0.003523 0.000000 0.035742 0.000000
# 6 0.000000 0.000000 0.000000 -0.013785 0.000000 0.031544
#
#
# Mechanical properties :
#
#
# Convention : Reuss Voigt Hill
#
# Bulk Modulus (GPa) = 51.98046 53.56795 52.77420
# Shear Modulus (GPa) = 25.96722 28.82666 27.39694
#
# Velocity S-wave (km/s) = 3.51797 3.70661 3.61352
# Velocity P-wave (km/s) = 6.42461 6.62188 6.52399
#
# Compressibility (1/GPa) = 0.01923800
#
# Stress axis : x y z
#
# Youngs Moduli (GPa) = 75.01242 51.14672 67.33194
#
# Poissons Ratio (x) = 0.20941 0.21416
# Poissons Ratio (y) = 0.30712 0.46953
# Poissons Ratio (z) = 0.23859 0.35666
#
# Static dielectric constant tensor:
#      x y z
#    x 3.738390 0.000000 0.259690 
#    y 0.000000 3.558390 0.000000 
#    z 0.259690 0.000000 4.207900 
# 
# 
# High freq. dielectric constant tensor:
#      x y z
#    x 1.821920 0.000000 0.019860 
#    y 0.000000 1.809370 0.000000 
#    z 0.019860 0.000000 1.831060 
# 
# From -- ./inp_files/16679.got.cif
#   From: 2010.03.12/outbox.cif.g09.slc.cpg/sg5_9_cif.got.tgz:16679.got - 2010.03.31 09:47:26.
