data_PCOD8050290
_publ_section_title
;
Structure prediction by ZEFSAII (Michael W. Deem and Ramdas Pophale) SiO2 
 PCOD8050290
Probable space group: C 2
;
_chemical_formula_sum "Si O2"
_cell_formula_units_Z 32
_cell_length_a 9.008919
_cell_length_b 14.190525
_cell_length_c 22.521974
_cell_angle_alpha 90.000000
_cell_angle_beta 150.594366
_cell_angle_gamma 90.000000
_cell_volume 1413.675500
_symmetry_space_group_name_H-M "C 2"
_symmetry_group_IT_number 5
_symmetry_cell_setting 'monoclinic'
loop_
_space_group_symop_operation_xyz
x,y,z
-x,y,-z
1/2+x,1/2+y,z
1/2-x,1/2+y,-z
loop_
_atom_site_type_symbol
_atom_site_label
_atom_site_fract_x
_atom_site_fract_y
_atom_site_fract_z
Si Si1 0.150445 0.729340 0.961913
Si Si2 0.926725 0.456503 0.326683
Si Si3 0.950473 0.241005 0.182901
Si Si4 0.270333 0.425236 0.054190
Si Si5 0.477044 0.138461 0.421434
Si Si6 0.833758 0.540115 0.093709
Si Si7 0.747001 0.928051 0.316897
Si Si8 0.839032 0.322785 0.506988
O O1 0.238348 0.811468 0.946338
O O2 0.049059 0.635551 0.894104
O O3 0.862497 0.767747 0.896172
O O4 0.411125 0.704844 0.101246
O O5 0.587797 0.472031 0.184055
O O6 0.046083 0.545370 0.406962
O O7 0.169485 0.435746 0.359392
O O8 0.906752 0.360102 0.358659
O O9 0.134018 0.165985 0.286084
O O10 0.120576 0.338500 0.238767
O O11 0.192354 0.453356 0.960121
O O12 0.000000 0.466630 0.000000
O O13 0.500000 0.118697 0.500000
O O14 0.701534 0.223110 0.480035
O O15 0.091797 0.518875 0.232475
O O16 0.500000 0.562302 0.000000
O O17 0.104055 0.912213 0.429556
O O18 0.000000 0.310368 0.500000
#
# Coordination Sequence:
#
# PCOD8050290 Si02
#       8
#     4   4   4   4   4   4   4   4
#     4  11  23  40  68 103 142 184 236 292 357 429
#     4  12  25  48  75 105 144 197 244 299 370 440
#     4  10  21  43  70  99 138 189 230 293 361 422
#     4  12  27  44  70 110 150 186 236 300 362 432
#     4  11  26  47  74 105 148 190 249 300 365 433
#     4  12  24  43  68 102 143 192 238 289 364 434
#     4  11  23  47  72  95 141 193 240 300 367 434
#     4  11  27  48  74 107 141 188 249 309 368 432
#
# _framework density 22.636030000000002
#
# number of rings (size 3 to 8) (size 9 to 14) (size 15 to 20)
#    0.000    0.750    3.750    3.375    5.250    2.000 
#    2.250    0.000    0.000    0.000    0.000    0.000 
#    0.000    0.000    0.000    0.000    0.000    0.000 
#
# Total GULP energy -198330.995313 kJ/mol
# GULP energy per Si atom -12395.687207 kJ/mol
# Density = 2.258451 g / cm^3
# Si number density = 22.636030 Si / 1000 Ang^3
#
#
#
# Elastic Constant Matrix: (Units=GPa)
#
#
# Indices 1 2 3 4 5 6 
#
# 1 119.5556 20.6030 32.9798 0.0016 -3.9956 0.0008
# 2 20.6030 103.4181 17.6473 -0.0007 -14.0548 -0.0001
# 3 32.9798 17.6473 60.7908 -0.0018 -2.8903 -0.0007
# 4 0.0016 -0.0007 -0.0018 31.7894 -0.0001 -8.7516
# 5 -3.9956 -14.0548 -2.8903 -0.0001 41.7578 0.0003
# 6 0.0008 -0.0001 -0.0007 -8.7516 0.0003 35.3618
#
#
#
# Elastic Compliance Matrix: (Units=1/GPa)
#
#
# Indices 1 2 3 4 5 6 
#
# 1 0.009960 -0.001086 -0.005077 -0.000001 0.000236 -0.000001
# 2 -0.001086 0.010746 -0.002371 0.000000 0.003349 0.000000
# 3 -0.005077 -0.002371 0.019897 0.000002 0.000093 0.000001
# 4 -0.000001 0.000000 0.000002 0.033757 0.000000 0.008354
# 5 0.000236 0.003349 0.000093 0.000000 0.025104 0.000000
# 6 -0.000001 0.000000 0.000001 0.008354 0.000000 0.030347
#
#
# Mechanical properties :
#
#
# Convention : Reuss Voigt Hill
#
# Bulk Modulus (GPa) = 42.49059 47.35831 44.92445
# Shear Modulus (GPa) = 32.31598 35.95075 34.13336
#
# Velocity S-wave (km/s) = 3.78250 3.98956 3.88741
# Velocity P-wave (km/s) = 6.15536 6.49532 6.32762
#
# Compressibility (1/GPa) = 0.02353462
#
# Stress axis : x y z
#
# Youngs Moduli (GPa) = 100.40368 93.06219 50.25908
#
# Poissons Ratio (x) = 0.10105 0.25516
# Poissons Ratio (y) = 0.10902 0.11917
# Poissons Ratio (z) = 0.50974 0.22066
#
# Static dielectric constant tensor:
#      x y z
#    x 4.010370 0.000000 -0.080300 
#    y 0.000000 3.963060 0.000010 
#    z -0.080300 0.000010 4.564540 
# 
# 
# High freq. dielectric constant tensor:
#      x y z
#    x 1.888660 0.000000 -0.008370 
#    y 0.000000 1.895300 0.000000 
#    z -0.008370 0.000000 1.904280 
# 
# From -- ./inp_files/68053.got.cif
#   From: 2010.03.12/outbox.cif.g09.slc.cpg/sg5_35_cif.got.tgz:68053.got - 2010.03.31 09:47:26.
