data_PCOD8050751
_publ_section_title
;
Structure prediction by ZEFSAII (Michael W. Deem and Ramdas Pophale) SiO2 
 PCOD8050751
Probable space group: C 2
;
_chemical_formula_sum "Si O2"
_cell_formula_units_Z 18
_cell_length_a 12.720820
_cell_length_b 8.190127
_cell_length_c 8.109957
_cell_angle_alpha 90.000000
_cell_angle_beta 96.455958
_cell_angle_gamma 90.000000
_cell_volume 839.578834
_symmetry_space_group_name_H-M "C 2"
_symmetry_group_IT_number 5
_symmetry_cell_setting 'monoclinic'
loop_
_space_group_symop_operation_xyz
x,y,z
-x,y,-z
1/2+x,1/2+y,z
1/2-x,1/2+y,-z
loop_
_atom_site_type_symbol
_atom_site_label
_atom_site_fract_x
_atom_site_fract_y
_atom_site_fract_z
Si Si1 0.500000 0.662750 0.500000
Si Si2 0.848126 0.419358 0.576678
Si Si3 0.002596 0.622490 0.819146
Si Si4 0.269916 0.147164 0.289102
Si Si5 0.441600 0.486784 0.822180
O O1 0.395000 0.775028 0.470254
O O2 0.496972 0.556518 0.666771
O O3 0.948714 0.495330 0.687782
O O4 0.764326 0.335161 0.685857
O O5 0.787979 0.557559 0.466144
O O6 0.938706 0.791864 0.804482
O O7 0.124368 0.652053 0.797359
O O8 0.000000 0.544791 0.000000
O O9 0.178002 0.050340 0.177587
O O10 0.500000 0.542069 0.000000
#
# Coordination Sequence:
#
# PCOD8050751 Si02
#       5
#     2   4   4   4   4
#     4  10  22  42  72  94 136 180 214 288 334 386
#     4  11  23  42  69 101 132 175 229 273 333 412
#     4  11  25  45  67 100 139 174 221 286 334 403
#     4  11  24  43  67 100 130 181 221 273 346 393
#     4  10  25  46  65 101 137 176 229 280 331 407
#
# _framework density 21.439321
#
# number of rings (size 3 to 8) (size 9 to 14) (size 15 to 20)
#    0.000    1.333    2.222    1.333    9.333    7.111 
#    8.000    0.000    0.000    0.000    0.000    0.000 
#    0.000    0.000    0.000    0.000    0.000    0.000 
#
# Total GULP energy -111614.208154 kJ/mol
# GULP energy per Si atom -12401.578684 kJ/mol
# Density = 2.139052 g / cm^3
# Si number density = 21.439321 Si / 1000 Ang^3
#
#
#
# Elastic Constant Matrix: (Units=GPa)
#
#
# Indices 1 2 3 4 5 6 
#
# 1 122.3790 20.6187 38.9203 0.0000 -0.9013 0.0000
# 2 20.6187 62.1650 28.1126 0.0000 1.6703 0.0000
# 3 38.9203 28.1126 125.8454 0.0000 4.7400 0.0000
# 4 0.0000 0.0000 0.0000 22.0063 0.0000 -7.7693
# 5 -0.9013 1.6703 4.7400 0.0000 33.8905 0.0000
# 6 0.0000 0.0000 0.0000 -7.7693 0.0000 24.7768
#
#
#
# Elastic Compliance Matrix: (Units=1/GPa)
#
#
# Indices 1 2 3 4 5 6 
#
# 1 0.009293 -0.001990 -0.002455 0.000000 0.000689 0.000000
# 2 -0.001990 0.018324 -0.003460 0.000000 -0.000472 0.000000
# 3 -0.002455 -0.003460 0.009525 0.000000 -0.001227 0.000000
# 4 0.000000 0.000000 0.000000 0.051098 0.000000 0.016023
# 5 0.000689 -0.000472 -0.001227 0.000000 0.029720 0.000000
# 6 0.000000 0.000000 0.000000 0.016023 0.000000 0.045385
#
#
# Mechanical properties :
#
#
# Convention : Reuss Voigt Hill
#
# Bulk Modulus (GPa) = 46.88245 53.96582 50.42413
# Shear Modulus (GPa) = 26.84342 30.98390 28.91366
#
# Velocity S-wave (km/s) = 3.54229 3.80569 3.67635
# Velocity P-wave (km/s) = 6.21654 6.67361 6.44913
#
# Compressibility (1/GPa) = 0.02132995
#
# Stress axis : x y z
#
# Youngs Moduli (GPa) = 107.61270 54.57395 104.98981
#
# Poissons Ratio (x) = 0.10862 0.25778
# Poissons Ratio (y) = 0.21418 0.36327
# Poissons Ratio (z) = 0.26422 0.18883
#
# Static dielectric constant tensor:
#      x y z
#    x 3.921800 0.000000 -0.014680 
#    y 0.000000 4.020590 0.000000 
#    z -0.014680 0.000000 3.831250 
# 
# 
# High freq. dielectric constant tensor:
#      x y z
#    x 1.852970 0.000000 -0.000590 
#    y 0.000000 1.850630 0.000000 
#    z -0.000590 0.000000 1.833130 
# 
# From -- ./inp_files/18010.got.cif
#   From: 2010.03.12/outbox.cif.g09.slc.cpg/sg5_10_cif.got.tgz:18010.got - 2010.03.31 09:47:26.
