data_PCOD8050513
_publ_section_title
;
Structure prediction by ZEFSAII (Michael W. Deem and Ramdas Pophale) SiO2 
 PCOD8050513
Probable space group: C 2
;
_chemical_formula_sum "Si O2"
_cell_formula_units_Z 24
_cell_length_a 11.043190
_cell_length_b 11.407178
_cell_length_c 11.544281
_cell_angle_alpha 90.000000
_cell_angle_beta 123.169239
_cell_angle_gamma 90.000000
_cell_volume 1217.293467
_symmetry_space_group_name_H-M "C 2"
_symmetry_group_IT_number 5
_symmetry_cell_setting 'monoclinic'
loop_
_space_group_symop_operation_xyz
x,y,z
-x,y,-z
1/2+x,1/2+y,z
1/2-x,1/2+y,-z
loop_
_atom_site_type_symbol
_atom_site_label
_atom_site_fract_x
_atom_site_fract_y
_atom_site_fract_z
Si Si1 0.778967 0.563450 0.692821
Si Si2 0.595317 0.123349 0.774161
Si Si3 0.655372 0.315611 0.614509
Si Si4 0.338694 0.756556 0.503809
Si Si5 0.854925 0.367553 0.282596
Si Si6 0.163989 0.698252 0.057518
O O1 0.763974 0.424006 0.688983
O O2 0.651268 0.628265 0.553101
O O3 0.777148 0.598441 0.826052
O O4 0.926282 0.608068 0.710324
O O5 0.636275 0.232485 0.714756
O O6 0.645329 0.005685 0.736836
O O7 0.681961 0.147346 0.938113
O O8 0.500000 0.367416 0.500000
O O9 0.720579 0.242649 0.542271
O O10 0.284034 0.845234 0.372621
O O11 0.489029 0.803260 0.634247
O O12 0.761494 0.313591 0.128609
O O13 0.000000 0.733588 0.000000
#
# Coordination Sequence:
#
# PCOD8050513 Si02
#       6
#     4   4   4   4   4   4
#     4  10  22  43  62  94 133 169 214 273 317 395
#     4  11  23  41  66  93 129 172 217 269 324 386
#     4  12  25  37  67 101 132 167 223 267 328 397
#     4  10  22  40  63  94 131 171 213 266 341 374
#     4  10  22  41  66  88 129 174 211 276 326 387
#     4   9  22  43  64  86 125 175 219 263 334 378
#
# _framework density 19.715869000000001
#
# number of rings (size 3 to 8) (size 9 to 14) (size 15 to 20)
#    0.000    1.667    3.333    0.000   11.667    0.000 
#    0.000    2.500    0.000    0.000    0.000    0.000 
#    0.000    0.000    0.000    0.000    0.000    0.000 
#
# Total GULP energy -148714.869436 kJ/mol
# GULP energy per Si atom -12392.905786 kJ/mol
# Density = 1.967100 g / cm^3
# Si number density = 19.715869 Si / 1000 Ang^3
#
#
#
# Elastic Constant Matrix: (Units=GPa)
#
#
# Indices 1 2 3 4 5 6 
#
# 1 86.9124 38.4423 41.2378 0.0000 -24.1525 0.0000
# 2 38.4423 140.4409 58.4753 0.0000 -12.3408 0.0000
# 3 41.2378 58.4753 115.9755 0.0000 -9.5928 0.0000
# 4 0.0000 0.0000 0.0000 24.0041 0.0000 -0.1107
# 5 -24.1525 -12.3408 -9.5928 0.0000 32.9078 0.0000
# 6 0.0000 0.0000 0.0000 -0.1107 0.0000 32.3542
#
#
#
# Elastic Compliance Matrix: (Units=1/GPa)
#
#
# Indices 1 2 3 4 5 6 
#
# 1 0.017436 -0.002044 -0.004277 0.000000 0.010784 0.000000
# 2 -0.002044 0.009397 -0.003939 0.000000 0.000875 0.000000
# 3 -0.004277 -0.003939 0.012038 0.000000 -0.001107 0.000000
# 4 0.000000 0.000000 0.000000 0.041660 0.000000 0.000143
# 5 0.010784 0.000875 -0.001107 0.000000 0.038308 0.000000
# 6 0.000000 0.000000 0.000000 0.000143 0.000000 0.030908
#
#
# Mechanical properties :
#
#
# Convention : Reuss Voigt Hill
#
# Bulk Modulus (GPa) = 54.49413 68.84885 61.67149
# Shear Modulus (GPa) = 28.34716 31.53144 29.93930
#
# Velocity S-wave (km/s) = 3.79593 4.00345 3.90107
# Velocity P-wave (km/s) = 6.84922 7.50776 7.18604
#
# Compressibility (1/GPa) = 0.01835060
#
# Stress axis : x y z
#
# Youngs Moduli (GPa) = 57.35191 106.41863 83.07275
#
# Poissons Ratio (x) = 0.21755 0.35531
# Poissons Ratio (y) = 0.11724 0.32719
# Poissons Ratio (z) = 0.24530 0.41914
#
# Static dielectric constant tensor:
#      x y z
#    x 3.600360 0.000000 -0.091330 
#    y 0.000000 3.493100 0.000000 
#    z -0.091330 0.000000 3.713290 
# 
# 
# High freq. dielectric constant tensor:
#      x y z
#    x 1.764660 0.000000 -0.007400 
#    y 0.000000 1.763940 0.000000 
#    z -0.007400 0.000000 1.771440 
# 
# From -- ./inp_files/38689.got.cif
#   From: 2010.03.12/outbox.cif.g09.slc.cpg/sg5_20_cif.got.tgz:38689.got - 2010.03.31 09:47:26.
