data_PCOD8050489
_publ_section_title
;
Structure prediction by ZEFSAII (Michael W. Deem and Ramdas Pophale) SiO2 
 PCOD8050489
Probable space group: C 2
;
_chemical_formula_sum "Si O2"
_cell_formula_units_Z 28
_cell_length_a 15.022453
_cell_length_b 7.816531
_cell_length_c 12.882453
_cell_angle_alpha 90.000000
_cell_angle_beta 94.371463
_cell_angle_gamma 90.000000
_cell_volume 1508.301634
_symmetry_space_group_name_H-M "C 2"
_symmetry_group_IT_number 5
_symmetry_cell_setting 'monoclinic'
loop_
_space_group_symop_operation_xyz
x,y,z
-x,y,-z
1/2+x,1/2+y,z
1/2-x,1/2+y,-z
loop_
_atom_site_type_symbol
_atom_site_label
_atom_site_fract_x
_atom_site_fract_y
_atom_site_fract_z
Si Si1 0.756432 0.465310 0.368920
Si Si2 0.553186 0.472170 0.606549
Si Si3 0.082084 0.865574 0.238387
Si Si4 0.568384 0.822145 0.703049
Si Si5 0.098843 0.487393 0.243264
Si Si6 0.252877 0.858685 0.599841
Si Si7 0.527949 0.691110 0.120544
O O1 0.669381 0.375591 0.316986
O O2 0.839731 0.426679 0.300136
O O3 0.729715 0.662668 0.371797
O O4 0.781102 0.393667 0.484176
O O5 0.500000 0.419642 0.500000
O O6 0.505357 0.385777 0.699612
O O7 0.558878 0.677593 0.614307
O O8 0.650779 0.396835 0.609681
O O9 0.085860 0.674614 0.190572
O O10 0.076867 0.009954 0.148584
O O11 0.559981 0.725383 0.815046
O O12 0.484500 0.951710 0.685553
O O13 0.189205 0.476914 0.318136
O O14 0.098511 0.344789 0.151305
O O15 0.500000 0.694106 0.000000
#
# Coordination Sequence:
#
# PCOD8050489 Si02
#       7
#     4   4   4   4   4   4   4
#     4  12  22  37  56  92 123 166 201 235 299 352
#     4  11  21  36  54  90 121 163 202 237 290 357
#     4  11  21  40  62  89 121 155 200 248 296 361
#     4   9  22  37  61  82 123 149 202 248 297 349
#     4  10  22  40  60  91 120 159 196 252 296 356
#     4  12  23  35  59  87 130 167 200 240 285 365
#     4   9  21  43  68  84 118 153 203 257 312 345
#
# _framework density 18.563925999999999
#
# number of rings (size 3 to 8) (size 9 to 14) (size 15 to 20)
#    0.857    0.571    2.857    3.429    2.000    0.571 
#    0.000    0.000    9.429    0.000    0.000    0.000 
#    0.000    0.000    0.000    0.000    0.000    0.000 
#
# Total GULP energy -173538.544099 kJ/mol
# GULP energy per Si atom -12395.610293 kJ/mol
# Density = 1.852167 g / cm^3
# Si number density = 18.563926 Si / 1000 Ang^3
#
#
#
# Elastic Constant Matrix: (Units=GPa)
#
#
# Indices 1 2 3 4 5 6 
#
# 1 87.0293 13.8607 22.9215 0.0000 5.6645 0.0000
# 2 13.8607 136.6718 29.8424 0.0000 7.6491 0.0000
# 3 22.9215 29.8424 100.2226 0.0000 16.7559 0.0000
# 4 0.0000 0.0000 0.0000 16.9953 0.0000 0.7854
# 5 5.6645 7.6491 16.7559 0.0000 18.8852 0.0000
# 6 0.0000 0.0000 0.0000 0.7854 0.0000 28.7729
#
#
#
# Elastic Compliance Matrix: (Units=1/GPa)
#
#
# Indices 1 2 3 4 5 6 
#
# 1 0.012312 -0.000651 -0.002405 0.000000 -0.001295 0.000000
# 2 -0.000651 0.007887 -0.001994 0.000000 -0.001230 0.000000
# 3 -0.002405 -0.001994 0.012759 0.000000 -0.009791 0.000000
# 4 0.000000 0.000000 0.000000 0.058914 0.000000 -0.001608
# 5 -0.001295 -0.001230 -0.009791 0.000000 0.062525 0.000000
# 6 0.000000 0.000000 0.000000 -0.001608 0.000000 0.034799
#
#
# Mechanical properties :
#
#
# Convention : Reuss Voigt Hill
#
# Bulk Modulus (GPa) = 43.75049 50.79699 47.27374
# Shear Modulus (GPa) = 24.16448 30.08395 27.12422
#
# Velocity S-wave (km/s) = 3.61181 4.02999 3.82661
# Velocity P-wave (km/s) = 6.40408 7.00550 6.71153
#
# Compressibility (1/GPa) = 0.02285689
#
# Stress axis : x y z
#
# Youngs Moduli (GPa) = 81.22235 126.79041 78.37866
#
# Poissons Ratio (x) = 0.08253 0.18854
# Poissons Ratio (y) = 0.05287 0.15628
# Poissons Ratio (z) = 0.19538 0.25281
#
# Static dielectric constant tensor:
#      x y z
#    x 3.365330 0.000000 0.008930 
#    y 0.000000 3.632000 0.000000 
#    z 0.008930 0.000000 3.006980 
# 
# 
# High freq. dielectric constant tensor:
#      x y z
#    x 1.720230 0.000000 0.006500 
#    y 0.000000 1.738110 0.000000 
#    z 0.006500 0.000000 1.680930 
# 
# From -- ./inp_files/41553.got.cif
#   From: 2010.03.12/outbox.cif.g09.slc.cpg/sg5_21_cif.got.tgz:41553.got - 2010.03.31 09:47:26.
