data_PCOD8050980
_publ_section_title
;
Structure prediction by ZEFSAII (Michael W. Deem and Ramdas Pophale) SiO2 
 PCOD8050980
Probable space group: C 2
;
_chemical_formula_sum "Si O2"
_cell_formula_units_Z 22
_cell_length_a 10.773948
_cell_length_b 9.387772
_cell_length_c 14.020160
_cell_angle_alpha 90.000000
_cell_angle_beta 39.532156
_cell_angle_gamma 90.000000
_cell_volume 902.602252
_symmetry_space_group_name_H-M "C 2"
_symmetry_group_IT_number 5
_symmetry_cell_setting 'monoclinic'
loop_
_space_group_symop_operation_xyz
x,y,z
-x,y,-z
1/2+x,1/2+y,z
1/2-x,1/2+y,-z
loop_
_atom_site_type_symbol
_atom_site_label
_atom_site_fract_x
_atom_site_fract_y
_atom_site_fract_z
Si Si1 0.500000 0.725560 0.000000
Si Si2 0.000000 0.873774 0.000000
Si Si3 0.069977 0.653275 0.256758
Si Si4 0.276156 0.624053 0.842243
Si Si5 0.035650 0.477326 0.844513
Si Si6 0.579724 0.446836 0.747579
Si Si7 0.000000 0.549989 0.500000
O O1 0.696154 0.632488 0.888530
O O2 0.513830 0.814814 0.892057
O O3 0.792910 0.787181 0.126483
O O4 0.997555 0.965773 0.098171
O O5 0.974662 0.513075 0.262074
O O6 0.005999 0.652804 0.404650
O O7 0.001953 0.800450 0.248631
O O8 0.498733 0.587656 0.739561
O O9 0.237957 0.540534 0.765711
O O10 0.141623 0.563417 0.005228
O O11 0.812979 0.446832 0.604849
#
# Coordination Sequence:
#
# PCOD8050980 Si02
#       7
#     2   2   4   4   4   4   2
#     4  10  23  39  78 106 122 165 222 291 350 358
#     4  10  23  39  78 106 122 165 222 291 350 358
#     4  12  25  47  68  97 140 174 219 281 329 392
#     4   9  18  38  68 110 119 151 226 281 329 389
#     4   9  18  38  68 110 119 151 226 281 329 389
#     4  12  25  47  68  97 140 174 219 281 329 392
#     4  12  36  42  54 106 140 190 228 242 332 424
#
# _framework density 24.373968000000001
#
# number of rings (size 3 to 8) (size 9 to 14) (size 15 to 20)
#    0.000    1.818    7.273    0.000    5.091    2.909 
#    0.000    0.000    0.000    0.000    0.000    0.000 
#    0.000    0.000    0.000    0.000    0.000    0.000 
#
# Total GULP energy -136300.110906 kJ/mol
# GULP energy per Si atom -12390.919173 kJ/mol
# Density = 2.431849 g / cm^3
# Si number density = 24.373968 Si / 1000 Ang^3
#
#
#
# Elastic Constant Matrix: (Units=GPa)
#
#
# Indices 1 2 3 4 5 6 
#
# 1 161.3309 48.0425 75.9966 0.0000 19.7894 0.0000
# 2 48.0425 84.3818 23.3929 0.0000 6.8991 0.0000
# 3 75.9966 23.3929 104.0815 -0.0002 4.5411 0.0000
# 4 0.0000 0.0000 -0.0002 -2.0436 0.0001 -0.3942
# 5 19.7894 6.8991 4.5411 0.0001 39.2738 0.0000
# 6 0.0000 0.0000 0.0000 -0.3942 0.0000 34.9912
#
#
#
# Elastic Compliance Matrix: (Units=1/GPa)
#
#
# Indices 1 2 3 4 5 6 
#
# 1 0.011296 -0.004112 -0.007143 0.000000 -0.004144 0.000000
# 2 -0.004112 0.014278 -0.000188 0.000000 -0.000414 0.000000
# 3 -0.007143 -0.000188 0.014782 -0.000001 0.001923 0.000000
# 4 0.000000 0.000000 -0.000001 -0.488274 0.000001 -0.005500
# 5 -0.004144 -0.000414 0.001923 0.000001 0.027401 0.000000
# 6 0.000000 0.000000 0.000000 -0.005500 0.000000 0.028517
#
#
# Mechanical properties :
#
#
# Convention : Reuss Voigt Hill
#
# Bulk Modulus (GPa) = 57.24456 71.62868 64.43662
# Shear Modulus (GPa) = -13.76311 27.93511 7.08600
#
# Velocity S-wave (km/s) = -2.37884 3.38909 1.70690
# Velocity P-wave (km/s) = 3.99897 6.69072 5.51169
#
# Compressibility (1/GPa) = 0.01746891
#
# Stress axis : x y z
#
# Youngs Moduli (GPa) = 88.52636 70.03609 67.65081
#
# Poissons Ratio (x) = 0.28802 0.48322
# Poissons Ratio (y) = 0.36406 0.01274
# Poissons Ratio (z) = 0.63234 0.01319
#
# Static dielectric constant tensor:
#      x y z
#    x 5.354510 0.000000 -0.035400 
#    y 0.000000 4.468010 0.000000 
#    z -0.035400 0.000000 3.937440 
# 
# 
# High freq. dielectric constant tensor:
#      x y z
#    x 2.002830 0.000000 -0.001360 
#    y 0.000000 1.962090 0.000000 
#    z -0.001360 0.000000 1.914240 
# 
# From -- ./inp_files/50065.got.cif
#   From: 2010.03.12/outbox.cif.g09.slc.cpg/sg5_26_cif.got.tgz:50065.got - 2010.03.31 09:47:26.
