data_PCOD8050664
_publ_section_title
;
Structure prediction by ZEFSAII (Michael W. Deem and Ramdas Pophale) SiO2 
 PCOD8050664
Probable space group: C 2
;
_chemical_formula_sum "Si O2"
_cell_formula_units_Z 24
_cell_length_a 9.567303
_cell_length_b 9.480242
_cell_length_c 13.683744
_cell_angle_alpha 90.000000
_cell_angle_beta 101.789478
_cell_angle_gamma 90.000000
_cell_volume 1214.938814
_symmetry_space_group_name_H-M "C 2"
_symmetry_group_IT_number 5
_symmetry_cell_setting 'monoclinic'
loop_
_space_group_symop_operation_xyz
x,y,z
-x,y,-z
1/2+x,1/2+y,z
1/2-x,1/2+y,-z
loop_
_atom_site_type_symbol
_atom_site_label
_atom_site_fract_x
_atom_site_fract_y
_atom_site_fract_z
Si Si1 0.889020 0.402560 0.255576
Si Si2 0.817196 0.019567 0.114272
Si Si3 0.564498 0.630280 0.610565
Si Si4 0.142778 0.604697 0.280134
Si Si5 0.918716 0.928750 0.727585
Si Si6 0.146804 0.310965 0.967757
O O1 0.932838 0.252392 0.307231
O O2 0.746090 0.472106 0.280135
O O3 0.860347 0.384869 0.137714
O O4 0.018139 0.504473 0.297396
O O5 0.977335 0.991476 0.174782
O O6 0.706707 0.059990 0.184357
O O7 0.819155 0.146013 0.036713
O O8 0.770097 0.879296 0.051201
O O9 0.500000 0.686429 0.500000
O O10 0.730987 0.588040 0.621362
O O11 0.470450 0.496359 0.632373
O O12 0.074213 0.759863 0.269507
O O13 0.000000 0.339271 0.000000
#
# Coordination Sequence:
#
# PCOD8050664 Si02
#       6
#     4   4   4   4   4   4
#     4  11  23  43  64  95 132 167 212 264 317 375
#     4  11  25  40  59  92 130 173 217 257 305 376
#     4  10  23  45  68  93 128 166 212 268 324 382
#     4  10  22  42  62  92 128 164 210 267 316 371
#     4  10  22  42  64  90 129 167 211 266 316 375
#     4  12  25  38  63  95 130 176 216 253 316 372
#
# _framework density 19.754080999999999
#
# number of rings (size 3 to 8) (size 9 to 14) (size 15 to 20)
#    0.000    1.333    6.667    0.000    4.667    5.333 
#    0.000    0.833    0.000    0.000    0.000    0.000 
#    0.000    0.000    0.000    0.000    0.000    0.000 
#
# Total GULP energy -148785.931872 kJ/mol
# GULP energy per Si atom -12398.827656 kJ/mol
# Density = 1.970912 g / cm^3
# Si number density = 19.754081 Si / 1000 Ang^3
#
#
#
# Elastic Constant Matrix: (Units=GPa)
#
#
# Indices 1 2 3 4 5 6 
#
# 1 138.2114 69.1013 27.1675 0.0000 14.5665 0.0000
# 2 69.1013 100.0226 25.9395 0.0000 10.6054 0.0000
# 3 27.1675 25.9395 85.5911 0.0000 19.5714 0.0000
# 4 0.0000 0.0000 0.0000 8.7523 0.0000 17.7962
# 5 14.5665 10.6054 19.5714 0.0000 21.8460 0.0000
# 6 0.0000 0.0000 0.0000 17.7962 0.0000 25.8381
#
#
#
# Elastic Compliance Matrix: (Units=1/GPa)
#
#
# Indices 1 2 3 4 5 6 
#
# 1 0.011394 -0.007347 -0.000589 0.000000 -0.003503 0.000000
# 2 -0.007347 0.015739 -0.002277 0.000000 -0.000701 0.000000
# 3 -0.000589 -0.002277 0.015366 0.000000 -0.012268 0.000000
# 4 0.000000 0.000000 0.000000 -0.285308 0.000000 0.196508
# 5 -0.003503 -0.000701 -0.012268 0.000000 0.059441 0.000000
# 6 0.000000 0.000000 0.000000 0.196508 0.000000 -0.096644
#
#
# Mechanical properties :
#
#
# Convention : Reuss Voigt Hill
#
# Bulk Modulus (GPa) = 45.30833 63.13795 54.22314
# Shear Modulus (GPa) = -19.82324 24.72841 2.45259
#
# Velocity S-wave (km/s) = -3.17125 3.54194 1.11546
# Velocity P-wave (km/s) = 3.09466 6.98272 5.40071
#
# Compressibility (1/GPa) = 0.02207100
#
# Stress axis : x y z
#
# Youngs Moduli (GPa) = 87.76877 63.53816 65.08019
#
# Poissons Ratio (x) = 0.46683 0.03832
# Poissons Ratio (y) = 0.64486 0.14821
# Poissons Ratio (z) = 0.05168 0.14470
#
# Static dielectric constant tensor:
#      x y z
#    x 3.911050 0.000000 0.009370 
#    y 0.000000 3.625080 0.000000 
#    z 0.009370 0.000000 3.565540 
# 
# 
# High freq. dielectric constant tensor:
#      x y z
#    x 1.782590 0.000000 0.008890 
#    y 0.000000 1.773990 0.000000 
#    z 0.008890 0.000000 1.755880 
# 
# From -- ./inp_files/49931.got.cif
#   From: 2010.03.12/outbox.cif.g09.slc.cpg/sg5_25_cif.got.tgz:49931.got - 2010.03.31 09:47:26.
