data_PCOD8050051
_publ_section_title
;
Structure prediction by ZEFSAII (Michael W. Deem and Ramdas Pophale) SiO2 
 PCOD8050051
Probable space group: C 2
;
_chemical_formula_sum "Si O2"
_cell_formula_units_Z 24
_cell_length_a 11.295304
_cell_length_b 8.279248
_cell_length_c 11.944623
_cell_angle_alpha 90.000000
_cell_angle_beta 89.859431
_cell_angle_gamma 90.000000
_cell_volume 1117.017445
_symmetry_space_group_name_H-M "C 2"
_symmetry_group_IT_number 5
_symmetry_cell_setting 'monoclinic'
loop_
_space_group_symop_operation_xyz
x,y,z
-x,y,-z
1/2+x,1/2+y,z
1/2-x,1/2+y,-z
loop_
_atom_site_type_symbol
_atom_site_label
_atom_site_fract_x
_atom_site_fract_y
_atom_site_fract_z
Si Si1 0.881792 0.844330 0.054248
Si Si2 0.009316 0.316536 0.237691
Si Si3 0.665668 0.114334 0.765122
Si Si4 0.842548 0.163041 0.943006
Si Si5 0.894104 0.118877 0.422223
Si Si6 0.778206 0.322388 0.599141
O O1 0.886125 0.783974 0.182890
O O2 0.757674 0.778639 0.000495
O O3 0.000000 0.767544 0.000000
O O4 0.885802 0.038239 0.038317
O O5 0.046662 0.262296 0.111388
O O6 0.124739 0.365697 0.307492
O O7 0.928700 0.473624 0.229690
O O8 0.939597 0.171748 0.299802
O O9 0.781158 0.064861 0.839166
O O10 0.703633 0.163788 0.639482
O O11 0.800620 0.978339 0.413224
O O12 0.000000 0.054219 0.500000
O O13 0.836419 0.277351 0.480377
#
# Coordination Sequence:
#
# PCOD8050051 Si02
#       6
#     4   4   4   4   4   4
#     4  10  23  39  59  86 118 158 208 246 301 361
#     4  10  21  40  61  89 123 157 199 252 300 355
#     4   9  22  40  60  87 123 155 203 247 301 356
#     4   9  23  39  59  87 121 156 207 251 298 356
#     4  10  22  38  64  88 123 155 196 246 301 365
#     4  10  21  40  61  92 121 156 201 243 301 367
#
# _framework density 21.485787999999999
#
# number of rings (size 3 to 8) (size 9 to 14) (size 15 to 20)
#    1.000    1.333    0.000    1.000    4.667    2.667 
#    3.000    0.000    0.000    0.000    0.000    0.000 
#    0.000    0.000    0.000    0.000    0.000    0.000 
#
# Total GULP energy -148683.789849 kJ/mol
# GULP energy per Si atom -12390.315821 kJ/mol
# Density = 2.143689 g / cm^3
# Si number density = 21.485788 Si / 1000 Ang^3
#
#
#
# Elastic Constant Matrix: (Units=GPa)
#
#
# Indices 1 2 3 4 5 6 
#
# 1 85.3298 33.1487 6.0505 0.0000 -20.1791 0.0000
# 2 33.1487 75.9444 7.3882 0.0000 8.2718 0.0000
# 3 6.0505 7.3882 45.3611 0.0000 -13.9458 0.0000
# 4 0.0000 0.0000 0.0000 18.8579 0.0000 -7.2270
# 5 -20.1791 8.2718 -13.9458 0.0000 28.2905 0.0000
# 6 0.0000 0.0000 0.0000 -7.2270 0.0000 59.1482
#
#
#
# Elastic Compliance Matrix: (Units=1/GPa)
#
#
# Indices 1 2 3 4 5 6 
#
# 1 0.021061 -0.012079 0.005731 0.000000 0.021380 0.000000
# 2 -0.012079 0.021191 -0.007536 0.000000 -0.018527 0.000000
# 3 0.005731 -0.007536 0.028809 0.000000 0.020493 0.000000
# 4 0.000000 0.000000 0.000000 0.055633 0.000000 0.006797
# 5 0.021380 -0.018527 0.020493 0.000000 0.066116 0.000000
# 6 0.000000 0.000000 0.000000 0.006797 0.000000 0.017737
#
#
# Mechanical properties :
#
#
# Convention : Reuss Voigt Hill
#
# Bulk Modulus (GPa) = 23.09882 33.31226 28.20554
# Shear Modulus (GPa) = 19.78266 31.92917 25.85592
#
# Velocity S-wave (km/s) = 3.03765 3.85913 3.47276
# Velocity P-wave (km/s) = 4.80387 5.94938 5.40705
#
# Compressibility (1/GPa) = 0.04329226
#
# Stress axis : x y z
#
# Youngs Moduli (GPa) = 47.48056 47.18988 34.71189
#
# Poissons Ratio (x) = 0.57001 -0.19894
# Poissons Ratio (y) = 0.57352 0.26160
# Poissons Ratio (z) = -0.27211 0.35563
#
# Static dielectric constant tensor:
#      x y z
#    x 4.105520 0.000000 -0.291200 
#    y 0.000000 3.432720 0.000000 
#    z -0.291200 0.000000 3.792170 
# 
# 
# High freq. dielectric constant tensor:
#      x y z
#    x 1.860030 0.000000 -0.017720 
#    y 0.000000 1.822900 0.000000 
#    z -0.017720 0.000000 1.830120 
# 
# From -- ./inp_files/38346.got.cif
#   From: 2010.03.12/outbox.cif.g09.slc.cpg/sg5_20_cif.got.tgz:38346.got - 2010.03.31 09:47:26.
