data_PCOD8050705
_publ_section_title
;
Structure prediction by ZEFSAII (Michael W. Deem and Ramdas Pophale) SiO2 
 PCOD8050705
Probable space group: C 2
;
_chemical_formula_sum "Si O2"
_cell_formula_units_Z 18
_cell_length_a 6.214715
_cell_length_b 25.286871
_cell_length_c 4.906998
_cell_angle_alpha 90.000000
_cell_angle_beta 87.329516
_cell_angle_gamma 90.000000
_cell_volume 770.300705
_symmetry_space_group_name_H-M "C 2"
_symmetry_group_IT_number 5
_symmetry_cell_setting 'monoclinic'
loop_
_space_group_symop_operation_xyz
x,y,z
-x,y,-z
1/2+x,1/2+y,z
1/2-x,1/2+y,-z
loop_
_atom_site_type_symbol
_atom_site_label
_atom_site_fract_x
_atom_site_fract_y
_atom_site_fract_z
Si Si1 0.854157 0.759880 0.253179
Si Si2 0.000000 0.182707 0.500000
Si Si3 0.500000 0.614325 0.000000
Si Si4 0.500000 0.951682 0.500000
Si Si5 0.855119 0.015140 0.773574
Si Si6 0.349382 0.377174 0.249604
O O1 0.672410 0.718182 0.334229
O O2 0.758744 0.817987 0.186306
O O3 0.000000 0.769886 0.500000
O O4 0.000000 0.737024 0.000000
O O5 0.099037 0.148230 0.742430
O O6 0.312851 0.575516 0.886411
O O7 0.647275 0.915420 0.299892
O O8 0.631025 0.987252 0.710250
O O9 0.000000 0.017139 0.500000
O O10 0.000000 0.985452 0.000000
O O11 0.500000 0.379816 0.500000
O O12 0.500000 0.397756 0.000000
#
# Coordination Sequence:
#
# PCOD8050705 Si02
#       6
#     4   2   2   2   4   4
#     4  10  22  42  67 104 141 173 222 286 344 416
#     4  12  21  42  76  96 132 190 229 272 362 420
#     4  10  22  46  66 100 146 174 228 314 332 392
#     4  12  25  44  80 100 132 206 233 268 370 420
#     4  10  24  47  65  99 145 181 234 302 341 401
#     4  10  24  44  66 104 147 174 227 292 338 417
#
# _framework density 23.367501000000001
#
# number of rings (size 3 to 8) (size 9 to 14) (size 15 to 20)
#    0.667    0.889    1.111    2.667    0.000    7.111 
#    2.000    8.889    0.000    0.000    0.000    0.000 
#    0.000    0.000    0.000    0.000    0.000    0.000 
#
# Total GULP energy -111509.624349 kJ/mol
# GULP energy per Si atom -12389.958261 kJ/mol
# Density = 2.331432 g / cm^3
# Si number density = 23.367501 Si / 1000 Ang^3
#
#
#
# Elastic Constant Matrix: (Units=GPa)
#
#
# Indices 1 2 3 4 5 6 
#
# 1 131.2306 87.0713 74.2478 0.0000 -7.7820 0.0000
# 2 87.0713 164.1947 75.9778 0.0000 -19.0262 0.0000
# 3 74.2478 75.9778 201.8363 0.0000 -16.7896 0.0000
# 4 0.0000 0.0000 0.0000 -107.5499 0.0000 0.2029
# 5 -7.7820 -19.0262 -16.7896 0.0000 46.6328 0.0000
# 6 0.0000 0.0000 0.0000 0.2029 0.0000 29.8296
#
#
#
# Elastic Compliance Matrix: (Units=1/GPa)
#
#
# Indices 1 2 3 4 5 6 
#
# 1 0.012855 -0.005713 -0.002674 0.000000 -0.001148 0.000000
# 2 -0.005713 0.010113 -0.001486 0.000000 0.002638 0.000000
# 3 -0.002674 -0.001486 0.006608 0.000000 0.001327 0.000000
# 4 0.000000 0.000000 0.000000 -0.009298 0.000000 0.000063
# 5 -0.001148 0.002638 0.001327 0.000000 0.022806 0.000000
# 6 0.000000 0.000000 0.000000 0.000063 0.000000 0.033523
#
#
# Mechanical properties :
#
#
# Convention : Reuss Voigt Hill
#
# Bulk Modulus (GPa) = 101.72156 107.98394 104.85275
# Shear Modulus (GPa) = 50.18528 11.11349 30.64939
#
# Velocity S-wave (km/s) = 4.63931 2.18318 3.62556
# Velocity P-wave (km/s) = 8.50431 7.25717 7.90537
#
# Compressibility (1/GPa) = 0.00983076
#
# Stress axis : x y z
#
# Youngs Moduli (GPa) = 77.78780 98.88195 151.33431
#
# Poissons Ratio (x) = 0.56490 0.40467
# Poissons Ratio (y) = 0.44439 0.22487
# Poissons Ratio (z) = 0.20801 0.14693
#
# Static dielectric constant tensor:
#      x y z
#    x 3.330880 0.000000 -0.345670 
#    y 0.000000 4.811520 0.000000 
#    z -0.345670 0.000000 4.020690 
# 
# 
# High freq. dielectric constant tensor:
#      x y z
#    x 1.880920 0.000000 0.002850 
#    y 0.000000 1.946600 0.000000 
#    z 0.002850 0.000000 1.953780 
# 
# From -- ./inp_files/1116.got.cif
#   From: 2010.03.12/outbox.cif.g09.slc.cpg/sg5_1_cif.got.tgz:1116.got - 2010.03.31 09:47:26.
