data_PCOD8050188
_publ_section_title
;
Structure prediction by ZEFSAII (Michael W. Deem and Ramdas Pophale) SiO2 
 PCOD8050188
Probable space group: C 2
;
_chemical_formula_sum "Si O2"
_cell_formula_units_Z 24
_cell_length_a 20.305638
_cell_length_b 8.147759
_cell_length_c 9.170752
_cell_angle_alpha 90.000000
_cell_angle_beta 133.313526
_cell_angle_gamma 90.000000
_cell_volume 1103.974191
_symmetry_space_group_name_H-M "C 2"
_symmetry_group_IT_number 5
_symmetry_cell_setting 'monoclinic'
loop_
_space_group_symop_operation_xyz
x,y,z
-x,y,-z
1/2+x,1/2+y,z
1/2-x,1/2+y,-z
loop_
_atom_site_type_symbol
_atom_site_label
_atom_site_fract_x
_atom_site_fract_y
_atom_site_fract_z
Si Si1 0.767001 0.171520 0.243797
Si Si2 0.291721 0.471793 0.003452
Si Si3 0.583895 0.055039 0.028741
Si Si4 0.974951 0.772574 0.299297
Si Si5 0.575856 0.555256 0.311672
Si Si6 0.109574 0.179874 0.053904
O O1 0.674310 0.163813 0.198860
O O2 0.853918 0.143359 0.474530
O O3 0.754055 0.030211 0.101333
O O4 0.778238 0.347397 0.181016
O O5 0.388114 0.387969 0.171106
O O6 0.305854 0.629824 0.919200
O O7 0.614402 0.869402 0.104560
O O8 0.500000 0.109440 0.000000
O O9 0.549161 0.099731 0.813576
O O10 0.000000 0.725470 0.500000
O O11 0.055511 0.869667 0.335873
O O12 0.612798 0.561776 0.201726
O O13 0.483678 0.659436 0.176545
#
# Coordination Sequence:
#
# PCOD8050188 Si02
#       6
#     4   4   4   4   4   4
#     4  11  23  41  66  97 132 172 226 275 332 399
#     4  10  22  41  65  96 132 172 214 282 334 392
#     4  11  24  44  61  93 139 173 222 275 329 400
#     4  10  21  41  67  96 128 177 220 269 339 397
#     4  10  21  41  69  94 128 175 220 269 338 394
#     4  10  22  44  62  95 136 171 219 275 337 395
#
# _framework density 21.739639
#
# number of rings (size 3 to 8) (size 9 to 14) (size 15 to 20)
#    0.000    1.667    3.333    1.000    7.000    1.333 
#    9.000    0.000    0.000    0.000    0.000    0.000 
#    0.000    0.000    0.000    0.000    0.000    0.000 
#
# Total GULP energy -148743.036032 kJ/mol
# GULP energy per Si atom -12395.253003 kJ/mol
# Density = 2.169016 g / cm^3
# Si number density = 21.739639 Si / 1000 Ang^3
#
#
#
# Elastic Constant Matrix: (Units=GPa)
#
#
# Indices 1 2 3 4 5 6 
#
# 1 83.3862 20.6030 32.5448 0.0000 -7.3197 0.0000
# 2 20.6030 69.4894 34.2041 0.0000 -4.9147 0.0000
# 3 32.5448 34.2041 136.8904 0.0000 -1.4126 0.0000
# 4 0.0000 0.0000 0.0000 24.2096 0.0000 -3.8772
# 5 -7.3197 -4.9147 -1.4126 0.0000 24.5081 0.0000
# 6 0.0000 0.0000 0.0000 -3.8772 0.0000 23.3777
#
#
#
# Elastic Compliance Matrix: (Units=1/GPa)
#
#
# Indices 1 2 3 4 5 6 
#
# 1 0.013970 -0.002597 -0.002636 0.000000 0.003500 0.000000
# 2 -0.002597 0.017123 -0.003636 0.000000 0.002449 0.000000
# 3 -0.002636 -0.003636 0.008830 0.000000 -0.001008 0.000000
# 4 0.000000 0.000000 0.000000 0.042433 0.000000 0.007038
# 5 0.003500 0.002449 -0.001008 0.000000 0.042281 0.000000
# 6 0.000000 0.000000 0.000000 0.007038 0.000000 0.043943
#
#
# Mechanical properties :
#
#
# Convention : Reuss Voigt Hill
#
# Bulk Modulus (GPa) = 45.07462 51.60775 48.34119
# Shear Modulus (GPa) = 25.81126 27.91336 26.86231
#
# Velocity S-wave (km/s) = 3.44945 3.58716 3.51898
# Velocity P-wave (km/s) = 6.05341 6.39902 6.22861
#
# Compressibility (1/GPa) = 0.02218543
#
# Stress axis : x y z
#
# Youngs Moduli (GPa) = 71.58120 58.39936 113.25058
#
# Poissons Ratio (x) = 0.15165 0.29857
# Poissons Ratio (y) = 0.18588 0.41177
# Poissons Ratio (z) = 0.18871 0.21233
#
# Static dielectric constant tensor:
#      x y z
#    x 4.167800 0.000000 -0.098070 
#    y 0.000000 3.840100 0.000000 
#    z -0.098070 0.000000 3.766620 
# 
# 
# High freq. dielectric constant tensor:
#      x y z
#    x 1.859890 0.000000 -0.003410 
#    y 0.000000 1.846020 0.000000 
#    z -0.003410 0.000000 1.838640 
# 
# From -- ./inp_files/29009.got.cif
#   From: 2010.03.12/outbox.cif.g09.slc.cpg/sg5_15_cif.got.tgz:29009.got - 2010.03.31 09:47:26.
