data_PCOD8050463
_publ_section_title
;
Structure prediction by ZEFSAII (Michael W. Deem and Ramdas Pophale) SiO2 
 PCOD8050463
Probable space group: C 2
;
_chemical_formula_sum "Si O2"
_cell_formula_units_Z 30
_cell_length_a 15.298713
_cell_length_b 9.459560
_cell_length_c 11.275829
_cell_angle_alpha 90.000000
_cell_angle_beta 60.924247
_cell_angle_gamma 90.000000
_cell_volume 1426.181485
_symmetry_space_group_name_H-M "C 2"
_symmetry_group_IT_number 5
_symmetry_cell_setting 'monoclinic'
loop_
_space_group_symop_operation_xyz
x,y,z
-x,y,-z
1/2+x,1/2+y,z
1/2-x,1/2+y,-z
loop_
_atom_site_type_symbol
_atom_site_label
_atom_site_fract_x
_atom_site_fract_y
_atom_site_fract_z
Si Si1 0.183641 0.716860 0.631213
Si Si2 0.666414 0.791640 0.856518
Si Si3 0.033081 0.956025 0.735143
Si Si4 0.619188 0.111475 0.926117
Si Si5 0.500000 0.586512 0.000000
Si Si6 0.107827 0.246292 0.623163
Si Si7 0.871855 0.728171 0.831613
Si Si8 0.027373 0.534332 0.614400
O O1 0.130537 0.865322 0.638343
O O2 0.169617 0.677793 0.777414
O O3 0.299963 0.731164 0.527031
O O4 0.135232 0.597334 0.579037
O O5 0.591396 0.688804 0.977174
O O6 0.646086 0.782122 0.729769
O O7 0.777073 0.735143 0.808896
O O8 0.652571 0.948889 0.915475
O O9 0.932257 0.873202 0.767849
O O10 0.032693 0.982377 0.875148
O O11 0.041779 0.104004 0.660585
O O12 0.500000 0.122718 0.000000
O O13 0.659455 0.203435 0.010887
O O14 0.032883 0.366370 0.626529
O O15 0.941123 0.593813 0.756193
O O16 0.000000 0.578479 0.500000
#
# Coordination Sequence:
#
# PCOD8050463 Si02
#       8
#     4   4   4   4   2   4   4   4
#     4  11  22  42  72  96 131 179 224 275 331 414
#     4  11  24  42  69  97 135 173 229 275 340 402
#     4  10  22  39  65  97 133 163 224 274 336 388
#     4  12  21  45  70  98 135 183 222 274 343 411
#     4  10  22  40  64  96 126 176 208 282 324 402
#     4  11  23  45  67  99 131 181 224 277 338 406
#     4  11  25  43  68 100 135 178 220 286 337 408
#     4  11  23  45  67  97 133 178 225 276 342 401
#
# _framework density 21.03519
#
# number of rings (size 3 to 8) (size 9 to 14) (size 15 to 20)
#    0.000    1.067    4.667    2.400    3.733    1.067 
#    4.800    0.667    0.000    0.000    0.000    0.000 
#    0.000    0.000    0.000    0.000    0.000    0.000 
#
# Total GULP energy -186067.470976 kJ/mol
# GULP energy per Si atom -12404.498065 kJ/mol
# Density = 2.098731 g / cm^3
# Si number density = 21.035190 Si / 1000 Ang^3
#
#
#
# Elastic Constant Matrix: (Units=GPa)
#
#
# Indices 1 2 3 4 5 6 
#
# 1 88.8990 31.9663 29.4411 0.0000 -7.3310 0.0000
# 2 31.9663 130.3327 35.0446 0.0000 -14.3109 0.0000
# 3 29.4411 35.0446 102.3993 0.0000 1.1535 0.0000
# 4 0.0000 0.0000 0.0000 23.1823 0.0000 0.7333
# 5 -7.3310 -14.3109 1.1535 0.0000 34.2560 0.0000
# 6 0.0000 0.0000 0.0000 0.7333 0.0000 20.5007
#
#
#
# Elastic Compliance Matrix: (Units=1/GPa)
#
#
# Indices 1 2 3 4 5 6 
#
# 1 0.013222 -0.002195 -0.003073 0.000000 0.002016 0.000000
# 2 -0.002195 0.009291 -0.002588 0.000000 0.003499 0.000000
# 3 -0.003073 -0.002588 0.011559 0.000000 -0.002128 0.000000
# 4 0.000000 0.000000 0.000000 0.043185 0.000000 -0.001545
# 5 0.002016 0.003499 -0.002128 0.000000 0.031157 0.000000
# 6 0.000000 0.000000 0.000000 -0.001545 0.000000 0.048834
#
#
# Mechanical properties :
#
#
# Convention : Reuss Voigt Hill
#
# Bulk Modulus (GPa) = 54.46726 57.17054 55.81890
# Shear Modulus (GPa) = 27.92044 30.59973 29.26009
#
# Velocity S-wave (km/s) = 3.64719 3.81818 3.73367
# Velocity P-wave (km/s) = 6.60951 6.83195 6.72165
#
# Compressibility (1/GPa) = 0.01835965
#
# Stress axis : x y z
#
# Youngs Moduli (GPa) = 75.63140 107.62913 86.51371
#
# Poissons Ratio (x) = 0.23628 0.26585
# Poissons Ratio (y) = 0.16603 0.22390
# Poissons Ratio (z) = 0.23241 0.27854
#
# Static dielectric constant tensor:
#      x y z
#    x 3.558310 0.000000 -0.027220 
#    y 0.000000 4.045530 0.000000 
#    z -0.027220 0.000000 3.884500 
# 
# 
# High freq. dielectric constant tensor:
#      x y z
#    x 1.804130 0.000000 -0.003640 
#    y 0.000000 1.840280 0.000000 
#    z -0.003640 0.000000 1.830680 
# 
# From -- ./inp_files/41912.got.cif
#   From: 2010.03.12/outbox.cif.g09.slc.cpg/sg5_21_cif.got.tgz:41912.got - 2010.03.31 09:47:26.
