data_PCOD8050640
_publ_section_title
;
Structure prediction by ZEFSAII (Michael W. Deem and Ramdas Pophale) SiO2 
 PCOD8050640
Probable space group: C 2
;
_chemical_formula_sum "Si O2"
_cell_formula_units_Z 24
_cell_length_a 8.352583
_cell_length_b 16.996913
_cell_length_c 14.120591
_cell_angle_alpha 90.000000
_cell_angle_beta 31.210169
_cell_angle_gamma 90.000000
_cell_volume 1038.779517
_symmetry_space_group_name_H-M "C 2"
_symmetry_group_IT_number 5
_symmetry_cell_setting 'monoclinic'
loop_
_space_group_symop_operation_xyz
x,y,z
-x,y,-z
1/2+x,1/2+y,z
1/2-x,1/2+y,-z
loop_
_atom_site_type_symbol
_atom_site_label
_atom_site_fract_x
_atom_site_fract_y
_atom_site_fract_z
Si Si1 0.178279 0.640280 0.813773
Si Si2 0.311922 0.984135 0.308902
Si Si3 0.641212 0.264334 0.154014
Si Si4 0.639596 0.033641 0.331160
Si Si5 0.629119 0.202229 0.528036
Si Si6 0.118495 0.914361 0.044265
O O1 0.261661 0.563707 0.710686
O O2 0.510115 0.680665 0.665687
O O3 0.943408 0.694670 0.874783
O O4 0.000000 0.617926 0.000000
O O5 0.485545 0.997585 0.318106
O O6 0.000000 0.941933 0.500000
O O7 0.510644 0.924681 0.144713
O O8 0.420925 0.258000 0.357024
O O9 0.543505 0.346037 0.155703
O O10 0.000000 0.258763 0.000000
O O11 0.500000 0.001213 0.500000
O O12 0.604393 0.127383 0.344091
O O13 0.988077 0.999020 0.147485
O O14 0.500000 0.246802 0.500000
O O15 0.000000 0.889797 0.000000
#
# Coordination Sequence:
#
# PCOD8050640 Si02
#       6
#     4   4   4   4   4   4
#     4  12  25  43  75 107 149 187 250 308 361 430
#     4  11  22  43  70 106 143 186 245 303 361 427
#     4  12  26  46  71 106 152 194 246 292 378 435
#     4  10  22  41  70 105 140 187 243 298 364 426
#     4  11  24  45  73 112 141 191 250 304 367 428
#     4  10  26  46  70 104 149 197 239 302 369 433
#
# _framework density 23.104036000000001
#
# number of rings (size 3 to 8) (size 9 to 14) (size 15 to 20)
#    0.000    1.000    3.333    2.000    7.000    3.333 
#    0.000    7.500    0.000    0.000    0.000    0.000 
#    0.000    0.000    0.000    0.000    0.000    0.000 
#
# Total GULP energy -148747.381063 kJ/mol
# GULP energy per Si atom -12395.615089 kJ/mol
# Density = 2.305145 g / cm^3
# Si number density = 23.104036 Si / 1000 Ang^3
#
#
#
# Elastic Constant Matrix: (Units=GPa)
#
#
# Indices 1 2 3 4 5 6 
#
# 1 106.9278 27.8942 51.6429 -0.0029 10.2967 -0.0377
# 2 27.8942 74.1754 45.9585 0.0050 7.5379 -0.0371
# 3 51.6429 45.9585 173.8912 -0.0531 4.3248 -0.1176
# 4 -0.0029 0.0050 -0.0531 33.3042 0.0264 8.1831
# 5 10.2967 7.5379 4.3248 0.0264 48.6141 0.0466
# 6 -0.0377 -0.0371 -0.1176 8.1831 0.0466 40.9627
#
#
#
# Elastic Compliance Matrix: (Units=1/GPa)
#
#
# Indices 1 2 3 4 5 6 
#
# 1 0.011477 -0.002449 -0.002716 -0.000002 -0.001810 0.000003
# 2 -0.002449 0.016866 -0.003686 -0.000009 -0.001769 0.000006
# 3 -0.002716 -0.003686 0.007520 0.000009 0.000478 0.000013
# 4 -0.000002 -0.000009 0.000009 0.031576 -0.000010 -0.006308
# 5 -0.001810 -0.001769 0.000478 -0.000010 0.021185 -0.000024
# 6 0.000003 0.000006 0.000013 -0.006308 -0.000024 0.025673
#
#
# Mechanical properties :
#
#
# Convention : Reuss Voigt Hill
#
# Bulk Modulus (GPa) = 55.06677 67.33173 61.19925
# Shear Modulus (GPa) = 36.21769 39.87610 38.04690
#
# Velocity S-wave (km/s) = 3.96358 4.15895 4.06244
# Velocity P-wave (km/s) = 6.69572 7.22970 6.96782
#
# Compressibility (1/GPa) = 0.01815977
#
# Stress axis : x y z
#
# Youngs Moduli (GPa) = 87.12988 59.28968 132.98241
#
# Poissons Ratio (x) = 0.14521 0.36121
# Poissons Ratio (y) = 0.21340 0.49022
# Poissons Ratio (z) = 0.23666 0.21856
#
# Static dielectric constant tensor:
#      x y z
#    x 4.384080 -0.000100 0.216810 
#    y -0.000100 3.840970 -0.000190 
#    z 0.216810 -0.000190 4.949750 
# 
# 
# High freq. dielectric constant tensor:
#      x y z
#    x 1.934510 0.000000 0.007540 
#    y 0.000000 1.883330 0.000000 
#    z 0.007540 0.000000 1.928880 
# 
# From -- ./inp_files/51320.got.cif
#   From: 2010.03.12/outbox.cif.g09.slc.cpg/sg5_26_cif.got.tgz:51320.got - 2010.03.31 09:47:26.
