data_PCOD8050795
_publ_section_title
;
Structure prediction by ZEFSAII (Michael W. Deem and Ramdas Pophale) SiO2 
 PCOD8050795
Probable space group: C 2
;
_chemical_formula_sum "Si O2"
_cell_formula_units_Z 28
_cell_length_a 14.894749
_cell_length_b 8.847067
_cell_length_c 14.890180
_cell_angle_alpha 90.000000
_cell_angle_beta 138.795066
_cell_angle_gamma 90.000000
_cell_volume 1292.575394
_symmetry_space_group_name_H-M "C 2"
_symmetry_group_IT_number 5
_symmetry_cell_setting 'monoclinic'
loop_
_space_group_symop_operation_xyz
x,y,z
-x,y,-z
1/2+x,1/2+y,z
1/2-x,1/2+y,-z
loop_
_atom_site_type_symbol
_atom_site_label
_atom_site_fract_x
_atom_site_fract_y
_atom_site_fract_z
Si Si1 0.500000 0.031821 0.000000
Si Si2 0.866634 0.852202 0.540102
Si Si3 0.856592 0.209865 0.511576
Si Si4 0.842481 0.508102 0.048239
Si Si5 0.832479 0.789614 0.792181
Si Si6 0.101818 0.417948 0.715845
Si Si7 0.428895 0.338501 0.147395
Si Si8 0.500000 0.161331 0.500000
O O1 0.423751 0.938362 0.022370
O O2 0.617148 0.129828 0.134622
O O3 0.723808 0.787884 0.467512
O O4 0.992121 0.809847 0.700052
O O5 0.888096 0.771392 0.460423
O O6 0.856423 0.031016 0.521732
O O7 0.786875 0.260268 0.367758
O O8 0.009910 0.272318 0.624343
O O9 0.917263 0.450896 0.193641
O O10 0.851223 0.689388 0.054325
O O11 0.682578 0.468885 0.923578
O O12 0.958061 0.883556 0.842904
O O13 0.762210 0.883176 0.819641
O O14 0.063845 0.560880 0.626627
#
# Coordination Sequence:
#
# PCOD8050795 Si02
#       8
#     2   4   4   4   4   4   4   2
#     4  10  24  42  70  96 136 178 230 292 338 416
#     4  11  26  43  67 106 141 183 234 292 346 425
#     4  11  25  42  72 100 144 188 232 282 364 413
#     4  11  24  46  68  97 135 183 231 293 344 414
#     4  10  22  43  69  99 133 183 231 274 351 423
#     4  12  23  44  71 101 142 188 227 291 353 416
#     4  10  24  44  69  98 137 179 234 285 351 411
#     4  12  24  42  64 104 144 176 232 294 340 408
#
# _framework density 21.662178999999998
#
# number of rings (size 3 to 8) (size 9 to 14) (size 15 to 20)
#    0.000    1.143    2.857    2.571   12.000    0.000 
#    0.000    1.429    0.000    0.000    0.000    0.000 
#    0.000    0.000    0.000    0.000    0.000    0.000 
#
# Total GULP energy -173590.535113 kJ/mol
# GULP energy per Si atom -12399.323937 kJ/mol
# Density = 2.161288 g / cm^3
# Si number density = 21.662179 Si / 1000 Ang^3
#
#
#
# Elastic Constant Matrix: (Units=GPa)
#
#
# Indices 1 2 3 4 5 6 
#
# 1 190.9971 61.6930 57.4112 0.0000 0.7275 0.0000
# 2 61.6930 97.1891 4.3408 0.0000 14.2330 0.0000
# 3 57.4112 4.3408 67.4593 0.0000 10.0350 0.0000
# 4 0.0000 0.0000 0.0000 20.3004 0.0000 1.8257
# 5 0.7275 14.2330 10.0350 0.0000 38.6807 0.0000
# 6 0.0000 0.0000 0.0000 1.8257 0.0000 33.5746
#
#
#
# Elastic Compliance Matrix: (Units=1/GPa)
#
#
# Indices 1 2 3 4 5 6 
#
# 1 0.009978 -0.006604 -0.008738 0.000000 0.004509 0.000000
# 2 -0.006604 0.015247 0.005674 0.000000 -0.006958 0.000000
# 3 -0.008738 0.005674 0.023071 0.000000 -0.007909 0.000000
# 4 0.000000 0.000000 0.000000 0.049502 0.000000 -0.002692
# 5 0.004509 -0.006958 -0.007909 0.000000 0.030380 0.000000
# 6 0.000000 0.000000 0.000000 -0.002692 0.000000 0.029931
#
#
# Mechanical properties :
#
#
# Convention : Reuss Voigt Hill
#
# Bulk Modulus (GPa) = 34.52863 66.94838 50.73851
# Shear Modulus (GPa) = 26.72405 33.99116 30.35761
#
# Velocity S-wave (km/s) = 3.51618 3.96554 3.74760
# Velocity P-wave (km/s) = 5.69727 7.20695 6.49612
#
# Compressibility (1/GPa) = 0.02896147
#
# Stress axis : x y z
#
# Youngs Moduli (GPa) = 100.22067 65.58793 43.34394
#
# Poissons Ratio (x) = 0.43313 0.37872
# Poissons Ratio (y) = 0.66184 -0.24594
# Poissons Ratio (z) = 0.87569 -0.37216
#
# Static dielectric constant tensor:
#      x y z
#    x 4.509790 0.000000 -0.091270 
#    y 0.000000 3.640460 0.000000 
#    z -0.091270 0.000000 3.934560 
# 
# 
# High freq. dielectric constant tensor:
#      x y z
#    x 1.876470 0.000000 -0.005580 
#    y 0.000000 1.824350 0.000000 
#    z -0.005580 0.000000 1.854840 
# 
# From -- ./inp_files/41793.got.cif
#   From: 2010.03.12/outbox.cif.g09.slc.cpg/sg5_21_cif.got.tgz:41793.got - 2010.03.31 09:47:26.
