data_PCOD8050642
_publ_section_title
;
Structure prediction by ZEFSAII (Michael W. Deem and Ramdas Pophale) SiO2 
 PCOD8050642
Probable space group: C 2
;
_chemical_formula_sum "Si O2"
_cell_formula_units_Z 32
_cell_length_a 15.097399
_cell_length_b 16.710342
_cell_length_c 11.093600
_cell_angle_alpha 90.000000
_cell_angle_beta 31.898765
_cell_angle_gamma 90.000000
_cell_volume 1478.901500
_symmetry_space_group_name_H-M "C 2"
_symmetry_group_IT_number 5
_symmetry_cell_setting 'monoclinic'
loop_
_space_group_symop_operation_xyz
x,y,z
-x,y,-z
1/2+x,1/2+y,z
1/2-x,1/2+y,-z
loop_
_atom_site_type_symbol
_atom_site_label
_atom_site_fract_x
_atom_site_fract_y
_atom_site_fract_z
Si Si1 0.218441 0.967190 0.122613
Si Si2 0.806350 0.611480 0.186534
Si Si3 0.691782 0.867867 0.765480
Si Si4 0.854335 0.005401 0.451601
Si Si5 0.317560 0.571132 0.241671
Si Si6 0.414342 0.223050 0.466329
Si Si7 0.678085 0.931109 0.241812
Si Si8 0.111693 0.770235 0.991153
O O1 0.224566 0.891406 0.204000
O O2 0.272010 0.048748 0.121811
O O3 0.351155 0.954134 0.862981
O O4 0.030273 0.970562 0.291406
O O5 0.687229 0.590649 0.437571
O O6 0.757668 0.698992 0.191821
O O7 0.000000 0.608321 0.000000
O O8 0.773374 0.789351 0.618032
O O9 0.710576 0.942013 0.652327
O O10 0.500000 0.847371 0.000000
O O11 0.851649 0.013054 0.313355
O O12 0.177124 0.636962 0.434694
O O13 0.254163 0.511186 0.212096
O O14 0.500000 0.610240 0.000000
O O15 0.500000 0.228065 0.500000
O O16 0.527829 0.240643 0.215820
O O17 0.500000 0.905585 0.500000
O O18 0.801507 0.855453 0.097585
O O19 0.000000 0.777424 0.000000
#
# Coordination Sequence:
#
# PCOD8050642 Si02
#       8
#     4   4   4   4   4   4   4   4
#     4  11  23  43  67 101 135 182 233 292 345 431
#     4  10  22  41  70  98 133 181 238 286 352 418
#     4  11  24  42  71  99 136 183 242 289 351 423
#     4  11  22  42  68  99 135 185 228 293 348 428
#     4  12  26  45  69 104 144 185 234 287 368 422
#     4  12  27  47  73 103 146 189 238 298 361 424
#     4  12  28  42  69 103 143 184 233 291 362 423
#     4  11  26  47  71 101 141 188 234 294 361 426
#
# _framework density 21.637681000000001
#
# number of rings (size 3 to 8) (size 9 to 14) (size 15 to 20)
#    0.000    0.750    1.250    7.875    8.750    1.000 
#    0.000    2.500    0.000    0.000    0.000    0.000 
#    0.000    0.000    0.000    0.000    0.000    0.000 
#
# Total GULP energy -198297.984569 kJ/mol
# GULP energy per Si atom -12393.624036 kJ/mol
# Density = 2.158843 g / cm^3
# Si number density = 21.637681 Si / 1000 Ang^3
#
#
#
# Elastic Constant Matrix: (Units=GPa)
#
#
# Indices 1 2 3 4 5 6 
#
# 1 83.9272 7.3524 12.4528 -0.0081 18.8940 0.0009
# 2 7.3524 113.7080 20.8729 -0.0085 2.3051 0.0000
# 3 12.4528 20.8729 98.9320 -0.0120 10.0372 0.0023
# 4 -0.0081 -0.0085 -0.0120 52.6437 0.0061 5.5274
# 5 18.8940 2.3051 10.0372 0.0061 35.7373 -0.0029
# 6 0.0009 0.0000 0.0023 5.5274 -0.0029 30.2569
#
#
#
# Elastic Compliance Matrix: (Units=1/GPa)
#
#
# Indices 1 2 3 4 5 6 
#
# 1 0.013659 -0.000579 -0.000894 0.000003 -0.006933 -0.000002
# 2 -0.000579 0.009173 -0.001887 0.000001 0.000244 0.000000
# 3 -0.000894 -0.001887 0.010868 0.000002 -0.002458 -0.000002
# 4 0.000003 0.000001 0.000002 0.019367 -0.000006 -0.003538
# 5 -0.006933 0.000244 -0.002458 -0.000006 0.032322 0.000005
# 6 -0.000002 0.000000 -0.000002 -0.003538 0.000005 0.033697
#
#
# Mechanical properties :
#
#
# Convention : Reuss Voigt Hill
#
# Bulk Modulus (GPa) = 37.06306 41.99149 39.52727
# Shear Modulus (GPa) = 37.09204 40.78684 38.93944
#
# Velocity S-wave (km/s) = 4.14482 4.34636 4.24679
# Velocity P-wave (km/s) = 6.33026 6.68106 6.50802
#
# Compressibility (1/GPa) = 0.02698104
#
# Stress axis : x y z
#
# Youngs Moduli (GPa) = 73.21062 109.01118 92.01275
#
# Poissons Ratio (x) = 0.06307 0.08225
# Poissons Ratio (y) = 0.04236 0.17366
# Poissons Ratio (z) = 0.06544 0.20575
#
# Static dielectric constant tensor:
#      x y z
#    x 4.037190 0.000020 0.283460 
#    y 0.000020 4.214230 0.000000 
#    z 0.283460 0.000000 4.077250 
# 
# 
# High freq. dielectric constant tensor:
#      x y z
#    x 1.858880 0.000000 0.013680 
#    y 0.000000 1.859510 0.000000 
#    z 0.013680 0.000000 1.855590 
# 
# From -- ./inp_files/43361.got.cif
#   From: 2010.03.12/outbox.cif.g09.slc.cpg/sg5_22_cif.got.tgz:43361.got - 2010.03.31 09:47:26.
