data_PCOD8050314
_publ_section_title
;
Structure prediction by ZEFSAII (Michael W. Deem and Ramdas Pophale) SiO2 
 PCOD8050314
Probable space group: C 2
;
_chemical_formula_sum "Si O2"
_cell_formula_units_Z 28
_cell_length_a 8.954153
_cell_length_b 16.914161
_cell_length_c 13.747130
_cell_angle_alpha 90.000000
_cell_angle_beta 141.037796
_cell_angle_gamma 90.000000
_cell_volume 1309.196368
_symmetry_space_group_name_H-M "C 2"
_symmetry_group_IT_number 5
_symmetry_cell_setting 'monoclinic'
loop_
_space_group_symop_operation_xyz
x,y,z
-x,y,-z
1/2+x,1/2+y,z
1/2-x,1/2+y,-z
loop_
_atom_site_type_symbol
_atom_site_label
_atom_site_fract_x
_atom_site_fract_y
_atom_site_fract_z
Si Si1 0.582535 0.842490 0.152508
Si Si2 0.231439 0.924055 0.388070
Si Si3 0.502380 0.265162 0.736372
Si Si4 0.774270 0.718929 0.956300
Si Si5 0.891724 0.086858 0.729831
Si Si6 0.759169 0.468370 0.616203
Si Si7 0.059330 0.612815 0.381529
O O1 0.819486 0.791799 0.258712
O O2 0.401139 0.794845 0.130918
O O3 0.645086 0.921511 0.242111
O O4 0.500000 0.863367 0.000000
O O5 0.500000 0.946793 0.500000
O O6 0.229230 0.915201 0.503788
O O7 0.151681 0.839371 0.303248
O O8 0.062826 0.991033 0.250458
O O9 0.344641 0.196567 0.609371
O O10 0.634205 0.216511 0.887647
O O11 0.634563 0.637709 0.858047
O O12 0.000000 0.731427 0.000000
O O13 0.752041 0.094575 0.559308
O O14 0.716786 0.116375 0.726249
O O15 0.500000 0.504836 0.500000
O O16 0.935483 0.542347 0.694339
#
# Coordination Sequence:
#
# PCOD8050314 Si02
#       7
#     4   4   4   4   4   4   4
#     4  10  23  44  67  94 140 180 228 280 345 422
#     4  11  23  41  71 106 138 175 236 296 346 405
#     4  11  24  43  67 101 138 180 229 285 347 418
#     4  11  26  43  67  99 139 183 235 278 351 418
#     4  10  21  44  70  97 140 180 230 282 349 416
#     4  11  22  40  69 103 132 175 229 287 351 405
#     4  10  22  41  71 100 130 180 231 286 346 413
#
# _framework density 21.387166000000001
#
# number of rings (size 3 to 8) (size 9 to 14) (size 15 to 20)
#    0.000    1.429    5.714    0.000    4.000    2.857 
#    5.143    0.000    0.000    0.000    0.000    0.000 
#    0.000    0.000    0.000    0.000    0.000    0.000 
#
# Total GULP energy -173437.008738 kJ/mol
# GULP energy per Si atom -12388.357767 kJ/mol
# Density = 2.133849 g / cm^3
# Si number density = 21.387166 Si / 1000 Ang^3
#
#
#
# Elastic Constant Matrix: (Units=GPa)
#
#
# Indices 1 2 3 4 5 6 
#
# 1 108.2830 50.8750 31.5406 0.0035 10.3412 0.0009
# 2 50.8750 167.7086 53.0945 -0.0017 -5.8112 -0.0005
# 3 31.5406 53.0945 52.7385 -0.0003 6.0631 0.0003
# 4 0.0035 -0.0017 -0.0003 30.3637 0.0015 0.9191
# 5 10.3412 -5.8112 6.0631 0.0015 29.7124 0.0000
# 6 0.0009 -0.0005 0.0003 0.9191 0.0000 26.1050
#
#
#
# Elastic Compliance Matrix: (Units=1/GPa)
#
#
# Indices 1 2 3 4 5 6 
#
# 1 0.011978 -0.002396 -0.004319 -0.000001 -0.003756 0.000000
# 2 -0.002396 0.009623 -0.008773 0.000000 0.004506 0.000000
# 3 -0.004319 -0.008773 0.031132 0.000001 -0.006565 0.000000
# 4 -0.000001 0.000000 0.000001 0.032969 -0.000001 -0.001161
# 5 -0.003756 0.004506 -0.006565 -0.000001 0.037184 0.000000
# 6 0.000000 0.000000 0.000000 -0.001161 0.000000 0.038348
#
#
# Mechanical properties :
#
#
# Convention : Reuss Voigt Hill
#
# Bulk Modulus (GPa) = 45.96515 66.63894 56.30204
# Shear Modulus (GPa) = 25.06731 30.11756 27.59244
#
# Velocity S-wave (km/s) = 3.42727 3.75668 3.59575
# Velocity P-wave (km/s) = 6.09919 7.07410 6.60466
#
# Compressibility (1/GPa) = 0.02175561
#
# Stress axis : x y z
#
# Youngs Moduli (GPa) = 83.48874 103.91459 32.12152
#
# Poissons Ratio (x) = 0.24901 0.13873
# Poissons Ratio (y) = 0.20006 0.28181
# Poissons Ratio (z) = 0.36059 0.91167
#
# Static dielectric constant tensor:
#      x y z
#    x 4.263730 0.000000 0.052970 
#    y 0.000000 4.046170 0.000000 
#    z 0.052970 0.000000 3.669280 
# 
# 
# High freq. dielectric constant tensor:
#      x y z
#    x 1.840790 0.000000 0.001030 
#    y 0.000000 1.848200 0.000000 
#    z 0.001030 0.000000 1.819370 
# 
# From -- ./inp_files/51389.got.cif
#   From: 2010.03.12/outbox.cif.g09.slc.cpg/sg5_26_cif.got.tgz:51389.got - 2010.03.31 09:47:26.
