data_PCOD8050771
_publ_section_title
;
Structure prediction by ZEFSAII (Michael W. Deem and Ramdas Pophale) SiO2 
 PCOD8050771
Probable space group: C 2
;
_chemical_formula_sum "Si O2"
_cell_formula_units_Z 26
_cell_length_a 9.237189
_cell_length_b 10.686570
_cell_length_c 19.972339
_cell_angle_alpha 90.000000
_cell_angle_beta 39.829590
_cell_angle_gamma 90.000000
_cell_volume 1262.788329
_symmetry_space_group_name_H-M "C 2"
_symmetry_group_IT_number 5
_symmetry_cell_setting 'monoclinic'
loop_
_space_group_symop_operation_xyz
x,y,z
-x,y,-z
1/2+x,1/2+y,z
1/2-x,1/2+y,-z
loop_
_atom_site_type_symbol
_atom_site_label
_atom_site_fract_x
_atom_site_fract_y
_atom_site_fract_z
Si Si1 0.608874 0.957610 0.212140
Si Si2 0.261824 0.462864 0.548583
Si Si3 0.377302 0.238446 0.795778
Si Si4 0.520244 0.936405 0.890690
Si Si5 0.069933 0.821563 0.075780
Si Si6 0.000000 0.630449 0.000000
Si Si7 0.755985 0.248135 0.555006
O O1 0.433434 0.918102 0.331618
O O2 0.470747 0.957391 0.191547
O O3 0.827056 0.869487 0.136058
O O4 0.695148 0.097278 0.192750
O O5 0.500000 0.461501 0.500000
O O6 0.269621 0.359386 0.488543
O O7 0.216166 0.606769 0.539318
O O8 0.148692 0.310762 0.862477
O O9 0.463538 0.258507 0.840517
O O10 0.577914 0.280479 0.676042
O O11 0.631714 0.046800 0.896836
O O12 0.259959 0.928975 0.009216
O O13 0.159084 0.719452 0.989554
O O14 0.000000 0.256224 0.500000
#
# Coordination Sequence:
#
# PCOD8050771 Si02
#       7
#     4   4   4   4   4   2   4
#     4  11  24  40  64  89 123 163 204 250 305 364
#     4  10  22  43  65  93 124 161 206 259 313 368
#     4  11  24  40  64  89 123 163 204 250 305 364
#     4  12  24  40  60  91 123 162 204 249 301 359
#     4  12  24  40  60  91 123 162 204 249 301 359
#     4  12  24  40  60  88 128 160 202 254 300 348
#     4  10  22  43  65  93 124 161 206 259 313 368
#
# _framework density 20.589357
#
# number of rings (size 3 to 8) (size 9 to 14) (size 15 to 20)
#    0.000    0.923    4.615    1.846    2.154    1.846 
#    2.769    0.000    0.000    0.000    0.000    0.000 
#    0.000    0.000    0.000    0.000    0.000    0.000 
#
# Total GULP energy -161121.255634 kJ/mol
# GULP energy per Si atom -12393.942741 kJ/mol
# Density = 2.054249 g / cm^3
# Si number density = 20.589357 Si / 1000 Ang^3
#
#
#
# Elastic Constant Matrix: (Units=GPa)
#
#
# Indices 1 2 3 4 5 6 
#
# 1 105.9038 55.7442 53.7017 -0.0001 15.6929 0.0000
# 2 55.7442 107.4138 51.4917 -0.0003 13.9941 0.0001
# 3 53.7017 51.4917 100.6591 -0.0009 16.7906 0.0003
# 4 -0.0001 -0.0003 -0.0009 32.8067 0.0002 10.5730
# 5 15.6929 13.9941 16.7906 0.0002 38.7622 0.0000
# 6 0.0000 0.0001 0.0003 10.5730 0.0000 39.5996
#
#
#
# Elastic Compliance Matrix: (Units=1/GPa)
#
#
# Indices 1 2 3 4 5 6 
#
# 1 0.014985 -0.005090 -0.005050 0.000000 -0.002042 0.000000
# 2 -0.005090 0.014188 -0.004346 0.000000 -0.001179 0.000000
# 3 -0.005050 -0.004346 0.015359 0.000000 -0.003039 0.000000
# 4 0.000000 0.000000 0.000000 0.033351 0.000000 -0.008905
# 5 -0.002042 -0.001179 -0.003039 0.000000 0.028367 0.000000
# 6 0.000000 0.000000 0.000000 -0.008905 0.000000 0.027630
#
#
# Mechanical properties :
#
#
# Convention : Reuss Voigt Hill
#
# Bulk Modulus (GPa) = 64.26591 70.65020 67.45805
# Shear Modulus (GPa) = 29.75491 32.43633 31.09562
#
# Velocity S-wave (km/s) = 3.80565 3.97343 3.89044
# Velocity P-wave (km/s) = 7.11277 7.44576 7.28117
#
# Compressibility (1/GPa) = 0.01556035
#
# Stress axis : x y z
#
# Youngs Moduli (GPa) = 66.73316 70.48167 65.10861
#
# Poissons Ratio (x) = 0.35873 0.32882
# Poissons Ratio (y) = 0.33966 0.28295
# Poissons Ratio (z) = 0.33703 0.30630
#
# Static dielectric constant tensor:
#      x y z
#    x 3.655520 0.000000 0.177300 
#    y 0.000000 4.012910 0.000000 
#    z 0.177300 0.000000 3.783930 
# 
# 
# High freq. dielectric constant tensor:
#      x y z
#    x 1.807980 0.000000 0.012670 
#    y 0.000000 1.819850 0.000000 
#    z 0.012670 0.000000 1.801680 
# 
# From -- ./inp_files/64511.got.cif
#   From: 2010.03.12/outbox.cif.g09.slc.cpg/sg5_33_cif.got.tgz:64511.got - 2010.03.31 09:47:26.
