data_PCOD8050209
_publ_section_title
;
Structure prediction by ZEFSAII (Michael W. Deem and Ramdas Pophale) SiO2 
 PCOD8050209
Probable space group: C 2
;
_chemical_formula_sum "Si O2"
_cell_formula_units_Z 20
_cell_length_a 7.784761
_cell_length_b 16.789051
_cell_length_c 11.594676
_cell_angle_alpha 90.000000
_cell_angle_beta 138.356124
_cell_angle_gamma 90.000000
_cell_volume 1006.987695
_symmetry_space_group_name_H-M "C 2"
_symmetry_group_IT_number 5
_symmetry_cell_setting 'monoclinic'
loop_
_space_group_symop_operation_xyz
x,y,z
-x,y,-z
1/2+x,1/2+y,z
1/2-x,1/2+y,-z
loop_
_atom_site_type_symbol
_atom_site_label
_atom_site_fract_x
_atom_site_fract_y
_atom_site_fract_z
Si Si1 0.991208 0.784220 0.630997
Si Si2 0.000000 0.043748 0.500000
Si Si3 0.500000 0.849290 0.500000
Si Si4 0.671250 0.927421 0.190213
Si Si5 0.002776 0.605940 0.365441
Si Si6 0.219204 0.445756 0.813069
O O1 0.187048 0.847879 0.785842
O O2 0.000000 0.801087 0.500000
O O3 0.697888 0.794257 0.528421
O O4 0.091651 0.695369 0.710739
O O5 0.211128 0.098120 0.543794
O O6 0.115261 0.990538 0.661469
O O7 0.674160 0.906013 0.667171
O O8 0.487666 0.906756 0.205139
O O9 0.500000 0.963645 0.000000
O O10 0.000000 0.591204 0.500000
O O11 0.815614 0.541484 0.211738
O O12 0.500000 0.424936 0.000000
#
# Coordination Sequence:
#
# PCOD8050209 Si02
#       6
#     4   2   2   4   4   4
#     4  11  21  39  60  89 118 158 192 238 300 344
#     4  10  21  42  59  88 114 156 196 242 291 342
#     4  12  21  40  65  86 120 154 196 248 281 356
#     4  11  22  38  64  87 121 152 200 245 287 347
#     4  10  22  37  62  85 119 156 191 240 294 349
#     4  11  23  38  62  91 115 157 200 241 292 344
#
# _framework density 19.861214
#
# number of rings (size 3 to 8) (size 9 to 14) (size 15 to 20)
#    0.000    1.200    4.000    3.000    2.800    0.800 
#    0.000    0.000    0.000    2.400    0.000    0.000 
#    0.000    0.000    0.000    0.000    0.000    0.000 
#
# Total GULP energy -124011.859416 kJ/mol
# GULP energy per Si atom -12401.185942 kJ/mol
# Density = 1.981601 g / cm^3
# Si number density = 19.861214 Si / 1000 Ang^3
#
#
#
# Elastic Constant Matrix: (Units=GPa)
#
#
# Indices 1 2 3 4 5 6 
#
# 1 109.8886 25.0120 10.9576 0.0000 -0.8383 0.0000
# 2 25.0120 93.4104 29.4021 0.0000 0.0463 0.0000
# 3 10.9576 29.4021 109.6229 0.0000 -4.7608 -0.0002
# 4 0.0000 0.0000 0.0000 9.1025 0.0000 4.3967
# 5 -0.8383 0.0463 -4.7608 0.0000 27.6334 -0.0001
# 6 0.0000 0.0000 -0.0002 4.3967 -0.0001 17.9238
#
#
#
# Elastic Compliance Matrix: (Units=1/GPa)
#
#
# Indices 1 2 3 4 5 6 
#
# 1 0.009701 -0.002508 -0.000286 0.000000 0.000249 0.000000
# 2 -0.002508 0.012350 -0.003089 0.000000 -0.000629 0.000000
# 3 -0.000286 -0.003089 0.010054 0.000000 0.001729 0.000000
# 4 0.000000 0.000000 0.000000 0.124626 0.000000 -0.030571
# 5 0.000249 -0.000629 0.001729 0.000000 0.036495 0.000000
# 6 0.000000 0.000000 0.000000 -0.030571 0.000000 0.063291
#
#
# Mechanical properties :
#
#
# Convention : Reuss Voigt Hill
#
# Bulk Modulus (GPa) = 49.16572 49.29615 49.23094
# Shear Modulus (GPa) = 18.17769 27.43528 22.80649
#
# Velocity S-wave (km/s) = 3.02857 3.72068 3.39232
# Velocity P-wave (km/s) = 6.08589 6.58272 6.33917
#
# Compressibility (1/GPa) = 0.02033937
#
# Stress axis : x y z
#
# Youngs Moduli (GPa) = 103.07835 80.97488 99.45935
#
# Poissons Ratio (x) = 0.20306 0.02848
# Poissons Ratio (y) = 0.25849 0.30722
# Poissons Ratio (z) = 0.02951 0.25013
#
# Static dielectric constant tensor:
#      x y z
#    x 3.772360 0.000000 0.015300 
#    y 0.000000 3.551890 0.000000 
#    z 0.015300 0.000000 3.455660 
# 
# 
# High freq. dielectric constant tensor:
#      x y z
#    x 1.796530 0.000000 0.000830 
#    y 0.000000 1.767300 0.000000 
#    z 0.000830 0.000000 1.755730 
# 
# From -- ./inp_files/14877.got.cif
#   From: 2010.03.12/outbox.cif.g09.slc.cpg/sg5_8_cif.got.tgz:14877.got - 2010.03.31 09:47:26.
