data_PCOD8050555
_publ_section_title
;
Structure prediction by ZEFSAII (Michael W. Deem and Ramdas Pophale) SiO2 
 PCOD8050555
Probable space group: C 2
;
_chemical_formula_sum "Si O2"
_cell_formula_units_Z 28
_cell_length_a 13.931926
_cell_length_b 16.104850
_cell_length_c 8.952024
_cell_angle_alpha 90.000000
_cell_angle_beta 42.498807
_cell_angle_gamma 90.000000
_cell_volume 1356.945979
_symmetry_space_group_name_H-M "C 2"
_symmetry_group_IT_number 5
_symmetry_cell_setting 'monoclinic'
loop_
_space_group_symop_operation_xyz
x,y,z
-x,y,-z
1/2+x,1/2+y,z
1/2-x,1/2+y,-z
loop_
_atom_site_type_symbol
_atom_site_label
_atom_site_fract_x
_atom_site_fract_y
_atom_site_fract_z
Si Si1 0.000000 0.053921 0.500000
Si Si2 0.038179 0.468387 0.282987
Si Si3 0.461967 0.135871 0.215005
Si Si4 0.000000 0.051486 0.000000
Si Si5 0.555939 0.307328 0.601247
Si Si6 0.612338 0.830712 0.733697
Si Si7 0.141858 0.151846 0.592015
Si Si8 0.859977 0.949487 0.907055
O O1 0.926486 0.116892 0.475664
O O2 0.891015 0.997145 0.716682
O O3 0.000000 0.478633 0.500000
O O4 0.044270 0.558794 0.197162
O O5 0.925710 0.409702 0.325776
O O6 0.193876 0.426321 0.093743
O O7 0.484603 0.219213 0.282939
O O8 0.298383 0.118093 0.402727
O O9 0.500000 0.149641 0.000000
O O10 0.893278 0.000642 0.017894
O O11 0.096258 0.112371 0.797484
O O12 0.500000 0.307052 0.500000
O O13 0.722275 0.334921 0.404455
O O14 0.463669 0.371252 0.803517
O O15 0.606511 0.749388 0.636600
O O16 0.500000 0.826434 0.000000
#
# Coordination Sequence:
#
# PCOD8050555 Si02
#       8
#     2   4   4   2   4   4   4   4
#     4  10  22  40  68  96 130 170 224 272 336 398
#     4  12  27  44  68 101 136 180 227 279 337 402
#     4  11  25  44  68  96 136 178 223 278 336 401
#     4  10  22  40  70  92 132 168 226 274 328 404
#     4  11  25  45  69  99 136 180 228 277 340 403
#     4  11  25  44  68  98 137 179 224 283 338 395
#     4  10  22  43  65  98 129 175 219 276 335 396
#     4  11  24  42  69  98 130 180 221 278 333 399
#
# _framework density 20.634571000000001
#
# number of rings (size 3 to 8) (size 9 to 14) (size 15 to 20)
#    0.000    1.143    1.429    3.429    8.000    2.286 
#    7.714    0.000    0.000    0.000    0.000    0.000 
#    0.000    0.000    0.000    0.000    0.000    0.000 
#
# Total GULP energy -173529.686913 kJ/mol
# GULP energy per Si atom -12394.977637 kJ/mol
# Density = 2.058761 g / cm^3
# Si number density = 20.634571 Si / 1000 Ang^3
#
#
#
# Elastic Constant Matrix: (Units=GPa)
#
#
# Indices 1 2 3 4 5 6 
#
# 1 116.0322 65.8865 43.8219 -0.0001 -0.9239 0.0001
# 2 65.8865 106.3908 17.5404 0.0001 -15.5469 0.0000
# 3 43.8219 17.5404 131.2754 0.0000 -16.5435 0.0001
# 4 -0.0001 0.0001 0.0000 28.7766 0.0000 9.1322
# 5 -0.9239 -15.5469 -16.5435 0.0000 39.5856 -0.0001
# 6 0.0001 0.0000 0.0001 9.1322 -0.0001 38.8897
#
#
#
# Elastic Compliance Matrix: (Units=1/GPa)
#
#
# Indices 1 2 3 4 5 6 
#
# 1 0.015988 -0.009929 -0.004703 0.000000 -0.005492 0.000000
# 2 -0.009929 0.016236 0.002026 0.000000 0.006991 0.000000
# 3 -0.004703 0.002026 0.009504 0.000000 0.004658 0.000000
# 4 0.000000 0.000000 0.000000 0.037549 0.000000 -0.008817
# 5 -0.005492 0.006991 0.004658 0.000000 0.029826 0.000000
# 6 0.000000 0.000000 0.000000 -0.008817 0.000000 0.027784
#
#
# Mechanical properties :
#
#
# Convention : Reuss Voigt Hill
#
# Bulk Modulus (GPa) = 60.54247 67.57733 64.05990
# Shear Modulus (GPa) = 29.83256 36.54704 33.18980
#
# Velocity S-wave (km/s) = 3.80644 4.21308 4.01491
# Velocity P-wave (km/s) = 6.98016 7.51581 7.25293
#
# Compressibility (1/GPa) = 0.01651733
#
# Stress axis : x y z
#
# Youngs Moduli (GPa) = 62.54569 61.59331 105.22282
#
# Poissons Ratio (x) = 0.61153 0.49482
# Poissons Ratio (y) = 0.62099 -0.21319
# Poissons Ratio (z) = 0.29413 -0.12479
#
# Static dielectric constant tensor:
#      x y z
#    x 3.812780 0.000000 -0.000640 
#    y 0.000000 3.897200 0.000000 
#    z -0.000640 0.000000 3.946000 
# 
# 
# High freq. dielectric constant tensor:
#      x y z
#    x 1.818330 0.000000 0.004000 
#    y 0.000000 1.817440 0.000000 
#    z 0.004000 0.000000 1.824440 
# 
# From -- ./inp_files/25192.got.cif
#   From: 2010.03.12/outbox.cif.g09.slc.cpg/sg5_13_cif.got.tgz:25192.got - 2010.03.31 09:47:26.
