data_PCOD8050802
_publ_section_title
;
Structure prediction by ZEFSAII (Michael W. Deem and Ramdas Pophale) SiO2 
 PCOD8050802
Probable space group: C 2
;
_chemical_formula_sum "Si O2"
_cell_formula_units_Z 24
_cell_length_a 8.531016
_cell_length_b 17.877116
_cell_length_c 8.804524
_cell_angle_alpha 90.000000
_cell_angle_beta 53.068427
_cell_angle_gamma 90.000000
_cell_volume 1073.354229
_symmetry_space_group_name_H-M "C 2"
_symmetry_group_IT_number 5
_symmetry_cell_setting 'monoclinic'
loop_
_space_group_symop_operation_xyz
x,y,z
-x,y,-z
1/2+x,1/2+y,z
1/2-x,1/2+y,-z
loop_
_atom_site_type_symbol
_atom_site_label
_atom_site_fract_x
_atom_site_fract_y
_atom_site_fract_z
Si Si1 0.192908 0.007610 0.469595
Si Si2 0.960505 0.775597 0.849550
Si Si3 0.925571 0.365777 0.885832
Si Si4 0.964779 0.615607 0.697732
Si Si5 0.195197 0.839366 0.464807
Si Si6 0.707739 0.485041 0.818821
O O1 0.358568 0.067410 0.332338
O O2 0.000000 0.040903 0.500000
O O3 0.224047 0.924420 0.386115
O O4 0.188952 0.989838 0.650114
O O5 0.945211 0.694393 0.786760
O O6 0.145750 0.823340 0.671127
O O7 0.756720 0.817728 0.947360
O O8 0.000000 0.763961 0.000000
O O9 0.868579 0.426381 0.788998
O O10 0.091416 0.308833 0.713816
O O11 0.000000 0.403964 0.000000
O O12 0.767094 0.567754 0.842124
O O13 0.000000 0.627793 0.500000
O O14 0.000000 0.803220 0.500000
O O15 0.500000 0.458044 0.000000
#
# Coordination Sequence:
#
# PCOD8050802 Si02
#       6
#     4   4   4   4   4   4
#     4  10  22  43  72 101 135 181 227 284 354 407
#     4  12  27  45  68 105 141 183 234 289 349 420
#     4  12  25  43  74 107 137 185 238 288 351 410
#     4  10  24  47  67  96 141 185 228 283 349 413
#     4  11  22  44  73 101 137 179 230 293 346 413
#     4  11  24  42  70 103 135 177 237 290 338 416
#
# _framework density 22.359814
#
# number of rings (size 3 to 8) (size 9 to 14) (size 15 to 20)
#    0.000    1.000    3.333    3.000    2.333    4.667 
#    6.000    0.000    0.000    0.000    0.000    0.000 
#    0.000    0.000    0.000    0.000    0.000    0.000 
#
# Total GULP energy -148668.624763 kJ/mol
# GULP energy per Si atom -12389.052064 kJ/mol
# Density = 2.230892 g / cm^3
# Si number density = 22.359814 Si / 1000 Ang^3
#
#
#
# Elastic Constant Matrix: (Units=GPa)
#
#
# Indices 1 2 3 4 5 6 
#
# 1 144.0622 41.4570 49.5436 0.0000 6.9050 0.0000
# 2 41.4570 107.4210 30.7062 0.0000 1.4803 0.0000
# 3 49.5436 30.7062 128.3218 0.0000 -16.9759 0.0000
# 4 0.0000 0.0000 0.0000 16.1683 0.0000 -16.8681
# 5 6.9050 1.4803 -16.9759 0.0000 34.0148 0.0000
# 6 0.0000 0.0000 0.0000 -16.8681 0.0000 1.8669
#
#
#
# Elastic Compliance Matrix: (Units=1/GPa)
#
#
# Indices 1 2 3 4 5 6 
#
# 1 0.008950 -0.002461 -0.003311 0.000000 -0.003362 0.000000
# 2 -0.002461 0.010767 -0.001737 0.000000 -0.000836 0.000000
# 3 -0.003311 -0.001737 0.010263 0.000000 0.005870 0.000000
# 4 0.000000 0.000000 0.000000 -0.007340 0.000000 -0.066319
# 5 -0.003362 -0.000836 0.005870 0.000000 0.033047 0.000000
# 6 0.000000 0.000000 0.000000 -0.066319 0.000000 -0.063568
#
#
# Mechanical properties :
#
#
# Convention : Reuss Voigt Hill
#
# Bulk Modulus (GPa) = 66.83672 69.24652 68.04162
# Shear Modulus (GPa) = 412.38148 27.61656 219.99902
#
# Velocity S-wave (km/s) = 13.59522 3.51821 9.92995
# Velocity P-wave (km/s) = 16.62518 6.89494 12.72668
#
# Compressibility (1/GPa) = 0.01496183
#
# Stress axis : x y z
#
# Youngs Moduli (GPa) = 111.73733 92.87688 97.43291
#
# Poissons Ratio (x) = 0.22858 0.32262
# Poissons Ratio (y) = 0.27499 0.16922
# Poissons Ratio (z) = 0.36999 0.16131
#
# Static dielectric constant tensor:
#      x y z
#    x 4.527870 0.000000 -0.388180 
#    y 0.000000 3.925780 0.000000 
#    z -0.388180 0.000000 4.786240 
# 
# 
# High freq. dielectric constant tensor:
#      x y z
#    x 1.898330 0.000000 0.000040 
#    y 0.000000 1.858420 0.000000 
#    z 0.000040 0.000000 1.889590 
# 
# From -- ./inp_files/16690.got.cif
#   From: 2010.03.12/outbox.cif.g09.slc.cpg/sg5_9_cif.got.tgz:16690.got - 2010.03.31 09:47:26.
