data_PCOD8050998
_publ_section_title
;
Structure prediction by ZEFSAII (Michael W. Deem and Ramdas Pophale) SiO2 
 PCOD8050998
Probable space group: C 2
;
_chemical_formula_sum "Si O2"
_cell_formula_units_Z 24
_cell_length_a 12.401458
_cell_length_b 14.283723
_cell_length_c 9.372032
_cell_angle_alpha 90.000000
_cell_angle_beta 37.481003
_cell_angle_gamma 90.000000
_cell_volume 1010.199932
_symmetry_space_group_name_H-M "C 2"
_symmetry_group_IT_number 5
_symmetry_cell_setting 'monoclinic'
loop_
_space_group_symop_operation_xyz
x,y,z
-x,y,-z
1/2+x,1/2+y,z
1/2-x,1/2+y,-z
loop_
_atom_site_type_symbol
_atom_site_label
_atom_site_fract_x
_atom_site_fract_y
_atom_site_fract_z
Si Si1 0.195573 0.261540 0.804564
Si Si2 0.167003 0.095762 0.053219
Si Si3 0.500000 0.692747 0.500000
Si Si4 0.000000 0.898334 0.500000
Si Si5 0.196218 0.754874 0.628572
Si Si6 0.476179 0.060621 0.184811
Si Si7 0.625815 0.464550 0.652352
O O1 0.210108 0.174688 0.893973
O O2 0.333649 0.335311 0.722795
O O3 0.238453 0.231831 0.598686
O O4 0.000000 0.306405 0.000000
O O5 0.348998 0.043125 0.903695
O O6 0.086897 0.131871 0.285015
O O7 0.025681 0.029289 0.116392
O O8 0.351977 0.756586 0.581106
O O9 0.942405 0.966667 0.437230
O O10 0.056637 0.672120 0.804991
O O11 0.115544 0.859360 0.724974
O O12 0.321329 0.009778 0.439263
O O13 0.500000 0.017266 0.000000
#
# Coordination Sequence:
#
# PCOD8050998 Si02
#       7
#     4   4   2   2   4   4   4
#     4  11  22  42  70  99 130 183 228 281 346 407
#     4  12  23  42  74  99 137 185 234 279 351 415
#     4  12  21  46  76  99 138 190 231 284 350 417
#     4  10  23  40  68 101 136 178 241 282 328 427
#     4  11  25  46  72 102 144 177 237 294 344 410
#     4  12  23  44  72 102 137 193 233 281 353 421
#     4  11  24  44  66 109 141 177 235 298 331 418
#
# _framework density 23.757673
#
# number of rings (size 3 to 8) (size 9 to 14) (size 15 to 20)
#    0.000    0.667    5.000    3.500    0.000    5.333 
#    3.000    5.833    0.000    0.000    0.000    0.000 
#    0.000    0.000    0.000    0.000    0.000    0.000 
#
# Total GULP energy -148732.753974 kJ/mol
# GULP energy per Si atom -12394.396164 kJ/mol
# Density = 2.370360 g / cm^3
# Si number density = 23.757673 Si / 1000 Ang^3
#
#
#
# Elastic Constant Matrix: (Units=GPa)
#
#
# Indices 1 2 3 4 5 6 
#
# 1 102.6294 19.2862 31.9454 -0.0006 -12.8940 0.0003
# 2 19.2862 79.2177 15.4437 0.0003 -1.6724 -0.0002
# 3 31.9454 15.4437 90.8689 0.0006 -25.5976 -0.0005
# 4 -0.0006 0.0003 0.0006 15.0758 0.0000 -4.1837
# 5 -12.8940 -1.6724 -25.5976 0.0000 46.9664 0.0001
# 6 0.0003 -0.0002 -0.0005 -4.1837 0.0001 29.4127
#
#
#
# Elastic Compliance Matrix: (Units=1/GPa)
#
#
# Indices 1 2 3 4 5 6 
#
# 1 0.011311 -0.002090 -0.003269 0.000001 0.001249 0.000000
# 2 -0.002090 0.013473 -0.001868 0.000000 -0.001112 0.000000
# 3 -0.003269 -0.001868 0.014413 -0.000001 0.006891 0.000000
# 4 0.000001 0.000000 -0.000001 0.069058 0.000000 0.009823
# 5 0.001249 -0.001112 0.006891 0.000000 0.025351 0.000000
# 6 0.000000 0.000000 0.000000 0.009823 0.000000 0.035396
#
#
# Mechanical properties :
#
#
# Convention : Reuss Voigt Hill
#
# Bulk Modulus (GPa) = 40.41794 45.11851 42.76823
# Shear Modulus (GPa) = 26.08176 32.02702 29.05439
#
# Velocity S-wave (km/s) = 3.31694 3.67559 3.50086
# Velocity P-wave (km/s) = 5.63196 6.08651 5.86364
#
# Compressibility (1/GPa) = 0.02474149
#
# Stress axis : x y z
#
# Youngs Moduli (GPa) = 88.40836 74.22226 69.38157
#
# Poissons Ratio (x) = 0.15513 0.22684
# Poissons Ratio (y) = 0.18478 0.12963
# Poissons Ratio (z) = 0.28904 0.13868
#
# Static dielectric constant tensor:
#      x y z
#    x 4.691020 0.000000 -0.432170 
#    y 0.000000 4.187060 0.000000 
#    z -0.432170 0.000000 4.667540 
# 
# 
# High freq. dielectric constant tensor:
#      x y z
#    x 1.952360 0.000000 -0.012540 
#    y 0.000000 1.936820 0.000000 
#    z -0.012540 0.000000 1.944530 
# 
# From -- ./inp_files/43028.got.cif
#   From: 2010.03.12/outbox.cif.g09.slc.cpg/sg5_22_cif.got.tgz:43028.got - 2010.03.31 09:47:26.
