data_PCOD8050836
_publ_section_title
;
Structure prediction by ZEFSAII (Michael W. Deem and Ramdas Pophale) SiO2 
 PCOD8050836
Probable space group: C 2
;
_chemical_formula_sum "Si O2"
_cell_formula_units_Z 28
_cell_length_a 28.339074
_cell_length_b 7.992124
_cell_length_c 9.094396
_cell_angle_alpha 90.000000
_cell_angle_beta 35.907708
_cell_angle_gamma 90.000000
_cell_volume 1208.024989
_symmetry_space_group_name_H-M "C 2"
_symmetry_group_IT_number 5
_symmetry_cell_setting 'monoclinic'
loop_
_space_group_symop_operation_xyz
x,y,z
-x,y,-z
1/2+x,1/2+y,z
1/2-x,1/2+y,-z
loop_
_atom_site_type_symbol
_atom_site_label
_atom_site_fract_x
_atom_site_fract_y
_atom_site_fract_z
Si Si1 0.102489 0.258970 0.978715
Si Si2 0.080889 0.635222 0.733072
Si Si3 0.525540 0.009732 0.592349
Si Si4 0.227734 0.405055 0.450059
Si Si5 0.769113 0.124236 0.780059
Si Si6 0.376286 0.490351 0.269330
Si Si7 0.836092 0.306166 0.878036
O O1 0.131892 0.195966 0.065474
O O2 0.048635 0.423658 0.135728
O O3 0.182295 0.300921 0.687372
O O4 0.061722 0.111391 0.979776
O O5 0.065464 0.651071 0.595519
O O6 0.164456 0.538173 0.542295
O O7 0.084108 0.811417 0.808001
O O8 0.000000 0.543335 0.000000
O O9 0.500000 0.090523 0.500000
O O10 0.588508 0.860540 0.410053
O O11 0.263223 0.281625 0.233776
O O12 0.301036 0.491526 0.346897
O O13 0.781589 0.186645 0.915692
O O14 0.850719 0.061185 0.493798
O O15 0.707394 0.970436 0.944995
#
# Coordination Sequence:
#
# PCOD8050836 Si02
#       7
#     4   4   4   4   4   4   4
#     4  10  22  44  67  95 136 185 231 282 357 419
#     4  12  24  44  72 107 140 185 241 295 353 421
#     4  10  23  43  70  96 138 188 230 285 361 429
#     4  11  22  44  69 102 141 182 236 294 350 418
#     4  11  25  39  66 100 136 184 228 290 351 419
#     4  11  26  42  71 105 141 180 245 296 351 417
#     4  11  24  41  65  99 136 181 231 284 351 426
#
# _framework density 23.178329000000002
#
# number of rings (size 3 to 8) (size 9 to 14) (size 15 to 20)
#    0.000    1.143    4.286    1.714    4.000    1.143 
#    0.000    1.429    0.000    0.000    0.000    0.000 
#    0.000    0.000    0.000    0.000    0.000    0.000 
#
# Total GULP energy -173466.974910 kJ/mol
# GULP energy per Si atom -12390.498208 kJ/mol
# Density = 2.312557 g / cm^3
# Si number density = 23.178329 Si / 1000 Ang^3
#
#
#
# Elastic Constant Matrix: (Units=GPa)
#
#
# Indices 1 2 3 4 5 6 
#
# 1 142.3661 51.5224 33.0749 0.0000 24.2367 0.0000
# 2 51.5224 87.1793 15.2585 0.0000 14.9229 0.0000
# 3 33.0749 15.2585 65.0116 0.0000 10.3260 0.0000
# 4 0.0000 0.0000 0.0000 23.9446 0.0000 17.0642
# 5 24.2367 14.9229 10.3260 0.0000 34.1555 0.0000
# 6 0.0000 0.0000 0.0000 17.0642 0.0000 41.0465
#
#
#
# Elastic Compliance Matrix: (Units=1/GPa)
#
#
# Indices 1 2 3 4 5 6 
#
# 1 0.010248 -0.004742 -0.003440 0.000000 -0.004160 0.000000
# 2 -0.004742 0.014886 -0.000612 0.000000 -0.002954 0.000000
# 3 -0.003440 -0.000612 0.017695 0.000000 -0.002641 0.000000
# 4 0.000000 0.000000 0.000000 0.059345 0.000000 -0.024672
# 5 -0.004160 -0.002954 -0.002641 0.000000 0.034319 0.000000
# 6 0.000000 0.000000 0.000000 -0.024672 0.000000 0.034619
#
#
# Mechanical properties :
#
#
# Convention : Reuss Voigt Hill
#
# Bulk Modulus (GPa) = 39.61868 54.91873 47.26870
# Shear Modulus (GPa) = 25.36606 32.80939 29.08773
#
# Velocity S-wave (km/s) = 3.31174 3.76642 3.54638
# Velocity P-wave (km/s) = 5.63503 6.53146 6.09974
#
# Compressibility (1/GPa) = 0.02524062
#
# Stress axis : x y z
#
# Youngs Moduli (GPa) = 97.58300 67.17740 56.51298
#
# Poissons Ratio (x) = 0.31857 0.19439
# Poissons Ratio (y) = 0.46276 0.03459
# Poissons Ratio (z) = 0.33567 0.04112
#
# Static dielectric constant tensor:
#      x y z
#    x 4.436960 0.000000 0.244120 
#    y 0.000000 4.178490 0.000000 
#    z 0.244120 0.000000 4.145280 
# 
# 
# High freq. dielectric constant tensor:
#      x y z
#    x 1.929880 0.000000 0.017800 
#    y 0.000000 1.897950 0.000000 
#    z 0.017800 0.000000 1.912970 
# 
# From -- ./inp_files/31745.got.cif
#   From: 2010.03.12/outbox.cif.g09.slc.cpg/sg5_16_cif.got.tgz:31745.got - 2010.03.31 09:47:26.
