data_PCOD8050216
_publ_section_title
;
Structure prediction by ZEFSAII (Michael W. Deem and Ramdas Pophale) SiO2 
 PCOD8050216
Probable space group: C 2
;
_chemical_formula_sum "Si O2"
_cell_formula_units_Z 24
_cell_length_a 14.444291
_cell_length_b 8.688434
_cell_length_c 8.556751
_cell_angle_alpha 90.000000
_cell_angle_beta 96.804540
_cell_angle_gamma 90.000000
_cell_volume 1066.293319
_symmetry_space_group_name_H-M "C 2"
_symmetry_group_IT_number 5
_symmetry_cell_setting 'monoclinic'
loop_
_space_group_symop_operation_xyz
x,y,z
-x,y,-z
1/2+x,1/2+y,z
1/2-x,1/2+y,-z
loop_
_atom_site_type_symbol
_atom_site_label
_atom_site_fract_x
_atom_site_fract_y
_atom_site_fract_z
Si Si1 0.473441 0.825220 0.176145
Si Si2 0.716946 0.010460 0.829827
Si Si3 0.433604 0.530014 0.353026
Si Si4 0.268134 0.655218 0.519228
Si Si5 0.805505 0.851935 0.106026
Si Si6 0.661348 0.949687 0.309842
O O1 0.373027 0.899072 0.190712
O O2 0.482415 0.654846 0.250063
O O3 0.551116 0.925565 0.282424
O O4 0.500000 0.816994 0.000000
O O5 0.756338 0.047067 0.667685
O O6 0.691393 0.169140 0.912188
O O7 0.804812 0.927574 0.933657
O O8 0.500000 0.456656 0.500000
O O9 0.356655 0.617090 0.435199
O O10 0.392449 0.397873 0.232825
O O11 0.277679 0.832374 0.568686
O O12 0.179564 0.619295 0.387122
O O13 0.706649 0.920856 0.149397
#
# Coordination Sequence:
#
# PCOD8050216 Si02
#       6
#     4   4   4   4   4   4
#     4  12  24  43  69  99 132 175 224 276 329 395
#     4  11  23  42  67  97 133 176 223 271 335 394
#     4  11  23  41  67  95 131 173 223 275 327 388
#     4  10  22  40  64  96 125 174 218 266 330 394
#     4  10  23  42  65  92 134 175 217 274 331 401
#     4  10  21  42  63  95 128 171 220 271 331 389
#
# _framework density 22.507877000000001
#
# number of rings (size 3 to 8) (size 9 to 14) (size 15 to 20)
#    0.000    1.333    3.333    2.000    2.333    1.333 
#    9.000    0.833    0.000    0.000    0.000    0.000 
#    0.000    0.000    0.000    0.000    0.000    0.000 
#
# Total GULP energy -148709.039997 kJ/mol
# GULP energy per Si atom -12392.420000 kJ/mol
# Density = 2.245665 g / cm^3
# Si number density = 22.507877 Si / 1000 Ang^3
#
#
#
# Elastic Constant Matrix: (Units=GPa)
#
#
# Indices 1 2 3 4 5 6 
#
# 1 63.1993 3.9343 33.2705 0.0000 23.8397 0.0000
# 2 3.9343 63.6308 38.8282 0.0000 17.0901 0.0000
# 3 33.2705 38.8282 69.5603 0.0000 17.8506 0.0000
# 4 0.0000 0.0000 0.0000 35.2861 0.0000 5.1468
# 5 23.8397 17.0901 17.8506 0.0000 47.3074 0.0000
# 6 0.0000 0.0000 0.0000 5.1468 0.0000 26.6158
#
#
#
# Elastic Compliance Matrix: (Units=1/GPa)
#
#
# Indices 1 2 3 4 5 6 
#
# 1 0.028936 0.012200 -0.017469 0.000000 -0.012398 0.000000
# 2 0.012200 0.029673 -0.020007 0.000000 -0.009318 0.000000
# 3 -0.017469 -0.020007 0.032979 0.000000 0.003587 0.000000
# 4 0.000000 0.000000 0.000000 0.029162 0.000000 -0.005639
# 5 -0.012398 -0.009318 0.003587 0.000000 0.029399 0.000000
# 6 0.000000 0.000000 0.000000 -0.005639 0.000000 0.038662
#
#
# Mechanical properties :
#
#
# Convention : Reuss Voigt Hill
#
# Bulk Modulus (GPa) = 24.36867 38.71739 31.54303
# Shear Modulus (GPa) = 19.75965 29.86570 24.81267
#
# Velocity S-wave (km/s) = 2.96615 3.64662 3.32384
# Velocity P-wave (km/s) = 4.75194 5.91350 5.36425
#
# Compressibility (1/GPa) = 0.04103630
#
# Stress axis : x y z
#
# Youngs Moduli (GPa) = 34.55864 33.70114 30.32260
#
# Poissons Ratio (x) = -0.41116 0.52970
# Poissons Ratio (y) = -0.42163 0.60667
# Poissons Ratio (z) = 0.60370 0.67427
#
# Static dielectric constant tensor:
#      x y z
#    x 3.996310 0.000000 0.152900 
#    y 0.000000 4.017550 0.000000 
#    z 0.152900 0.000000 4.655150 
# 
# 
# High freq. dielectric constant tensor:
#      x y z
#    x 1.868000 0.000000 0.003320 
#    y 0.000000 1.875540 0.000000 
#    z 0.003320 0.000000 1.913180 
# 
# From -- ./inp_files/22863.got.cif
#   From: 2010.03.12/outbox.cif.g09.slc.cpg/sg5_12_cif.got.tgz:22863.got - 2010.03.31 09:47:26.
