data_PCOD8050899
_publ_section_title
;
Structure prediction by ZEFSAII (Michael W. Deem and Ramdas Pophale) SiO2 
 PCOD8050899
Probable space group: C 2
;
_chemical_formula_sum "Si O2"
_cell_formula_units_Z 32
_cell_length_a 9.622218
_cell_length_b 9.804746
_cell_length_c 26.199293
_cell_angle_alpha 90.000000
_cell_angle_beta 141.227963
_cell_angle_gamma 90.000000
_cell_volume 1547.855418
_symmetry_space_group_name_H-M "C 2"
_symmetry_group_IT_number 5
_symmetry_cell_setting 'monoclinic'
loop_
_space_group_symop_operation_xyz
x,y,z
-x,y,-z
1/2+x,1/2+y,z
1/2-x,1/2+y,-z
loop_
_atom_site_type_symbol
_atom_site_label
_atom_site_fract_x
_atom_site_fract_y
_atom_site_fract_z
Si Si1 0.971805 0.383470 0.819089
Si Si2 0.858591 0.055420 0.415487
Si Si3 0.996750 0.173704 0.916246
Si Si4 0.365027 0.176121 0.105098
Si Si5 0.888071 0.823194 0.353139
Si Si6 0.796931 0.908157 0.818838
Si Si7 0.070979 0.537982 0.656868
Si Si8 0.597822 0.829649 0.474893
O O1 0.707030 0.366980 0.730096
O O2 0.032671 0.268260 0.877522
O O3 0.026223 0.528144 0.858730
O O4 0.109617 0.362713 0.805853
O O5 0.000000 0.981253 0.500000
O O6 0.009499 0.177272 0.435210
O O7 0.765875 0.936166 0.352970
O O8 0.636617 0.120218 0.376701
O O9 0.782361 0.218563 0.888054
O O10 0.219796 0.180804 0.012641
O O11 0.964127 0.016803 0.891411
O O12 0.569432 0.276042 0.158941
O O13 0.809692 0.664722 0.338650
O O14 0.141522 0.843086 0.441824
O O15 0.712673 0.970935 0.741648
O O16 0.985471 0.425015 0.593882
O O17 0.500000 0.881056 0.500000
#
# Coordination Sequence:
#
# PCOD8050899 Si02
#       8
#     4   4   4   4   4   4   4   4
#     4  11  24  41  67  99 131 169 211 270 319 383
#     4  11  22  43  65  87 125 169 214 260 311 374
#     4  10  22  45  69  93 131 167 213 263 323 385
#     4  10  24  43  68  97 126 172 211 261 325 389
#     4  12  22  41  64  92 126 169 211 258 319 369
#     4  11  24  42  67  99 130 169 213 264 323 381
#     4  12  24  42  63  93 130 168 211 263 316 376
#     4  11  24  42  65  91 126 173 214 265 315 372
#
# _framework density 20.673766000000001
#
# number of rings (size 3 to 8) (size 9 to 14) (size 15 to 20)
#    0.000    1.000    6.250    0.750    1.750    4.000 
#    4.500    0.000    0.000    0.000    0.000    0.000 
#    0.000    0.000    0.000    0.000    0.000    0.000 
#
# Total GULP energy -198222.752595 kJ/mol
# GULP energy per Si atom -12388.922037 kJ/mol
# Density = 2.062671 g / cm^3
# Si number density = 20.673766 Si / 1000 Ang^3
#
#
#
# Elastic Constant Matrix: (Units=GPa)
#
#
# Indices 1 2 3 4 5 6 
#
# 1 51.4989 42.3479 17.2165 0.0000 -9.1020 0.0000
# 2 42.3479 120.2824 46.3703 0.0000 -9.1072 0.0000
# 3 17.2165 46.3703 109.4474 0.0000 -15.3925 0.0000
# 4 0.0000 0.0000 0.0000 41.7928 0.0000 -7.3568
# 5 -9.1020 -9.1072 -15.3925 0.0000 28.3710 0.0000
# 6 0.0000 0.0000 0.0000 -7.3568 0.0000 24.2235
#
#
#
# Elastic Compliance Matrix: (Units=1/GPa)
#
#
# Indices 1 2 3 4 5 6 
#
# 1 0.028326 -0.009706 0.000537 0.000000 0.006264 0.000000
# 2 -0.009706 0.013288 -0.004266 0.000000 -0.001163 0.000000
# 3 0.000537 -0.004266 0.011575 0.000000 0.005083 0.000000
# 4 0.000000 0.000000 0.000000 0.025279 0.000000 0.007677
# 5 0.006264 -0.001163 0.005083 0.000000 0.039641 0.000000
# 6 0.000000 0.000000 0.000000 0.007677 0.000000 0.043614
#
#
# Mechanical properties :
#
#
# Convention : Reuss Voigt Hill
#
# Bulk Modulus (GPa) = 37.99595 54.78869 46.39232
# Shear Modulus (GPa) = 25.33369 30.56372 27.94870
#
# Velocity S-wave (km/s) = 3.50437 3.84914 3.68080
# Velocity P-wave (km/s) = 5.89855 6.80541 6.36814
#
# Compressibility (1/GPa) = 0.02631860
#
# Stress axis : x y z
#
# Youngs Moduli (GPa) = 35.30266 75.25830 86.39516
#
# Poissons Ratio (x) = 0.73044 -0.04640
# Poissons Ratio (y) = 0.34264 0.36860
# Poissons Ratio (z) = -0.01896 0.32109
#
# Static dielectric constant tensor:
#      x y z
#    x 3.774370 0.000000 -0.096100 
#    y 0.000000 3.819120 0.000000 
#    z -0.096100 0.000000 4.024990 
# 
# 
# High freq. dielectric constant tensor:
#      x y z
#    x 1.787920 0.000000 -0.005300 
#    y 0.000000 1.817440 0.000000 
#    z -0.005300 0.000000 1.835660 
# 
# From -- ./inp_files/71718.got.cif
#   From: 2010.03.12/outbox.cif.g09.slc.cpg/sg5_36_cif.got.tgz:71718.got - 2010.03.31 09:47:26.
