data_PCOD8050426
_publ_section_title
;
Structure prediction by ZEFSAII (Michael W. Deem and Ramdas Pophale) SiO2 
 PCOD8050426
Probable space group: C 2
;
_chemical_formula_sum "Si O2"
_cell_formula_units_Z 28
_cell_length_a 14.648107
_cell_length_b 9.915587
_cell_length_c 13.485375
_cell_angle_alpha 90.000000
_cell_angle_beta 44.946892
_cell_angle_gamma 90.000000
_cell_volume 1383.709868
_symmetry_space_group_name_H-M "C 2"
_symmetry_group_IT_number 5
_symmetry_cell_setting 'monoclinic'
loop_
_space_group_symop_operation_xyz
x,y,z
-x,y,-z
1/2+x,1/2+y,z
1/2-x,1/2+y,-z
loop_
_atom_site_type_symbol
_atom_site_label
_atom_site_fract_x
_atom_site_fract_y
_atom_site_fract_z
Si Si1 0.488398 0.114790 0.244372
Si Si2 0.604661 0.333649 0.282724
Si Si3 0.165469 0.898645 0.445011
Si Si4 0.323332 0.763453 0.841417
Si Si5 0.728271 0.999076 0.986330
Si Si6 0.107164 0.358366 0.592315
Si Si7 0.755967 0.198785 0.672689
O O1 0.592283 0.198863 0.227838
O O2 0.389724 0.207266 0.258172
O O3 0.415337 0.019208 0.380538
O O4 0.572983 0.026965 0.100627
O O5 0.643394 0.303541 0.366295
O O6 0.463566 0.405289 0.388576
O O7 0.718264 0.427517 0.152955
O O8 0.280559 0.824208 0.414810
O O9 0.191004 0.050766 0.391356
O O10 0.301049 0.643019 0.938031
O O11 0.476978 0.777688 0.715383
O O12 0.256399 0.726282 0.788986
O O13 0.251781 0.899772 0.934537
O O14 0.156053 0.314329 0.446098
#
# Coordination Sequence:
#
# PCOD8050426 Si02
#       7
#     4   4   4   4   4   4   4
#     4  10  23  41  64  95 130 167 214 268 323 387
#     4  11  20  41  65  89 128 165 209 262 321 380
#     4  10  22  38  68  94 118 173 213 259 327 384
#     4  11  23  40  68  91 129 171 213 267 320 391
#     4  11  22  42  64  91 128 170 213 260 321 383
#     4  10  22  41  62  97 126 161 219 273 316 380
#     4  11  21  42  65  95 124 167 217 265 323 381
#
# _framework density 20.235455999999999
#
# number of rings (size 3 to 8) (size 9 to 14) (size 15 to 20)
#    0.000    1.429    4.286    1.286    2.000    0.571 
#   12.857    0.000    3.143    0.000    0.000    0.000 
#    0.000    0.000    0.000    0.000    0.000    0.000 
#
# Total GULP energy -173497.631618 kJ/mol
# GULP energy per Si atom -12392.687973 kJ/mol
# Density = 2.018940 g / cm^3
# Si number density = 20.235456 Si / 1000 Ang^3
#
#
#
# Elastic Constant Matrix: (Units=GPa)
#
#
# Indices 1 2 3 4 5 6 
#
# 1 85.2831 42.4590 39.7767 0.0000 6.3537 0.0000
# 2 42.4590 91.5439 50.8941 0.0000 6.2004 0.0000
# 3 39.7767 50.8941 120.5676 0.0000 -2.1314 0.0000
# 4 0.0000 0.0000 0.0000 38.7974 0.0000 -2.1531
# 5 6.3537 6.2004 -2.1314 0.0000 21.7671 0.0000
# 6 0.0000 0.0000 0.0000 -2.1531 0.0000 26.9588
#
#
#
# Elastic Compliance Matrix: (Units=1/GPa)
#
#
# Indices 1 2 3 4 5 6 
#
# 1 0.016178 -0.005580 -0.003043 0.000000 -0.003431 0.000000
# 2 -0.005580 0.016687 -0.005267 0.000000 -0.003640 0.000000
# 3 -0.003043 -0.005267 0.011584 0.000000 0.003523 0.000000
# 4 0.000000 0.000000 0.000000 0.025890 0.000000 0.002068
# 5 -0.003431 -0.003640 0.003523 0.000000 0.048324 0.000000
# 6 0.000000 0.000000 0.000000 0.002068 0.000000 0.037259
#
#
# Mechanical properties :
#
#
# Convention : Reuss Voigt Hill
#
# Bulk Modulus (GPa) = 59.99135 62.62826 61.30980
# Shear Modulus (GPa) = 26.41908 28.45565 27.43737
#
# Velocity S-wave (km/s) = 3.61721 3.75404 3.68626
# Velocity P-wave (km/s) = 6.86707 7.05743 6.96290
#
# Compressibility (1/GPa) = 0.01666907
#
# Stress axis : x y z
#
# Youngs Moduli (GPa) = 61.81110 59.92846 86.32846
#
# Poissons Ratio (x) = 0.33438 0.26268
# Poissons Ratio (y) = 0.34488 0.45472
# Poissons Ratio (z) = 0.18808 0.31566
#
# Static dielectric constant tensor:
#      x y z
#    x 3.607940 0.000000 -0.158760 
#    y 0.000000 3.732130 0.000000 
#    z -0.158760 0.000000 3.893050 
# 
# 
# High freq. dielectric constant tensor:
#      x y z
#    x 1.771500 0.000000 -0.014620 
#    y 0.000000 1.785280 0.000000 
#    z -0.014620 0.000000 1.805010 
# 
# From -- ./inp_files/42428.got.cif
#   From: 2010.03.12/outbox.cif.g09.slc.cpg/sg5_22_cif.got.tgz:42428.got - 2010.03.31 09:47:26.
