data_PCOD8050723
_publ_section_title
;
Structure prediction by ZEFSAII (Michael W. Deem and Ramdas Pophale) SiO2 
 PCOD8050723
Probable space group: C 2
;
_chemical_formula_sum "Si O2"
_cell_formula_units_Z 24
_cell_length_a 15.208541
_cell_length_b 11.613736
_cell_length_c 14.733061
_cell_angle_alpha 90.000000
_cell_angle_beta 26.408516
_cell_angle_gamma 90.000000
_cell_volume 1157.407578
_symmetry_space_group_name_H-M "C 2"
_symmetry_group_IT_number 5
_symmetry_cell_setting 'monoclinic'
loop_
_space_group_symop_operation_xyz
x,y,z
-x,y,-z
1/2+x,1/2+y,z
1/2-x,1/2+y,-z
loop_
_atom_site_type_symbol
_atom_site_label
_atom_site_fract_x
_atom_site_fract_y
_atom_site_fract_z
Si Si1 0.062819 0.685490 0.621540
Si Si2 0.000000 0.810576 0.500000
Si Si3 0.000000 0.682566 0.000000
Si Si4 0.366956 0.517276 0.389925
Si Si5 0.447343 0.956482 0.801477
Si Si6 0.577469 0.342699 0.094608
Si Si7 0.219527 0.996188 0.194015
O O1 0.915065 0.577685 0.777609
O O2 0.979206 0.791615 0.755384
O O3 0.076154 0.724044 0.506015
O O4 0.283739 0.644821 0.446091
O O5 0.182466 0.889196 0.295694
O O6 0.804748 0.603270 0.173989
O O7 0.987668 0.765645 0.098388
O O8 0.476044 0.468996 0.197890
O O9 0.510716 0.530898 0.342786
O O10 0.182735 0.429493 0.584320
O O11 0.315900 0.860167 0.869685
O O12 0.378209 0.966344 0.969745
#
# Coordination Sequence:
#
# PCOD8050723 Si02
#       7
#     4   2   2   4   4   4   4
#     4  10  22  42  68  99 135 175 226 283 347 396
#     4  12  24  42  72 102 132 172 234 288 336 396
#     4  12  26  42  68 104 138 182 232 282 348 404
#     4   9  22  45  70  94 139 180 231 278 341 422
#     4   9  21  46  67  91 135 178 227 277 339 413
#     4  11  22  44  65  99 139 181 225 283 348 405
#     4  11  24  43  69 101 136 172 238 284 325 425
#
# _framework density 20.735997999999999
#
# number of rings (size 3 to 8) (size 9 to 14) (size 15 to 20)
#    1.000    0.667    5.000    0.000    4.667    2.667 
#    0.000    3.333    0.000    0.000    0.000    0.000 
#    0.000    0.000    0.000    0.000    0.000    0.000 
#
# Total GULP energy -148679.295770 kJ/mol
# GULP energy per Si atom -12389.941314 kJ/mol
# Density = 2.068880 g / cm^3
# Si number density = 20.735998 Si / 1000 Ang^3
#
#
#
# Elastic Constant Matrix: (Units=GPa)
#
#
# Indices 1 2 3 4 5 6 
#
# 1 131.2203 45.4499 58.0100 -0.0008 -6.0394 0.0001
# 2 45.4499 69.0664 28.1246 -0.0066 -5.3214 0.0022
# 3 58.0100 28.1246 105.5543 -0.0068 -16.3238 0.0018
# 4 -0.0008 -0.0066 -0.0068 36.4802 0.0021 -1.7920
# 5 -6.0394 -5.3214 -16.3238 0.0021 44.8144 0.0004
# 6 0.0001 0.0022 0.0018 -1.7920 0.0004 46.7491
#
#
#
# Elastic Compliance Matrix: (Units=1/GPa)
#
#
# Indices 1 2 3 4 5 6 
#
# 1 0.011841 -0.005783 -0.005114 -0.000002 -0.000954 0.000000
# 2 -0.005783 0.019071 -0.001774 0.000003 0.000839 -0.000001
# 3 -0.005114 -0.001774 0.013371 0.000002 0.003971 0.000000
# 4 -0.000002 0.000003 0.000002 0.027464 -0.000001 0.001053
# 5 -0.000954 0.000839 0.003971 -0.000001 0.023732 0.000000
# 6 0.000000 -0.000001 0.000000 0.001053 0.000000 0.021431
#
#
# Mechanical properties :
#
#
# Convention : Reuss Voigt Hill
#
# Bulk Modulus (GPa) = 52.79298 63.22333 58.00815
# Shear Modulus (GPa) = 33.65549 37.22585 35.44067
#
# Velocity S-wave (km/s) = 4.03308 4.24161 4.13866
# Velocity P-wave (km/s) = 6.87040 7.38540 7.13255
#
# Compressibility (1/GPa) = 0.01894191
#
# Stress axis : x y z
#
# Youngs Moduli (GPa) = 84.45489 52.43521 74.78920
#
# Poissons Ratio (x) = 0.30323 0.38247
# Poissons Ratio (y) = 0.48839 0.13264
# Poissons Ratio (z) = 0.43190 0.09300
#
# Static dielectric constant tensor:
#      x y z
#    x 3.639810 -0.000010 -0.043430 
#    y -0.000010 3.731740 0.000000 
#    z -0.043430 0.000000 3.800600 
# 
# 
# High freq. dielectric constant tensor:
#      x y z
#    x 1.798080 0.000000 -0.003350 
#    y 0.000000 1.809450 0.000000 
#    z -0.003350 0.000000 1.809690 
# 
# From -- ./inp_files/54541.got.cif
#   From: 2010.03.12/outbox.cif.g09.slc.cpg/sg5_28_cif.got.tgz:54541.got - 2010.03.31 09:47:26.
