data_PCOD8050420
_publ_section_title
;
Structure prediction by ZEFSAII (Michael W. Deem and Ramdas Pophale) SiO2 
 PCOD8050420
Probable space group: C 2
;
_chemical_formula_sum "Si O2"
_cell_formula_units_Z 26
_cell_length_a 8.457511
_cell_length_b 16.110425
_cell_length_c 15.648620
_cell_angle_alpha 90.000000
_cell_angle_beta 144.644229
_cell_angle_gamma 90.000000
_cell_volume 1233.794694
_symmetry_space_group_name_H-M "C 2"
_symmetry_group_IT_number 5
_symmetry_cell_setting 'monoclinic'
loop_
_space_group_symop_operation_xyz
x,y,z
-x,y,-z
1/2+x,1/2+y,z
1/2-x,1/2+y,-z
loop_
_atom_site_type_symbol
_atom_site_label
_atom_site_fract_x
_atom_site_fract_y
_atom_site_fract_z
Si Si1 0.841606 0.410420 0.841808
Si Si2 0.728865 0.556052 0.668653
Si Si3 0.933018 0.196682 0.618954
Si Si4 0.801646 0.327640 0.147930
Si Si5 0.764915 0.850681 0.559496
Si Si6 0.500000 0.071806 0.500000
Si Si7 0.040418 0.471402 0.675197
O O1 0.754409 0.498664 0.763733
O O2 0.558878 0.360230 0.734689
O O3 0.035096 0.359058 0.862821
O O4 0.000000 0.424312 0.000000
O O5 0.500000 0.528314 0.500000
O O6 0.682284 0.651571 0.677927
O O7 0.999866 0.541903 0.730510
O O8 0.755811 0.255760 0.480128
O O9 0.737245 0.123108 0.561108
O O10 0.037091 0.248633 0.744953
O O11 0.757220 0.401385 0.198022
O O12 0.500000 0.293765 0.000000
O O13 0.500000 0.870074 0.500000
O O14 0.738164 0.918383 0.470729
O O15 0.651617 0.015767 0.638750
#
# Coordination Sequence:
#
# PCOD8050420 Si02
#       7
#     4   4   4   4   4   2   4
#     4  11  25  42  71 100 134 175 222 277 331 391
#     4  11  20  42  64 100 129 171 217 277 329 388
#     4  11  24  37  67  94 132 169 219 274 329 390
#     4  10  25  46  63  92 138 178 219 267 334 396
#     4  11  22  39  65  97 128 170 225 266 319 389
#     4  12  20  36  62 102 124 156 222 288 324 376
#     4  10  22  38  67  91 126 168 228 272 312 391
#
# _framework density 21.0732
#
# number of rings (size 3 to 8) (size 9 to 14) (size 15 to 20)
#    0.000    1.231    3.846    1.385    4.308    0.615 
#    0.000    1.538    0.000    0.923    0.000    0.000 
#    0.000    0.000    0.000    0.000    0.000    0.000 
#
# Total GULP energy -161054.605255 kJ/mol
# GULP energy per Si atom -12388.815789 kJ/mol
# Density = 2.102524 g / cm^3
# Si number density = 21.073200 Si / 1000 Ang^3
#
#
#
# Elastic Constant Matrix: (Units=GPa)
#
#
# Indices 1 2 3 4 5 6 
#
# 1 87.0992 42.4461 35.1434 -0.0009 -11.2146 0.0000
# 2 42.4461 113.5333 39.1625 -0.0008 -19.1729 0.0003
# 3 35.1434 39.1625 128.0321 -0.0027 -11.9450 0.0046
# 4 -0.0009 -0.0008 -0.0027 20.8931 0.0000 -5.8145
# 5 -11.2146 -19.1729 -11.9450 0.0000 36.8309 0.0010
# 6 0.0000 0.0003 0.0046 -5.8145 0.0010 35.7859
#
#
#
# Elastic Compliance Matrix: (Units=1/GPa)
#
#
# Indices 1 2 3 4 5 6 
#
# 1 0.014865 -0.004429 -0.002597 0.000000 0.001378 0.000000
# 2 -0.004429 0.011867 -0.002025 0.000000 0.004172 0.000000
# 3 -0.002597 -0.002025 0.009251 0.000001 0.001155 -0.000001
# 4 0.000000 0.000000 0.000001 0.050129 0.000000 0.008145
# 5 0.001378 0.004172 0.001155 0.000000 0.030117 -0.000001
# 6 0.000000 0.000000 -0.000001 0.008145 -0.000001 0.029267
#
#
# Mechanical properties :
#
#
# Convention : Reuss Voigt Hill
#
# Bulk Modulus (GPa) = 55.92589 62.46318 59.19453
# Shear Modulus (GPa) = 29.48843 32.82947 31.15895
#
# Velocity S-wave (km/s) = 3.74482 3.95128 3.84944
# Velocity P-wave (km/s) = 6.73014 7.10790 6.92160
#
# Compressibility (1/GPa) = 0.01788081
#
# Stress axis : x y z
#
# Youngs Moduli (GPa) = 67.27310 84.26849 108.10185
#
# Poissons Ratio (x) = 0.37321 0.28073
# Poissons Ratio (y) = 0.29794 0.21890
# Poissons Ratio (z) = 0.17470 0.17064
#
# Static dielectric constant tensor:
#      x y z
#    x 3.947420 0.000000 -0.222320 
#    y 0.000000 3.882810 0.000000 
#    z -0.222320 0.000000 3.769140 
# 
# 
# High freq. dielectric constant tensor:
#      x y z
#    x 1.825970 0.000000 -0.019300 
#    y 0.000000 1.833070 0.000000 
#    z -0.019300 0.000000 1.803330 
# 
# From -- ./inp_files/51049.got.cif
#   From: 2010.03.12/outbox.cif.g09.slc.cpg/sg5_26_cif.got.tgz:51049.got - 2010.03.31 09:47:26.
