data_PCOD8050923
_publ_section_title
;
Structure prediction by ZEFSAII (Michael W. Deem and Ramdas Pophale) SiO2 
 PCOD8050923
Probable space group: C 2
;
_chemical_formula_sum "Si O2"
_cell_formula_units_Z 26
_cell_length_a 11.793130
_cell_length_b 7.556927
_cell_length_c 23.679529
_cell_angle_alpha 90.000000
_cell_angle_beta 31.541807
_cell_angle_gamma 90.000000
_cell_volume 1103.949409
_symmetry_space_group_name_H-M "C 2"
_symmetry_group_IT_number 5
_symmetry_cell_setting 'monoclinic'
loop_
_space_group_symop_operation_xyz
x,y,z
-x,y,-z
1/2+x,1/2+y,z
1/2-x,1/2+y,-z
loop_
_atom_site_type_symbol
_atom_site_label
_atom_site_fract_x
_atom_site_fract_y
_atom_site_fract_z
Si Si1 0.869093 0.496830 0.284975
Si Si2 0.784355 0.678399 0.795694
Si Si3 0.479850 0.375464 0.941614
Si Si4 0.233217 0.723817 0.424900
Si Si5 0.495355 0.979441 0.895676
Si Si6 0.644303 0.369563 0.578687
Si Si7 0.500000 0.690452 0.500000
O O1 0.889406 0.312750 0.311255
O O2 0.635309 0.569098 0.400160
O O3 0.062593 0.635343 0.215755
O O4 0.866114 0.463283 0.220169
O O5 0.655644 0.497700 0.834385
O O6 0.939384 0.742050 0.678796
O O7 0.610096 0.831134 0.886785
O O8 0.521908 0.169307 0.913026
O O9 0.500000 0.413556 0.000000
O O10 0.250511 0.429809 0.013063
O O11 0.382928 0.569782 0.387780
O O12 0.186524 0.868565 0.493787
O O13 0.000000 0.658467 0.500000
O O14 0.854832 0.308929 0.522224
#
# Coordination Sequence:
#
# PCOD8050923 Si02
#       7
#     4   4   4   4   4   4   2
#     4  11  25  45  73 107 152 188 246 298 359 446
#     4  11  26  47  72 111 143 194 246 304 364 437
#     4  12  27  51  75 110 143 188 253 312 372 439
#     4  12  25  46  70 107 153 200 248 299 364 441
#     4  12  27  49  79 106 144 196 239 314 379 433
#     4  11  25  44  73 106 154 201 246 299 366 436
#     4  10  22  46  68 106 148 202 234 298 356 438
#
# _framework density 23.551801999999999
#
# number of rings (size 3 to 8) (size 9 to 14) (size 15 to 20)
#    0.000    0.615    4.615    2.769    4.308    3.077 
#    5.538    0.000    0.000    0.000    0.000    0.000 
#    0.000    0.000    0.000    0.000    0.000    0.000 
#
# Total GULP energy -161183.055227 kJ/mol
# GULP energy per Si atom -12398.696556 kJ/mol
# Density = 2.349820 g / cm^3
# Si number density = 23.551802 Si / 1000 Ang^3
#
#
#
# Elastic Constant Matrix: (Units=GPa)
#
#
# Indices 1 2 3 4 5 6 
#
# 1 86.2523 39.0354 45.8131 0.0004 -17.9186 0.0003
# 2 39.0354 157.1809 45.9815 0.0003 -14.0632 0.0005
# 3 45.8131 45.9815 96.1287 0.0005 -14.5449 -0.0002
# 4 0.0004 0.0003 0.0005 37.2133 -0.0001 -17.0451
# 5 -17.9186 -14.0632 -14.5449 -0.0001 46.6463 -0.0001
# 6 0.0003 0.0005 -0.0002 -17.0451 -0.0001 37.0499
#
#
#
# Elastic Compliance Matrix: (Units=1/GPa)
#
#
# Indices 1 2 3 4 5 6 
#
# 1 0.016683 -0.001912 -0.006458 0.000000 0.003818 0.000000
# 2 -0.001912 0.007679 -0.002648 0.000000 0.000755 0.000000
# 3 -0.006458 -0.002648 0.014957 0.000000 0.001385 0.000000
# 4 0.000000 0.000000 0.000000 0.034046 0.000000 0.015663
# 5 0.003818 0.000755 0.001385 0.000000 0.023564 0.000000
# 6 0.000000 0.000000 0.000000 0.015663 0.000000 0.034197
#
#
# Mechanical properties :
#
#
# Convention : Reuss Voigt Hill
#
# Bulk Modulus (GPa) = 57.86288 66.80244 62.33266
# Shear Modulus (GPa) = 31.46186 38.09738 34.77962
#
# Velocity S-wave (km/s) = 3.65890 4.02630 3.84699
# Velocity P-wave (km/s) = 6.51704 7.07393 6.80118
#
# Compressibility (1/GPa) = 0.01728224
#
# Stress axis : x y z
#
# Youngs Moduli (GPa) = 59.94166 130.22427 66.86030
#
# Poissons Ratio (x) = 0.24902 0.43181
# Poissons Ratio (y) = 0.11462 0.17702
# Poissons Ratio (z) = 0.38712 0.34478
#
# Static dielectric constant tensor:
#      x y z
#    x 4.279750 0.000000 -0.250750 
#    y 0.000000 4.464770 0.000000 
#    z -0.250750 0.000000 4.572850 
# 
# 
# High freq. dielectric constant tensor:
#      x y z
#    x 1.939950 0.000000 -0.024970 
#    y 0.000000 1.942760 0.000000 
#    z -0.024970 0.000000 1.926770 
# 
# From -- ./inp_files/68255.got.cif
#   From: 2010.03.12/outbox.cif.g09.slc.cpg/sg5_35_cif.got.tgz:68255.got - 2010.03.31 09:47:26.
