data_PCOD8050199
_publ_section_title
;
Structure prediction by ZEFSAII (Michael W. Deem and Ramdas Pophale) SiO2 
 PCOD8050199
Probable space group: C 2
;
_chemical_formula_sum "Si O2"
_cell_formula_units_Z 28
_cell_length_a 15.168951
_cell_length_b 7.596424
_cell_length_c 13.712221
_cell_angle_alpha 90.000000
_cell_angle_beta 128.548321
_cell_angle_gamma 90.000000
_cell_volume 1235.734938
_symmetry_space_group_name_H-M "C 2"
_symmetry_group_IT_number 5
_symmetry_cell_setting 'monoclinic'
loop_
_space_group_symop_operation_xyz
x,y,z
-x,y,-z
1/2+x,1/2+y,z
1/2-x,1/2+y,-z
loop_
_atom_site_type_symbol
_atom_site_label
_atom_site_fract_x
_atom_site_fract_y
_atom_site_fract_z
Si Si1 0.055915 0.798440 0.811855
Si Si2 0.936402 0.399796 0.163870
Si Si3 0.893692 0.092579 0.996520
Si Si4 0.804262 0.881293 0.637527
Si Si5 0.812607 0.445560 0.260548
Si Si6 0.108818 0.801062 0.633250
Si Si7 0.312230 0.794290 0.641197
O O1 0.100352 0.604352 0.873402
O O2 0.105537 0.866227 0.742959
O O3 0.921115 0.779287 0.708035
O O4 0.094055 0.934595 0.919000
O O5 0.882187 0.281583 0.041637
O O6 0.884370 0.332969 0.231714
O O7 0.070611 0.387081 0.254825
O O8 0.783217 0.063498 0.857494
O O9 0.000000 0.094785 0.000000
O O10 0.723588 0.838796 0.492729
O O11 0.741100 0.819165 0.693790
O O12 0.830253 0.087320 0.665028
O O13 0.894242 0.587494 0.369102
O O14 0.220387 0.869611 0.654161
O O15 0.000000 0.871382 0.500000
#
# Coordination Sequence:
#
# PCOD8050199 Si02
#       7
#     4   4   4   4   4   4   4
#     4  11  23  45  70 102 135 178 230 279 344 407
#     4  11  26  44  68 101 132 184 230 277 343 407
#     4  12  24  50  68  95 143 177 233 286 340 401
#     4  11  21  43  68 102 143 178 222 285 343 405
#     4  10  25  41  69  98 136 186 220 288 341 398
#     4  10  21  41  69  98 136 179 221 279 344 402
#     4  11  22  41  68 102 142 178 225 283 342 407
#
# _framework density 22.658577999999999
#
# number of rings (size 3 to 8) (size 9 to 14) (size 15 to 20)
#    0.000    1.143    4.286    1.714   10.000    0.571 
#    5.143    1.429    0.000    0.000    0.000    0.000 
#    0.000    0.000    0.000    0.000    0.000    0.000 
#
# Total GULP energy -173611.477163 kJ/mol
# GULP energy per Si atom -12400.819797 kJ/mol
# Density = 2.260701 g / cm^3
# Si number density = 22.658578 Si / 1000 Ang^3
#
#
#
# Elastic Constant Matrix: (Units=GPa)
#
#
# Indices 1 2 3 4 5 6 
#
# 1 171.5253 15.0891 33.8175 0.0000 -39.0961 0.0000
# 2 15.0891 79.2908 26.0621 0.0000 -19.7148 0.0000
# 3 33.8175 26.0621 88.9172 0.0000 -28.1969 0.0000
# 4 0.0000 0.0000 0.0000 42.5348 0.0000 -2.2145
# 5 -39.0961 -19.7148 -28.1969 0.0000 46.2165 0.0000
# 6 0.0000 0.0000 0.0000 -2.2145 0.0000 25.5556
#
#
#
# Elastic Compliance Matrix: (Units=1/GPa)
#
#
# Indices 1 2 3 4 5 6 
#
# 1 0.007305 0.000379 -0.001089 0.000000 0.005677 0.000000
# 2 0.000379 0.014697 -0.002929 0.000000 0.004803 0.000000
# 3 -0.001089 -0.002929 0.014669 0.000000 0.006779 0.000000
# 4 0.000000 0.000000 0.000000 0.023617 0.000000 0.002047
# 5 0.005677 0.004803 0.006779 0.000000 0.032624 0.000000
# 6 0.000000 0.000000 0.000000 0.002047 0.000000 0.039308
#
#
# Mechanical properties :
#
#
# Convention : Reuss Voigt Hill
#
# Bulk Modulus (GPa) = 34.02132 54.40787 44.21460
# Shear Modulus (GPa) = 33.49077 40.51233 37.00155
#
# Velocity S-wave (km/s) = 3.84873 4.23300 4.04543
# Velocity P-wave (km/s) = 5.89895 6.92497 6.43245
#
# Compressibility (1/GPa) = 0.02939333
#
# Stress axis : x y z
#
# Youngs Moduli (GPa) = 136.88425 68.04323 68.17203
#
# Poissons Ratio (x) = -0.02581 0.07426
# Poissons Ratio (y) = -0.05193 0.19966
# Poissons Ratio (z) = 0.14911 0.19928
#
# Static dielectric constant tensor:
#      x y z
#    x 4.588290 0.000000 -0.214820 
#    y 0.000000 3.759650 0.000000 
#    z -0.214820 0.000000 4.094240 
# 
# 
# High freq. dielectric constant tensor:
#      x y z
#    x 1.921270 0.000000 -0.007930 
#    y 0.000000 1.865040 0.000000 
#    z -0.007930 0.000000 1.895500 
# 
# From -- ./inp_files/42020.got.cif
#   From: 2010.03.12/outbox.cif.g09.slc.cpg/sg5_22_cif.got.tgz:42020.got - 2010.03.31 09:47:26.
