data_PCOD8050393
_publ_section_title
;
Structure prediction by ZEFSAII (Michael W. Deem and Ramdas Pophale) SiO2 
 PCOD8050393
Probable space group: C 2
;
_chemical_formula_sum "Si O2"
_cell_formula_units_Z 30
_cell_length_a 9.578005
_cell_length_b 11.265793
_cell_length_c 25.401893
_cell_angle_alpha 90.000000
_cell_angle_beta 31.137978
_cell_angle_gamma 90.000000
_cell_volume 1417.353255
_symmetry_space_group_name_H-M "C 2"
_symmetry_group_IT_number 5
_symmetry_cell_setting 'monoclinic'
loop_
_space_group_symop_operation_xyz
x,y,z
-x,y,-z
1/2+x,1/2+y,z
1/2-x,1/2+y,-z
loop_
_atom_site_type_symbol
_atom_site_label
_atom_site_fract_x
_atom_site_fract_y
_atom_site_fract_z
Si Si1 0.688721 0.357580 0.709335
Si Si2 0.840249 0.199623 0.443488
Si Si3 0.707845 0.224720 0.223214
Si Si4 0.265343 0.778291 0.883081
Si Si5 0.232523 0.552991 0.117368
Si Si6 0.566386 0.052468 0.614874
Si Si7 0.500000 0.376849 0.500000
Si Si8 0.751066 0.181647 0.773611
O O1 0.422510 0.345954 0.758835
O O2 0.630843 0.303275 0.786373
O O3 0.920882 0.276278 0.606403
O O4 0.789498 0.492579 0.682864
O O5 0.761138 0.085949 0.503408
O O6 0.580929 0.287624 0.521348
O O7 0.958642 0.153623 0.348433
O O8 0.730805 0.125073 0.171654
O O9 0.505253 0.172184 0.332062
O O10 0.993116 0.255100 0.154976
O O11 0.293864 0.697825 0.821901
O O12 0.258612 0.915569 0.869415
O O13 0.000000 0.738938 0.000000
O O14 0.966852 0.578063 0.167698
O O15 0.500000 0.590844 0.000000
O O16 0.734974 0.958558 0.596933
#
# Coordination Sequence:
#
# PCOD8050393 Si02
#       8
#     4   4   4   4   4   4   2   4
#     4   8  20  40  57  91 123 161 203 246 301 360
#     4   9  21  37  61  89 121 168 202 241 308 361
#     4  11  23  39  65  92 122 162 204 256 304 367
#     4  11  24  41  66  95 120 158 211 261 311 371
#     4  10  22  42  66  90 121 163 203 258 323 367
#     4  11  21  37  63  87 125 165 206 246 303 363
#     4  10  22  38  60  86 128 164 204 254 304 354
#     4   9  20  41  63  88 127 159 203 253 308 370
#
# _framework density 21.166212999999999
#
# number of rings (size 3 to 8) (size 9 to 14) (size 15 to 20)
#    0.800    1.333    0.000    2.400    1.867    1.067 
#    2.400    0.000    0.000    5.600    0.000    0.000 
#    0.000    0.000    0.000    0.000    0.000    0.000 
#
# Total GULP energy -185881.015612 kJ/mol
# GULP energy per Si atom -12392.067707 kJ/mol
# Density = 2.111804 g / cm^3
# Si number density = 21.166213 Si / 1000 Ang^3
#
#
#
# Elastic Constant Matrix: (Units=GPa)
#
#
# Indices 1 2 3 4 5 6 
#
# 1 137.3563 19.6862 49.3871 -0.0066 -13.4681 0.0057
# 2 19.6862 32.0916 23.2984 0.0005 0.6131 0.0022
# 3 49.3871 23.2984 96.1975 -0.0342 0.7025 0.0221
# 4 -0.0066 0.0005 -0.0342 25.7816 0.0120 -4.9956
# 5 -13.4681 0.6131 0.7025 0.0120 33.2904 -0.0058
# 6 0.0057 0.0022 0.0221 -4.9956 -0.0058 23.5876
#
#
#
# Elastic Compliance Matrix: (Units=1/GPa)
#
#
# Indices 1 2 3 4 5 6 
#
# 1 0.009626 -0.002879 -0.004274 -0.000005 0.004037 0.000002
# 2 -0.002879 0.038678 -0.007877 -0.000011 -0.001711 0.000002
# 3 -0.004274 -0.007877 0.014511 0.000018 -0.001890 -0.000009
# 4 -0.000005 -0.000011 0.000018 0.040447 -0.000015 0.008566
# 5 0.004037 -0.001711 -0.001890 -0.000015 0.031743 0.000006
# 6 0.000002 0.000002 -0.000009 0.008566 0.000006 0.044209
#
#
# Mechanical properties :
#
#
# Convention : Reuss Voigt Hill
#
# Bulk Modulus (GPa) = 30.52970 50.04320 40.28645
# Shear Modulus (GPa) = 22.70733 28.08350 25.39542
#
# Velocity S-wave (km/s) = 3.27893 3.64649 3.46758
# Velocity P-wave (km/s) = 5.36566 6.43611 5.92511
#
# Compressibility (1/GPa) = 0.03275499
#
# Stress axis : x y z
#
# Youngs Moduli (GPa) = 103.89045 25.85426 68.91294
#
# Poissons Ratio (x) = 0.07443 0.29453
# Poissons Ratio (y) = 0.29910 0.54283
# Poissons Ratio (z) = 0.44402 0.20366
#
# Static dielectric constant tensor:
#      x y z
#    x 3.758080 0.000000 -0.153780 
#    y 0.000000 3.617920 0.000010 
#    z -0.153780 0.000010 3.783940 
# 
# 
# High freq. dielectric constant tensor:
#      x y z
#    x 1.828180 0.000000 -0.014420 
#    y 0.000000 1.817370 0.000000 
#    z -0.014420 0.000000 1.816240 
# 
# From -- ./inp_files/67953.got.cif
#   From: 2010.03.12/outbox.cif.g09.slc.cpg/sg5_34_cif.got.tgz:67953.got - 2010.03.31 09:47:26.
