data_PCOD8050337
_publ_section_title
;
Structure prediction by ZEFSAII (Michael W. Deem and Ramdas Pophale) SiO2 
 PCOD8050337
Probable space group: C 2
;
_chemical_formula_sum "Si O2"
_cell_formula_units_Z 14
_cell_length_a 23.345488
_cell_length_b 5.150651
_cell_length_c 6.428108
_cell_angle_alpha 90.000000
_cell_angle_beta 133.628685
_cell_angle_gamma 90.000000
_cell_volume 559.477638
_symmetry_space_group_name_H-M "C 2"
_symmetry_group_IT_number 5
_symmetry_cell_setting 'monoclinic'
loop_
_space_group_symop_operation_xyz
x,y,z
-x,y,-z
1/2+x,1/2+y,z
1/2-x,1/2+y,-z
loop_
_atom_site_type_symbol
_atom_site_label
_atom_site_fract_x
_atom_site_fract_y
_atom_site_fract_z
Si Si1 0.134691 0.427380 0.116615
Si Si2 0.371469 0.698325 0.475544
Si Si3 0.000000 0.375026 0.500000
Si Si4 0.716080 0.190216 0.667973
O O1 0.100345 0.244743 0.215388
O O2 0.190218 0.249372 0.105009
O O3 0.186426 0.659715 0.349996
O O4 0.060981 0.540981 0.796670
O O5 0.447628 0.696017 0.518971
O O6 0.330439 0.423397 0.339802
O O7 0.306252 0.927614 0.260480
#
# Coordination Sequence:
#
# PCOD8050337 Si02
#       4
#     4   4   2   4
#     4  10  22  47  70 102 129 188 219 296 320 421
#     4  10  23  46  66 103 131 188 211 293 323 426
#     4  12  26  44  70 108 144 168 240 276 358 380
#     4  10  21  46  76  84 142 176 237 253 359 383
#
# _framework density 25.023343000000001
#
# number of rings (size 3 to 8) (size 9 to 14) (size 15 to 20)
#    1.714    0.000    2.857    0.857    0.000    3.429 
#   15.429    0.000    0.000    0.000    0.000    0.000 
#    0.000    0.000    0.000    0.000    0.000    0.000 
#
# Total GULP energy -86718.099945 kJ/mol
# GULP energy per Si atom -12388.299992 kJ/mol
# Density = 2.496639 g / cm^3
# Si number density = 25.023343 Si / 1000 Ang^3
#
#
#
# Elastic Constant Matrix: (Units=GPa)
#
#
# Indices 1 2 3 4 5 6 
#
# 1 170.4615 23.4693 23.5424 0.0000 32.6654 0.0000
# 2 23.4693 112.6888 1.0220 0.0000 14.8350 0.0000
# 3 23.5424 1.0220 170.5577 0.0000 13.6028 0.0000
# 4 0.0000 0.0000 0.0000 8.3952 0.0000 7.6770
# 5 32.6654 14.8350 13.6028 0.0000 28.7944 0.0000
# 6 0.0000 0.0000 0.0000 7.6770 0.0000 18.1746
#
#
#
# Elastic Compliance Matrix: (Units=1/GPa)
#
#
# Indices 1 2 3 4 5 6 
#
# 1 0.007545 -0.000499 -0.000391 0.000000 -0.008117 0.000000
# 2 -0.000499 0.009573 0.000374 0.000000 -0.004542 0.000000
# 3 -0.000391 0.000374 0.006126 0.000000 -0.002643 0.000000
# 4 0.000000 0.000000 0.000000 0.194082 0.000000 -0.081980
# 5 -0.008117 -0.004542 -0.002643 0.000000 0.047526 0.000000
# 6 0.000000 0.000000 0.000000 -0.081980 0.000000 0.089650
#
#
# Mechanical properties :
#
#
# Convention : Reuss Voigt Hill
#
# Bulk Modulus (GPa) = 45.02498 61.08616 53.05557
# Shear Modulus (GPa) = 13.77649 38.11780 25.94715
#
# Velocity S-wave (km/s) = 2.34892 3.90717 3.22361
# Velocity P-wave (km/s) = 5.03873 6.69472 5.92487
#
# Compressibility (1/GPa) = 0.02220990
#
# Stress axis : x y z
#
# Youngs Moduli (GPa) = 132.54511 104.46575 163.24854
#
# Poissons Ratio (x) = 0.05215 0.06384
# Poissons Ratio (y) = 0.06616 -0.06102
# Poissons Ratio (z) = 0.05183 -0.03905
#
# Static dielectric constant tensor:
#      x y z
#    x 4.530780 0.000000 -0.148050 
#    y 0.000000 3.862180 0.000000 
#    z -0.148050 0.000000 4.412040 
# 
# 
# High freq. dielectric constant tensor:
#      x y z
#    x 2.019190 0.000000 -0.009650 
#    y 0.000000 1.946410 0.000000 
#    z -0.009650 0.000000 1.995900 
# 
# From -- ./inp_files/9010.got.cif
#   From: 2010.03.12/outbox.cif.g09.slc.cpg/sg5_5_cif.got.tgz:9010.got - 2010.03.31 09:47:26.
