data_PCOD8050036
_publ_section_title
;
Structure prediction by ZEFSAII (Michael W. Deem and Ramdas Pophale) SiO2 
 PCOD8050036
Probable space group: C 2
;
_chemical_formula_sum "Si O2"
_cell_formula_units_Z 30
_cell_length_a 13.811375
_cell_length_b 5.452876
_cell_length_c 17.235983
_cell_angle_alpha 90.000000
_cell_angle_beta 107.472826
_cell_angle_gamma 90.000000
_cell_volume 1238.177728
_symmetry_space_group_name_H-M "C 2"
_symmetry_group_IT_number 5
_symmetry_cell_setting 'monoclinic'
loop_
_space_group_symop_operation_xyz
x,y,z
-x,y,-z
1/2+x,1/2+y,z
1/2-x,1/2+y,-z
loop_
_atom_site_type_symbol
_atom_site_label
_atom_site_fract_x
_atom_site_fract_y
_atom_site_fract_z
Si Si1 0.246020 0.853770 0.046065
Si Si2 0.287266 0.001419 0.469987
Si Si3 0.888042 0.583505 0.729403
Si Si4 0.384356 0.462239 0.848778
Si Si5 0.037198 0.877493 0.671897
Si Si6 0.754188 0.681841 0.302551
Si Si7 0.500000 0.243713 0.500000
Si Si8 0.556299 0.722472 0.814107
O O1 0.142670 0.926829 0.067321
O O2 0.335152 0.803120 0.128369
O O3 0.225535 0.597609 0.996253
O O4 0.230185 0.234379 0.496651
O O5 0.247992 0.981684 0.370181
O O6 0.406572 0.064939 0.497808
O O7 0.845490 0.724912 0.793554
O O8 0.795328 0.428034 0.670421
O O9 0.930627 0.764162 0.673567
O O10 0.986796 0.455113 0.788675
O O11 0.316748 0.668992 0.790609
O O12 0.503362 0.528854 0.862445
O O13 0.131999 0.693163 0.701946
O O14 0.024229 0.929640 0.577000
O O15 0.065250 0.113805 0.729360
#
# Coordination Sequence:
#
# PCOD8050036 Si02
#       8
#     4   4   4   4   4   4   2   4
#     4  12  30  50  76 109 149 184 234 301 365 438
#     4  11  26  44  67 101 150 190 247 305 367 416
#     4  10  21  39  71  96 136 180 247 286 355 433
#     4  10  24  44  73 101 138 183 239 288 360 439
#     4  10  21  41  66  97 142 187 243 295 353 422
#     4  10  22  39  68  98 132 193 234 296 353 430
#     4  10  24  44  64 110 146 196 250 308 360 416
#     4  10  24  44  72 104 136 196 232 295 357 435
#
# _framework density 24.229154999999999
#
# number of rings (size 3 to 8) (size 9 to 14) (size 15 to 20)
#    0.000    1.600    0.000    2.400   16.800    1.067 
#    7.200    0.000    0.000    0.000    0.000    0.000 
#    0.000    0.000    0.000    0.000    0.000    0.000 
#
# Total GULP energy -185823.657181 kJ/mol
# GULP energy per Si atom -12388.243812 kJ/mol
# Density = 2.417401 g / cm^3
# Si number density = 24.229155 Si / 1000 Ang^3
#
#
#
# Elastic Constant Matrix: (Units=GPa)
#
#
# Indices 1 2 3 4 5 6 
#
# 1 98.0903 8.5053 21.7836 0.0000 -12.5807 0.0000
# 2 8.5053 69.2678 19.5002 0.0000 -13.6594 0.0000
# 3 21.7836 19.5002 85.2377 0.0000 -13.7229 0.0000
# 4 0.0000 0.0000 0.0000 32.1648 0.0000 -1.2183
# 5 -12.5807 -13.6594 -13.7229 0.0000 32.5047 0.0000
# 6 0.0000 0.0000 0.0000 -1.2183 0.0000 -7.7100
#
#
#
# Elastic Compliance Matrix: (Units=1/GPa)
#
#
# Indices 1 2 3 4 5 6 
#
# 1 0.011135 -0.000068 -0.002297 0.000000 0.003312 0.000000
# 2 -0.000068 0.016353 -0.002813 0.000000 0.005658 0.000000
# 3 -0.002297 -0.002813 0.013550 0.000000 0.003649 0.000000
# 4 0.000000 0.000000 0.000000 0.030905 0.000000 -0.004884
# 5 0.003312 0.005658 0.003649 0.000000 0.035965 0.000000
# 6 0.000000 0.000000 0.000000 -0.004884 0.000000 -0.128930
#
#
# Mechanical properties :
#
#
# Convention : Reuss Voigt Hill
#
# Bulk Modulus (GPa) = 32.59144 39.13046 35.86095
# Shear Modulus (GPa) = -11396.22408 24.91236 -5685.65586
#
# Velocity S-wave (km/s) = -68.65659 3.21003 -48.49445
# Velocity P-wave (km/s) = 79.19274 5.47031 55.86397
#
# Compressibility (1/GPa) = 0.03068291
#
# Stress axis : x y z
#
# Youngs Moduli (GPa) = 89.80344 61.15208 73.80062
#
# Poissons Ratio (x) = 0.00413 0.16953
# Poissons Ratio (y) = 0.00607 0.20759
# Poissons Ratio (z) = 0.20629 0.17201
#
# Static dielectric constant tensor:
#      x y z
#    x 4.804490 0.000000 0.028710 
#    y 0.000000 4.277680 0.000000 
#    z 0.028710 0.000000 4.418800 
# 
# 
# High freq. dielectric constant tensor:
#      x y z
#    x 1.977470 0.000000 -0.003510 
#    y 0.000000 1.952540 0.000000 
#    z -0.003510 0.000000 1.953920 
# 
# From -- ./inp_files/61241.got.cif
#   From: 2010.03.12/outbox.cif.g09.slc.cpg/sg5_31_cif.got.tgz:61241.got - 2010.03.31 09:47:26.
