data_PCOD8050407
_publ_section_title
;
Structure prediction by ZEFSAII (Michael W. Deem and Ramdas Pophale) SiO2 
 PCOD8050407
Probable space group: C 2
;
_chemical_formula_sum "Si O2"
_cell_formula_units_Z 26
_cell_length_a 11.766239
_cell_length_b 9.175584
_cell_length_c 22.448820
_cell_angle_alpha 90.000000
_cell_angle_beta 30.318319
_cell_angle_gamma 90.000000
_cell_volume 1223.453265
_symmetry_space_group_name_H-M "C 2"
_symmetry_group_IT_number 5
_symmetry_cell_setting 'monoclinic'
loop_
_space_group_symop_operation_xyz
x,y,z
-x,y,-z
1/2+x,1/2+y,z
1/2-x,1/2+y,-z
loop_
_atom_site_type_symbol
_atom_site_label
_atom_site_fract_x
_atom_site_fract_y
_atom_site_fract_z
Si Si1 0.722629 0.778680 0.363516
Si Si2 0.250468 0.567745 0.946486
Si Si3 0.646985 0.281283 0.250255
Si Si4 0.753346 0.992292 0.247112
Si Si5 0.246683 0.853361 0.876033
Si Si6 0.000000 0.314888 0.000000
Si Si7 0.412159 0.027690 0.197037
O O1 0.500000 0.738757 0.500000
O O2 0.678995 0.918017 0.341917
O O3 0.781848 0.640522 0.296676
O O4 0.919786 0.823150 0.319483
O O5 0.489234 0.545854 0.869249
O O6 0.254230 0.682054 0.890165
O O7 0.180060 0.411099 0.954117
O O8 0.065118 0.616263 0.079902
O O9 0.729636 0.423539 0.247972
O O10 0.602492 0.139366 0.311019
O O11 0.843825 0.222719 0.115503
O O12 0.698586 0.879440 0.218221
O O13 0.427855 0.930993 0.834907
O O14 0.000000 0.918582 0.000000
#
# Coordination Sequence:
#
# PCOD8050407 Si02
#       7
#     4   4   4   4   4   2   4
#     4  12  29  50  69  96 138 192 238 280 339 410
#     4  11  22  38  66 109 142 174 214 282 355 413
#     4  11  25  44  69 103 135 176 230 285 344 405
#     4  12  25  41  70 101 138 178 231 285 343 408
#     4  12  22  37  67 108 143 175 218 277 355 419
#     4  10  22  38  64 102 152 168 210 282 350 416
#     4  11  25  43  70 102 142 181 226 288 342 408
#
# _framework density 21.251321999999998
#
# number of rings (size 3 to 8) (size 9 to 14) (size 15 to 20)
#    0.000    0.615    6.923    0.923    5.385    1.231 
#    0.000    0.769    0.000    0.000    0.000    0.000 
#    0.000    0.000    0.000    0.000    0.000    0.000 
#
# Total GULP energy -161222.270060 kJ/mol
# GULP energy per Si atom -12401.713082 kJ/mol
# Density = 2.120295 g / cm^3
# Si number density = 21.251322 Si / 1000 Ang^3
#
#
#
# Elastic Constant Matrix: (Units=GPa)
#
#
# Indices 1 2 3 4 5 6 
#
# 1 133.0998 33.8696 35.6213 -0.0001 -5.9294 0.0001
# 2 33.8696 78.1269 37.6890 -0.0001 8.0379 0.0000
# 3 35.6213 37.6890 84.2391 -0.0007 9.2066 -0.0007
# 4 -0.0001 -0.0001 -0.0007 23.1481 0.0000 7.3569
# 5 -5.9294 8.0379 9.2066 0.0000 20.4542 0.0001
# 6 0.0001 0.0000 -0.0007 7.3569 0.0001 25.5669
#
#
#
# Elastic Compliance Matrix: (Units=1/GPa)
#
#
# Indices 1 2 3 4 5 6 
#
# 1 0.009388 -0.003091 -0.003173 0.000000 0.005364 0.000000
# 2 -0.003091 0.017554 -0.005989 0.000000 -0.005098 0.000000
# 3 -0.003173 -0.005989 0.016550 0.000000 -0.006015 0.000000
# 4 0.000000 0.000000 0.000000 0.047548 0.000000 -0.013682
# 5 0.005364 -0.005098 -0.006015 0.000000 0.055156 0.000000
# 6 0.000000 0.000000 0.000000 -0.013682 0.000000 0.043050
#
#
# Mechanical properties :
#
#
# Convention : Reuss Voigt Hill
#
# Bulk Modulus (GPa) = 52.67468 56.64728 54.66098
# Shear Modulus (GPa) = 22.71895 26.38624 24.55259
#
# Velocity S-wave (km/s) = 3.27320 3.52750 3.40272
# Velocity P-wave (km/s) = 6.25503 6.58063 6.41990
#
# Compressibility (1/GPa) = 0.01898445
#
# Stress axis : x y z
#
# Youngs Moduli (GPa) = 106.51981 56.96868 60.42368
#
# Poissons Ratio (x) = 0.17609 0.19173
# Poissons Ratio (y) = 0.32926 0.36189
# Poissons Ratio (z) = 0.33800 0.34120
#
# Static dielectric constant tensor:
#      x y z
#    x 4.208280 0.000000 0.005140 
#    y 0.000000 3.843680 0.000000 
#    z 0.005140 0.000000 3.503620 
# 
# 
# High freq. dielectric constant tensor:
#      x y z
#    x 1.864540 0.000000 -0.007330 
#    y 0.000000 1.839550 0.000000 
#    z -0.007330 0.000000 1.785210 
# 
# From -- ./inp_files/52184.got.cif
#   From: 2010.03.12/outbox.cif.g09.slc.cpg/sg5_27_cif.got.tgz:52184.got - 2010.03.31 09:47:26.
