data_PCOD8050388
_publ_section_title
;
Structure prediction by ZEFSAII (Michael W. Deem and Ramdas Pophale) SiO2 
 PCOD8050388
Probable space group: C 2
;
_chemical_formula_sum "Si O2"
_cell_formula_units_Z 28
_cell_length_a 12.490991
_cell_length_b 18.525942
_cell_length_c 12.199418
_cell_angle_alpha 90.000000
_cell_angle_beta 147.583660
_cell_angle_gamma 90.000000
_cell_volume 1513.337654
_symmetry_space_group_name_H-M "C 2"
_symmetry_group_IT_number 5
_symmetry_cell_setting 'monoclinic'
loop_
_space_group_symop_operation_xyz
x,y,z
-x,y,-z
1/2+x,1/2+y,z
1/2-x,1/2+y,-z
loop_
_atom_site_type_symbol
_atom_site_label
_atom_site_fract_x
_atom_site_fract_y
_atom_site_fract_z
Si Si1 0.500000 0.663240 0.500000
Si Si2 0.500000 0.738585 0.000000
Si Si3 0.121362 0.616979 0.299745
Si Si4 0.387634 0.353525 0.511204
Si Si5 0.240198 0.338018 0.044209
Si Si6 0.953393 0.460195 0.830923
Si Si7 0.833791 0.731293 0.935795
Si Si8 0.317696 0.197432 0.425555
O O1 0.336051 0.616175 0.423922
O O2 0.631084 0.709695 0.697960
O O3 0.343491 0.791359 0.925900
O O4 0.385669 0.684616 0.818679
O O5 0.037382 0.536172 0.222462
O O6 0.155177 0.639954 0.454283
O O7 0.949610 0.665317 0.094968
O O8 0.500000 0.331348 0.500000
O O9 0.542172 0.370370 0.741335
O O10 0.259097 0.423755 0.374898
O O11 0.279512 0.277342 0.446532
O O12 0.253644 0.289734 0.949608
O O13 0.108420 0.407691 0.905215
O O14 0.000000 0.469000 0.000000
O O15 0.000000 0.767032 0.000000
O O16 0.500000 0.188856 0.500000
#
# Coordination Sequence:
#
# PCOD8050388 Si02
#       8
#     2   2   4   4   4   4   4   4
#     4  10  22  38  58  84 122 162 200 238 286 354
#     4  12  18  32  62  98 108 144 198 254 294 340
#     4  11  24  39  58  89 125 160 193 240 301 357
#     4  11  19  34  60  90 116 147 190 246 301 344
#     4  12  20  36  62  91 117 146 195 253 298 340
#     4  12  23  35  58  93 124 147 190 245 309 353
#     4  10  22  39  60  86 117 162 206 239 281 356
#     4  11  20  37  62  87 115 151 200 250 288 344
#
# _framework density 18.502148999999999
#
# number of rings (size 3 to 8) (size 9 to 14) (size 15 to 20)
#    0.000    0.857    7.857    2.143    1.000    1.143 
#    0.000    0.000    4.714    0.000    1.857    0.000 
#    0.000    0.000    0.000    0.000    0.000    0.000 
#
# Total GULP energy -173497.664636 kJ/mol
# GULP energy per Si atom -12392.690331 kJ/mol
# Density = 1.846004 g / cm^3
# Si number density = 18.502149 Si / 1000 Ang^3
#
#
#
# Elastic Constant Matrix: (Units=GPa)
#
#
# Indices 1 2 3 4 5 6 
#
# 1 86.3132 61.3575 42.6503 -0.0001 -9.1014 0.0001
# 2 61.3575 127.9740 57.9735 0.0000 -10.7246 0.0000
# 3 42.6503 57.9735 165.5851 -0.0002 -9.2858 0.0001
# 4 -0.0001 0.0000 -0.0002 -9.2163 -0.0001 28.5229
# 5 -9.1014 -10.7246 -9.2858 -0.0001 21.6296 0.0001
# 6 0.0001 0.0000 0.0001 28.5229 0.0001 -0.5839
#
#
#
# Elastic Compliance Matrix: (Units=1/GPa)
#
#
# Indices 1 2 3 4 5 6 
#
# 1 0.018275 -0.007664 -0.001850 0.000000 0.003095 0.000000
# 2 -0.007664 0.012735 -0.002368 0.000000 0.002073 0.000000
# 3 -0.001850 -0.002368 0.007414 0.000000 0.001230 0.000000
# 4 0.000000 0.000000 0.000000 0.000722 0.000000 0.035293
# 5 0.003095 0.002073 0.001230 0.000000 0.049091 0.000000
# 6 0.000000 0.000000 0.000000 0.035293 0.000000 0.011404
#
#
# Mechanical properties :
#
#
# Convention : Reuss Voigt Hill
#
# Bulk Modulus (GPa) = 68.22127 78.20391 73.21259
# Shear Modulus (GPa) = 38.97319 16.89195 27.93257
#
# Velocity S-wave (km/s) = 4.59455 3.02482 3.88969
# Velocity P-wave (km/s) = 8.06837 7.38638 7.73490
#
# Compressibility (1/GPa) = 0.01465818
#
# Stress axis : x y z
#
# Youngs Moduli (GPa) = 54.72070 78.52124 134.88106
#
# Poissons Ratio (x) = 0.60181 0.24954
# Poissons Ratio (y) = 0.41940 0.31946
# Poissons Ratio (z) = 0.10124 0.18598
#
# Static dielectric constant tensor:
#      x y z
#    x 5.365270 0.000000 2.919310 
#    y 0.000000 3.181370 0.000000 
#    z 2.919310 0.000000 7.844990 
# 
# 
# High freq. dielectric constant tensor:
#      x y z
#    x 1.699200 0.000000 0.003370 
#    y 0.000000 1.688270 0.000000 
#    z 0.003370 0.000000 1.747980 
# 
# From -- ./inp_files/40692.got.cif
#   From: 2010.03.12/outbox.cif.g09.slc.cpg/sg5_21_cif.got.tgz:40692.got - 2010.03.31 09:47:26.
