data_PCOD8050868
_publ_section_title
;
Structure prediction by ZEFSAII (Michael W. Deem and Ramdas Pophale) SiO2 
 PCOD8050868
Probable space group: C 2
;
_chemical_formula_sum "Si O2"
_cell_formula_units_Z 18
_cell_length_a 12.331610
_cell_length_b 8.285142
_cell_length_c 9.820168
_cell_angle_alpha 90.000000
_cell_angle_beta 57.177725
_cell_angle_gamma 90.000000
_cell_volume 843.144340
_symmetry_space_group_name_H-M "C 2"
_symmetry_group_IT_number 5
_symmetry_cell_setting 'monoclinic'
loop_
_space_group_symop_operation_xyz
x,y,z
-x,y,-z
1/2+x,1/2+y,z
1/2-x,1/2+y,-z
loop_
_atom_site_type_symbol
_atom_site_label
_atom_site_fract_x
_atom_site_fract_y
_atom_site_fract_z
Si Si1 0.168088 0.185400 0.695681
Si Si2 0.636846 0.907765 0.463778
Si Si3 0.500000 0.472705 0.000000
Si Si4 0.852346 0.409189 0.058095
Si Si5 0.741104 0.264577 0.878288
O O1 0.116127 0.299079 0.611006
O O2 0.222554 0.301297 0.778383
O O3 0.280614 0.069097 0.562400
O O4 0.051569 0.082613 0.840836
O O5 0.500000 0.966705 0.500000
O O6 0.708849 0.796615 0.306440
O O7 0.390912 0.361657 0.006931
O O8 0.780236 0.576438 0.090916
O O9 0.846431 0.318691 0.917591
O O10 0.000000 0.435539 0.000000
#
# Coordination Sequence:
#
# PCOD8050868 Si02
#       5
#     4   4   2   4   4
#     4  11  24  46  67  99 139 173 231 272 339 394
#     4  11  25  44  66  97 140 181 215 280 333 407
#     4  10  22  44  72 104 130 178 232 282 324 416
#     4  12  24  43  70 102 134 178 224 288 327 404
#     4  11  24  43  71 102 136 177 231 274 346 390
#
# _framework density 21.348656999999999
#
# number of rings (size 3 to 8) (size 9 to 14) (size 15 to 20)
#    0.000    0.889    2.222    5.333    3.111    0.000 
#    8.000    1.111    0.000    0.000    0.000    0.000 
#    0.000    0.000    0.000    0.000    0.000    0.000 
#
# Total GULP energy -111631.582239 kJ/mol
# GULP energy per Si atom -12403.509138 kJ/mol
# Density = 2.130007 g / cm^3
# Si number density = 21.348657 Si / 1000 Ang^3
#
#
#
# Elastic Constant Matrix: (Units=GPa)
#
#
# Indices 1 2 3 4 5 6 
#
# 1 85.8097 24.2565 27.7922 0.0000 2.1154 0.0000
# 2 24.2565 130.1260 41.3342 0.0000 2.2888 0.0000
# 3 27.7922 41.3342 96.7950 0.0000 9.3438 0.0000
# 4 0.0000 0.0000 0.0000 27.8740 0.0000 12.4600
# 5 2.1154 2.2888 9.3438 0.0000 41.2898 0.0000
# 6 0.0000 0.0000 0.0000 12.4600 0.0000 26.2513
#
#
#
# Elastic Compliance Matrix: (Units=1/GPa)
#
#
# Indices 1 2 3 4 5 6 
#
# 1 0.013078 -0.001439 -0.003153 0.000000 0.000123 0.000000
# 2 -0.001439 0.009055 -0.003488 0.000000 0.000361 0.000000
# 3 -0.003153 -0.003488 0.012975 0.000000 -0.002581 0.000000
# 4 0.000000 0.000000 0.000000 0.045537 0.000000 -0.021614
# 5 0.000123 0.000361 -0.002581 0.000000 0.024777 0.000000
# 6 0.000000 0.000000 0.000000 -0.021614 0.000000 0.048352
#
#
# Mechanical properties :
#
#
# Convention : Reuss Voigt Hill
#
# Bulk Modulus (GPa) = 52.77370 55.49962 54.13666
# Shear Modulus (GPa) = 28.36868 33.70621 31.03744
#
# Velocity S-wave (km/s) = 3.64926 3.97778 3.81706
# Velocity P-wave (km/s) = 6.52148 6.86660 6.69626
#
# Compressibility (1/GPa) = 0.01894883
#
# Stress axis : x y z
#
# Youngs Moduli (GPa) = 76.46173 110.43897 77.07027
#
# Poissons Ratio (x) = 0.15888 0.24298
# Poissons Ratio (y) = 0.11000 0.26886
# Poissons Ratio (z) = 0.24106 0.38526
#
# Static dielectric constant tensor:
#      x y z
#    x 3.849020 0.000000 -0.003110 
#    y 0.000000 4.082700 0.000000 
#    z -0.003110 0.000000 3.895370 
# 
# 
# High freq. dielectric constant tensor:
#      x y z
#    x 1.838640 0.000000 0.005650 
#    y 0.000000 1.854270 0.000000 
#    z 0.005650 0.000000 1.838750 
# 
# From -- ./inp_files/17982.got.cif
#   From: 2010.03.12/outbox.cif.g09.slc.cpg/sg5_9_cif.got.tgz:17982.got - 2010.03.31 09:47:26.
