data_PCOD8050499
_publ_section_title
;
Structure prediction by ZEFSAII (Michael W. Deem and Ramdas Pophale) SiO2 
 PCOD8050499
Probable space group: C 2
;
_chemical_formula_sum "Si O2"
_cell_formula_units_Z 20
_cell_length_a 9.254933
_cell_length_b 21.690332
_cell_length_c 8.483692
_cell_angle_alpha 90.000000
_cell_angle_beta 31.633054
_cell_angle_gamma 90.000000
_cell_volume 893.204638
_symmetry_space_group_name_H-M "C 2"
_symmetry_group_IT_number 5
_symmetry_cell_setting 'monoclinic'
loop_
_space_group_symop_operation_xyz
x,y,z
-x,y,-z
1/2+x,1/2+y,z
1/2-x,1/2+y,-z
loop_
_atom_site_type_symbol
_atom_site_label
_atom_site_fract_x
_atom_site_fract_y
_atom_site_fract_z
Si Si1 0.107100 0.571650 0.724050
Si Si2 0.435653 0.896313 0.876627
Si Si3 0.439636 0.321235 0.373286
Si Si4 0.396474 0.515536 0.919668
Si Si5 0.230916 0.707604 0.658274
O O1 0.345143 0.524004 0.441250
O O2 0.248477 0.638304 0.574808
O O3 0.000000 0.554968 0.000000
O O4 0.826086 0.571480 0.880929
O O5 0.721881 0.875669 0.529457
O O6 0.500000 0.903765 0.000000
O O7 0.225806 0.840779 0.027668
O O8 0.303149 0.958904 0.938430
O O9 0.500000 0.317118 0.500000
O O10 0.330915 0.254615 0.424413
O O11 0.500000 0.508582 0.000000
O O12 0.500000 0.727629 0.500000
O O13 0.000000 0.711477 0.000000
#
# Coordination Sequence:
#
# PCOD8050499 Si02
#       5
#     4   4   4   4   4
#     4  11  24  44  66  92 130 176 217 258 321 398
#     4  10  22  40  62  89 125 169 209 251 316 391
#     4  10  22  40  63  91 123 162 207 256 316 379
#     4  12  25  41  65  98 130 166 217 277 325 369
#     4  11  23  41  65  94 125 165 214 262 315 381
#
# _framework density 22.391286000000001
#
# number of rings (size 3 to 8) (size 9 to 14) (size 15 to 20)
#    0.000    1.200    0.000    6.600    0.000    7.200 
#    0.000    2.000    0.000    0.000    0.000    0.000 
#    0.000    0.000    0.000    0.000    0.000    0.000 
#
# Total GULP energy -123924.596135 kJ/mol
# GULP energy per Si atom -12392.459613 kJ/mol
# Density = 2.234032 g / cm^3
# Si number density = 22.391286 Si / 1000 Ang^3
#
#
#
# Elastic Constant Matrix: (Units=GPa)
#
#
# Indices 1 2 3 4 5 6 
#
# 1 116.9389 59.7364 44.6817 0.0000 -31.4632 0.0000
# 2 59.7364 105.8094 28.3757 0.0000 -3.0169 0.0000
# 3 44.6817 28.3757 73.3004 0.0000 -11.5532 0.0000
# 4 0.0000 0.0000 0.0000 34.1070 0.0000 -13.4748
# 5 -31.4632 -3.0169 -11.5532 0.0000 33.8352 0.0000
# 6 0.0000 0.0000 0.0000 -13.4748 0.0000 42.6119
#
#
#
# Elastic Compliance Matrix: (Units=1/GPa)
#
#
# Indices 1 2 3 4 5 6 
#
# 1 0.019585 -0.009001 -0.006035 0.000000 0.015349 0.000000
# 2 -0.009001 0.014690 -0.001387 0.000000 -0.007534 0.000000
# 3 -0.006035 -0.001387 0.017919 0.000000 0.000383 0.000000
# 4 0.000000 0.000000 0.000000 0.033505 0.000000 0.010595
# 5 0.015349 -0.007534 0.000383 0.000000 0.043287 0.000000
# 6 0.000000 0.000000 0.000000 0.010595 0.000000 0.026818
#
#
# Mechanical properties :
#
#
# Convention : Reuss Voigt Hill
#
# Bulk Modulus (GPa) = 51.68746 62.40403 57.04575
# Shear Modulus (GPa) = 25.62797 32.99449 29.31123
#
# Velocity S-wave (km/s) = 3.38679 3.84284 3.62200
# Velocity P-wave (km/s) = 6.19900 6.90074 6.55926
#
# Compressibility (1/GPa) = 0.01934705
#
# Stress axis : x y z
#
# Youngs Moduli (GPa) = 51.05917 68.07404 55.80801
#
# Poissons Ratio (x) = 0.61274 0.33679
# Poissons Ratio (y) = 0.45959 0.07743
# Poissons Ratio (z) = 0.30814 0.09444
#
# Static dielectric constant tensor:
#      x y z
#    x 4.227770 0.000000 -0.586750 
#    y 0.000000 4.930960 0.000000 
#    z -0.586750 0.000000 4.513170 
# 
# 
# High freq. dielectric constant tensor:
#      x y z
#    x 1.879420 0.000000 -0.032280 
#    y 0.000000 1.881530 0.000000 
#    z -0.032280 0.000000 1.897210 
# 
# From -- ./inp_files/2601.got.cif
#   From: 2010.03.12/outbox.cif.g09.slc.cpg/sg5_2_cif.got.tgz:2601.got - 2010.03.31 09:47:26.
