data_PCOD8050285
_publ_section_title
;
Structure prediction by ZEFSAII (Michael W. Deem and Ramdas Pophale) SiO2 
 PCOD8050285
Probable space group: C 2
;
_chemical_formula_sum "Si O2"
_cell_formula_units_Z 28
_cell_length_a 20.409936
_cell_length_b 6.586495
_cell_length_c 9.240080
_cell_angle_alpha 90.000000
_cell_angle_beta 108.218723
_cell_angle_gamma 90.000000
_cell_volume 1179.874685
_symmetry_space_group_name_H-M "C 2"
_symmetry_group_IT_number 5
_symmetry_cell_setting 'monoclinic'
loop_
_space_group_symop_operation_xyz
x,y,z
-x,y,-z
1/2+x,1/2+y,z
1/2-x,1/2+y,-z
loop_
_atom_site_type_symbol
_atom_site_label
_atom_site_fract_x
_atom_site_fract_y
_atom_site_fract_z
Si Si1 0.103683 0.652100 0.097018
Si Si2 0.453295 0.238080 0.638857
Si Si3 0.358640 0.736182 0.318465
Si Si4 0.000000 0.296088 0.000000
Si Si5 0.266748 0.008318 0.668122
Si Si6 0.320371 0.137912 0.402574
Si Si7 0.563678 0.487825 0.835085
Si Si8 0.000000 0.375816 0.500000
O O1 0.074048 0.762841 0.217299
O O2 0.067305 0.435286 0.058184
O O3 0.184645 0.599885 0.172437
O O4 0.090718 0.804137 0.955124
O O5 0.389845 0.271587 0.481456
O O6 0.516711 0.396785 0.671420
O O7 0.486912 0.016999 0.632230
O O8 0.303033 0.637563 0.386224
O O9 0.367666 0.605020 0.177065
O O10 0.434347 0.731132 0.440224
O O11 0.335640 0.974165 0.285426
O O12 0.986965 0.149982 0.126462
O O13 0.244165 0.776706 0.688097
O O14 0.304259 0.015845 0.539528
#
# Coordination Sequence:
#
# PCOD8050285 Si02
#       8
#     4   4   4   2   4   4   4   2
#     4  11  24  46  69 103 141 192 242 295 359 438
#     4  10  21  43  69 101 147 172 236 306 353 430
#     4  11  26  42  68 107 142 189 238 302 365 430
#     4  12  22  44  70  98 134 196 242 286 354 424
#     4  11  24  45  72  99 148 184 237 302 362 448
#     4  10  23  43  70 107 140 185 237 300 371 424
#     4  12  25  43  72 106 144 190 241 297 361 428
#     4  10  24  42  70 110 142 182 236 314 366 414
#
# _framework density 23.731335000000001
#
# number of rings (size 3 to 8) (size 9 to 14) (size 15 to 20)
#    0.000    1.143    4.286    0.857    6.000    2.286 
#    2.571    0.000    0.000    0.000    0.000    0.000 
#    0.000    0.000    0.000    0.000    0.000    0.000 
#
# Total GULP energy -173477.191453 kJ/mol
# GULP energy per Si atom -12391.227961 kJ/mol
# Density = 2.367732 g / cm^3
# Si number density = 23.731335 Si / 1000 Ang^3
#
#
#
# Elastic Constant Matrix: (Units=GPa)
#
#
# Indices 1 2 3 4 5 6 
#
# 1 138.2209 60.4135 42.0008 0.0000 16.2812 0.0000
# 2 60.4135 133.7245 48.5072 0.0000 14.3933 0.0000
# 3 42.0008 48.5072 54.4664 0.0000 8.2994 0.0000
# 4 0.0000 0.0000 0.0000 32.7151 0.0000 -5.9474
# 5 16.2812 14.3933 8.2994 0.0000 31.6326 0.0000
# 6 0.0000 0.0000 0.0000 -5.9474 0.0000 64.5844
#
#
#
# Elastic Compliance Matrix: (Units=1/GPa)
#
#
# Indices 1 2 3 4 5 6 
#
# 1 0.010227 -0.002384 -0.005339 0.000000 -0.002778 0.000000
# 2 -0.002384 0.011803 -0.008377 0.000000 -0.001946 0.000000
# 3 -0.005339 -0.008377 0.030143 0.000000 -0.001349 0.000000
# 4 0.000000 0.000000 0.000000 0.031087 0.000000 0.002863
# 5 -0.002778 -0.001946 -0.001349 0.000000 0.034282 0.000000
# 6 0.000000 0.000000 0.000000 0.002863 0.000000 0.015747
#
#
# Mechanical properties :
#
#
# Convention : Reuss Voigt Hill
#
# Bulk Modulus (GPa) = 50.06984 69.80608 59.93796
# Shear Modulus (GPa) = 29.04485 37.48577 33.26531
#
# Velocity S-wave (km/s) = 3.50223 3.97872 3.74805
# Velocity P-wave (km/s) = 6.12361 7.11238 6.63643
#
# Compressibility (1/GPa) = 0.01997210
#
# Stress axis : x y z
#
# Youngs Moduli (GPa) = 97.78426 84.72245 33.17516
#
# Poissons Ratio (x) = 0.20201 0.17713
# Poissons Ratio (y) = 0.23315 0.27790
# Poissons Ratio (z) = 0.52210 0.70970
#
# Static dielectric constant tensor:
#      x y z
#    x 4.611900 0.000000 -0.020170 
#    y 0.000000 4.422030 0.000000 
#    z -0.020170 0.000000 3.908740 
# 
# 
# High freq. dielectric constant tensor:
#      x y z
#    x 1.957600 0.000000 -0.004100 
#    y 0.000000 1.954640 0.000000 
#    z -0.004100 0.000000 1.898650 
# 
# From -- ./inp_files/45719.got.cif
#   From: 2010.03.12/outbox.cif.g09.slc.cpg/sg5_23_cif.got.tgz:45719.got - 2010.03.31 09:47:26.
