data_PCOD8050699
_publ_section_title
;
Structure prediction by ZEFSAII (Michael W. Deem and Ramdas Pophale) SiO2 
 PCOD8050699
Probable space group: C 2
;
_chemical_formula_sum "Si O2"
_cell_formula_units_Z 28
_cell_length_a 6.589219
_cell_length_b 13.165568
_cell_length_c 19.593092
_cell_angle_alpha 90.000000
_cell_angle_beta 54.742445
_cell_angle_gamma 90.000000
_cell_volume 1387.929858
_symmetry_space_group_name_H-M "C 2"
_symmetry_group_IT_number 5
_symmetry_cell_setting 'monoclinic'
loop_
_space_group_symop_operation_xyz
x,y,z
-x,y,-z
1/2+x,1/2+y,z
1/2-x,1/2+y,-z
loop_
_atom_site_type_symbol
_atom_site_label
_atom_site_fract_x
_atom_site_fract_y
_atom_site_fract_z
Si Si1 0.544100 0.954420 0.642899
Si Si2 0.619884 0.597993 0.783511
Si Si3 0.500000 0.004780 0.500000
Si Si4 0.913574 0.519889 0.087438
Si Si5 0.627166 0.185886 0.136370
Si Si6 0.500000 0.825328 0.000000
Si Si7 0.891939 0.238995 0.716644
Si Si8 0.485054 0.599486 0.578161
O O1 0.514008 0.939248 0.566879
O O2 0.524376 0.846339 0.682362
O O3 0.340592 0.028257 0.714346
O O4 0.815786 0.998153 0.607940
O O5 0.383550 0.527598 0.846925
O O6 0.694561 0.664890 0.834451
O O7 0.560128 0.676606 0.735719
O O8 0.257987 0.075029 0.553106
O O9 0.049454 0.575075 0.123421
O O10 0.999375 0.400521 0.066951
O O11 0.000000 0.573855 0.000000
O O12 0.387028 0.252237 0.201933
O O13 0.762632 0.251874 0.051600
O O14 0.862234 0.182222 0.650499
O O15 0.500000 0.648199 0.500000
#
# Coordination Sequence:
#
# PCOD8050699 Si02
#       8
#     4   4   2   4   4   2   4   4
#     4  11  23  41  64  95 126 171 214 261 321 375
#     4  11  22  41  64  95 132 165 209 267 314 379
#     4  10  22  44  66  88 136 166 212 276 308 374
#     4   9  22  41  62  92 127 161 212 266 302 379
#     4  11  22  41  68  95 127 171 209 258 327 374
#     4  10  22  42  66  94 124 170 212 258 320 372
#     4  11  24  41  65  96 128 170 214 261 318 383
#     4  10  22  44  63  93 129 166 215 266 316 378
#
# _framework density 20.173929000000001
#
# number of rings (size 3 to 8) (size 9 to 14) (size 15 to 20)
#    0.429    1.143    2.857    1.714    1.000    2.286 
#    3.857    4.286    0.000    0.000    0.000    0.000 
#    0.000    0.000    0.000    0.000    0.000    0.000 
#
# Total GULP energy -173572.010855 kJ/mol
# GULP energy per Si atom -12398.000775 kJ/mol
# Density = 2.012801 g / cm^3
# Si number density = 20.173929 Si / 1000 Ang^3
#
#
#
# Elastic Constant Matrix: (Units=GPa)
#
#
# Indices 1 2 3 4 5 6 
#
# 1 101.2918 40.8034 41.8142 -0.0016 -7.1587 0.0008
# 2 40.8034 93.8899 37.5468 -0.0010 -8.9298 0.0003
# 3 41.8142 37.5468 108.5437 -0.0018 -17.4405 0.0007
# 4 -0.0016 -0.0010 -0.0018 27.8067 0.0011 -0.4544
# 5 -7.1587 -8.9298 -17.4405 0.0011 31.0157 -0.0004
# 6 0.0008 0.0003 0.0007 -0.4544 -0.0004 17.1840
#
#
#
# Elastic Compliance Matrix: (Units=1/GPa)
#
#
# Indices 1 2 3 4 5 6 
#
# 1 0.013055 -0.004259 -0.003594 0.000000 -0.000234 0.000000
# 2 -0.004259 0.013795 -0.002915 0.000000 0.001350 0.000000
# 3 -0.003594 -0.002915 0.012463 0.000000 0.005340 0.000000
# 4 0.000000 0.000000 0.000000 0.035978 -0.000001 0.000951
# 5 -0.000234 0.001350 0.005340 -0.000001 0.035579 0.000001
# 6 0.000000 0.000000 0.000000 0.000951 0.000001 0.058219
#
#
# Mechanical properties :
#
#
# Convention : Reuss Voigt Hill
#
# Bulk Modulus (GPa) = 56.24218 60.45043 58.34631
# Shear Modulus (GPa) = 25.43881 27.43869 26.43875
#
# Velocity S-wave (km/s) = 3.55487 3.69196 3.62407
# Velocity P-wave (km/s) = 6.69243 6.94290 6.81881
#
# Compressibility (1/GPa) = 0.01778025
#
# Stress axis : x y z
#
# Youngs Moduli (GPa) = 76.59947 72.48753 80.23503
#
# Poissons Ratio (x) = 0.30870 0.28833
# Poissons Ratio (y) = 0.32621 0.23385
# Poissons Ratio (z) = 0.27526 0.21127
#
# Static dielectric constant tensor:
#      x y z
#    x 3.552110 0.000000 -0.041600 
#    y 0.000000 3.412420 0.000000 
#    z -0.041600 0.000000 3.968780 
# 
# 
# High freq. dielectric constant tensor:
#      x y z
#    x 1.781800 0.000000 -0.007840 
#    y 0.000000 1.769770 0.000000 
#    z -0.007840 0.000000 1.813810 
# 
# From -- ./inp_files/63995.got.cif
#   From: 2010.03.12/outbox.cif.g09.slc.cpg/sg5_32_cif.got.tgz:63995.got - 2010.03.31 09:47:26.
