data_PCOD8050958
_publ_section_title
;
Structure prediction by ZEFSAII (Michael W. Deem and Ramdas Pophale) SiO2 
 PCOD8050958
Probable space group: C 2
;
_chemical_formula_sum "Si O2"
_cell_formula_units_Z 30
_cell_length_a 8.102314
_cell_length_b 11.349672
_cell_length_c 14.446488
_cell_angle_alpha 90.000000
_cell_angle_beta 74.559736
_cell_angle_gamma 90.000000
_cell_volume 1280.532172
_symmetry_space_group_name_H-M "C 2"
_symmetry_group_IT_number 5
_symmetry_cell_setting 'monoclinic'
loop_
_space_group_symop_operation_xyz
x,y,z
-x,y,-z
1/2+x,1/2+y,z
1/2-x,1/2+y,-z
loop_
_atom_site_type_symbol
_atom_site_label
_atom_site_fract_x
_atom_site_fract_y
_atom_site_fract_z
Si Si1 0.798944 0.696530 0.523719
Si Si2 0.698898 0.903204 0.940222
Si Si3 0.085526 0.356132 0.687469
Si Si4 0.352082 0.689123 0.164714
Si Si5 0.865468 0.035839 0.321489
Si Si6 0.000000 0.015243 0.000000
Si Si7 0.234597 0.789149 0.670780
Si Si8 0.754724 0.564563 0.238489
O O1 0.728982 0.794333 0.604109
O O2 0.723477 0.569979 0.568045
O O3 0.740720 0.719741 0.428274
O O4 0.000000 0.695685 0.500000
O O5 0.757403 0.774988 0.888174
O O6 0.711289 0.011973 0.867241
O O7 0.500000 0.892759 0.000000
O O8 0.831808 0.933986 0.003792
O O9 0.047248 0.286103 0.788934
O O10 0.155889 0.485730 0.696740
O O11 0.907443 0.363907 0.660948
O O12 0.257881 0.599519 0.252103
O O13 0.473998 0.600765 0.090880
O O14 0.055355 0.089067 0.289065
O O15 0.900713 0.895856 0.310187
O O16 0.172313 0.697757 0.759448
#
# Coordination Sequence:
#
# PCOD8050958 Si02
#       8
#     4   4   4   4   4   2   4   4
#     4  11  25  44  69 107 146 193 247 299 356 431
#     4  11  25  49  77 111 150 193 250 310 372 445
#     4  10  23  45  72 100 145 192 232 309 363 427
#     4  10  22  48  72 101 156 180 240 312 364 435
#     4  11  25  48  73  99 151 195 234 301 370 432
#     4  12  22  48  76 110 144 196 242 310 374 440
#     4  12  25  44  74 104 140 191 250 293 363 435
#     4  11  24  49  70 105 148 188 236 305 374 428
#
# _framework density 23.427758999999998
#
# number of rings (size 3 to 8) (size 9 to 14) (size 15 to 20)
#    0.000    1.067    4.667    1.200    3.733    2.133 
#   10.800    0.000    0.000    0.000    0.000    0.000 
#    0.000    0.000    0.000    0.000    0.000    0.000 
#
# Total GULP energy -185829.411377 kJ/mol
# GULP energy per Si atom -12388.627425 kJ/mol
# Density = 2.337444 g / cm^3
# Si number density = 23.427759 Si / 1000 Ang^3
#
#
#
# Elastic Constant Matrix: (Units=GPa)
#
#
# Indices 1 2 3 4 5 6 
#
# 1 84.5484 18.8254 22.3020 0.0000 9.1823 0.0000
# 2 18.8254 153.8575 29.1729 0.0000 15.3380 0.0000
# 3 22.3020 29.1729 86.7152 0.0000 8.7602 0.0000
# 4 0.0000 0.0000 0.0000 27.5127 0.0000 4.6239
# 5 9.1823 15.3380 8.7602 0.0000 22.1496 0.0000
# 6 0.0000 0.0000 0.0000 4.6239 0.0000 21.1596
#
#
#
# Elastic Compliance Matrix: (Units=1/GPa)
#
#
# Indices 1 2 3 4 5 6 
#
# 1 0.013129 -0.000699 -0.002750 0.000000 -0.003871 0.000000
# 2 -0.000699 0.007346 -0.001882 0.000000 -0.004053 0.000000
# 3 -0.002750 -0.001882 0.013151 0.000000 -0.002758 0.000000
# 4 0.000000 0.000000 0.000000 0.037733 0.000000 -0.008246
# 5 -0.003871 -0.004053 -0.002758 0.000000 0.050649 0.000000
# 6 0.000000 0.000000 0.000000 -0.008246 0.000000 0.049062
#
#
# Mechanical properties :
#
#
# Convention : Reuss Voigt Hill
#
# Bulk Modulus (GPa) = 43.54825 51.74685 47.64755
# Shear Modulus (GPa) = 26.40091 31.15243 28.77667
#
# Velocity S-wave (km/s) = 3.36059 3.65049 3.50853
# Velocity P-wave (km/s) = 5.80403 6.31695 6.06591
#
# Compressibility (1/GPa) = 0.02296303
#
# Stress axis : x y z
#
# Youngs Moduli (GPa) = 76.16676 136.12975 76.03893
#
# Poissons Ratio (x) = 0.09516 0.20914
# Poissons Ratio (y) = 0.05324 0.14312
# Poissons Ratio (z) = 0.20949 0.25622
#
# Static dielectric constant tensor:
#      x y z
#    x 3.996420 0.000000 0.279100 
#    y 0.000000 4.475690 0.000000 
#    z 0.279100 0.000000 4.457130 
# 
# 
# High freq. dielectric constant tensor:
#      x y z
#    x 1.906370 0.000000 0.013340 
#    y 0.000000 1.946030 0.000000 
#    z 0.013340 0.000000 1.924890 
# 
# From -- ./inp_files/50464.got.cif
#   From: 2010.03.12/outbox.cif.g09.slc.cpg/sg5_26_cif.got.tgz:50464.got - 2010.03.31 09:47:26.
