data_PCOD8050327
_publ_section_title
;
Structure prediction by ZEFSAII (Michael W. Deem and Ramdas Pophale) SiO2 
 PCOD8050327
Probable space group: C 2
;
_chemical_formula_sum "Si O2"
_cell_formula_units_Z 26
_cell_length_a 5.149875
_cell_length_b 17.122381
_cell_length_c 15.075416
_cell_angle_alpha 90.000000
_cell_angle_beta 115.806791
_cell_angle_gamma 90.000000
_cell_volume 1196.744849
_symmetry_space_group_name_H-M "C 2"
_symmetry_group_IT_number 5
_symmetry_cell_setting 'monoclinic'
loop_
_space_group_symop_operation_xyz
x,y,z
-x,y,-z
1/2+x,1/2+y,z
1/2-x,1/2+y,-z
loop_
_atom_site_type_symbol
_atom_site_label
_atom_site_fract_x
_atom_site_fract_y
_atom_site_fract_z
Si Si1 0.500000 0.847180 0.000000
Si Si2 0.500000 0.983727 0.500000
Si Si3 0.311420 0.661885 0.237312
Si Si4 0.823689 0.547427 0.645566
Si Si5 0.920204 0.031762 0.815084
Si Si6 0.998576 0.914539 0.315688
Si Si7 0.730827 0.261091 0.793558
Si Si8 0.000000 0.954384 0.000000
O O1 0.586052 0.794853 0.097289
O O2 0.760982 0.901451 0.009601
O O3 0.297819 0.927227 0.412407
O O4 0.315900 0.041766 0.537088
O O5 0.379401 0.615326 0.341433
O O6 0.318604 0.593868 0.162287
O O7 0.556691 0.723348 0.247523
O O8 0.000326 0.702696 0.196820
O O9 0.749846 0.460114 0.668137
O O10 0.141590 0.570081 0.727323
O O11 0.990139 0.948822 0.781308
O O12 0.861794 0.013799 0.908635
O O13 0.932092 0.823960 0.292387
#
# Coordination Sequence:
#
# PCOD8050327 Si02
#       8
#     2   2   4   4   4   4   4   2
#     4  12  26  43  66 109 138 192 238 290 342 405
#     4  10  22  40  80 102 136 174 246 290 350 412
#     4  11  25  44  68 100 141 190 221 288 356 414
#     4  10  21  45  70 105 131 184 232 289 350 413
#     4  10  22  43  69  99 135 179 239 282 345 401
#     4  10  22  41  74  99 136 182 232 290 341 416
#     4  12  25  45  70  99 150 187 229 287 352 418
#     4  12  24  41  70 105 130 182 248 292 328 405
#
# _framework density 21.725598999999999
#
# number of rings (size 3 to 8) (size 9 to 14) (size 15 to 20)
#    0.000    1.231    3.077    2.308    6.462    0.615 
#    2.769    0.000   13.538    0.000    0.000    0.000 
#    0.000    0.000    0.000    0.000    0.000    0.000 
#
# Total GULP energy -161098.830117 kJ/mol
# GULP energy per Si atom -12392.217701 kJ/mol
# Density = 2.167615 g / cm^3
# Si number density = 21.725599 Si / 1000 Ang^3
#
#
#
# Elastic Constant Matrix: (Units=GPa)
#
#
# Indices 1 2 3 4 5 6 
#
# 1 121.4725 42.6032 32.5965 0.0000 -16.9193 0.0000
# 2 42.6032 110.8300 48.7926 0.0000 -12.1652 0.0000
# 3 32.5965 48.7926 112.0242 0.0000 -25.1736 0.0000
# 4 0.0000 0.0000 0.0000 18.6661 0.0000 -3.8566
# 5 -16.9193 -12.1652 -25.1736 0.0000 34.7082 0.0000
# 6 0.0000 0.0000 0.0000 -3.8566 0.0000 46.1535
#
#
#
# Elastic Compliance Matrix: (Units=1/GPa)
#
#
# Indices 1 2 3 4 5 6 
#
# 1 0.009994 -0.003127 -0.000834 0.000000 0.003171 0.000000
# 2 -0.003127 0.012148 -0.004500 0.000000 -0.000531 0.000000
# 3 -0.000834 -0.004500 0.012764 0.000000 0.007274 0.000000
# 4 0.000000 0.000000 0.000000 0.054514 0.000000 0.004555
# 5 0.003171 -0.000531 0.007274 0.000000 0.035447 0.000000
# 6 0.000000 0.000000 0.000000 0.004555 0.000000 0.022047
#
#
# Mechanical properties :
#
#
# Convention : Reuss Voigt Hill
#
# Bulk Modulus (GPa) = 55.60327 65.81236 60.70782
# Shear Modulus (GPa) = 29.44095 34.59454 32.01774
#
# Velocity S-wave (km/s) = 3.68520 3.99474 3.84309
# Velocity P-wave (km/s) = 6.61488 7.18579 6.90624
#
# Compressibility (1/GPa) = 0.01798455
#
# Stress axis : x y z
#
# Youngs Moduli (GPa) = 100.05638 82.31924 78.34582
#
# Poissons Ratio (x) = 0.25739 0.06531
# Poissons Ratio (y) = 0.31285 0.35259
# Poissons Ratio (z) = 0.08341 0.37047
#
# Static dielectric constant tensor:
#      x y z
#    x 4.231410 0.000000 -0.241160 
#    y 0.000000 3.925190 0.000000 
#    z -0.241160 0.000000 3.809360 
# 
# 
# High freq. dielectric constant tensor:
#      x y z
#    x 1.877380 0.000000 -0.015260 
#    y 0.000000 1.847380 0.000000 
#    z -0.015260 0.000000 1.836250 
# 
# From -- ./inp_files/48969.got.cif
#   From: 2010.03.12/outbox.cif.g09.slc.cpg/sg5_25_cif.got.tgz:48969.got - 2010.03.31 09:47:26.
