data_PCOD8050775
_publ_section_title
;
Structure prediction by ZEFSAII (Michael W. Deem and Ramdas Pophale) SiO2 
 PCOD8050775
Probable space group: C 2
;
_chemical_formula_sum "Si O2"
_cell_formula_units_Z 26
_cell_length_a 24.027671
_cell_length_b 10.670515
_cell_length_c 12.505941
_cell_angle_alpha 90.000000
_cell_angle_beta 156.556299
_cell_angle_gamma 90.000000
_cell_volume 1275.646558
_symmetry_space_group_name_H-M "C 2"
_symmetry_group_IT_number 5
_symmetry_cell_setting 'monoclinic'
loop_
_space_group_symop_operation_xyz
x,y,z
-x,y,-z
1/2+x,1/2+y,z
1/2-x,1/2+y,-z
loop_
_atom_site_type_symbol
_atom_site_label
_atom_site_fract_x
_atom_site_fract_y
_atom_site_fract_z
Si Si1 0.241826 0.988810 0.652522
Si Si2 0.444053 0.838946 0.286698
Si Si3 0.924259 0.594314 0.155183
Si Si4 0.147304 0.764756 0.776862
Si Si5 0.997283 0.181670 0.815375
Si Si6 0.695662 0.205923 0.634226
Si Si7 0.000000 0.377530 0.000000
O O1 0.194543 0.855426 0.614832
O O2 0.110899 0.065204 0.370067
O O3 0.366334 0.965730 0.787285
O O4 0.302866 0.070329 0.856584
O O5 0.500000 0.798922 0.500000
O O6 0.488231 0.732150 0.280122
O O7 0.493543 0.972245 0.331782
O O8 0.276977 0.858433 0.005971
O O9 0.854151 0.684951 0.117807
O O10 0.060383 0.652421 0.333257
O O11 0.165389 0.673895 0.705757
O O12 0.000000 0.838909 0.500000
O O13 0.154850 0.143361 0.133938
O O14 0.950181 0.292828 0.811630
#
# Coordination Sequence:
#
# PCOD8050775 Si02
#       7
#     4   4   4   4   4   4   2
#     4  11  22  43  67  91 121 168 208 265 316 372
#     4  11  20  38  59  94 129 164 208 254 306 375
#     4  11  20  39  62  88 134 169 202 255 311 368
#     4   9  18  35  53  87 123 167 204 242 299 360
#     4  10  22  43  66  93 122 166 213 258 315 376
#     4   9  20  41  57  90 128 162 206 255 310 363
#     4  10  22  44  64  90 132 156 210 272 322 352
#
# _framework density 20.381820999999999
#
# number of rings (size 3 to 8) (size 9 to 14) (size 15 to 20)
#    0.000    1.846    4.615    2.308    0.000    2.462 
#   19.385    0.000    0.000    0.000    0.000    0.000 
#    0.000    0.000    0.000    0.000    0.000    0.000 
#
# Total GULP energy -161047.889075 kJ/mol
# GULP energy per Si atom -12388.299160 kJ/mol
# Density = 2.033543 g / cm^3
# Si number density = 20.381821 Si / 1000 Ang^3
#
#
#
# Elastic Constant Matrix: (Units=GPa)
#
#
# Indices 1 2 3 4 5 6 
#
# 1 80.4430 26.6179 34.0901 0.0000 13.3884 0.0000
# 2 26.6179 78.5168 67.1777 0.0000 14.2806 0.0000
# 3 34.0901 67.1777 134.3994 0.0000 23.5661 0.0000
# 4 0.0000 0.0000 0.0000 45.6221 0.0000 5.7078
# 5 13.3884 14.2806 23.5661 0.0000 34.2474 0.0000
# 6 0.0000 0.0000 0.0000 5.7078 0.0000 20.3639
#
#
#
# Elastic Compliance Matrix: (Units=1/GPa)
#
#
# Indices 1 2 3 4 5 6 
#
# 1 0.014668 -0.002939 -0.001661 0.000000 -0.003365 0.000000
# 2 -0.002939 0.022945 -0.010516 0.000000 -0.001183 0.000000
# 3 -0.001661 -0.010516 0.013914 0.000000 -0.004540 0.000000
# 4 0.000000 0.000000 0.000000 0.022716 0.000000 -0.006367
# 5 -0.003365 -0.001183 -0.004540 0.000000 0.034132 0.000000
# 6 0.000000 0.000000 0.000000 -0.006367 0.000000 0.050891
#
#
# Mechanical properties :
#
#
# Convention : Reuss Voigt Hill
#
# Bulk Modulus (GPa) = 46.96061 61.01451 53.98756
# Shear Modulus (GPa) = 25.43284 31.07824 28.25554
#
# Velocity S-wave (km/s) = 3.53628 3.90911 3.72736
# Velocity P-wave (km/s) = 6.30588 7.09757 6.71341
#
# Compressibility (1/GPa) = 0.02129444
#
# Stress axis : x y z
#
# Youngs Moduli (GPa) = 68.17646 43.58301 71.86928
#
# Poissons Ratio (x) = 0.12809 0.11940
# Poissons Ratio (y) = 0.20037 0.75576
# Poissons Ratio (z) = 0.11326 0.45831
#
# Static dielectric constant tensor:
#      x y z
#    x 3.796880 0.000000 0.229000 
#    y 0.000000 3.392510 0.000000 
#    z 0.229000 0.000000 4.090090 
# 
# 
# High freq. dielectric constant tensor:
#      x y z
#    x 1.796790 0.000000 0.013910 
#    y 0.000000 1.765710 0.000000 
#    z 0.013910 0.000000 1.806570 
# 
# From -- ./inp_files/58140.got.cif
#   From: 2010.03.12/outbox.cif.g09.slc.cpg/sg5_30_cif.got.tgz:58140.got - 2010.03.31 09:47:26.
