data_PCOD8050328
_publ_section_title
;
Structure prediction by ZEFSAII (Michael W. Deem and Ramdas Pophale) SiO2 
 PCOD8050328
Probable space group: C 2
;
_chemical_formula_sum "Si O2"
_cell_formula_units_Z 24
_cell_length_a 23.773068
_cell_length_b 7.973383
_cell_length_c 11.457026
_cell_angle_alpha 90.000000
_cell_angle_beta 29.918823
_cell_angle_gamma 90.000000
_cell_volume 1083.184072
_symmetry_space_group_name_H-M "C 2"
_symmetry_group_IT_number 5
_symmetry_cell_setting 'monoclinic'
loop_
_space_group_symop_operation_xyz
x,y,z
-x,y,-z
1/2+x,1/2+y,z
1/2-x,1/2+y,-z
loop_
_atom_site_type_symbol
_atom_site_label
_atom_site_fract_x
_atom_site_fract_y
_atom_site_fract_z
Si Si1 0.159675 0.425340 0.683623
Si Si2 0.517653 0.447336 0.663976
Si Si3 0.403986 0.299738 0.254401
Si Si4 0.157344 0.028292 0.197534
Si Si5 0.481067 0.794584 0.850354
Si Si6 0.901694 0.406730 0.755840
O O1 0.294245 0.416893 0.442816
O O2 0.123790 0.618521 0.747587
O O3 0.107966 0.343115 0.659941
O O4 0.108366 0.326075 0.885776
O O5 0.550567 0.295941 0.692825
O O6 0.625940 0.480698 0.386689
O O7 0.409806 0.409089 0.774554
O O8 0.484597 0.602300 0.806211
O O9 0.500000 0.381324 0.000000
O O10 0.118693 0.217051 0.247050
O O11 0.289872 0.015414 0.938548
O O12 0.441862 0.914774 0.816337
O O13 0.000000 0.487820 0.500000
#
# Coordination Sequence:
#
# PCOD8050328 Si02
#       6
#     4   4   4   4   4   4
#     4  11  25  44  66 100 135 174 229 273 331 398
#     4  10  22  44  71  95 137 176 220 274 335 389
#     4  12  26  45  68 101 133 178 226 275 333 396
#     4  10  22  46  67 100 133 173 220 271 328 399
#     4  10  21  45  70  93 137 178 216 278 330 391
#     4  11  22  44  68  97 135 173 217 273 331 387
#
# _framework density 22.1569
#
# number of rings (size 3 to 8) (size 9 to 14) (size 15 to 20)
#    0.000    1.333    5.000    2.000    4.667    2.667 
#   12.000    0.000    0.000    0.000    0.000    0.000 
#    0.000    0.000    0.000    0.000    0.000    0.000 
#
# Total GULP energy -148793.042561 kJ/mol
# GULP energy per Si atom -12399.420213 kJ/mol
# Density = 2.210647 g / cm^3
# Si number density = 22.156900 Si / 1000 Ang^3
#
#
#
# Elastic Constant Matrix: (Units=GPa)
#
#
# Indices 1 2 3 4 5 6 
#
# 1 139.0783 28.6861 76.4037 0.0000 4.4046 0.0000
# 2 28.6861 41.1400 35.2522 0.0000 3.6454 0.0000
# 3 76.4037 35.2522 188.2614 0.0000 -10.8935 0.0000
# 4 0.0000 0.0000 0.0000 23.9211 0.0000 -13.3967
# 5 4.4046 3.6454 -10.8935 0.0000 32.6324 0.0000
# 6 0.0000 0.0000 0.0000 -13.3967 0.0000 13.7014
#
#
#
# Elastic Compliance Matrix: (Units=1/GPa)
#
#
# Indices 1 2 3 4 5 6 
#
# 1 0.009926 -0.003793 -0.003438 0.000000 -0.002064 0.000000
# 2 -0.003793 0.031274 -0.004578 0.000000 -0.004510 0.000000
# 3 -0.003438 -0.004578 0.007771 0.000000 0.003569 0.000000
# 4 0.000000 0.000000 0.000000 0.092402 0.000000 0.090347
# 5 -0.002064 -0.004510 0.003569 0.000000 0.032618 0.000000
# 6 0.000000 0.000000 0.000000 0.090347 0.000000 0.161323
#
#
# Mechanical properties :
#
#
# Convention : Reuss Voigt Hill
#
# Bulk Modulus (GPa) = 39.44080 72.12931 55.78506
# Shear Modulus (GPa) = 13.60980 29.26016 21.43498
#
# Velocity S-wave (km/s) = 2.48109 3.63793 3.11371
# Velocity P-wave (km/s) = 5.10363 7.09018 6.17728
#
# Compressibility (1/GPa) = 0.02535445
#
# Stress axis : x y z
#
# Youngs Moduli (GPa) = 100.74139 31.97526 128.68939
#
# Poissons Ratio (x) = 0.12128 0.44240
# Poissons Ratio (y) = 0.38210 0.58911
# Poissons Ratio (z) = 0.34632 0.14638
#
# Static dielectric constant tensor:
#      x y z
#    x 4.547280 0.000000 -0.376030 
#    y 0.000000 3.622100 0.000000 
#    z -0.376030 0.000000 4.533170 
# 
# 
# High freq. dielectric constant tensor:
#      x y z
#    x 1.890600 0.000000 -0.002180 
#    y 0.000000 1.851130 0.000000 
#    z -0.002180 0.000000 1.876050 
# 
# From -- ./inp_files/47226.got.cif
#   From: 2010.03.12/outbox.cif.g09.slc.cpg/sg5_24_cif.got.tgz:47226.got - 2010.03.31 09:47:26.
