data_PCOD8050975
_publ_section_title
;
Structure prediction by ZEFSAII (Michael W. Deem and Ramdas Pophale) SiO2 
 PCOD8050975
Probable space group: C 2
;
_chemical_formula_sum "Si O2"
_cell_formula_units_Z 32
_cell_length_a 23.699981
_cell_length_b 14.975764
_cell_length_c 8.860701
_cell_angle_alpha 90.000000
_cell_angle_beta 28.637542
_cell_angle_gamma 90.000000
_cell_volume 1507.240751
_symmetry_space_group_name_H-M "C 2"
_symmetry_group_IT_number 5
_symmetry_cell_setting 'monoclinic'
loop_
_space_group_symop_operation_xyz
x,y,z
-x,y,-z
1/2+x,1/2+y,z
1/2-x,1/2+y,-z
loop_
_atom_site_type_symbol
_atom_site_label
_atom_site_fract_x
_atom_site_fract_y
_atom_site_fract_z
Si Si1 0.959551 0.971620 0.764297
Si Si2 0.745280 0.388290 0.882983
Si Si3 0.987359 0.154666 0.206448
Si Si4 0.164152 0.309858 0.810374
Si Si5 0.510553 0.956660 0.796286
Si Si6 0.247932 0.229334 0.313486
Si Si7 0.985996 0.659737 0.855368
Si Si8 0.873050 0.828019 0.541772
O O1 0.000000 0.950929 0.500000
O O2 0.020446 0.899228 0.734863
O O3 0.818754 0.961919 0.073767
O O4 0.984655 0.069568 0.760142
O O5 0.694456 0.294507 0.942334
O O6 0.883136 0.403825 0.533670
O O7 0.710667 0.377244 0.139133
O O8 0.850089 0.175399 0.550882
O O9 0.000000 0.133996 0.000000
O O10 0.073198 0.231239 0.071470
O O11 0.184806 0.292847 0.585026
O O12 0.290938 0.308441 0.591364
O O13 0.106915 0.405947 0.983722
O O14 0.520980 0.059827 0.722233
O O15 0.500000 0.948326 0.000000
O O16 0.346604 0.165294 0.149980
O O17 0.063660 0.731513 0.577517
O O18 0.000000 0.676538 0.000000
#
# Coordination Sequence:
#
# PCOD8050975 Si02
#       8
#     4   4   4   4   4   4   4   4
#     4  10  24  43  64  92 129 172 219 266 332 396
#     4  11  23  44  66  88 134 176 210 273 335 387
#     4  10  23  39  65  98 127 168 221 270 327 390
#     4  11  22  42  65  96 134 169 219 270 328 400
#     4  11  23  42  68  99 132 174 222 272 333 393
#     4  11  21  42  66  92 132 172 215 270 329 387
#     4  11  24  41  68 103 131 174 224 275 334 392
#     4  11  25  42  62  98 133 172 220 266 335 398
#
# _framework density 21.230848000000002
#
# number of rings (size 3 to 8) (size 9 to 14) (size 15 to 20)
#    0.000    1.250    5.000    0.375    3.500    4.000 
#    2.250    1.250    0.000    0.000    0.000    0.000 
#    0.000    0.000    0.000    0.000    0.000    0.000 
#
# Total GULP energy -198211.876923 kJ/mol
# GULP energy per Si atom -12388.242308 kJ/mol
# Density = 2.118253 g / cm^3
# Si number density = 21.230848 Si / 1000 Ang^3
#
#
#
# Elastic Constant Matrix: (Units=GPa)
#
#
# Indices 1 2 3 4 5 6 
#
# 1 69.0594 32.7072 7.7970 0.0000 -22.2944 0.0000
# 2 32.7072 125.0940 20.4257 0.0000 -6.0797 0.0000
# 3 7.7970 20.4257 63.4913 0.0000 -10.4844 0.0000
# 4 0.0000 0.0000 0.0000 32.4457 0.0000 -2.0035
# 5 -22.2944 -6.0797 -10.4844 0.0000 27.1972 0.0000
# 6 0.0000 0.0000 0.0000 -2.0035 0.0000 49.9877
#
#
#
# Elastic Compliance Matrix: (Units=1/GPa)
#
#
# Indices 1 2 3 4 5 6 
#
# 1 0.022646 -0.005356 0.001933 0.000000 0.018111 0.000000
# 2 -0.005356 0.009725 -0.003030 0.000000 -0.003385 0.000000
# 3 0.001933 -0.003030 0.017768 0.000000 0.007757 0.000000
# 4 0.000000 0.000000 0.000000 0.030897 0.000000 0.001238
# 5 0.018111 -0.003385 0.007757 0.000000 0.053848 0.000000
# 6 0.000000 0.000000 0.000000 0.001238 0.000000 0.020055
#
#
# Mechanical properties :
#
#
# Convention : Reuss Voigt Hill
#
# Bulk Modulus (GPa) = 26.85825 42.16717 34.51271
# Shear Modulus (GPa) = 27.73834 35.04045 31.38940
#
# Velocity S-wave (km/s) = 3.61849 4.06698 3.84927
# Velocity P-wave (km/s) = 5.48963 6.47751 6.00392
#
# Compressibility (1/GPa) = 0.03723250
#
# Stress axis : x y z
#
# Youngs Moduli (GPa) = 44.15851 102.83143 56.27974
#
# Poissons Ratio (x) = 0.55080 -0.10878
# Poissons Ratio (y) = 0.23653 0.17051
# Poissons Ratio (z) = -0.08535 0.31155
#
# Static dielectric constant tensor:
#      x y z
#    x 3.718780 0.000000 -0.122410 
#    y 0.000000 3.821610 0.000000 
#    z -0.122410 0.000000 3.246020 
# 
# 
# High freq. dielectric constant tensor:
#      x y z
#    x 1.824880 0.000000 -0.023160 
#    y 0.000000 1.834350 0.000000 
#    z -0.023160 0.000000 1.831000 
# 
# From -- ./inp_files/31070.got.cif
#   From: 2010.03.12/outbox.cif.g09.slc.cpg/sg5_16_cif.got.tgz:31070.got - 2010.03.31 09:47:26.
