data_PCOD8050481
_publ_section_title
;
Structure prediction by ZEFSAII (Michael W. Deem and Ramdas Pophale) SiO2 
 PCOD8050481
Probable space group: C 2
;
_chemical_formula_sum "Si O2"
_cell_formula_units_Z 32
_cell_length_a 9.075253
_cell_length_b 15.362507
_cell_length_c 11.368324
_cell_angle_alpha 90.000000
_cell_angle_beta 88.483233
_cell_angle_gamma 90.000000
_cell_volume 1584.400911
_symmetry_space_group_name_H-M "C 2"
_symmetry_group_IT_number 5
_symmetry_cell_setting 'monoclinic'
loop_
_space_group_symop_operation_xyz
x,y,z
-x,y,-z
1/2+x,1/2+y,z
1/2-x,1/2+y,-z
loop_
_atom_site_type_symbol
_atom_site_label
_atom_site_fract_x
_atom_site_fract_y
_atom_site_fract_z
Si Si1 0.341801 0.281990 0.949446
Si Si2 0.175576 0.450103 0.979272
Si Si3 0.309306 0.919152 0.764034
Si Si4 0.016760 0.546792 0.631365
Si Si5 0.969652 0.729432 0.714954
Si Si6 0.512274 0.415121 0.633689
Si Si7 0.212158 0.229801 0.182779
Si Si8 0.694964 0.545998 0.235259
O O1 0.364535 0.226086 0.831224
O O2 0.500000 0.312023 0.000000
O O3 0.242367 0.364469 0.916630
O O4 0.250466 0.224201 0.043626
O O5 0.247110 0.456936 0.108859
O O6 0.224250 0.527570 0.891540
O O7 0.000000 0.446420 0.000000
O O8 0.370616 0.820232 0.784235
O O9 0.181160 0.918501 0.670248
O O10 0.443841 0.976875 0.718596
O O11 0.937856 0.641794 0.641749
O O12 0.000000 0.512498 0.500000
O O13 0.187262 0.549643 0.662035
O O14 0.942172 0.818020 0.641605
O O15 0.137647 0.729378 0.748532
O O16 0.500000 0.448603 0.500000
O O17 0.428951 0.477853 0.726436
O O18 0.122408 0.142796 0.221398
#
# Coordination Sequence:
#
# PCOD8050481 Si02
#       8
#     4   4   4   4   4   4   4   4
#     4   9  17  34  59  85 116 153 190 239 293 354
#     4  11  21  35  59  89 120 150 187 248 298 351
#     4  10  22  40  59  85 119 154 192 246 295 343
#     4  11  22  38  58  86 119 155 202 245 286 345
#     4   9  18  34  59  87 110 150 201 239 285 343
#     4  11  22  40  61  86 119 157 199 241 286 347
#     4   8  19  34  57  82 119 150 188 239 297 349
#     4  11  22  37  61  88 114 159 197 239 299 347
#
# _framework density 20.196906999999999
#
# number of rings (size 3 to 8) (size 9 to 14) (size 15 to 20)
#    0.000    2.000    2.500    1.875    1.750    0.500 
#    0.000    4.375    0.000    0.000    0.000    0.000 
#    0.000    0.000    0.000    0.000    0.000    0.000 
#
# Total GULP energy -198315.805019 kJ/mol
# GULP energy per Si atom -12394.737814 kJ/mol
# Density = 2.015094 g / cm^3
# Si number density = 20.196907 Si / 1000 Ang^3
#
#
#
# Elastic Constant Matrix: (Units=GPa)
#
#
# Indices 1 2 3 4 5 6 
#
# 1 31.0384 16.3384 -2.1550 0.0000 -5.4480 0.0000
# 2 16.3384 113.7063 14.3204 0.0000 -16.8015 0.0000
# 3 -2.1550 14.3204 83.9493 0.0000 0.7426 0.0000
# 4 0.0000 0.0000 0.0000 24.6134 0.0000 -3.1189
# 5 -5.4480 -16.8015 0.7426 0.0000 28.3049 0.0000
# 6 0.0000 0.0000 0.0000 -3.1189 0.0000 24.6543
#
#
#
# Elastic Compliance Matrix: (Units=1/GPa)
#
#
# Indices 1 2 3 4 5 6 
#
# 1 0.035523 -0.004727 0.001683 0.000000 0.003987 0.000000
# 2 -0.004727 0.010517 -0.001963 0.000000 0.005384 0.000000
# 3 0.001683 -0.001963 0.012300 0.000000 -0.001164 0.000000
# 4 0.000000 0.000000 0.000000 0.041290 0.000000 0.005223
# 5 0.003987 0.005384 -0.001164 0.000000 0.039324 0.000000
# 6 0.000000 0.000000 0.000000 0.005223 0.000000 0.041222
#
#
# Mechanical properties :
#
#
# Convention : Reuss Voigt Hill
#
# Bulk Modulus (GPa) = 20.69281 31.74464 26.21872
# Shear Modulus (GPa) = 24.23674 28.86053 26.54863
#
# Velocity S-wave (km/s) = 3.46789 3.78426 3.62952
# Velocity P-wave (km/s) = 5.12863 5.90304 5.52940
#
# Compressibility (1/GPa) = 0.04832596
#
# Stress axis : x y z
#
# Youngs Moduli (GPa) = 28.15062 95.08758 81.29888
#
# Poissons Ratio (x) = 0.44949 -0.13682
# Poissons Ratio (y) = 0.13307 0.15958
# Poissons Ratio (z) = -0.04738 0.18665
#
# Static dielectric constant tensor:
#      x y z
#    x 3.287410 0.000000 -0.013810 
#    y 0.000000 4.029190 0.000000 
#    z -0.013810 0.000000 3.651500 
# 
# 
# High freq. dielectric constant tensor:
#      x y z
#    x 1.751720 0.000000 -0.000430 
#    y 0.000000 1.792550 0.000000 
#    z -0.000430 0.000000 1.792090 
# 
# From -- ./inp_files/36403.got.cif
#   From: 2010.03.12/outbox.cif.g09.slc.cpg/sg5_19_cif.got.tgz:36403.got - 2010.03.31 09:47:26.
