data_PCOD8050672
_publ_section_title
;
Structure prediction by ZEFSAII (Michael W. Deem and Ramdas Pophale) SiO2 
 PCOD8050672
Probable space group: C 2
;
_chemical_formula_sum "Si O2"
_cell_formula_units_Z 24
_cell_length_a 7.485620
_cell_length_b 12.334769
_cell_length_c 12.488697
_cell_angle_alpha 90.000000
_cell_angle_beta 88.612305
_cell_angle_gamma 90.000000
_cell_volume 1152.785579
_symmetry_space_group_name_H-M "C 2"
_symmetry_group_IT_number 5
_symmetry_cell_setting 'monoclinic'
loop_
_space_group_symop_operation_xyz
x,y,z
-x,y,-z
1/2+x,1/2+y,z
1/2-x,1/2+y,-z
loop_
_atom_site_type_symbol
_atom_site_label
_atom_site_fract_x
_atom_site_fract_y
_atom_site_fract_z
Si Si1 0.000000 0.181610 0.000000
Si Si2 0.190866 0.686415 0.505941
Si Si3 0.696397 0.268840 0.739313
Si Si4 0.453057 0.862957 0.169338
Si Si5 0.000000 0.042364 0.500000
Si Si6 0.858622 0.871916 0.659572
Si Si7 0.856048 0.595145 0.083089
O O1 0.082667 0.259024 0.905999
O O2 0.843189 0.101096 0.963651
O O3 0.252784 0.722866 0.623068
O O4 0.343059 0.613893 0.450049
O O5 0.164252 0.793329 0.438717
O O6 0.000000 0.623203 0.500000
O O7 0.518984 0.340957 0.736140
O O8 0.648080 0.163972 0.809158
O O9 0.846867 0.347166 0.787599
O O10 0.322070 0.872814 0.271503
O O11 0.424435 0.972922 0.103172
O O12 0.091360 0.984161 0.397890
O O13 0.000000 0.647775 0.000000
#
# Coordination Sequence:
#
# PCOD8050672 Si02
#       7
#     2   4   4   4   2   4   4
#     4  10  24  46  64  96 132 160 216 274 318 386
#     4  10  22  43  62  94 136 171 214 265 311 381
#     4  10  22  42  63  95 134 165 214 269 313 381
#     4  11  23  41  68  95 127 171 213 264 328 379
#     4  12  22  38  64  90 128 178 212 254 318 372
#     4  11  23  41  62  98 133 169 217 262 314 381
#     4  11  23  42  67  96 128 168 216 267 327 381
#
# _framework density 20.819137000000001
#
# number of rings (size 3 to 8) (size 9 to 14) (size 15 to 20)
#    0.000    1.333    3.333    3.000    0.000    6.667 
#    3.000    0.000    0.000    0.000    0.000    0.000 
#    0.000    0.000    0.000    0.000    0.000    0.000 
#
# Total GULP energy -148752.331277 kJ/mol
# GULP energy per Si atom -12396.027606 kJ/mol
# Density = 2.077175 g / cm^3
# Si number density = 20.819137 Si / 1000 Ang^3
#
#
#
# Elastic Constant Matrix: (Units=GPa)
#
#
# Indices 1 2 3 4 5 6 
#
# 1 134.7988 70.4900 54.0974 0.0000 4.9547 0.0000
# 2 70.4900 97.1120 31.6592 0.0000 14.2760 0.0000
# 3 54.0974 31.6592 108.2229 0.0000 3.2698 0.0000
# 4 0.0000 0.0000 0.0000 16.5789 0.0000 4.0006
# 5 4.9547 14.2760 3.2698 0.0000 45.5551 0.0000
# 6 0.0000 0.0000 0.0000 4.0006 0.0000 41.5895
#
#
#
# Elastic Compliance Matrix: (Units=1/GPa)
#
#
# Indices 1 2 3 4 5 6 
#
# 1 0.013666 -0.008741 -0.004322 0.000000 0.001563 0.000000
# 2 -0.008741 0.017503 -0.000615 0.000000 -0.004490 0.000000
# 3 -0.004322 -0.000615 0.011585 0.000000 -0.000169 0.000000
# 4 0.000000 0.000000 0.000000 0.061751 0.000000 -0.005940
# 5 0.001563 -0.004490 -0.000169 0.000000 0.023201 0.000000
# 6 0.000000 0.000000 0.000000 -0.005940 0.000000 0.024616
#
#
# Mechanical properties :
#
#
# Convention : Reuss Voigt Hill
#
# Bulk Modulus (GPa) = 64.93844 72.51411 68.72627
# Shear Modulus (GPa) = 27.05488 33.00384 30.02936
#
# Velocity S-wave (km/s) = 3.60880 3.98586 3.80200
# Velocity P-wave (km/s) = 6.97309 7.48925 7.23577
#
# Compressibility (1/GPa) = 0.01539920
#
# Stress axis : x y z
#
# Youngs Moduli (GPa) = 73.17420 57.13462 86.31494
#
# Poissons Ratio (x) = 0.49939 0.37301
# Poissons Ratio (y) = 0.63958 0.05311
# Poissons Ratio (z) = 0.31622 0.03516
#
# Static dielectric constant tensor:
#      x y z
#    x 4.194180 0.000000 -0.119460 
#    y 0.000000 3.643420 0.000000 
#    z -0.119460 0.000000 3.920550 
# 
# 
# High freq. dielectric constant tensor:
#      x y z
#    x 1.829730 0.000000 -0.002880 
#    y 0.000000 1.806210 0.000000 
#    z -0.002880 0.000000 1.826330 
# 
# From -- ./inp_files/35433.got.cif
#   From: 2010.03.12/outbox.cif.g09.slc.cpg/sg5_18_cif.got.tgz:35433.got - 2010.03.31 09:47:26.
