data_PCOD8050101
_publ_section_title
;
Structure prediction by ZEFSAII (Michael W. Deem and Ramdas Pophale) SiO2 
 PCOD8050101
Probable space group: C 2
;
_chemical_formula_sum "Si O2"
_cell_formula_units_Z 24
_cell_length_a 18.912608
_cell_length_b 5.145605
_cell_length_c 15.563389
_cell_angle_alpha 90.000000
_cell_angle_beta 52.017154
_cell_angle_gamma 90.000000
_cell_volume 1193.783956
_symmetry_space_group_name_H-M "C 2"
_symmetry_group_IT_number 5
_symmetry_cell_setting 'monoclinic'
loop_
_space_group_symop_operation_xyz
x,y,z
-x,y,-z
1/2+x,1/2+y,z
1/2-x,1/2+y,-z
loop_
_atom_site_type_symbol
_atom_site_label
_atom_site_fract_x
_atom_site_fract_y
_atom_site_fract_z
Si Si1 0.186898 0.363370 0.237153
Si Si2 0.294482 0.259663 0.003431
Si Si3 0.390539 0.332022 0.412190
Si Si4 0.545272 0.071411 0.215221
Si Si5 0.636286 0.849788 0.666019
Si Si6 0.803242 0.867480 0.655567
O O1 0.280641 0.335784 0.113993
O O2 0.107963 0.385095 0.225561
O O3 0.186187 0.618002 0.294117
O O4 0.171688 0.117916 0.308300
O O5 0.259888 0.492357 0.969412
O O6 0.398614 0.213380 0.901895
O O7 0.496582 0.285916 0.313255
O O8 0.352502 0.575641 0.388602
O O9 0.374917 0.364166 0.524855
O O10 0.334861 0.078038 0.422249
O O11 0.467603 0.896683 0.227987
O O12 0.700770 0.870860 0.699662
#
# Coordination Sequence:
#
# PCOD8050101 Si02
#       6
#     4   4   4   4   4   4
#     4  11  24  39  63  94 125 158 207 260 323 351
#     4  10  21  40  66  86 121 164 210 252 304 374
#     4  10  22  39  66  88 123 167 211 244 300 386
#     4   9  24  41  66  88 117 166 217 248 294 378
#     4  10  22  40  65  88 122 168 214 238 307 380
#     4  12  23  41  62  94 130 160 198 262 322 367
#
# _framework density 20.104142
#
# number of rings (size 3 to 8) (size 9 to 14) (size 15 to 20)
#    1.000    0.667    0.000    5.000    7.000    0.667 
#    0.000    0.833    0.000    0.000    0.000    0.000 
#    0.000    0.000    0.000    0.000    0.000    0.000 
#
# Total GULP energy -148722.132525 kJ/mol
# GULP energy per Si atom -12393.511044 kJ/mol
# Density = 2.005838 g / cm^3
# Si number density = 20.104142 Si / 1000 Ang^3
#
#
#
# Elastic Constant Matrix: (Units=GPa)
#
#
# Indices 1 2 3 4 5 6 
#
# 1 57.4484 17.0989 18.1464 -0.0618 -19.2011 0.0814
# 2 17.0989 131.5656 15.2383 0.2492 -4.7789 -0.1017
# 3 18.1464 15.2383 83.7848 0.0302 -27.7800 -0.0305
# 4 -0.0618 0.2492 0.0302 27.3906 -0.0081 12.3999
# 5 -19.2011 -4.7789 -27.7800 -0.0081 26.9015 0.0242
# 6 0.0814 -0.1017 -0.0305 12.3999 0.0242 -0.6535
#
#
#
# Elastic Compliance Matrix: (Units=1/GPa)
#
#
# Indices 1 2 3 4 5 6 
#
# 1 0.023712 -0.002577 0.001206 -0.000178 0.017711 0.000573
# 2 -0.002577 0.008044 -0.001583 0.000066 -0.002045 -0.000318
# 3 0.001206 -0.001583 0.018482 -0.000012 0.019665 0.000032
# 4 -0.000178 0.000066 -0.000012 0.003809 -0.000192 0.072231
# 5 0.017711 -0.002045 0.019665 -0.000192 0.069758 0.000551
# 6 0.000573 -0.000318 0.000032 0.072231 0.000551 -0.159544
#
#
# Mechanical properties :
#
#
# Convention : Reuss Voigt Hill
#
# Bulk Modulus (GPa) = 22.55824 41.52954 32.04389
# Shear Modulus (GPa) = -332.14951 25.54872 -153.30039
#
# Velocity S-wave (km/s) = -12.86752 3.56872 -8.74178
# Velocity P-wave (km/s) = 14.47478 6.13866 9.26920
#
# Compressibility (1/GPa) = 0.04432970
#
# Stress axis : x y z
#
# Youngs Moduli (GPa) = 42.17316 124.30967 54.10535
#
# Poissons Ratio (x) = 0.32038 -0.06524
# Poissons Ratio (y) = 0.10869 0.08565
# Poissons Ratio (z) = -0.05085 0.19679
#
# Static dielectric constant tensor:
#      x y z
#    x 3.434640 -0.000050 -0.125780 
#    y -0.000050 3.728040 -0.000480 
#    z -0.125780 -0.000480 3.831950 
# 
# 
# High freq. dielectric constant tensor:
#      x y z
#    x 1.760180 0.000000 -0.012390 
#    y 0.000000 1.805050 0.000000 
#    z -0.012390 0.000000 1.786650 
# 
# From -- ./inp_files/56365.got.cif
#   From: 2010.03.12/outbox.cif.g09.slc.cpg/sg5_29_cif.got.tgz:56365.got - 2010.03.31 09:47:26.
