data_PCOD8050584
_publ_section_title
;
Structure prediction by ZEFSAII (Michael W. Deem and Ramdas Pophale) SiO2 
 PCOD8050584
Probable space group: C 2
;
_chemical_formula_sum "Si O2"
_cell_formula_units_Z 26
_cell_length_a 22.479832
_cell_length_b 8.067530
_cell_length_c 11.421284
_cell_angle_alpha 90.000000
_cell_angle_beta 145.117217
_cell_angle_gamma 90.000000
_cell_volume 1184.590431
_symmetry_space_group_name_H-M "C 2"
_symmetry_group_IT_number 5
_symmetry_cell_setting 'monoclinic'
loop_
_space_group_symop_operation_xyz
x,y,z
-x,y,-z
1/2+x,1/2+y,z
1/2-x,1/2+y,-z
loop_
_atom_site_type_symbol
_atom_site_label
_atom_site_fract_x
_atom_site_fract_y
_atom_site_fract_z
Si Si1 0.548325 0.590390 0.397003
Si Si2 0.774049 0.684959 0.761498
Si Si3 0.414352 0.503554 0.953565
Si Si4 0.599484 0.874733 0.081467
Si Si5 0.378973 0.814047 0.143837
Si Si6 0.183830 0.648185 0.898096
Si Si7 0.500000 0.344428 0.500000
O O1 0.653190 0.683756 0.526089
O O2 0.476845 0.524902 0.175418
O O3 0.474252 0.713232 0.352854
O O4 0.574211 0.444073 0.529728
O O5 0.820018 0.525062 0.765104
O O6 0.826926 0.859961 0.813237
O O7 0.778802 0.663974 0.908278
O O8 0.500000 0.444417 0.000000
O O9 0.363225 0.683153 0.834048
O O10 0.500000 0.913516 0.000000
O O11 0.575827 0.887079 0.904927
O O12 0.342467 0.957467 0.173119
O O13 0.276978 0.697621 0.960792
O O14 0.077688 0.744347 0.706837
#
# Coordination Sequence:
#
# PCOD8050584 Si02
#       7
#     4   4   4   4   4   4   2
#     4  11  23  43  65  99 137 178 227 280 351 416
#     4  11  22  42  68  98 134 183 226 283 346 407
#     4  10  22  45  68  96 139 180 229 288 338 409
#     4   9  20  41  67  92 132 174 224 281 331 401
#     4  10  22  41  62  93 130 175 218 282 343 405
#     4  11  23  39  66  94 133 176 226 284 344 412
#     4  12  22  40  62  98 138 174 230 278 344 426
#
# _framework density 21.948513999999999
#
# number of rings (size 3 to 8) (size 9 to 14) (size 15 to 20)
#    0.000    1.538    1.538    4.154    2.154    1.846 
#   11.077    0.000    0.000    0.000    0.000    0.000 
#    0.000    0.000    0.000    0.000    0.000    0.000 
#
# Total GULP energy -161056.833153 kJ/mol
# GULP energy per Si atom -12388.987166 kJ/mol
# Density = 2.189856 g / cm^3
# Si number density = 21.948514 Si / 1000 Ang^3
#
#
#
# Elastic Constant Matrix: (Units=GPa)
#
#
# Indices 1 2 3 4 5 6 
#
# 1 105.2618 49.4605 44.1186 0.0000 25.8337 0.0000
# 2 49.4605 159.7224 65.9883 0.0000 34.0668 0.0000
# 3 44.1186 65.9883 89.7943 0.0000 39.5081 0.0000
# 4 0.0000 0.0000 0.0000 17.8866 0.0000 13.1198
# 5 25.8337 34.0668 39.5081 0.0000 36.8020 0.0000
# 6 0.0000 0.0000 0.0000 13.1198 0.0000 26.9155
#
#
#
# Elastic Compliance Matrix: (Units=1/GPa)
#
#
# Indices 1 2 3 4 5 6 
#
# 1 0.012609 -0.001763 -0.003265 0.000000 -0.003713 0.000000
# 2 -0.001763 0.009344 -0.005191 0.000000 -0.001838 0.000000
# 3 -0.003265 -0.005191 0.025458 0.000000 -0.020232 0.000000
# 4 0.000000 0.000000 0.000000 0.087022 0.000000 -0.042418
# 5 -0.003713 -0.001838 -0.020232 0.000000 0.053200 0.000000
# 6 0.000000 0.000000 0.000000 -0.042418 0.000000 0.057830
#
#
# Mechanical properties :
#
#
# Convention : Reuss Voigt Hill
#
# Bulk Modulus (GPa) = 37.07858 74.87925 55.97892
# Shear Modulus (GPa) = 18.18894 29.33489 23.76192
#
# Velocity S-wave (km/s) = 2.88185 3.65983 3.29389
# Velocity P-wave (km/s) = 5.29184 7.21450 6.32663
#
# Compressibility (1/GPa) = 0.02696975
#
# Stress axis : x y z
#
# Youngs Moduli (GPa) = 79.31093 107.02285 39.28084
#
# Poissons Ratio (x) = 0.18873 0.12827
# Poissons Ratio (y) = 0.13986 0.20392
# Poissons Ratio (z) = 0.25899 0.55558
#
# Static dielectric constant tensor:
#      x y z
#    x 4.011640 0.000000 0.165090 
#    y 0.000000 4.458890 0.000000 
#    z 0.165090 0.000000 3.597980 
# 
# 
# High freq. dielectric constant tensor:
#      x y z
#    x 1.870620 0.000000 0.013520 
#    y 0.000000 1.877950 0.000000 
#    z 0.013520 0.000000 1.833400 
# 
# From -- ./inp_files/47380.got.cif
#   From: 2010.03.12/outbox.cif.g09.slc.cpg/sg5_24_cif.got.tgz:47380.got - 2010.03.31 09:47:26.
