data_PCOD8050211
_publ_section_title
;
Structure prediction by ZEFSAII (Michael W. Deem and Ramdas Pophale) SiO2 
 PCOD8050211
Probable space group: C 2
;
_chemical_formula_sum "Si O2"
_cell_formula_units_Z 24
_cell_length_a 28.395774
_cell_length_b 8.334943
_cell_length_c 9.817571
_cell_angle_alpha 90.000000
_cell_angle_beta 31.311195
_cell_angle_gamma 90.000000
_cell_volume 1207.539814
_symmetry_space_group_name_H-M "C 2"
_symmetry_group_IT_number 5
_symmetry_cell_setting 'monoclinic'
loop_
_space_group_symop_operation_xyz
x,y,z
-x,y,-z
1/2+x,1/2+y,z
1/2-x,1/2+y,-z
loop_
_atom_site_type_symbol
_atom_site_label
_atom_site_fract_x
_atom_site_fract_y
_atom_site_fract_z
Si Si1 0.695672 0.687990 0.778380
Si Si2 0.991098 0.712171 0.862653
Si Si3 0.172422 0.569610 0.321884
Si Si4 0.279285 0.254127 0.070404
Si Si5 0.201828 0.558840 0.721512
Si Si6 0.943778 0.962222 0.769510
O O1 0.770934 0.664405 0.706465
O O2 0.723942 0.586726 0.577190
O O3 0.683892 0.872050 0.774655
O O4 0.597960 0.623786 0.065689
O O5 0.002133 0.872235 0.742401
O O6 0.066884 0.585655 0.623874
O O7 0.892392 0.640382 0.084040
O O8 0.000000 0.756175 0.000000
O O9 0.197155 0.380355 0.251151
O O10 0.196301 0.653341 0.121856
O O11 0.253581 0.126619 0.250545
O O12 0.366775 0.346445 0.904533
O O13 0.000000 0.017057 0.500000
#
# Coordination Sequence:
#
# PCOD8050211 Si02
#       6
#     4   4   4   4   4   4
#     4  11  23  41  64  88 125 165 211 256 309 375
#     4  11  22  39  66  89 125 160 206 259 315 363
#     4  11  21  40  63  92 121 165 210 255 306 368
#     4  10  22  39  65  89 125 163 206 253 311 372
#     4  11  23  42  62  91 123 166 209 256 315 369
#     4  10  21  42  62  90 125 166 203 249 317 373
#
# _framework density 19.875121
#
# number of rings (size 3 to 8) (size 9 to 14) (size 15 to 20)
#    0.000    1.333    3.333    4.000    0.000    0.000 
#    9.000    0.833    0.000    0.000    0.000    0.000 
#    0.000    0.000    0.000    0.000    0.000    0.000 
#
# Total GULP energy -148811.183714 kJ/mol
# GULP energy per Si atom -12400.931976 kJ/mol
# Density = 1.982988 g / cm^3
# Si number density = 19.875121 Si / 1000 Ang^3
#
#
#
# Elastic Constant Matrix: (Units=GPa)
#
#
# Indices 1 2 3 4 5 6 
#
# 1 85.8718 36.9794 39.8793 0.0000 24.3701 0.0000
# 2 36.9794 132.9256 57.8264 0.0000 21.3725 0.0000
# 3 39.8793 57.8264 152.8256 0.0000 29.2193 0.0000
# 4 0.0000 0.0000 0.0000 31.8745 0.0000 7.1632
# 5 24.3701 21.3725 29.2193 0.0000 43.8883 0.0000
# 6 0.0000 0.0000 0.0000 7.1632 0.0000 26.8506
#
#
#
# Elastic Compliance Matrix: (Units=1/GPa)
#
#
# Indices 1 2 3 4 5 6 
#
# 1 0.015301 -0.002456 -0.001911 0.000000 -0.006028 0.000000
# 2 -0.002456 0.009631 -0.002713 0.000000 -0.001520 0.000000
# 3 -0.001911 -0.002713 0.008723 0.000000 -0.003426 0.000000
# 4 0.000000 0.000000 0.000000 0.033374 0.000000 -0.008903
# 5 -0.006028 -0.001520 -0.003426 0.000000 0.029153 0.000000
# 6 0.000000 0.000000 0.000000 -0.008903 0.000000 0.039618
#
#
# Mechanical properties :
#
#
# Convention : Reuss Voigt Hill
#
# Bulk Modulus (GPa) = 51.29233 71.22146 61.25689
# Shear Modulus (GPa) = 31.95727 36.31853 34.13790
#
# Velocity S-wave (km/s) = 4.01422 4.27937 4.14891
# Velocity P-wave (km/s) = 6.88103 7.76722 7.33751
#
# Compressibility (1/GPa) = 0.01949609
#
# Stress axis : x y z
#
# Youngs Moduli (GPa) = 65.35447 103.83398 114.63444
#
# Poissons Ratio (x) = 0.25504 0.21905
# Poissons Ratio (y) = 0.16053 0.31095
# Poissons Ratio (z) = 0.12488 0.28165
#
# Static dielectric constant tensor:
#      x y z
#    x 3.844620 0.000000 0.372700 
#    y 0.000000 3.547120 0.000000 
#    z 0.372700 0.000000 4.147940 
# 
# 
# High freq. dielectric constant tensor:
#      x y z
#    x 1.779960 0.000000 0.018540 
#    y 0.000000 1.770910 0.000000 
#    z 0.018540 0.000000 1.788280 
# 
# From -- ./inp_files/22806.got.cif
#   From: 2010.03.12/outbox.cif.g09.slc.cpg/sg5_12_cif.got.tgz:22806.got - 2010.03.31 09:47:26.
