data_PCOD8050633
_publ_section_title
;
Structure prediction by ZEFSAII (Michael W. Deem and Ramdas Pophale) SiO2 
 PCOD8050633
Probable space group: C 2
;
_chemical_formula_sum "Si O2"
_cell_formula_units_Z 26
_cell_length_a 8.307801
_cell_length_b 20.309589
_cell_length_c 10.394945
_cell_angle_alpha 90.000000
_cell_angle_beta 137.317078
_cell_angle_gamma 90.000000
_cell_volume 1189.052554
_symmetry_space_group_name_H-M "C 2"
_symmetry_group_IT_number 5
_symmetry_cell_setting 'monoclinic'
loop_
_space_group_symop_operation_xyz
x,y,z
-x,y,-z
1/2+x,1/2+y,z
1/2-x,1/2+y,-z
loop_
_atom_site_type_symbol
_atom_site_label
_atom_site_fract_x
_atom_site_fract_y
_atom_site_fract_z
Si Si1 0.711813 0.659790 0.447970
Si Si2 0.241774 0.843138 0.216557
Si Si3 0.786768 0.693881 0.774761
Si Si4 0.000000 0.446470 0.000000
Si Si5 0.493368 0.386307 0.675109
Si Si6 0.000000 0.547940 0.500000
Si Si7 0.500000 0.268068 0.500000
Si Si8 0.567039 0.952915 0.317254
O O1 0.849600 0.669401 0.666638
O O2 0.432176 0.650959 0.302583
O O3 0.772866 0.721156 0.390866
O O4 0.780732 0.592948 0.414382
O O5 0.315288 0.768276 0.289927
O O6 0.195891 0.882536 0.320637
O O7 0.442866 0.880792 0.253134
O O8 0.000000 0.840516 0.000000
O O9 0.000000 0.683732 0.000000
O O10 0.754955 0.406680 0.872016
O O11 0.973122 0.485299 0.848682
O O12 0.540151 0.314003 0.646356
O O13 0.350607 0.437616 0.497796
O O14 0.942403 0.501971 0.344075
#
# Coordination Sequence:
#
# PCOD8050633 Si02
#       8
#     4   4   4   2   4   2   2   4
#     4  10  23  44  64  92 131 174 224 269 317 376
#     4  11  21  38  71 103 134 168 209 264 337 411
#     4  10  22  41  69 100 130 165 211 272 336 397
#     4  12  26  40  62 106 138 166 210 280 328 396
#     4  12  22  38  63 100 134 171 209 261 340 398
#     4  11  26  48  70  86 124 187 234 272 308 389
#     4  11  20  38  64  96 136 173 206 268 330 395
#     4  12  24  44  67  94 134 175 222 267 332 387
#
# _framework density 21.866149
#
# number of rings (size 3 to 8) (size 9 to 14) (size 15 to 20)
#    0.000    0.923    6.154    0.923    2.154    0.000 
#    6.923    5.385    0.000    0.000    0.000    0.000 
#    0.000    0.000    0.000    0.000    0.000    0.000 
#
# Total GULP energy -161084.847081 kJ/mol
# GULP energy per Si atom -12391.142083 kJ/mol
# Density = 2.181638 g / cm^3
# Si number density = 21.866149 Si / 1000 Ang^3
#
#
#
# Elastic Constant Matrix: (Units=GPa)
#
#
# Indices 1 2 3 4 5 6 
#
# 1 129.6858 43.8356 43.4195 0.0000 -13.6744 0.0000
# 2 43.8356 91.3612 31.1340 0.0000 -9.0205 0.0000
# 3 43.4195 31.1340 126.2433 0.0000 -8.9690 0.0000
# 4 0.0000 0.0000 0.0000 15.8188 0.0000 -9.1654
# 5 -13.6744 -9.0205 -8.9690 0.0000 43.6783 0.0000
# 6 0.0000 0.0000 0.0000 -9.1654 0.0000 38.7883
#
#
#
# Elastic Compliance Matrix: (Units=1/GPa)
#
#
# Indices 1 2 3 4 5 6 
#
# 1 0.009983 -0.003801 -0.002364 0.000000 0.001855 0.000000
# 2 -0.003801 0.013553 -0.001949 0.000000 0.001209 0.000000
# 3 -0.002364 -0.001949 0.009269 0.000000 0.000761 0.000000
# 4 0.000000 0.000000 0.000000 0.073244 0.000000 0.017307
# 5 0.001855 0.001209 0.000761 0.000000 0.023881 0.000000
# 6 0.000000 0.000000 0.000000 0.017307 0.000000 0.029870
#
#
# Mechanical properties :
#
#
# Convention : Reuss Voigt Hill
#
# Bulk Modulus (GPa) = 60.32859 64.89648 62.61253
# Shear Modulus (GPa) = 27.53993 34.91715 31.22854
#
# Velocity S-wave (km/s) = 3.55276 4.00041 3.78321
# Velocity P-wave (km/s) = 6.66928 7.14710 6.91232
#
# Compressibility (1/GPa) = 0.01657589
#
# Stress axis : x y z
#
# Youngs Moduli (GPa) = 100.17137 73.78493 107.88499
#
# Poissons Ratio (x) = 0.28046 0.25507
# Poissons Ratio (y) = 0.38075 0.21029
# Poissons Ratio (z) = 0.23683 0.14382
#
# Static dielectric constant tensor:
#      x y z
#    x 4.309320 0.000000 -0.231480 
#    y 0.000000 3.813830 0.000000 
#    z -0.231480 0.000000 3.781050 
# 
# 
# High freq. dielectric constant tensor:
#      x y z
#    x 1.886700 0.000000 -0.006480 
#    y 0.000000 1.833790 0.000000 
#    z -0.006480 0.000000 1.850520 
# 
# From -- ./inp_files/37424.got.cif
#   From: 2010.03.12/outbox.cif.g09.slc.cpg/sg5_19_cif.got.tgz:37424.got - 2010.03.31 09:47:26.
