data_PCOD8050944
_publ_section_title
;
Structure prediction by ZEFSAII (Michael W. Deem and Ramdas Pophale) SiO2 
 PCOD8050944
Probable space group: C 2
;
_chemical_formula_sum "Si O2"
_cell_formula_units_Z 26
_cell_length_a 13.964776
_cell_length_b 5.236430
_cell_length_c 27.195108
_cell_angle_alpha 90.000000
_cell_angle_beta 148.433410
_cell_angle_gamma 90.000000
_cell_volume 1041.040821
_symmetry_space_group_name_H-M "C 2"
_symmetry_group_IT_number 5
_symmetry_cell_setting 'monoclinic'
loop_
_space_group_symop_operation_xyz
x,y,z
-x,y,-z
1/2+x,1/2+y,z
1/2-x,1/2+y,-z
loop_
_atom_site_type_symbol
_atom_site_label
_atom_site_fract_x
_atom_site_fract_y
_atom_site_fract_z
Si Si1 0.460584 0.508100 0.192506
Si Si2 0.179427 0.439123 0.994620
Si Si3 0.770187 0.278929 0.453132
Si Si4 0.039734 0.952480 0.612050
Si Si5 0.820019 0.227566 0.800680
Si Si6 0.500000 0.148200 0.500000
Si Si7 0.006090 0.513166 0.729460
O O1 0.584486 0.551235 0.198391
O O2 0.510883 0.236140 0.237519
O O3 0.478049 0.735474 0.239554
O O4 0.249994 0.495672 0.080902
O O5 0.964865 0.367058 0.899585
O O6 0.205789 0.695194 0.974408
O O7 0.641002 0.345033 0.441353
O O8 0.814230 0.499580 0.433714
O O9 0.678416 0.036696 0.384335
O O10 0.974121 0.229671 0.565062
O O11 0.086218 0.801542 0.583038
O O12 0.207851 0.952083 0.723310
O O13 0.685005 0.055943 0.774097
#
# Coordination Sequence:
#
# PCOD8050944 Si02
#       7
#     4   4   4   4   4   2   4
#     4  11  24  47  73 104 141 181 237 296 348 422
#     4  10  22  46  74 104 140 183 235 293 356 420
#     4  11  25  43  67 101 141 182 235 288 339 419
#     4  11  24  46  66  99 141 183 234 287 342 419
#     4  10  25  47  71 102 143 190 231 291 361 411
#     4  12  24  42  70  96 140 190 228 284 356 398
#     4  11  27  44  73 106 141 185 239 287 349 427
#
# _framework density 24.975003000000001
#
# number of rings (size 3 to 8) (size 9 to 14) (size 15 to 20)
#    0.000    1.231    1.538    3.231    6.462    4.308 
#    5.538    4.615    0.000    0.000    0.000    0.000 
#    0.000    0.000    0.000    0.000    0.000    0.000 
#
# Total GULP energy -161114.920812 kJ/mol
# GULP energy per Si atom -12393.455447 kJ/mol
# Density = 2.491816 g / cm^3
# Si number density = 24.975003 Si / 1000 Ang^3
#
#
#
# Elastic Constant Matrix: (Units=GPa)
#
#
# Indices 1 2 3 4 5 6 
#
# 1 100.9830 -3.8286 -23.5420 -0.0045 1.6006 0.0063
# 2 -3.8286 56.0105 -24.8546 0.0103 -3.1990 0.0130
# 3 -23.5420 -24.8546 63.5512 0.0009 4.7277 0.0096
# 4 -0.0045 0.0103 0.0009 29.3369 0.0014 0.0196
# 5 1.6006 -3.1990 4.7277 0.0014 27.2605 -0.0025
# 6 0.0063 0.0130 0.0096 0.0196 -0.0025 18.5590
#
#
#
# Elastic Compliance Matrix: (Units=1/GPa)
#
#
# Indices 1 2 3 4 5 6 
#
# 1 0.011330 0.003154 0.005524 0.000001 -0.001253 -0.000009
# 2 0.003154 0.022513 0.009918 -0.000008 0.000737 -0.000022
# 3 0.005524 0.009918 0.021880 -0.000003 -0.002955 -0.000020
# 4 0.000001 -0.000008 -0.000003 0.034087 -0.000002 -0.000036
# 5 -0.001253 0.000737 -0.002955 -0.000002 0.037356 0.000006
# 6 -0.000009 -0.000022 -0.000020 -0.000036 0.000006 0.053882
#
#
# Mechanical properties :
#
#
# Convention : Reuss Voigt Hill
#
# Bulk Modulus (GPa) = 10.76252 12.89938 11.83095
# Shear Modulus (GPa) = 28.59970 33.21596 30.90783
#
# Velocity S-wave (km/s) = 3.38765 3.65083 3.52170
# Velocity P-wave (km/s) = 4.42948 4.79036 4.61345
#
# Compressibility (1/GPa) = 0.09291506
#
# Stress axis : x y z
#
# Youngs Moduli (GPa) = 88.26241 44.41947 45.70302
#
# Poissons Ratio (x) = -0.14010 -0.25245
# Poissons Ratio (y) = -0.27839 -0.45329
# Poissons Ratio (z) = -0.48754 -0.44056
#
# Static dielectric constant tensor:
#      x y z
#    x 4.606480 0.000000 -0.155360 
#    y 0.000000 4.462800 0.000000 
#    z -0.155360 0.000000 4.991130 
# 
# 
# High freq. dielectric constant tensor:
#      x y z
#    x 2.001320 0.000000 -0.005850 
#    y 0.000000 1.988770 0.000000 
#    z -0.005850 0.000000 2.011210 
# 
# From -- ./inp_files/71826.got.cif
#   From: 2010.03.12/outbox.cif.g09.slc.cpg/sg5_36_cif.got.tgz:71826.got - 2010.03.31 09:47:26.
