data_PCOD8050581
_publ_section_title
;
Structure prediction by ZEFSAII (Michael W. Deem and Ramdas Pophale) SiO2 
 PCOD8050581
Probable space group: C 2
;
_chemical_formula_sum "Si O2"
_cell_formula_units_Z 30
_cell_length_a 23.429457
_cell_length_b 9.127183
_cell_length_c 14.415456
_cell_angle_alpha 90.000000
_cell_angle_beta 152.588159
_cell_angle_gamma 90.000000
_cell_volume 1419.210729
_symmetry_space_group_name_H-M "C 2"
_symmetry_group_IT_number 5
_symmetry_cell_setting 'monoclinic'
loop_
_space_group_symop_operation_xyz
x,y,z
-x,y,-z
1/2+x,1/2+y,z
1/2-x,1/2+y,-z
loop_
_atom_site_type_symbol
_atom_site_label
_atom_site_fract_x
_atom_site_fract_y
_atom_site_fract_z
Si Si1 0.245688 0.879140 0.609515
Si Si2 0.070066 0.545901 0.693741
Si Si3 0.500000 0.529954 0.500000
Si Si4 0.429720 0.693037 0.983357
Si Si5 0.677829 0.696821 0.448150
Si Si6 0.609292 0.788347 0.544001
Si Si7 0.704723 0.483903 0.084663
Si Si8 0.484693 0.341388 0.311243
O O1 0.368765 0.841636 0.849675
O O2 0.238969 0.769874 0.511581
O O3 0.131682 0.857043 0.514226
O O4 0.240161 0.039339 0.556108
O O5 0.218696 0.550735 0.891549
O O6 0.046764 0.669173 0.737452
O O7 0.000000 0.598532 0.500000
O O8 0.016167 0.386641 0.646527
O O9 0.583241 0.630194 0.552123
O O10 0.432375 0.420572 0.329305
O O11 0.318221 0.597946 0.865093
O O12 0.500000 0.609268 0.000000
O O13 0.532073 0.712211 0.210987
O O14 0.680558 0.779489 0.549808
O O15 0.704662 0.858208 0.751530
O O16 0.574680 0.418665 0.864014
#
# Coordination Sequence:
#
# PCOD8050581 Si02
#       8
#     4   4   2   4   4   4   4   4
#     4  11  24  45  71 100 135 182 233 284 352 407
#     4  10  22  41  61  91 133 179 215 275 345 405
#     4  12  22  42  64  90 138 170 230 282 330 412
#     4  10  23  44  70  94 133 176 229 280 346 407
#     4  11  25  46  72  99 135 186 224 292 346 414
#     4  11  23  43  65  97 136 178 223 288 350 404
#     4  11  23  39  67  96 133 178 228 277 343 419
#     4  12  25  41  65 101 133 181 233 277 351 420
#
# _framework density 21.138511000000001
#
# number of rings (size 3 to 8) (size 9 to 14) (size 15 to 20)
#    0.000    1.067    5.333    1.600    7.467    1.067 
#    2.400    1.333    0.000    0.000    0.000    0.000 
#    0.000    0.000    0.000    0.000    0.000    0.000 
#
# Total GULP energy -185848.992772 kJ/mol
# GULP energy per Si atom -12389.932851 kJ/mol
# Density = 2.109040 g / cm^3
# Si number density = 21.138511 Si / 1000 Ang^3
#
#
#
# Elastic Constant Matrix: (Units=GPa)
#
#
# Indices 1 2 3 4 5 6 
#
# 1 95.5808 46.6439 13.0430 0.0000 5.1455 0.0000
# 2 46.6439 117.7222 29.4241 0.0000 4.3245 0.0000
# 3 13.0430 29.4241 71.6254 0.0000 7.3095 0.0000
# 4 0.0000 0.0000 0.0000 22.5428 0.0000 -0.7511
# 5 5.1455 4.3245 7.3095 0.0000 26.3842 0.0000
# 6 0.0000 0.0000 0.0000 -0.7511 0.0000 46.3496
#
#
#
# Elastic Compliance Matrix: (Units=1/GPa)
#
#
# Indices 1 2 3 4 5 6 
#
# 1 0.013047 -0.005078 -0.000118 0.000000 -0.001679 0.000000
# 2 -0.005078 0.011449 -0.003796 0.000000 0.000165 0.000000
# 3 -0.000118 -0.003796 0.015927 0.000000 -0.003767 0.000000
# 4 0.000000 0.000000 0.000000 0.044384 0.000000 0.000719
# 5 -0.001679 0.000165 -0.003767 0.000000 0.039246 0.000000
# 6 0.000000 0.000000 0.000000 0.000719 0.000000 0.021587
#
#
# Mechanical properties :
#
#
# Convention : Reuss Voigt Hill
#
# Bulk Modulus (GPa) = 44.56547 51.46116 48.01332
# Shear Modulus (GPa) = 29.22209 32.10981 30.66595
#
# Velocity S-wave (km/s) = 3.72211 3.90169 3.81296
# Velocity P-wave (km/s) = 6.29289 6.68544 6.49214
#
# Compressibility (1/GPa) = 0.02243890
#
# Stress axis : x y z
#
# Youngs Moduli (GPa) = 76.64518 87.34154 62.78743
#
# Poissons Ratio (x) = 0.44354 0.00743
# Poissons Ratio (y) = 0.38923 0.23831
# Poissons Ratio (z) = 0.00907 0.33151
#
# Static dielectric constant tensor:
#      x y z
#    x 3.999080 0.000000 0.086810 
#    y 0.000000 3.888310 0.000000 
#    z 0.086810 0.000000 3.717350 
# 
# 
# High freq. dielectric constant tensor:
#      x y z
#    x 1.842780 0.000000 -0.000220 
#    y 0.000000 1.823920 0.000000 
#    z -0.000220 0.000000 1.811070 
# 
# From -- ./inp_files/57625.got.cif
#   From: 2010.03.12/outbox.cif.g09.slc.cpg/sg5_29_cif.got.tgz:57625.got - 2010.03.31 09:47:26.
