data_PCOD8050934
_publ_section_title
;
Structure prediction by ZEFSAII (Michael W. Deem and Ramdas Pophale) SiO2 
 PCOD8050934
Probable space group: C 2
;
_chemical_formula_sum "Si O2"
_cell_formula_units_Z 28
_cell_length_a 18.055775
_cell_length_b 14.992157
_cell_length_c 5.210945
_cell_angle_alpha 90.000000
_cell_angle_beta 62.234066
_cell_angle_gamma 90.000000
_cell_volume 1248.160353
_symmetry_space_group_name_H-M "C 2"
_symmetry_group_IT_number 5
_symmetry_cell_setting 'monoclinic'
loop_
_space_group_symop_operation_xyz
x,y,z
-x,y,-z
1/2+x,1/2+y,z
1/2-x,1/2+y,-z
loop_
_atom_site_type_symbol
_atom_site_label
_atom_site_fract_x
_atom_site_fract_y
_atom_site_fract_z
Si Si1 0.592455 0.444940 0.886100
Si Si2 0.258737 0.018759 0.731207
Si Si3 0.905528 0.563917 0.110199
Si Si4 0.177287 0.331815 0.332043
Si Si5 0.705641 0.184916 0.019516
Si Si6 0.086456 0.367797 0.991478
Si Si7 0.908365 0.828699 0.606868
O O1 0.670174 0.514313 0.718105
O O2 0.600490 0.369704 0.659460
O O3 0.500000 0.490919 0.000000
O O4 0.603538 0.402710 0.151139
O O5 0.344975 0.042658 0.446854
O O6 0.271220 0.920550 0.839019
O O7 0.245009 0.099485 0.950653
O O8 0.869468 0.648868 0.028484
O O9 0.911709 0.472553 0.937054
O O10 0.000000 0.594912 0.000000
O O11 0.230516 0.241828 0.253088
O O12 0.153688 0.343819 0.666409
O O13 0.103985 0.318431 0.234804
O O14 0.662172 0.251958 0.290192
O O15 0.000000 0.338237 0.000000
O O16 0.000000 0.785602 0.500000
#
# Coordination Sequence:
#
# PCOD8050934 Si02
#       7
#     4   4   4   4   4   4   4
#     4  10  23  46  71 100 132 186 226 278 339 410
#     4  11  25  42  69  98 145 178 226 281 342 410
#     4  10  25  42  66 102 139 178 227 283 346 406
#     4  11  24  42  69 100 137 178 227 274 349 400
#     4  12  26  40  68 104 137 179 223 286 340 413
#     4  10  22  46  71  95 134 184 229 282 334 404
#     4  10  24  41  69  99 137 172 226 279 344 402
#
# _framework density 22.433014
#
# number of rings (size 3 to 8) (size 9 to 14) (size 15 to 20)
#    0.000    1.429    2.857    0.429   12.000    0.571 
#    0.000    0.714    3.143    0.000    0.000    0.000 
#    0.000    0.000    0.000    0.000    0.000    0.000 
#
# Total GULP energy -173439.806473 kJ/mol
# GULP energy per Si atom -12388.557605 kJ/mol
# Density = 2.238196 g / cm^3
# Si number density = 22.433014 Si / 1000 Ang^3
#
#
#
# Elastic Constant Matrix: (Units=GPa)
#
#
# Indices 1 2 3 4 5 6 
#
# 1 127.0034 54.6961 23.3981 0.0000 -19.8495 0.0000
# 2 54.6961 79.7542 19.2983 0.0000 -22.7042 0.0000
# 3 23.3981 19.2983 56.2746 0.0000 -2.5069 0.0000
# 4 0.0000 0.0000 0.0000 22.0051 0.0000 -8.3581
# 5 -19.8495 -22.7042 -2.5069 0.0000 34.9530 0.0000
# 6 0.0000 0.0000 0.0000 -8.3581 0.0000 21.9437
#
#
#
# Elastic Compliance Matrix: (Units=1/GPa)
#
#
# Indices 1 2 3 4 5 6 
#
# 1 0.011540 -0.006772 -0.002388 0.000000 0.001983 0.000000
# 2 -0.006772 0.020798 -0.003898 0.000000 0.009384 0.000000
# 3 -0.002388 -0.003898 0.019990 0.000000 -0.002454 0.000000
# 4 0.000000 0.000000 0.000000 0.053130 0.000000 0.020237
# 5 0.001983 0.009384 -0.002454 0.000000 0.035656 0.000000
# 6 0.000000 0.000000 0.000000 0.020237 0.000000 0.053279
#
#
# Mechanical properties :
#
#
# Convention : Reuss Voigt Hill
#
# Bulk Modulus (GPa) = 38.15029 50.86858 44.50944
# Shear Modulus (GPa) = 21.81061 26.82301 24.31681
#
# Velocity S-wave (km/s) = 3.12148 3.46163 3.29595
# Velocity P-wave (km/s) = 5.48040 6.22111 5.86246
#
# Compressibility (1/GPa) = 0.02621212
#
# Stress axis : x y z
#
# Youngs Moduli (GPa) = 86.65419 48.08269 50.02442
#
# Poissons Ratio (x) = 0.32561 0.11944
# Poissons Ratio (y) = 0.58682 0.19501
# Poissons Ratio (z) = 0.20689 0.18744
#
# Static dielectric constant tensor:
#      x y z
#    x 4.355550 0.000000 -0.258170 
#    y 0.000000 3.997710 0.000000 
#    z -0.258170 0.000000 4.322780 
# 
# 
# High freq. dielectric constant tensor:
#      x y z
#    x 1.897270 0.000000 -0.010250 
#    y 0.000000 1.860170 0.000000 
#    z -0.010250 0.000000 1.877740 
# 
# From -- ./inp_files/8611.got.cif
#   From: 2010.03.12/outbox.cif.g09.slc.cpg/sg5_5_cif.got.tgz:8611.got - 2010.03.31 09:47:26.
