data_PCOD8050340
_publ_section_title
;
Structure prediction by ZEFSAII (Michael W. Deem and Ramdas Pophale) SiO2 
 PCOD8050340
Probable space group: C 2
;
_chemical_formula_sum "Si O2"
_cell_formula_units_Z 14
_cell_length_a 6.154683
_cell_length_b 18.186790
_cell_length_c 5.066856
_cell_angle_alpha 90.000000
_cell_angle_beta 89.470210
_cell_angle_gamma 90.000000
_cell_volume 567.128845
_symmetry_space_group_name_H-M "C 2"
_symmetry_group_IT_number 5
_symmetry_cell_setting 'monoclinic'
loop_
_space_group_symop_operation_xyz
x,y,z
-x,y,-z
1/2+x,1/2+y,z
1/2-x,1/2+y,-z
loop_
_atom_site_type_symbol
_atom_site_label
_atom_site_fract_x
_atom_site_fract_y
_atom_site_fract_z
Si Si1 0.851476 0.029680 0.255716
Si Si2 0.000000 0.628343 0.000000
Si Si3 0.636020 0.718920 0.245280
Si Si4 0.144342 0.864886 0.740413
O O1 0.642920 0.079465 0.199026
O O2 0.000000 0.057773 0.500000
O O3 0.764729 0.946853 0.314438
O O4 0.000000 0.028808 0.000000
O O5 0.867735 0.679005 0.208877
O O6 0.500000 0.692920 0.500000
O O7 0.658072 0.807396 0.239966
O O8 0.500000 0.690262 0.000000
O O9 0.000000 0.836978 0.500000
O O10 0.000000 0.861875 0.000000
#
# Coordination Sequence:
#
# PCOD8050340 Si02
#       4
#     4   2   4   4
#     4  10  25  48  76 109 148 191 250 302 366 443
#     4  12  28  50  76 110 156 198 234 314 376 432
#     4  12  28  46  76 111 148 194 250 295 367 444
#     4  10  21  47  76 106 143 190 245 306 357 434
#
# _framework density 24.685749000000001
#
# number of rings (size 3 to 8) (size 9 to 14) (size 15 to 20)
#    0.000    1.143    1.429    2.571    2.000    8.000 
#    0.000    0.000    0.000    0.000    0.000    0.000 
#    0.000    0.000    0.000    0.000    0.000    0.000 
#
# Total GULP energy -86808.837549 kJ/mol
# GULP energy per Si atom -12401.262507 kJ/mol
# Density = 2.462956 g / cm^3
# Si number density = 24.685749 Si / 1000 Ang^3
#
#
#
# Elastic Constant Matrix: (Units=GPa)
#
#
# Indices 1 2 3 4 5 6 
#
# 1 132.9331 76.6061 66.0435 0.0000 0.9694 0.0000
# 2 76.6061 157.0106 30.0686 0.0000 -2.3297 0.0000
# 3 66.0435 30.0686 189.0013 0.0000 5.5786 0.0000
# 4 0.0000 0.0000 0.0000 37.6884 0.0000 10.1647
# 5 0.9694 -2.3297 5.5786 0.0000 52.0295 0.0000
# 6 0.0000 0.0000 0.0000 10.1647 0.0000 66.5519
#
#
#
# Elastic Compliance Matrix: (Units=1/GPa)
#
#
# Indices 1 2 3 4 5 6 
#
# 1 0.012323 -0.005353 -0.003451 0.000000 -0.000099 0.000000
# 2 -0.005353 0.008903 0.000441 0.000000 0.000451 0.000000
# 3 -0.003451 0.000441 0.006445 0.000000 -0.000607 0.000000
# 4 0.000000 0.000000 0.000000 0.027673 0.000000 -0.004227
# 5 -0.000099 0.000451 -0.000607 0.000000 0.019307 0.000000
# 6 0.000000 0.000000 0.000000 -0.004227 0.000000 0.015671
#
#
# Mechanical properties :
#
#
# Convention : Reuss Voigt Hill
#
# Bulk Modulus (GPa) = 91.37880 91.59794 91.48837
# Shear Modulus (GPa) = 45.16831 51.66908 48.41869
#
# Velocity S-wave (km/s) = 4.28218 4.57997 4.43358
# Velocity P-wave (km/s) = 7.84516 8.07183 7.95930
#
# Compressibility (1/GPa) = 0.01094346
#
# Stress axis : x y z
#
# Youngs Moduli (GPa) = 81.15073 112.32241 155.16326
#
# Poissons Ratio (x) = 0.60124 0.53554
# Poissons Ratio (y) = 0.43438 -0.06839
# Poissons Ratio (z) = 0.28009 -0.04951
#
# Static dielectric constant tensor:
#      x y z
#    x 4.181970 0.000000 0.093980 
#    y 0.000000 5.027190 0.000000 
#    z 0.093980 0.000000 4.285040 
# 
# 
# High freq. dielectric constant tensor:
#      x y z
#    x 1.964090 0.000000 0.006130 
#    y 0.000000 2.013110 0.000000 
#    z 0.006130 0.000000 1.994760 
# 
# From -- ./inp_files/363.got.cif
#   From: 2010.03.12/outbox.cif.g09.slc.cpg/sg5_1_cif.got.tgz:363.got - 2010.03.31 09:47:26.
