data_PCOD8050595
_publ_section_title
;
Structure prediction by ZEFSAII (Michael W. Deem and Ramdas Pophale) SiO2 
 PCOD8050595
Probable space group: C 2
;
_chemical_formula_sum "Si O2"
_cell_formula_units_Z 26
_cell_length_a 17.459053
_cell_length_b 9.362680
_cell_length_c 11.045217
_cell_angle_alpha 90.000000
_cell_angle_beta 132.045395
_cell_angle_gamma 90.000000
_cell_volume 1340.783044
_symmetry_space_group_name_H-M "C 2"
_symmetry_group_IT_number 5
_symmetry_cell_setting 'monoclinic'
loop_
_space_group_symop_operation_xyz
x,y,z
-x,y,-z
1/2+x,1/2+y,z
1/2-x,1/2+y,-z
loop_
_atom_site_type_symbol
_atom_site_label
_atom_site_fract_x
_atom_site_fract_y
_atom_site_fract_z
Si Si1 0.000000 0.955390 0.500000
Si Si2 0.388536 0.299193 0.596206
Si Si3 0.529723 0.042754 0.164828
Si Si4 0.671585 0.874040 0.987247
Si Si5 0.035395 0.029627 0.163299
Si Si6 0.326882 0.795968 0.741082
Si Si7 0.642450 0.586010 0.838464
O O1 0.950132 0.850589 0.544447
O O2 0.912737 0.057970 0.349264
O O3 0.450400 0.169868 0.721514
O O4 0.380969 0.427719 0.684904
O O5 0.274098 0.251358 0.439950
O O6 0.633566 0.949931 0.261217
O O7 0.500000 0.101490 0.000000
O O8 0.439722 0.946852 0.125851
O O9 0.699036 0.799255 0.143959
O O10 0.755299 0.991957 0.041205
O O11 0.672038 0.752779 0.883193
O O12 0.083306 0.184108 0.190525
O O13 0.934090 0.041943 0.136488
O O14 0.000000 0.959423 0.000000
#
# Coordination Sequence:
#
# PCOD8050595 Si02
#       7
#     2   4   4   4   4   4   4
#     4  10  24  42  60  92 136 168 208 276 324 376
#     4  11  23  38  65  92 131 167 215 264 323 380
#     4  10  22  41  64  95 129 167 219 268 315 388
#     4  11  23  41  67  93 130 175 215 263 326 386
#     4  11  21  40  65  92 125 167 216 263 317 381
#     4  11  20  43  63  92 125 173 213 267 325 373
#     4  11  23  43  66  91 128 176 214 266 325 385
#
# _framework density 19.391653999999999
#
# number of rings (size 3 to 8) (size 9 to 14) (size 15 to 20)
#    0.000    1.231    4.615    1.846    4.308    0.000 
#    0.000    2.308    0.000    0.000    0.000    0.000 
#    0.000    0.000    0.000    0.000    0.000    0.000 
#
# Total GULP energy -161239.097595 kJ/mol
# GULP energy per Si atom -12403.007507 kJ/mol
# Density = 1.934752 g / cm^3
# Si number density = 19.391654 Si / 1000 Ang^3
#
#
#
# Elastic Constant Matrix: (Units=GPa)
#
#
# Indices 1 2 3 4 5 6 
#
# 1 83.6604 44.4030 47.9654 0.0000 -3.8674 0.0000
# 2 44.4030 111.9235 62.3232 0.0000 -9.5941 0.0000
# 3 47.9654 62.3232 132.2082 0.0000 -1.9239 0.0000
# 4 0.0000 0.0000 0.0000 36.0861 0.0000 -5.6313
# 5 -3.8674 -9.5941 -1.9239 0.0000 32.4511 0.0000
# 6 0.0000 0.0000 0.0000 -5.6313 0.0000 34.8414
#
#
#
# Elastic Compliance Matrix: (Units=1/GPa)
#
#
# Indices 1 2 3 4 5 6 
#
# 1 0.016534 -0.004317 -0.003957 0.000000 0.000460 0.000000
# 2 -0.004317 0.013593 -0.004795 0.000000 0.003220 0.000000
# 3 -0.003957 -0.004795 0.011242 0.000000 -0.001223 0.000000
# 4 0.000000 0.000000 0.000000 0.028429 0.000000 0.004595
# 5 0.000460 0.003220 -0.001223 0.000000 0.031750 0.000000
# 6 0.000000 0.000000 0.000000 0.004595 0.000000 0.029444
#
#
# Mechanical properties :
#
#
# Convention : Reuss Voigt Hill
#
# Bulk Modulus (GPa) = 65.65090 70.79723 68.22407
# Shear Modulus (GPa) = 30.82488 32.21574 31.52031
#
# Velocity S-wave (km/s) = 3.99130 4.08035 4.03607
# Velocity P-wave (km/s) = 7.42761 7.66729 7.54840
#
# Compressibility (1/GPa) = 0.01523208
#
# Stress axis : x y z
#
# Youngs Moduli (GPa) = 60.48088 73.56601 88.95227
#
# Poissons Ratio (x) = 0.31756 0.35199
# Poissons Ratio (y) = 0.26108 0.42652
# Poissons Ratio (z) = 0.23933 0.35274
#
# Static dielectric constant tensor:
#      x y z
#    x 3.522720 0.000000 -0.061630 
#    y 0.000000 3.582570 0.000000 
#    z -0.061630 0.000000 3.810280 
# 
# 
# High freq. dielectric constant tensor:
#      x y z
#    x 1.755220 0.000000 0.003550 
#    y 0.000000 1.753230 0.000000 
#    z 0.003550 0.000000 1.764350 
# 
# From -- ./inp_files/44113.got.cif
#   From: 2010.03.12/outbox.cif.g09.slc.cpg/sg5_23_cif.got.tgz:44113.got - 2010.03.31 09:47:26.
