data_PCOD8050244
_publ_section_title
;
Structure prediction by ZEFSAII (Michael W. Deem and Ramdas Pophale) SiO2 
 PCOD8050244
Probable space group: C 2
;
_chemical_formula_sum "Si O2"
_cell_formula_units_Z 20
_cell_length_a 20.691098
_cell_length_b 10.063372
_cell_length_c 7.092542
_cell_angle_alpha 90.000000
_cell_angle_beta 144.594652
_cell_angle_gamma 90.000000
_cell_volume 855.609169
_symmetry_space_group_name_H-M "C 2"
_symmetry_group_IT_number 5
_symmetry_cell_setting 'monoclinic'
loop_
_space_group_symop_operation_xyz
x,y,z
-x,y,-z
1/2+x,1/2+y,z
1/2-x,1/2+y,-z
loop_
_atom_site_type_symbol
_atom_site_label
_atom_site_fract_x
_atom_site_fract_y
_atom_site_fract_z
Si Si1 0.851081 0.015970 0.281625
Si Si2 0.595160 0.755772 0.373325
Si Si3 0.473012 0.263767 0.718108
Si Si4 0.179841 0.528632 0.579962
Si Si5 0.806836 0.616570 0.801479
O O1 0.917102 0.154248 0.478469
O O2 0.738272 0.014412 0.144661
O O3 0.937202 0.897133 0.525128
O O4 0.805460 0.008506 0.959136
O O5 0.713265 0.730081 0.547563
O O6 0.597356 0.908398 0.446664
O O7 0.500000 0.723646 0.000000
O O8 0.368398 0.165208 0.453009
O O9 0.500000 0.296937 0.000000
O O10 0.579137 0.193317 0.870557
O O11 0.178906 0.529682 0.351975
#
# Coordination Sequence:
#
# PCOD8050244 Si02
#       5
#     4   4   4   4   4
#     4  10  23  40  67  95 132 165 223 276 320 404
#     4  10  22  42  64  91 131 170 218 277 327 392
#     4  10  21  42  68  93 133 177 218 270 337 399
#     4  11  22  42  64  96 130 167 226 277 325 399
#     4   9  24  40  67  91 131 176 216 266 341 382
#
# _framework density 23.375157999999999
#
# number of rings (size 3 to 8) (size 9 to 14) (size 15 to 20)
#    1.200    0.800    0.000    3.600    5.600    0.800 
#    0.000    3.000    0.000    0.000    0.000    0.000 
#    0.000    0.000    0.000    0.000    0.000    0.000 
#
# Total GULP energy -123943.581732 kJ/mol
# GULP energy per Si atom -12394.358173 kJ/mol
# Density = 2.332195 g / cm^3
# Si number density = 23.375158 Si / 1000 Ang^3
#
#
#
# Elastic Constant Matrix: (Units=GPa)
#
#
# Indices 1 2 3 4 5 6 
#
# 1 45.6644 4.0974 5.8317 0.0000 13.4452 0.0000
# 2 4.0974 133.1080 45.9135 0.0000 -11.4389 0.0000
# 3 5.8317 45.9135 149.8735 0.0000 4.1316 0.0000
# 4 0.0000 0.0000 0.0000 50.6812 0.0000 6.5318
# 5 13.4452 -11.4389 4.1316 0.0000 25.2504 0.0000
# 6 0.0000 0.0000 0.0000 6.5318 0.0000 16.1776
#
#
#
# Elastic Compliance Matrix: (Units=1/GPa)
#
#
# Indices 1 2 3 4 5 6 
#
# 1 0.026530 -0.002126 0.000035 0.000000 -0.015095 0.000000
# 2 -0.002126 0.009050 -0.002847 0.000000 0.005698 0.000000
# 3 0.000035 -0.002847 0.007613 0.000000 -0.002554 0.000000
# 4 0.000000 0.000000 0.000000 0.020814 0.000000 -0.008404
# 5 -0.015095 0.005698 -0.002554 0.000000 0.050640 0.000000
# 6 0.000000 0.000000 0.000000 -0.008404 0.000000 0.065207
#
#
# Mechanical properties :
#
#
# Convention : Reuss Voigt Hill
#
# Bulk Modulus (GPa) = 30.01407 48.92568 39.46988
# Shear Modulus (GPa) = 24.89600 36.60873 30.75236
#
# Velocity S-wave (km/s) = 3.26707 3.96174 3.63106
# Velocity P-wave (km/s) = 5.20574 6.47327 5.87380
#
# Compressibility (1/GPa) = 0.03331770
#
# Stress axis : x y z
#
# Youngs Moduli (GPa) = 37.69354 110.50105 131.34708
#
# Poissons Ratio (x) = 0.23493 -0.00462
# Poissons Ratio (y) = 0.08014 0.37391
# Poissons Ratio (z) = -0.00132 0.31456
#
# Static dielectric constant tensor:
#      x y z
#    x 3.844410 0.000000 0.039220 
#    y 0.000000 4.055430 0.000000 
#    z 0.039220 0.000000 4.141080 
# 
# 
# High freq. dielectric constant tensor:
#      x y z
#    x 1.891070 0.000000 -0.000440 
#    y 0.000000 1.925590 0.000000 
#    z -0.000440 0.000000 1.938110 
# 
# From -- ./inp_files/31715.got.cif
#   From: 2010.03.12/outbox.cif.g09.slc.cpg/sg5_16_cif.got.tgz:31715.got - 2010.03.31 09:47:26.
