data_PCOD8050893
_publ_section_title
;
Structure prediction by ZEFSAII (Michael W. Deem and Ramdas Pophale) SiO2 
 PCOD8050893
Probable space group: C 2
;
_chemical_formula_sum "Si O2"
_cell_formula_units_Z 22
_cell_length_a 14.977494
_cell_length_b 8.770897
_cell_length_c 7.586169
_cell_angle_alpha 90.000000
_cell_angle_beta 101.832327
_cell_angle_gamma 90.000000
_cell_volume 975.389949
_symmetry_space_group_name_H-M "C 2"
_symmetry_group_IT_number 5
_symmetry_cell_setting 'monoclinic'
loop_
_space_group_symop_operation_xyz
x,y,z
-x,y,-z
1/2+x,1/2+y,z
1/2-x,1/2+y,-z
loop_
_atom_site_type_symbol
_atom_site_label
_atom_site_fract_x
_atom_site_fract_y
_atom_site_fract_z
Si Si1 0.500000 0.849820 0.500000
Si Si2 0.643565 0.133912 0.008538
Si Si3 0.160669 0.166745 0.425332
Si Si4 0.282526 0.819370 0.883245
Si Si5 0.521341 0.137567 0.291722
Si Si6 0.338203 0.328224 0.480508
O O1 0.587657 0.740047 0.530393
O O2 0.509422 0.959539 0.333830
O O3 0.740122 0.218418 0.023991
O O4 0.576333 0.189228 0.823397
O O5 0.661858 0.953732 0.002379
O O6 0.598557 0.168455 0.177122
O O7 0.149222 0.223583 0.216997
O O8 0.260691 0.217829 0.535943
O O9 0.149433 0.985088 0.408637
O O10 0.196016 0.875981 0.729061
O O11 0.565459 0.232666 0.476587
#
# Coordination Sequence:
#
# PCOD8050893 Si02
#       6
#     2   4   4   4   4   4
#     4  12  22  42  66 100 136 188 238 292 330 426
#     4  11  24  42  66 102 142 182 226 293 366 413
#     4  10  23  40  71 100 139 180 246 291 340 415
#     4  10  24  42  67 101 136 187 229 286 354 424
#     4  11  24  41  69  99 139 187 232 289 359 417
#     4  10  22  45  68 104 131 189 246 282 352 422
#
# _framework density 22.555084000000001
#
# number of rings (size 3 to 8) (size 9 to 14) (size 15 to 20)
#    1.091    0.364    1.818    3.273    5.091    3.636 
#    0.000    0.000    0.000    0.000    0.000    0.000 
#    0.000    0.000    0.000    0.000    0.000    0.000 
#
# Total GULP energy -136273.417038 kJ/mol
# GULP energy per Si atom -12388.492458 kJ/mol
# Density = 2.250375 g / cm^3
# Si number density = 22.555084 Si / 1000 Ang^3
#
#
#
# Elastic Constant Matrix: (Units=GPa)
#
#
# Indices 1 2 3 4 5 6 
#
# 1 122.9031 44.7717 13.9576 0.0000 2.6608 0.0000
# 2 44.7717 100.0255 -11.9149 0.0000 9.7021 0.0000
# 3 13.9576 -11.9149 61.2790 0.0000 5.8374 0.0000
# 4 0.0000 0.0000 0.0000 33.1587 0.0000 -4.3850
# 5 2.6608 9.7021 5.8374 0.0000 28.2027 0.0000
# 6 0.0000 0.0000 0.0000 -4.3850 0.0000 43.0674
#
#
#
# Elastic Compliance Matrix: (Units=1/GPa)
#
#
# Indices 1 2 3 4 5 6 
#
# 1 0.010410 -0.005231 -0.003536 0.000000 0.001549 0.000000
# 2 -0.005231 0.013328 0.004257 0.000000 -0.004973 0.000000
# 3 -0.003536 0.004257 0.018423 0.000000 -0.004944 0.000000
# 4 0.000000 0.000000 0.000000 0.030570 0.000000 0.003112
# 5 0.001549 -0.004973 -0.004944 0.000000 0.038045 0.000000
# 6 0.000000 0.000000 0.000000 0.003112 0.000000 0.023536
#
#
# Mechanical properties :
#
#
# Convention : Reuss Voigt Hill
#
# Bulk Modulus (GPa) = 30.17433 41.98181 36.07807
# Shear Modulus (GPa) = 32.38772 36.71199 34.54985
#
# Velocity S-wave (km/s) = 3.79349 4.03880 3.91807
# Velocity P-wave (km/s) = 5.70916 6.35631 6.04141
#
# Compressibility (1/GPa) = 0.03314076
#
# Stress axis : x y z
#
# Youngs Moduli (GPa) = 96.06074 75.02870 54.28067
#
# Poissons Ratio (x) = 0.39248 0.19193
# Poissons Ratio (y) = 0.50250 -0.23105
# Poissons Ratio (z) = 0.33965 -0.31937
#
# Static dielectric constant tensor:
#      x y z
#    x 4.182770 0.000000 -0.164720 
#    y 0.000000 3.771790 0.000000 
#    z -0.164720 0.000000 3.817820 
# 
# 
# High freq. dielectric constant tensor:
#      x y z
#    x 1.903960 0.000000 -0.016240 
#    y 0.000000 1.872870 0.000000 
#    z -0.016240 0.000000 1.875240 
# 
# From -- ./inp_files/22720.got.cif
#   From: 2010.03.12/outbox.cif.g09.slc.cpg/sg5_12_cif.got.tgz:22720.got - 2010.03.31 09:47:26.
