data_PCOD8050993
_publ_section_title
;
Structure prediction by ZEFSAII (Michael W. Deem and Ramdas Pophale) SiO2 
 PCOD8050993
Probable space group: C 2
;
_chemical_formula_sum "Si O2"
_cell_formula_units_Z 28
_cell_length_a 22.089322
_cell_length_b 13.439543
_cell_length_c 9.623576
_cell_angle_alpha 90.000000
_cell_angle_beta 30.742807
_cell_angle_gamma 90.000000
_cell_volume 1460.432978
_symmetry_space_group_name_H-M "C 2"
_symmetry_group_IT_number 5
_symmetry_cell_setting 'monoclinic'
loop_
_space_group_symop_operation_xyz
x,y,z
-x,y,-z
1/2+x,1/2+y,z
1/2-x,1/2+y,-z
loop_
_atom_site_type_symbol
_atom_site_label
_atom_site_fract_x
_atom_site_fract_y
_atom_site_fract_z
Si Si1 0.869782 0.524870 0.752312
Si Si2 0.262665 0.471862 0.707951
Si Si3 0.496847 0.361984 0.261297
Si Si4 0.000000 0.726307 0.000000
Si Si5 0.861364 0.337828 0.269698
Si Si6 0.239133 0.965751 0.737519
Si Si7 0.000000 0.715779 0.500000
Si Si8 0.253661 0.129563 0.487072
O O1 0.792851 0.473938 0.784884
O O2 0.000000 0.473602 0.500000
O O3 0.887144 0.643913 0.689274
O O4 0.810507 0.510979 0.017938
O O5 0.383405 0.425842 0.530095
O O6 0.188364 0.390363 0.769690
O O7 0.295783 0.562767 0.540898
O O8 0.458883 0.297500 0.204294
O O9 0.535950 0.285471 0.302081
O O10 0.602027 0.437445 0.019408
O O11 0.888293 0.658219 0.181160
O O12 0.805307 0.380321 0.521264
O O13 0.832900 0.221712 0.321472
O O14 0.000000 0.356402 0.000000
O O15 0.253101 0.070569 0.632870
#
# Coordination Sequence:
#
# PCOD8050993 Si02
#       8
#     4   4   4   2   4   4   2   4
#     4  10  23  40  65  91 121 159 216 259 314 371
#     4  11  24  41  63  94 127 166 210 266 316 373
#     4  12  22  42  64  93 125 165 213 264 314 371
#     4  12  20  40  66  94 118 166 224 248 298 382
#     4  11  24  39  63  91 129 168 207 259 319 371
#     4  11  24  41  63  94 127 166 210 266 316 373
#     4  10  24  40  68  88 118 168 220 256 310 376
#     4  11  24  39  64  93 128 164 216 257 316 375
#
# _framework density 19.172397
#
# number of rings (size 3 to 8) (size 9 to 14) (size 15 to 20)
#    0.429    0.571    2.857    4.286    8.000    0.000 
#    0.000    0.000    0.000    0.000    0.000    0.000 
#    0.000    0.000    0.000    0.000    0.000    0.000 
#
# Total GULP energy -173644.183609 kJ/mol
# GULP energy per Si atom -12403.155972 kJ/mol
# Density = 1.912876 g / cm^3
# Si number density = 19.172397 Si / 1000 Ang^3
#
#
#
# Elastic Constant Matrix: (Units=GPa)
#
#
# Indices 1 2 3 4 5 6 
#
# 1 83.4195 25.5411 28.7840 0.0000 3.6929 0.0000
# 2 25.5411 94.8293 27.9077 0.0000 -0.3136 0.0000
# 3 28.7840 27.9077 104.7549 0.0000 -8.5638 0.0000
# 4 0.0000 0.0000 0.0000 43.4607 0.0000 -11.0717
# 5 3.6929 -0.3136 -8.5638 0.0000 46.2438 0.0000
# 6 0.0000 0.0000 0.0000 -11.0717 0.0000 35.3138
#
#
#
# Elastic Compliance Matrix: (Units=1/GPa)
#
#
# Indices 1 2 3 4 5 6 
#
# 1 0.014054 -0.002835 -0.003249 0.000000 -0.001743 0.000000
# 2 -0.002835 0.012025 -0.002436 0.000000 -0.000143 0.000000
# 3 -0.003249 -0.002436 0.011279 0.000000 0.002332 0.000000
# 4 0.000000 0.000000 0.000000 0.025007 0.000000 0.007840
# 5 -0.001743 -0.000143 0.002332 0.000000 0.022195 0.000000
# 6 0.000000 0.000000 0.000000 0.007840 0.000000 0.030776
#
#
# Mechanical properties :
#
#
# Convention : Reuss Voigt Hill
#
# Bulk Modulus (GPa) = 49.21918 49.71879 49.46899
# Shear Modulus (GPa) = 35.93319 38.38838 37.16079
#
# Velocity S-wave (km/s) = 4.33392 4.47953 4.40733
# Velocity P-wave (km/s) = 7.12541 7.26249 7.19427
#
# Compressibility (1/GPa) = 0.02031728
#
# Stress axis : x y z
#
# Youngs Moduli (GPa) = 71.15527 83.15770 88.66418
#
# Poissons Ratio (x) = 0.23574 0.28806
# Poissons Ratio (y) = 0.20171 0.21602
# Poissons Ratio (z) = 0.23118 0.20261
#
# Static dielectric constant tensor:
#      x y z
#    x 3.298390 0.000000 -0.044830 
#    y 0.000000 3.542100 0.000000 
#    z -0.044830 0.000000 3.426600 
# 
# 
# High freq. dielectric constant tensor:
#      x y z
#    x 1.745940 0.000000 0.003020 
#    y 0.000000 1.750900 0.000000 
#    z 0.003020 0.000000 1.753320 
# 
# From -- ./inp_files/29583.got.cif
#   From: 2010.03.12/outbox.cif.g09.slc.cpg/sg5_15_cif.got.tgz:29583.got - 2010.03.31 09:47:26.
