data_PCOD8050907
_publ_section_title
;
Structure prediction by ZEFSAII (Michael W. Deem and Ramdas Pophale) SiO2 
 PCOD8050907
Probable space group: C 2
;
_chemical_formula_sum "Si O2"
_cell_formula_units_Z 28
_cell_length_a 13.951447
_cell_length_b 9.486834
_cell_length_c 11.232221
_cell_angle_alpha 90.000000
_cell_angle_beta 60.458650
_cell_angle_gamma 90.000000
_cell_volume 1293.378069
_symmetry_space_group_name_H-M "C 2"
_symmetry_group_IT_number 5
_symmetry_cell_setting 'monoclinic'
loop_
_space_group_symop_operation_xyz
x,y,z
-x,y,-z
1/2+x,1/2+y,z
1/2-x,1/2+y,-z
loop_
_atom_site_type_symbol
_atom_site_label
_atom_site_fract_x
_atom_site_fract_y
_atom_site_fract_z
Si Si1 0.830233 0.652780 0.881518
Si Si2 0.379090 0.637709 0.583355
Si Si3 0.881860 0.263812 0.116347
Si Si4 0.680447 0.067369 0.846975
Si Si5 0.886697 0.463261 0.624697
Si Si6 0.532020 0.321188 0.849443
Si Si7 0.670606 0.562779 0.647657
O O1 0.717004 0.729150 0.914167
O O2 0.865388 0.531567 0.766894
O O3 0.926955 0.766873 0.839957
O O4 0.806980 0.578672 0.020018
O O5 0.500000 0.568945 0.500000
O O6 0.302942 0.548599 0.719044
O O7 0.387601 0.794399 0.633226
O O8 0.329193 0.625090 0.483645
O O9 0.891344 0.429798 0.135188
O O10 0.856016 0.197234 0.257991
O O11 0.000000 0.206964 0.000000
O O12 0.619378 0.197143 0.821012
O O13 0.793079 0.507680 0.590719
O O14 0.000000 0.520751 0.500000
O O15 0.585462 0.438644 0.732605
O O16 0.500000 0.383579 0.000000
#
# Coordination Sequence:
#
# PCOD8050907 Si02
#       7
#     4   4   4   4   4   4   4
#     4  10  25  43  74  99 135 182 225 286 337 411
#     4  11  27  43  68  99 137 181 226 281 337 401
#     4  11  26  42  69 103 133 178 229 287 341 397
#     4  11  25  44  69 100 138 180 230 272 347 405
#     4  10  24  46  69  99 134 183 225 277 342 401
#     4  10  22  45  71 101 134 180 224 280 344 409
#     4  11  25  45  69 100 138 180 224 288 337 402
#
# _framework density 21.648736
#
# number of rings (size 3 to 8) (size 9 to 14) (size 15 to 20)
#    0.000    1.429    1.429    1.714   10.000    3.429 
#    2.571    0.000    0.000    0.000    0.000    0.000 
#    0.000    0.000    0.000    0.000    0.000    0.000 
#
# Total GULP energy -173608.607317 kJ/mol
# GULP energy per Si atom -12400.614808 kJ/mol
# Density = 2.159946 g / cm^3
# Si number density = 21.648736 Si / 1000 Ang^3
#
#
#
# Elastic Constant Matrix: (Units=GPa)
#
#
# Indices 1 2 3 4 5 6 
#
# 1 135.4496 22.5854 64.9672 0.0000 -12.9956 0.0000
# 2 22.5854 81.9652 28.3610 0.0000 5.1945 0.0000
# 3 64.9672 28.3610 102.9445 0.0000 -15.0607 0.0000
# 4 0.0000 0.0000 0.0000 12.8389 0.0000 2.0865
# 5 -12.9956 5.1945 -15.0607 0.0000 42.7474 0.0000
# 6 0.0000 0.0000 0.0000 2.0865 0.0000 20.5056
#
#
#
# Elastic Compliance Matrix: (Units=1/GPa)
#
#
# Indices 1 2 3 4 5 6 
#
# 1 0.010669 -0.000814 -0.006347 0.000000 0.001106 0.000000
# 2 -0.000814 0.013951 -0.003811 0.000000 -0.003285 0.000000
# 3 -0.006347 -0.003811 0.015346 0.000000 0.003940 0.000000
# 4 0.000000 0.000000 0.000000 0.079198 0.000000 -0.008059
# 5 0.001106 -0.003285 0.003940 0.000000 0.025517 0.000000
# 6 0.000000 0.000000 0.000000 -0.008059 0.000000 0.049587
#
#
# Mechanical properties :
#
#
# Convention : Reuss Voigt Hill
#
# Bulk Modulus (GPa) = 55.48425 61.35406 58.41915
# Shear Modulus (GPa) = 22.50036 28.84810 25.67423
#
# Velocity S-wave (km/s) = 3.22737 3.65438 3.44749
# Velocity P-wave (km/s) = 6.29070 6.79766 6.54909
#
# Compressibility (1/GPa) = 0.01802313
#
# Stress axis : x y z
#
# Youngs Moduli (GPa) = 93.73009 71.67816 65.16450
#
# Poissons Ratio (x) = 0.05833 0.41360
# Poissons Ratio (y) = 0.07627 0.24832
# Poissons Ratio (z) = 0.59491 0.27314
#
# Static dielectric constant tensor:
#      x y z
#    x 4.178680 0.000000 -0.286560 
#    y 0.000000 3.796740 0.000000 
#    z -0.286560 0.000000 4.042220 
# 
# 
# High freq. dielectric constant tensor:
#      x y z
#    x 1.862110 0.000000 -0.011670 
#    y 0.000000 1.847520 0.000000 
#    z -0.011670 0.000000 1.861930 
# 
# From -- ./inp_files/41876.got.cif
#   From: 2010.03.12/outbox.cif.g09.slc.cpg/sg5_21_cif.got.tgz:41876.got - 2010.03.31 09:47:26.
