data_PCOD8050965
_publ_section_title
;
Structure prediction by ZEFSAII (Michael W. Deem and Ramdas Pophale) SiO2 
 PCOD8050965
Probable space group: C 2
;
_chemical_formula_sum "Si O2"
_cell_formula_units_Z 20
_cell_length_a 11.970505
_cell_length_b 8.384104
_cell_length_c 16.279411
_cell_angle_alpha 90.000000
_cell_angle_beta 27.254481
_cell_angle_gamma 90.000000
_cell_volume 748.203372
_symmetry_space_group_name_H-M "C 2"
_symmetry_group_IT_number 5
_symmetry_cell_setting 'monoclinic'
loop_
_space_group_symop_operation_xyz
x,y,z
-x,y,-z
1/2+x,1/2+y,z
1/2-x,1/2+y,-z
loop_
_atom_site_type_symbol
_atom_site_label
_atom_site_fract_x
_atom_site_fract_y
_atom_site_fract_z
Si Si1 0.979223 0.522730 0.872216
Si Si2 0.000000 0.123506 0.500000
Si Si3 0.091309 0.721996 0.530942
Si Si4 0.723066 0.719779 0.906405
Si Si5 0.519861 0.868202 0.625672
Si Si6 0.500000 0.267444 0.000000
O O1 0.850895 0.572429 0.870235
O O2 0.273331 0.511583 0.673183
O O3 0.912585 0.656751 0.982358
O O4 0.868082 0.354622 0.971792
O O5 0.904224 0.232524 0.488611
O O6 0.347819 0.817076 0.375253
O O7 0.000000 0.757516 0.500000
O O8 0.910839 0.795281 0.717973
O O9 0.122446 0.533500 0.523928
O O10 0.500000 0.647449 0.000000
O O11 0.227743 0.878248 0.825527
#
# Coordination Sequence:
#
# PCOD8050965 Si02
#       6
#     4   2   4   4   4   2
#     4  11  26  52  82 117 171 211 274 339 413 490
#     4  10  22  52  86 118 166 212 270 342 420 478
#     4  12  30  52  85 119 165 217 284 336 408 489
#     4  12  30  51  81 123 162 216 277 336 407 489
#     4  11  26  51  82 119 162 218 267 343 409 482
#     4  10  26  46  84 116 172 212 262 342 416 482
#
# _framework density 26.730699999999999
#
# number of rings (size 3 to 8) (size 9 to 14) (size 15 to 20)
#    0.000    0.800    4.000    0.000    9.800    1.600 
#    3.600    0.000    0.000    0.000    0.000    0.000 
#    0.000    0.000    0.000    0.000    0.000    0.000 
#
# Total GULP energy -124066.291489 kJ/mol
# GULP energy per Si atom -12406.629149 kJ/mol
# Density = 2.666986 g / cm^3
# Si number density = 26.730700 Si / 1000 Ang^3
#
#
#
# Elastic Constant Matrix: (Units=GPa)
#
#
# Indices 1 2 3 4 5 6 
#
# 1 182.0251 46.3695 32.6613 -0.0057 -9.4472 0.0015
# 2 46.3695 132.8519 55.3104 -0.0031 -14.6445 0.0008
# 3 32.6613 55.3104 142.6297 -0.0113 -3.9872 0.0020
# 4 -0.0057 -0.0031 -0.0113 26.8858 0.0032 -3.1505
# 5 -9.4472 -14.6445 -3.9872 0.0032 43.5572 -0.0017
# 6 0.0015 0.0008 0.0020 -3.1505 -0.0017 31.8598
#
#
#
# Elastic Compliance Matrix: (Units=1/GPa)
#
#
# Indices 1 2 3 4 5 6 
#
# 1 0.006103 -0.001768 -0.000693 0.000001 0.000666 0.000000
# 2 -0.001768 0.009819 -0.003330 -0.000001 0.002613 0.000000
# 3 -0.000693 -0.003330 0.008447 0.000003 -0.000497 0.000000
# 4 0.000001 -0.000001 0.000003 0.037630 -0.000003 0.003721
# 5 0.000666 0.002613 -0.000497 -0.000003 0.023936 0.000001
# 6 0.000000 0.000000 0.000000 0.003721 0.000001 0.031756
#
#
# Mechanical properties :
#
#
# Convention : Reuss Voigt Hill
#
# Bulk Modulus (GPa) = 78.20558 80.68767 79.44663
# Shear Modulus (GPa) = 37.44338 42.00491 39.72415
#
# Velocity S-wave (km/s) = 3.74674 3.96840 3.85916
# Velocity P-wave (km/s) = 6.93093 7.15881 7.04579
#
# Compressibility (1/GPa) = 0.01278681
#
# Stress axis : x y z
#
# Youngs Moduli (GPa) = 163.85042 101.84798 118.38199
#
# Poissons Ratio (x) = 0.18008 0.08207
# Poissons Ratio (y) = 0.28971 0.39417
# Poissons Ratio (z) = 0.11360 0.33911
#
# Static dielectric constant tensor:
#      x y z
#    x 5.159080 0.000000 0.125250 
#    y 0.000000 4.610120 0.000010 
#    z 0.125250 0.000010 4.904600 
# 
# 
# High freq. dielectric constant tensor:
#      x y z
#    x 2.095880 0.000000 0.000870 
#    y 0.000000 2.086190 0.000000 
#    z 0.000870 0.000000 2.077110 
# 
# From -- ./inp_files/60286.got.cif
#   From: 2010.03.12/outbox.cif.g09.slc.cpg/sg5_31_cif.got.tgz:60286.got - 2010.03.31 09:47:26.
