data_PCOD8050164
_publ_section_title
;
Structure prediction by ZEFSAII (Michael W. Deem and Ramdas Pophale) SiO2 
 PCOD8050164
Probable space group: C 2
;
_chemical_formula_sum "Si O2"
_cell_formula_units_Z 20
_cell_length_a 7.329554
_cell_length_b 21.936048
_cell_length_c 5.459427
_cell_angle_alpha 90.000000
_cell_angle_beta 54.012891
_cell_angle_gamma 90.000000
_cell_volume 710.250617
_symmetry_space_group_name_H-M "C 2"
_symmetry_group_IT_number 5
_symmetry_cell_setting 'monoclinic'
loop_
_space_group_symop_operation_xyz
x,y,z
-x,y,-z
1/2+x,1/2+y,z
1/2-x,1/2+y,-z
loop_
_atom_site_type_symbol
_atom_site_label
_atom_site_fract_x
_atom_site_fract_y
_atom_site_fract_z
Si Si1 0.866178 0.626160 0.856984
Si Si2 0.742630 0.945204 0.448672
Si Si3 0.753343 0.805502 0.342440
Si Si4 0.249990 0.757292 0.158643
Si Si5 0.256316 0.495089 0.941640
O O1 0.719682 0.686662 0.933992
O O2 0.000000 0.612461 0.500000
O O3 0.714575 0.567099 0.035050
O O4 0.000000 0.639116 0.000000
O O5 0.741679 0.872682 0.464944
O O6 0.636257 0.979900 0.772869
O O7 0.998702 0.966481 0.248609
O O8 0.627726 0.963124 0.275218
O O9 0.500000 0.779876 0.500000
O O10 0.866720 0.763748 0.473640
O O11 0.864436 0.797637 0.977650
O O12 0.500000 0.785423 0.000000
#
# Coordination Sequence:
#
# PCOD8050164 Si02
#       5
#     4   4   4   4   4
#     4  12  26  46  66 103 140 177 236 286 333 399
#     4  10  21  41  65 101 129 179 225 273 342 405
#     4  10  21  41  67 101 138 173 227 281 338 407
#     4  10  23  44  69  98 135 187 221 275 344 404
#     4  10  23  41  63  97 133 180 222 277 340 395
#
# _framework density 28.159075000000001
#
# number of rings (size 3 to 8) (size 9 to 14) (size 15 to 20)
#    0.000    1.600    0.000    3.600    2.800    2.400 
#   28.800    0.000    0.000    0.000    0.000    0.000 
#    0.000    0.000    0.000    0.000    0.000    0.000 
#
# Total GULP energy -124028.236285 kJ/mol
# GULP energy per Si atom -12402.823628 kJ/mol
# Density = 2.809498 g / cm^3
# Si number density = 28.159075 Si / 1000 Ang^3
#
#
#
# Elastic Constant Matrix: (Units=GPa)
#
#
# Indices 1 2 3 4 5 6 
#
# 1 179.9951 38.2717 94.1431 0.0000 59.4973 0.0000
# 2 38.2717 207.2223 61.9904 0.0000 38.5965 0.0000
# 3 94.1431 61.9904 250.0138 0.0000 51.3122 0.0000
# 4 0.0000 0.0000 0.0000 56.7251 0.0000 14.0105
# 5 59.4973 38.5965 51.3122 0.0000 59.1971 0.0000
# 6 0.0000 0.0000 0.0000 14.0105 0.0000 34.9403
#
#
#
# Elastic Compliance Matrix: (Units=1/GPa)
#
#
# Indices 1 2 3 4 5 6 
#
# 1 0.008997 0.000325 -0.001909 0.000000 -0.007600 0.000000
# 2 0.000325 0.005627 -0.000848 0.000000 -0.003260 0.000000
# 3 -0.001909 -0.000848 0.005378 0.000000 -0.002191 0.000000
# 4 0.000000 0.000000 0.000000 0.019567 0.000000 -0.007846
# 5 -0.007600 -0.003260 -0.002191 0.000000 0.028556 0.000000
# 6 0.000000 0.000000 0.000000 -0.007846 0.000000 0.031766
#
#
# Mechanical properties :
#
#
# Convention : Reuss Voigt Hill
#
# Bulk Modulus (GPa) = 66.05933 114.00460 90.03196
# Shear Modulus (GPa) = 45.53681 59.69422 52.61551
#
# Velocity S-wave (km/s) = 4.02571 4.60922 4.32732
# Velocity P-wave (km/s) = 6.71705 8.30063 7.55047
#
# Compressibility (1/GPa) = 0.01513791
#
# Stress axis : x y z
#
# Youngs Moduli (GPa) = 111.14655 177.72453 185.92831
#
# Poissons Ratio (x) = -0.05774 0.35486
# Poissons Ratio (y) = -0.03611 0.15775
# Poissons Ratio (z) = 0.21213 0.15079
#
# Static dielectric constant tensor:
#      x y z
#    x 6.831370 0.000000 2.375830 
#    y 0.000000 4.848070 0.000000 
#    z 2.375830 0.000000 9.236210 
# 
# 
# High freq. dielectric constant tensor:
#      x y z
#    x 2.222960 0.000000 0.002400 
#    y 0.000000 2.109050 0.000000 
#    z 0.002400 0.000000 2.208970 
# 
# From -- ./inp_files/2796.got.cif
#   From: 2010.03.12/outbox.cif.g09.slc.cpg/sg5_2_cif.got.tgz:2796.got - 2010.03.31 09:47:26.
