data_PCOD8050263
_publ_section_title
;
Structure prediction by ZEFSAII (Michael W. Deem and Ramdas Pophale) SiO2 
 PCOD8050263
Probable space group: C 2
;
_chemical_formula_sum "Si O2"
_cell_formula_units_Z 26
_cell_length_a 11.734362
_cell_length_b 9.079944
_cell_length_c 28.914773
_cell_angle_alpha 90.000000
_cell_angle_beta 25.888975
_cell_angle_gamma 90.000000
_cell_volume 1345.162350
_symmetry_space_group_name_H-M "C 2"
_symmetry_group_IT_number 5
_symmetry_cell_setting 'monoclinic'
loop_
_space_group_symop_operation_xyz
x,y,z
-x,y,-z
1/2+x,1/2+y,z
1/2-x,1/2+y,-z
loop_
_atom_site_type_symbol
_atom_site_label
_atom_site_fract_x
_atom_site_fract_y
_atom_site_fract_z
Si Si1 0.439369 0.865090 0.877283
Si Si2 0.797418 0.769484 0.309135
Si Si3 0.033283 0.977341 0.288834
Si Si4 0.276331 0.281607 0.213181
Si Si5 0.708949 0.638458 0.000704
Si Si6 0.189769 0.514656 0.167331
Si Si7 0.500000 0.866604 0.500000
O O1 0.352083 0.701867 0.925511
O O2 0.307279 0.900322 0.876405
O O3 0.751496 0.886061 0.760174
O O4 0.335498 0.975521 0.955754
O O5 0.690626 0.809221 0.297347
O O6 0.557326 0.766218 0.433628
O O7 0.925215 0.607804 0.262607
O O8 0.002489 0.896143 0.250310
O O9 0.111780 0.146120 0.252116
O O10 0.755285 0.967791 0.417318
O O11 0.213354 0.425850 0.206594
O O12 0.585509 0.243749 0.100912
O O13 0.435337 0.625643 0.072941
#
# Coordination Sequence:
#
# PCOD8050263 Si02
#       7
#     4   4   4   4   4   4   2
#     4  11  22  38  63  90 129 165 208 250 303 375
#     4  10  21  43  64  85 124 162 207 263 312 368
#     4   9  20  42  62  86 121 164 203 259 310 360
#     4  11  24  38  61  97 126 160 209 253 310 374
#     4  11  21  36  60  91 126 173 192 243 308 359
#     4  12  23  39  64  95 130 163 208 256 304 373
#     4   8  20  44  68  84 118 168 210 262 322 366
#
# _framework density 19.328522
#
# number of rings (size 3 to 8) (size 9 to 14) (size 15 to 20)
#    0.923    0.615    6.154    0.462    0.000    1.231 
#    2.769    3.846    0.000    0.000    0.000    0.000 
#    0.000    0.000    0.000    0.000    0.000    0.000 
#
# Total GULP energy -161071.784621 kJ/mol
# GULP energy per Si atom -12390.137279 kJ/mol
# Density = 1.928453 g / cm^3
# Si number density = 19.328522 Si / 1000 Ang^3
#
#
#
# Elastic Constant Matrix: (Units=GPa)
#
#
# Indices 1 2 3 4 5 6 
#
# 1 115.5722 53.6123 39.5901 -0.0339 20.9420 0.0068
# 2 53.6123 71.2050 32.6982 0.0352 11.7276 -0.0054
# 3 39.5901 32.6982 115.5004 -0.0815 0.1555 0.0487
# 4 -0.0339 0.0352 -0.0815 22.9506 0.0403 4.4223
# 5 20.9420 11.7276 0.1555 0.0403 28.4442 0.0009
# 6 0.0068 -0.0054 0.0487 4.4223 0.0009 37.8125
#
#
#
# Elastic Compliance Matrix: (Units=1/GPa)
#
#
# Indices 1 2 3 4 5 6 
#
# 1 0.015005 -0.008881 -0.002619 0.000040 -0.007372 -0.000005
# 2 -0.008881 0.022755 -0.003394 -0.000058 -0.002824 0.000016
# 3 -0.002619 -0.003394 0.010512 0.000036 0.003270 -0.000018
# 4 0.000040 -0.000058 0.000036 0.044577 -0.000069 -0.005213
# 5 -0.007372 -0.002824 0.003270 -0.000069 0.041731 0.000004
# 6 -0.000005 0.000016 -0.000018 -0.005213 0.000004 0.027056
#
#
# Mechanical properties :
#
#
# Convention : Reuss Voigt Hill
#
# Bulk Modulus (GPa) = 54.10156 61.56430 57.83293
# Shear Modulus (GPa) = 25.30549 29.59992 27.45270
#
# Velocity S-wave (km/s) = 3.62225 3.91757 3.77280
# Velocity P-wave (km/s) = 6.74875 7.23767 6.99748
#
# Compressibility (1/GPa) = 0.01848376
#
# Stress axis : x y z
#
# Youngs Moduli (GPa) = 66.64234 43.94732 95.12758
#
# Poissons Ratio (x) = 0.39030 0.24916
# Poissons Ratio (y) = 0.59186 0.32285
# Poissons Ratio (z) = 0.17455 0.14915
#
# Static dielectric constant tensor:
#      x y z
#    x 3.350600 0.000080 -0.078100 
#    y 0.000080 3.428430 -0.000160 
#    z -0.078100 -0.000160 3.513410 
# 
# 
# High freq. dielectric constant tensor:
#      x y z
#    x 1.738870 0.000000 -0.006980 
#    y 0.000000 1.739280 0.000000 
#    z -0.006980 0.000000 1.743600 
# 
# From -- ./inp_files/71660.got.cif
#   From: 2010.03.12/outbox.cif.g09.slc.cpg/sg5_36_cif.got.tgz:71660.got - 2010.03.31 09:47:26.
