data_PCOD8050117
_publ_section_title
;
Structure prediction by ZEFSAII (Michael W. Deem and Ramdas Pophale) SiO2 
 PCOD8050117
Probable space group: C 2
;
_chemical_formula_sum "Si O2"
_cell_formula_units_Z 18
_cell_length_a 13.431393
_cell_length_b 9.399028
_cell_length_c 7.011682
_cell_angle_alpha 90.000000
_cell_angle_beta 110.541697
_cell_angle_gamma 90.000000
_cell_volume 828.887398
_symmetry_space_group_name_H-M "C 2"
_symmetry_group_IT_number 5
_symmetry_cell_setting 'monoclinic'
loop_
_space_group_symop_operation_xyz
x,y,z
-x,y,-z
1/2+x,1/2+y,z
1/2-x,1/2+y,-z
loop_
_atom_site_type_symbol
_atom_site_label
_atom_site_fract_x
_atom_site_fract_y
_atom_site_fract_z
Si Si1 0.084259 0.066450 0.904319
Si Si2 0.000000 0.899400 0.500000
Si Si3 0.270558 0.290403 0.405742
Si Si4 0.265091 0.975804 0.263692
Si Si5 0.385293 0.871631 0.017066
O O1 0.021024 0.001376 0.689208
O O2 0.135215 0.219653 0.891022
O O3 0.000000 0.118117 0.000000
O O4 0.165218 0.954084 0.053149
O O5 0.102846 0.804738 0.529023
O O6 0.231728 0.344740 0.586616
O O7 0.205450 0.384285 0.207660
O O8 0.248356 0.122530 0.368844
O O9 0.365555 0.979028 0.183473
O O10 0.500000 0.904682 0.000000
#
# Coordination Sequence:
#
# PCOD8050117 Si02
#       5
#     4   2   4   4   4
#     4  10  21  40  68 100 131 179 224 276 332 406
#     4  12  22  42  68 102 132 178 224 274 346 400
#     4  11  26  41  70 103 136 181 223 278 344 397
#     4  11  24  44  67 106 140 173 225 282 340 402
#     4  10  24  43  67  99 139 180 225 277 335 400
#
# _framework density 21.715858000000001
#
# number of rings (size 3 to 8) (size 9 to 14) (size 15 to 20)
#    0.000    1.333    4.444    0.000    3.111    2.667 
#    0.000    1.111    0.000    0.000    0.000    0.000 
#    0.000    0.000    0.000    0.000    0.000    0.000 
#
# Total GULP energy -111524.842285 kJ/mol
# GULP energy per Si atom -12391.649143 kJ/mol
# Density = 2.166643 g / cm^3
# Si number density = 21.715858 Si / 1000 Ang^3
#
#
#
# Elastic Constant Matrix: (Units=GPa)
#
#
# Indices 1 2 3 4 5 6 
#
# 1 130.1679 20.4632 60.2701 0.0000 -4.3783 0.0000
# 2 20.4632 68.0528 57.8303 0.0000 -8.0248 0.0000
# 3 60.2701 57.8303 139.3143 0.0000 0.7818 0.0000
# 4 0.0000 0.0000 0.0000 51.1846 0.0000 -6.8674
# 5 -4.3783 -8.0248 0.7818 0.0000 45.9575 0.0000
# 6 0.0000 0.0000 0.0000 -6.8674 0.0000 29.6335
#
#
#
# Elastic Compliance Matrix: (Units=1/GPa)
#
#
# Indices 1 2 3 4 5 6 
#
# 1 0.009716 0.001236 -0.004724 0.000000 0.001222 0.000000
# 2 0.001236 0.023670 -0.010385 0.000000 0.004428 0.000000
# 3 -0.004724 -0.010385 0.013547 0.000000 -0.002494 0.000000
# 4 0.000000 0.000000 0.000000 0.020164 0.000000 0.004673
# 5 0.001222 0.004428 -0.002494 0.000000 0.022691 0.000000
# 6 0.000000 0.000000 0.000000 0.004673 0.000000 0.034829
#
#
# Mechanical properties :
#
#
# Convention : Reuss Voigt Hill
#
# Bulk Modulus (GPa) = 52.11602 68.29579 60.20591
# Shear Modulus (GPa) = 31.49453 38.61987 35.05720
#
# Velocity S-wave (km/s) = 3.81241 4.22170 4.02227
# Velocity P-wave (km/s) = 6.59018 7.43517 7.02539
#
# Compressibility (1/GPa) = 0.01918796
#
# Stress axis : x y z
#
# Youngs Moduli (GPa) = 102.92093 42.24725 73.81942
#
# Poissons Ratio (x) = -0.05224 0.34869
# Poissons Ratio (y) = -0.12726 0.76665
# Poissons Ratio (z) = 0.48615 0.43876
#
# Static dielectric constant tensor:
#      x y z
#    x 4.068740 0.000000 0.047520 
#    y 0.000000 3.640720 0.000000 
#    z 0.047520 0.000000 4.004500 
# 
# 
# High freq. dielectric constant tensor:
#      x y z
#    x 1.860060 0.000000 0.000500 
#    y 0.000000 1.831970 0.000000 
#    z 0.000500 0.000000 1.865980 
# 
# From -- ./inp_files/4428.got.cif
#   From: 2010.03.12/outbox.cif.g09.slc.cpg/sg5_3_cif.got.tgz:4428.got - 2010.03.31 09:47:26.
