data_PCOD8050990
_publ_section_title
;
Structure prediction by ZEFSAII (Michael W. Deem and Ramdas Pophale) SiO2 
 PCOD8050990
Probable space group: C 2
;
_chemical_formula_sum "Si O2"
_cell_formula_units_Z 32
_cell_length_a 21.017073
_cell_length_b 9.129632
_cell_length_c 14.100678
_cell_angle_alpha 90.000000
_cell_angle_beta 147.960853
_cell_angle_gamma 90.000000
_cell_volume 1435.323228
_symmetry_space_group_name_H-M "C 2"
_symmetry_group_IT_number 5
_symmetry_cell_setting 'monoclinic'
loop_
_space_group_symop_operation_xyz
x,y,z
-x,y,-z
1/2+x,1/2+y,z
1/2-x,1/2+y,-z
loop_
_atom_site_type_symbol
_atom_site_label
_atom_site_fract_x
_atom_site_fract_y
_atom_site_fract_z
Si Si1 0.796181 0.876510 0.582717
Si Si2 0.637296 0.093946 0.054966
Si Si3 0.366454 0.080631 0.725962
Si Si4 0.638532 0.574287 0.157721
Si Si5 0.915371 0.585449 0.310890
Si Si6 0.290403 0.324001 0.273331
Si Si7 0.017166 0.831533 0.335195
Si Si8 0.802772 0.897877 0.955934
O O1 0.772383 0.706535 0.575503
O O2 0.807060 0.973063 0.691123
O O3 0.922086 0.870157 0.687587
O O4 0.688911 0.928124 0.379321
O O5 0.632125 0.098691 0.160873
O O6 0.703567 0.230254 0.088840
O O7 0.711406 0.948296 0.122427
O O8 0.498665 0.092049 0.846618
O O9 0.710758 0.727267 0.245959
O O10 0.652976 0.495845 0.075344
O O11 0.500000 0.610033 0.000000
O O12 0.841843 0.726299 0.254281
O O13 0.826693 0.454097 0.169486
O O14 0.000000 0.520603 0.500000
O O15 0.993875 0.654653 0.323770
O O16 0.402007 0.392240 0.475406
O O17 0.889080 0.911544 0.157273
#
# Coordination Sequence:
#
# PCOD8050990 Si02
#       8
#     4   4   4   4   4   4   4   4
#     4  12  22  39  64  98 135 177 210 266 329 402
#     4  11  22  40  60  96 132 168 212 266 330 386
#     4  11  24  38  61  94 137 172 211 260 328 403
#     4  11  21  36  62  97 133 177 211 255 331 411
#     4   9  23  46  67  86 123 172 227 274 328 382
#     4  10  23  40  64  93 130 172 214 272 326 393
#     4  11  21  41  64  94 123 166 219 274 324 375
#     4  11  22  42  68  90 128 175 221 272 335 389
#
# _framework density 22.294629
#
# number of rings (size 3 to 8) (size 9 to 14) (size 15 to 20)
#    0.000    1.250    5.000    0.750    1.750    1.000 
#    0.000    3.125    0.000    0.000    0.000    0.000 
#    0.000    0.000    0.000    0.000    0.000    0.000 
#
# Total GULP energy -198266.344429 kJ/mol
# GULP energy per Si atom -12391.646527 kJ/mol
# Density = 2.224389 g / cm^3
# Si number density = 22.294629 Si / 1000 Ang^3
#
#
#
# Elastic Constant Matrix: (Units=GPa)
#
#
# Indices 1 2 3 4 5 6 
#
# 1 37.8836 15.3103 17.8067 0.0000 0.1503 0.0000
# 2 15.3103 107.9448 63.5052 0.0000 10.5256 0.0000
# 3 17.8067 63.5052 128.6327 0.0000 10.9474 0.0000
# 4 0.0000 0.0000 0.0000 36.3107 0.0000 9.8595
# 5 0.1503 10.5256 10.9474 0.0000 25.3731 0.0000
# 6 0.0000 0.0000 0.0000 9.8595 0.0000 39.1031
#
#
#
# Elastic Compliance Matrix: (Units=1/GPa)
#
#
# Indices 1 2 3 4 5 6 
#
# 1 0.028794 -0.002595 -0.002888 0.000000 0.002152 0.000000
# 2 -0.002595 0.013475 -0.006041 0.000000 -0.002968 0.000000
# 3 -0.002888 -0.006041 0.011359 0.000000 -0.002378 0.000000
# 4 0.000000 0.000000 0.000000 0.029564 0.000000 -0.007454
# 5 0.002152 -0.002968 -0.002378 0.000000 0.041656 0.000000
# 6 0.000000 0.000000 0.000000 -0.007454 0.000000 0.027453
#
#
# Mechanical properties :
#
#
# Convention : Reuss Voigt Hill
#
# Bulk Modulus (GPa) = 32.70040 51.96728 42.33384
# Shear Modulus (GPa) = 26.94796 32.01330 29.48063
#
# Velocity S-wave (km/s) = 3.48044 3.79346 3.64032
# Velocity P-wave (km/s) = 5.55432 6.52281 6.05795
#
# Compressibility (1/GPa) = 0.03058066
#
# Stress axis : x y z
#
# Youngs Moduli (GPa) = 34.72916 74.20936 88.03902
#
# Poissons Ratio (x) = 0.19255 0.25427
# Poissons Ratio (y) = 0.09011 0.53184
# Poissons Ratio (z) = 0.10030 0.44829
#
# Static dielectric constant tensor:
#      x y z
#    x 4.073290 0.000000 0.145770 
#    y 0.000000 3.989610 0.000000 
#    z 0.145770 0.000000 4.198520 
# 
# 
# High freq. dielectric constant tensor:
#      x y z
#    x 1.877230 0.000000 -0.006550 
#    y 0.000000 1.857730 0.000000 
#    z -0.006550 0.000000 1.888240 
# 
# From -- ./inp_files/57726.got.cif
#   From: 2010.03.12/outbox.cif.g09.slc.cpg/sg5_29_cif.got.tgz:57726.got - 2010.03.31 09:47:26.
