data_PCOD8050535
_publ_section_title
;
Structure prediction by ZEFSAII (Michael W. Deem and Ramdas Pophale) SiO2 
 PCOD8050535
Probable space group: C 2
;
_chemical_formula_sum "Si O2"
_cell_formula_units_Z 32
_cell_length_a 14.608317
_cell_length_b 21.874548
_cell_length_c 8.967548
_cell_angle_alpha 90.000000
_cell_angle_beta 30.505323
_cell_angle_gamma 90.000000
_cell_volume 1454.622652
_symmetry_space_group_name_H-M "C 2"
_symmetry_group_IT_number 5
_symmetry_cell_setting 'monoclinic'
loop_
_space_group_symop_operation_xyz
x,y,z
-x,y,-z
1/2+x,1/2+y,z
1/2-x,1/2+y,-z
loop_
_atom_site_type_symbol
_atom_site_label
_atom_site_fract_x
_atom_site_fract_y
_atom_site_fract_z
Si Si1 0.647264 0.429470 0.406925
Si Si2 0.036922 0.689137 0.112986
Si Si3 0.131067 0.587784 0.187580
Si Si4 0.497963 0.980397 0.832008
Si Si5 0.637666 0.676539 0.670171
Si Si6 0.310434 0.392420 0.341202
Si Si7 0.522857 0.566039 0.639610
Si Si8 0.656780 0.774683 0.399869
O O1 0.500000 0.404707 0.500000
O O2 0.654248 0.380899 0.532118
O O3 0.605422 0.498159 0.527008
O O4 0.836159 0.430583 0.052587
O O5 0.833791 0.694585 0.464933
O O6 0.161457 0.643958 0.032780
O O7 0.000000 0.662772 0.000000
O O8 0.153715 0.751606 0.939137
O O9 0.035673 0.534654 0.232017
O O10 0.000000 0.610568 0.500000
O O11 0.320400 0.565945 0.991080
O O12 0.682335 0.951443 0.514281
O O13 0.500000 0.004057 0.000000
O O14 0.641499 0.611462 0.575961
O O15 0.580297 0.727142 0.628983
O O16 0.500000 0.675288 0.000000
O O17 0.206438 0.336987 0.412295
O O18 0.500000 0.408249 0.000000
O O19 0.500000 0.588383 0.500000
O O20 0.500000 0.786609 0.500000
#
# Coordination Sequence:
#
# PCOD8050535 Si02
#       8
#     4   4   4   4   4   4   4   4
#     4  10  22  42  67  96 139 184 227 277 351 424
#     4  10  22  40  66  93 135 180 225 274 347 419
#     4  12  23  35  61 102 143 173 227 278 340 408
#     4  10  23  41  62  92 135 185 223 272 346 412
#     4  11  23  39  67 102 137 175 231 291 350 399
#     4  11  26  44  70  99 133 176 247 294 345 400
#     4  11  21  39  63  96 141 186 223 267 350 433
#     4  11  25  48  73  94 131 188 239 290 350 425
#
# _framework density 21.998833000000001
#
# number of rings (size 3 to 8) (size 9 to 14) (size 15 to 20)
#    0.000    1.250    2.500    4.875    5.250    3.500 
#    0.000    0.000    0.000    3.750    0.000    0.000 
#    0.000    0.000    0.000    0.000    0.000    0.000 
#
# Total GULP energy -198310.062658 kJ/mol
# GULP energy per Si atom -12394.378916 kJ/mol
# Density = 2.194876 g / cm^3
# Si number density = 21.998833 Si / 1000 Ang^3
#
#
#
# Elastic Constant Matrix: (Units=GPa)
#
#
# Indices 1 2 3 4 5 6 
#
# 1 128.3466 49.2171 35.6606 -0.0011 -17.7242 0.0023
# 2 49.2171 78.5404 27.1483 -0.0004 2.4848 0.0013
# 3 35.6606 27.1483 124.1943 -0.0006 -7.2957 0.0028
# 4 -0.0011 -0.0004 -0.0006 13.4674 0.0019 6.7830
# 5 -17.7242 2.4848 -7.2957 0.0019 34.4951 -0.0029
# 6 0.0023 0.0013 0.0028 6.7830 -0.0029 8.1021
#
#
#
# Elastic Compliance Matrix: (Units=1/GPa)
#
#
# Indices 1 2 3 4 5 6 
#
# 1 0.011772 -0.007067 -0.001468 -0.000001 0.006247 0.000001
# 2 -0.007067 0.018109 -0.002247 0.000003 -0.005411 -0.000004
# 3 -0.001468 -0.002247 0.009042 0.000002 0.001320 -0.000003
# 4 -0.000001 0.000003 0.000002 0.128390 -0.000016 -0.107487
# 5 0.006247 -0.005411 0.001320 -0.000016 0.032868 0.000024
# 6 0.000001 -0.000004 -0.000003 -0.107487 0.000024 0.213412
#
#
# Mechanical properties :
#
#
# Convention : Reuss Voigt Hill
#
# Bulk Modulus (GPa) = 57.61029 61.68148 59.64589
# Shear Modulus (GPa) = 11.33929 25.81661 18.57795
#
# Velocity S-wave (km/s) = 2.27281 3.42942 2.90918
# Velocity P-wave (km/s) = 5.75607 6.61669 6.20133
#
# Compressibility (1/GPa) = 0.01735801
#
# Stress axis : x y z
#
# Youngs Moduli (GPa) = 84.94661 55.22183 110.59163
#
# Poissons Ratio (x) = 0.39025 0.16239
# Poissons Ratio (y) = 0.60032 0.24852
# Poissons Ratio (z) = 0.12473 0.12409
#
# Static dielectric constant tensor:
#      x y z
#    x 4.428990 0.000000 -0.252940 
#    y 0.000000 3.629520 0.000000 
#    z -0.252940 0.000000 4.330150 
# 
# 
# High freq. dielectric constant tensor:
#      x y z
#    x 1.872980 0.000000 -0.017280 
#    y 0.000000 1.836660 0.000000 
#    z -0.017280 0.000000 1.879420 
# 
# From -- ./inp_files/25564.got.cif
#   From: 2010.03.12/outbox.cif.g09.slc.cpg/sg5_13_cif.got.tgz:25564.got - 2010.03.31 09:47:26.
