data_PCOD8050125
_publ_section_title
;
Structure prediction by ZEFSAII (Michael W. Deem and Ramdas Pophale) SiO2 
 PCOD8050125
Probable space group: C 2
;
_chemical_formula_sum "Si O2"
_cell_formula_units_Z 32
_cell_length_a 17.264398
_cell_length_b 14.456717
_cell_length_c 12.040550
_cell_angle_alpha 90.000000
_cell_angle_beta 29.986767
_cell_angle_gamma 90.000000
_cell_volume 1501.978341
_symmetry_space_group_name_H-M "C 2"
_symmetry_group_IT_number 5
_symmetry_cell_setting 'monoclinic'
loop_
_space_group_symop_operation_xyz
x,y,z
-x,y,-z
1/2+x,1/2+y,z
1/2-x,1/2+y,-z
loop_
_atom_site_type_symbol
_atom_site_label
_atom_site_fract_x
_atom_site_fract_y
_atom_site_fract_z
Si Si1 0.436502 0.121120 0.961986
Si Si2 0.983923 0.019149 0.830777
Si Si3 0.196249 0.567002 0.481048
Si Si4 0.146829 0.185347 0.877593
Si Si5 0.347530 0.514254 0.760210
Si Si6 0.902296 0.388681 0.513934
Si Si7 0.862662 0.819810 0.020607
Si Si8 0.181393 0.331193 0.023913
O O1 0.534740 0.073272 0.744193
O O2 0.466982 0.231243 0.918422
O O3 0.500000 0.083154 0.000000
O O4 0.255073 0.096613 0.166321
O O5 0.903078 0.040295 0.814055
O O6 0.164713 0.047713 0.603849
O O7 0.965741 0.912630 0.891636
O O8 0.899696 0.083403 0.023949
O O9 0.222216 0.661989 0.377487
O O10 0.183996 0.480308 0.415977
O O11 0.201745 0.250638 0.908279
O O12 0.000000 0.234009 0.000000
O O13 0.500000 0.494364 0.500000
O O14 0.237293 0.424944 0.896376
O O15 0.000000 0.418445 0.500000
O O16 0.005440 0.342031 0.288317
O O17 0.769477 0.318835 0.720088
O O18 0.791303 0.804252 0.988123
#
# Coordination Sequence:
#
# PCOD8050125 Si02
#       8
#     4   4   4   4   4   4   4   4
#     4  12  27  42  65 104 138 172 222 278 336 397
#     4  10  22  43  67  95 130 176 225 275 329 391
#     4  11  23  43  69  97 129 177 225 274 326 390
#     4  10  22  39  66  97 133 168 221 271 333 385
#     4  11  24  44  65  89 137 183 215 267 343 406
#     4  10  21  40  69  97 130 176 222 273 329 389
#     4  10  23  40  69  96 131 174 225 277 325 395
#     4  10  22  42  64 101 131 171 223 272 335 393
#
# _framework density 21.305233000000001
#
# number of rings (size 3 to 8) (size 9 to 14) (size 15 to 20)
#    0.000    1.500    2.500    1.500    1.750    8.000 
#    2.250    0.000    0.000    0.000    0.000    0.000 
#    0.000    0.000    0.000    0.000    0.000    0.000 
#
# Total GULP energy -198399.130141 kJ/mol
# GULP energy per Si atom -12399.945634 kJ/mol
# Density = 2.125674 g / cm^3
# Si number density = 21.305233 Si / 1000 Ang^3
#
#
#
# Elastic Constant Matrix: (Units=GPa)
#
#
# Indices 1 2 3 4 5 6 
#
# 1 90.8605 40.6416 35.9168 0.0000 3.7338 0.0000
# 2 40.6416 91.9922 23.9187 0.0000 2.5640 0.0000
# 3 35.9168 23.9187 105.8528 0.0000 5.3389 0.0000
# 4 0.0000 0.0000 0.0000 17.8338 0.0000 6.6180
# 5 3.7338 2.5640 5.3389 0.0000 26.1594 0.0000
# 6 0.0000 0.0000 0.0000 6.6180 0.0000 30.2578
#
#
#
# Elastic Compliance Matrix: (Units=1/GPa)
#
#
# Indices 1 2 3 4 5 6 
#
# 1 0.015065 -0.005646 -0.003794 0.000000 -0.000822 0.000000
# 2 -0.005646 0.013675 -0.001159 0.000000 -0.000298 0.000000
# 3 -0.003794 -0.001159 0.011077 0.000000 -0.001606 0.000000
# 4 0.000000 0.000000 0.000000 0.061026 0.000000 -0.013348
# 5 -0.000822 -0.000298 -0.001606 0.000000 0.038702 0.000000
# 6 0.000000 0.000000 0.000000 -0.013348 0.000000 0.035969
#
#
# Mechanical properties :
#
#
# Convention : Reuss Voigt Hill
#
# Bulk Modulus (GPa) = 53.71216 54.40662 54.05939
# Shear Modulus (GPa) = 24.64033 27.39876 26.01955
#
# Velocity S-wave (km/s) = 3.40448 3.58999 3.49847
# Velocity P-wave (km/s) = 6.38118 6.54035 6.46126
#
# Compressibility (1/GPa) = 0.01861776
#
# Stress axis : x y z
#
# Youngs Moduli (GPa) = 66.37853 73.12821 90.27337
#
# Poissons Ratio (x) = 0.41289 0.34254
# Poissons Ratio (y) = 0.37478 0.10464
# Poissons Ratio (z) = 0.25187 0.08476
#
# Static dielectric constant tensor:
#      x y z
#    x 4.081160 0.000000 0.034820 
#    y 0.000000 3.624730 0.000000 
#    z 0.034820 0.000000 3.869230 
# 
# 
# High freq. dielectric constant tensor:
#      x y z
#    x 1.844010 0.000000 0.003810 
#    y 0.000000 1.826990 0.000000 
#    z 0.003810 0.000000 1.836320 
# 
# From -- ./inp_files/44955.got.cif
#   From: 2010.03.12/outbox.cif.g09.slc.cpg/sg5_23_cif.got.tgz:44955.got - 2010.03.31 09:47:26.
