data_PCOD8050356
_publ_section_title
;
Structure prediction by ZEFSAII (Michael W. Deem and Ramdas Pophale) SiO2 
 PCOD8050356
Probable space group: C 2
;
_chemical_formula_sum "Si O2"
_cell_formula_units_Z 28
_cell_length_a 21.716022
_cell_length_b 6.089472
_cell_length_c 11.467471
_cell_angle_alpha 90.000000
_cell_angle_beta 106.387398
_cell_angle_gamma 90.000000
_cell_volume 1454.844024
_symmetry_space_group_name_H-M "C 2"
_symmetry_group_IT_number 5
_symmetry_cell_setting 'monoclinic'
loop_
_space_group_symop_operation_xyz
x,y,z
-x,y,-z
1/2+x,1/2+y,z
1/2-x,1/2+y,-z
loop_
_atom_site_type_symbol
_atom_site_label
_atom_site_fract_x
_atom_site_fract_y
_atom_site_fract_z
Si Si1 0.099009 0.708030 0.671594
Si Si2 0.168680 0.656576 0.362157
Si Si3 0.894510 0.334809 0.507521
Si Si4 0.445444 0.113279 0.103582
Si Si5 0.573921 0.342379 0.136198
Si Si6 0.200852 0.960522 0.593418
Si Si7 0.000000 0.228097 0.000000
Si Si8 0.000000 0.019855 0.500000
O O1 0.090798 0.485766 0.595425
O O2 0.098023 0.635031 0.805305
O O3 0.166198 0.831799 0.680889
O O4 0.040868 0.871734 0.609938
O O5 0.115553 0.487779 0.384640
O O6 0.136041 0.819738 0.251439
O O7 0.198382 0.805254 0.479352
O O8 0.225559 0.513543 0.333721
O O9 0.831226 0.194247 0.449444
O O10 0.954301 0.169521 0.557457
O O11 0.515504 0.213303 0.164979
O O12 0.409108 0.241852 0.980966
O O13 0.456700 0.864287 0.068019
O O14 0.551050 0.591313 0.104372
#
# Coordination Sequence:
#
# PCOD8050356 Si02
#       8
#     4   4   4   4   4   4   2   2
#     4  10  22  38  57  86 125 151 200 247 294 359
#     4  11  21  40  61  87 121 154 208 244 290 363
#     4  10  22  36  56  87 120 157 188 244 304 351
#     4   9  20  39  58  89 122 148 197 247 294 364
#     4   9  21  36  61  89 116 153 201 244 296 354
#     4  10  22  38  60  86 117 163 196 244 296 346
#     4   8  18  40  54  92 118 158 188 240 320 342
#     4  10  22  36  54  96 116 156 192 234 320 356
#
# _framework density 19.246051000000001
#
# number of rings (size 3 to 8) (size 9 to 14) (size 15 to 20)
#    0.000    2.571    1.429    0.429    8.000    6.857 
#    2.571    0.000    3.143    0.000    0.000    0.000 
#    0.000    0.000    0.000    0.000    0.000    0.000 
#
# Total GULP energy -173561.363383 kJ/mol
# GULP energy per Si atom -12397.240242 kJ/mol
# Density = 1.920225 g / cm^3
# Si number density = 19.246051 Si / 1000 Ang^3
#
#
#
# Elastic Constant Matrix: (Units=GPa)
#
#
# Indices 1 2 3 4 5 6 
#
# 1 92.1035 24.5521 47.5421 0.0000 -11.4760 0.0000
# 2 24.5521 93.8671 20.7432 0.0000 -8.5714 0.0000
# 3 47.5421 20.7432 77.9031 0.0000 -15.5720 0.0000
# 4 0.0000 0.0000 0.0000 14.5633 0.0000 0.7691
# 5 -11.4760 -8.5714 -15.5720 0.0000 28.9293 0.0000
# 6 0.0000 0.0000 0.0000 0.7691 0.0000 28.9022
#
#
#
# Elastic Compliance Matrix: (Units=1/GPa)
#
#
# Indices 1 2 3 4 5 6 
#
# 1 0.016283 -0.002148 -0.009190 0.000000 0.000876 0.000000
# 2 -0.002148 0.011701 -0.001437 0.000000 0.001841 0.000000
# 3 -0.009190 -0.001437 0.020185 0.000000 0.006794 0.000000
# 4 0.000000 0.000000 0.000000 0.068762 0.000000 -0.001830
# 5 0.000876 0.001841 0.006794 0.000000 0.039117 0.000000
# 6 0.000000 0.000000 0.000000 -0.001830 0.000000 0.034648
#
#
# Mechanical properties :
#
#
# Convention : Reuss Voigt Hill
#
# Bulk Modulus (GPa) = 44.20880 49.94984 47.07932
# Shear Modulus (GPa) = 22.34279 25.88138 24.11208
#
# Velocity S-wave (km/s) = 3.41090 3.67108 3.54338
# Velocity P-wave (km/s) = 6.20745 6.63165 6.42305
#
# Compressibility (1/GPa) = 0.02261993
#
# Stress axis : x y z
#
# Youngs Moduli (GPa) = 61.41468 85.46398 49.54087
#
# Poissons Ratio (x) = 0.18359 0.45527
# Poissons Ratio (y) = 0.13193 0.07117
# Poissons Ratio (z) = 0.56439 0.12277
#
# Static dielectric constant tensor:
#      x y z
#    x 3.474190 0.000000 -0.103670 
#    y 0.000000 3.755690 0.000000 
#    z -0.103670 0.000000 3.140590 
# 
# 
# High freq. dielectric constant tensor:
#      x y z
#    x 1.737690 0.000000 -0.010890 
#    y 0.000000 1.769130 0.000000 
#    z -0.010890 0.000000 1.716020 
# 
# From -- ./inp_files/45667.got.cif
#   From: 2010.03.12/outbox.cif.g09.slc.cpg/sg5_23_cif.got.tgz:45667.got - 2010.03.31 09:47:26.
