data_PCOD8050880
_publ_section_title
;
Structure prediction by ZEFSAII (Michael W. Deem and Ramdas Pophale) SiO2 
 PCOD8050880
Probable space group: C 2
;
_chemical_formula_sum "Si O2"
_cell_formula_units_Z 28
_cell_length_a 21.496588
_cell_length_b 8.506228
_cell_length_c 15.258847
_cell_angle_alpha 90.000000
_cell_angle_beta 153.477027
_cell_angle_gamma 90.000000
_cell_volume 1245.961974
_symmetry_space_group_name_H-M "C 2"
_symmetry_group_IT_number 5
_symmetry_cell_setting 'monoclinic'
loop_
_space_group_symop_operation_xyz
x,y,z
-x,y,-z
1/2+x,1/2+y,z
1/2-x,1/2+y,-z
loop_
_atom_site_type_symbol
_atom_site_label
_atom_site_fract_x
_atom_site_fract_y
_atom_site_fract_z
Si Si1 0.689675 0.682310 0.826277
Si Si2 0.120011 0.876674 0.272871
Si Si3 0.500000 0.878003 0.000000
Si Si4 0.000000 0.945505 0.500000
Si Si5 0.128300 0.530529 0.329940
Si Si6 0.753871 0.239504 0.793901
Si Si7 0.689195 0.399516 0.161807
Si Si8 0.378534 0.912647 0.113099
O O1 0.566034 0.558309 0.656460
O O2 0.748827 0.746382 0.808450
O O3 0.632629 0.832140 0.806737
O O4 0.809851 0.586048 0.028145
O O5 0.114565 0.715960 0.319948
O O6 0.210251 0.991561 0.448398
O O7 0.188766 0.856898 0.263677
O O8 0.964449 0.943025 0.068119
O O9 0.432781 0.988021 0.841890
O O10 0.375773 0.768771 0.877409
O O11 0.114190 0.836812 0.594954
O O12 0.039727 0.438484 0.292088
O O13 0.718852 0.054177 0.744042
O O14 0.803568 0.294148 0.951807
#
# Coordination Sequence:
#
# PCOD8050880 Si02
#       8
#     4   4   2   2   4   4   4   4
#     4  11  23  46  69 101 139 192 234 292 358 429
#     4  11  26  44  70 107 138 184 243 297 362 423
#     4  10  22  44  76  92 148 176 238 298 370 418
#     4  10  26  44  70 104 138 184 240 290 360 428
#     4  11  25  43  69 105 135 184 238 297 357 430
#     4  10  23  45  70 104 134 189 231 295 363 422
#     4  11  24  46  73  97 149 187 237 297 363 422
#     4  10  23  44  69  98 144 185 230 290 359 425
#
# _framework density 22.472598000000001
#
# number of rings (size 3 to 8) (size 9 to 14) (size 15 to 20)
#    0.000    1.429    1.429    2.571   12.000    0.571 
#   10.286    0.000    0.000    0.000    0.000    0.000 
#    0.000    0.000    0.000    0.000    0.000    0.000 
#
# Total GULP energy -173633.987481 kJ/mol
# GULP energy per Si atom -12402.427677 kJ/mol
# Density = 2.242145 g / cm^3
# Si number density = 22.472598 Si / 1000 Ang^3
#
#
#
# Elastic Constant Matrix: (Units=GPa)
#
#
# Indices 1 2 3 4 5 6 
#
# 1 98.4043 34.5199 26.2529 0.0000 6.9806 0.0000
# 2 34.5199 124.7452 29.4431 0.0000 6.6097 0.0000
# 3 26.2529 29.4431 112.7111 0.0000 10.1814 0.0000
# 4 0.0000 0.0000 0.0000 37.7410 0.0000 0.2581
# 5 6.9806 6.6097 10.1814 0.0000 21.3451 0.0000
# 6 0.0000 0.0000 0.0000 0.2581 0.0000 36.0227
#
#
#
# Elastic Compliance Matrix: (Units=1/GPa)
#
#
# Indices 1 2 3 4 5 6 
#
# 1 0.011753 -0.002706 -0.001838 0.000000 -0.002129 0.000000
# 2 -0.002706 0.009222 -0.001673 0.000000 -0.001173 0.000000
# 3 -0.001838 -0.001673 0.010070 0.000000 -0.003684 0.000000
# 4 0.000000 0.000000 0.000000 0.026498 0.000000 -0.000190
# 5 -0.002129 -0.001173 -0.003684 0.000000 0.049666 0.000000
# 6 0.000000 0.000000 0.000000 -0.000190 0.000000 0.027762
#
#
# Mechanical properties :
#
#
# Convention : Reuss Voigt Hill
#
# Bulk Modulus (GPa) = 53.73084 57.36584 55.54834
# Shear Modulus (GPa) = 32.55048 35.39808 33.97428
#
# Velocity S-wave (km/s) = 3.80998 3.97314 3.89242
# Velocity P-wave (km/s) = 6.58149 6.82863 6.70620
#
# Compressibility (1/GPa) = 0.01861129
#
# Stress axis : x y z
#
# Youngs Moduli (GPa) = 85.08664 108.43608 99.30247
#
# Poissons Ratio (x) = 0.29338 0.18256
# Poissons Ratio (y) = 0.23021 0.16612
# Poissons Ratio (z) = 0.15642 0.18140
#
# Static dielectric constant tensor:
#      x y z
#    x 3.905660 0.000000 0.149170 
#    y 0.000000 3.963010 0.000000 
#    z 0.149170 0.000000 4.122450 
# 
# 
# High freq. dielectric constant tensor:
#      x y z
#    x 1.873770 0.000000 0.006880 
#    y 0.000000 1.895880 0.000000 
#    z 0.006880 0.000000 1.883630 
# 
# From -- ./inp_files/29175.got.cif
#   From: 2010.03.12/outbox.cif.g09.slc.cpg/sg5_15_cif.got.tgz:29175.got - 2010.03.31 09:47:26.
