data_PCOD8050703
_publ_section_title
;
Structure prediction by ZEFSAII (Michael W. Deem and Ramdas Pophale) SiO2 
 PCOD8050703
Probable space group: C 2
;
_chemical_formula_sum "Si O2"
_cell_formula_units_Z 30
_cell_length_a 25.800376
_cell_length_b 9.099291
_cell_length_c 6.219047
_cell_angle_alpha 90.000000
_cell_angle_beta 71.230203
_cell_angle_gamma 90.000000
_cell_volume 1382.370307
_symmetry_space_group_name_H-M "C 2"
_symmetry_group_IT_number 5
_symmetry_cell_setting 'monoclinic'
loop_
_space_group_symop_operation_xyz
x,y,z
-x,y,-z
1/2+x,1/2+y,z
1/2-x,1/2+y,-z
loop_
_atom_site_type_symbol
_atom_site_label
_atom_site_fract_x
_atom_site_fract_y
_atom_site_fract_z
Si Si1 0.853821 0.925810 0.376613
Si Si2 0.948408 0.901003 0.925798
Si Si3 0.783802 0.832621 0.091870
Si Si4 0.446327 0.956810 0.466903
Si Si5 0.430869 0.691512 0.765694
Si Si6 0.186050 0.118975 0.199913
Si Si7 0.119432 0.709687 0.283075
Si Si8 0.500000 0.875684 0.000000
O O1 0.802542 0.859354 0.312597
O O2 0.878694 0.808333 0.507664
O O3 0.834193 0.068281 0.536212
O O4 0.901337 0.966414 0.144914
O O5 0.928203 0.761472 0.816968
O O6 0.960280 0.031721 0.737186
O O7 0.000000 0.854712 0.000000
O O8 0.724224 0.760623 0.176611
O O9 0.823469 0.715890 0.919607
O O10 0.782972 0.985167 0.960827
O O11 0.500000 0.028817 0.500000
O O12 0.441690 0.782207 0.530668
O O13 0.393056 0.044242 0.620429
O O14 0.458010 0.972591 0.197931
O O15 0.365557 0.667528 0.875663
O O16 0.456582 0.783848 0.922944
#
# Coordination Sequence:
#
# PCOD8050703 Si02
#       8
#     4   4   4   4   4   4   4   2
#     4  10  22  42  66  98 128 169 228 274 332 396
#     4  11  23  40  72  99 132 178 218 270 333 394
#     4  10  24  45  68  94 130 174 222 280 339 387
#     4  10  25  42  62  94 138 174 214 266 328 392
#     4  11  22  42  66  97 135 172 217 269 324 392
#     4  11  24  45  69  95 134 171 222 281 330 397
#     4  10  23  46  63  97 134 170 225 279 325 398
#     4  10  24  42  66 100 134 178 214 262 328 408
#
# _framework density 21.701854999999998
#
# number of rings (size 3 to 8) (size 9 to 14) (size 15 to 20)
#    0.000    1.600    4.667    0.000    5.600    7.467 
#    1.200    0.000    0.000    0.800    0.000    0.000 
#    0.000    0.000    0.000    0.000    0.000    0.000 
#
# Total GULP energy -185903.440447 kJ/mol
# GULP energy per Si atom -12393.562696 kJ/mol
# Density = 2.165246 g / cm^3
# Si number density = 21.701855 Si / 1000 Ang^3
#
#
#
# Elastic Constant Matrix: (Units=GPa)
#
#
# Indices 1 2 3 4 5 6 
#
# 1 116.8043 28.5099 32.7906 0.0000 14.4818 0.0000
# 2 28.5099 66.0166 41.1479 0.0000 -5.6288 0.0000
# 3 32.7906 41.1479 114.3850 0.0000 9.2164 0.0000
# 4 0.0000 0.0000 0.0000 22.5512 0.0000 -10.9074
# 5 14.4818 -5.6288 9.2164 0.0000 26.2932 0.0000
# 6 0.0000 0.0000 0.0000 -10.9074 0.0000 29.2608
#
#
#
# Elastic Compliance Matrix: (Units=1/GPa)
#
#
# Indices 1 2 3 4 5 6 
#
# 1 0.010768 -0.004671 -0.000873 0.000000 -0.006625 0.000000
# 2 -0.004671 0.022824 -0.007689 0.000000 0.010154 0.000000
# 3 -0.000873 -0.007689 0.012197 0.000000 -0.005441 0.000000
# 4 0.000000 0.000000 0.000000 0.054097 0.000000 0.020166
# 5 -0.006625 0.010154 -0.005441 0.000000 0.045762 0.000000
# 6 0.000000 0.000000 0.000000 0.020166 0.000000 0.041692
#
#
# Mechanical properties :
#
#
# Convention : Reuss Voigt Hill
#
# Bulk Modulus (GPa) = 51.75443 55.78920 53.77181
# Shear Modulus (GPa) = 22.70174 28.60488 25.65331
#
# Velocity S-wave (km/s) = 3.23781 3.63448 3.44187
# Velocity P-wave (km/s) = 6.15448 6.58601 6.37390
#
# Compressibility (1/GPa) = 0.01932202
#
# Stress axis : x y z
#
# Youngs Moduli (GPa) = 92.86932 43.81440 81.98675
#
# Poissons Ratio (x) = 0.20466 0.07155
# Poissons Ratio (y) = 0.43380 0.63043
# Poissons Ratio (z) = 0.08104 0.33691
#
# Static dielectric constant tensor:
#      x y z
#    x 3.895210 0.000000 0.118070 
#    y 0.000000 3.695950 0.000000 
#    z 0.118070 0.000000 4.128610 
# 
# 
# High freq. dielectric constant tensor:
#      x y z
#    x 1.850080 0.000000 0.010040 
#    y 0.000000 1.839200 0.000000 
#    z 0.010040 0.000000 1.856770 
# 
# From -- ./inp_files/11221.got.cif
#   From: 2010.03.12/outbox.cif.g09.slc.cpg/sg5_6_cif.got.tgz:11221.got - 2010.03.31 09:47:26.
