data_PCOD8050864
_publ_section_title
;
Structure prediction by ZEFSAII (Michael W. Deem and Ramdas Pophale) SiO2 
 PCOD8050864
Probable space group: C 2
;
_chemical_formula_sum "Si O2"
_cell_formula_units_Z 24
_cell_length_a 11.815740
_cell_length_b 9.051303
_cell_length_c 10.201776
_cell_angle_alpha 90.000000
_cell_angle_beta 105.600787
_cell_angle_gamma 90.000000
_cell_volume 1050.862133
_symmetry_space_group_name_H-M "C 2"
_symmetry_group_IT_number 5
_symmetry_cell_setting 'monoclinic'
loop_
_space_group_symop_operation_xyz
x,y,z
-x,y,-z
1/2+x,1/2+y,z
1/2-x,1/2+y,-z
loop_
_atom_site_type_symbol
_atom_site_label
_atom_site_fract_x
_atom_site_fract_y
_atom_site_fract_z
Si Si1 0.000000 0.487031 0.000000
Si Si2 0.076286 0.335113 0.768050
Si Si3 0.826441 0.730584 0.894140
Si Si4 0.146756 0.624698 0.642771
Si Si5 0.071637 0.769784 0.353402
Si Si6 0.000000 0.973254 0.000000
Si Si7 0.586137 0.593242 0.290667
O O1 0.879652 0.582946 0.974864
O O2 0.999696 0.394466 0.866356
O O3 0.186929 0.245348 0.862604
O O4 0.115698 0.456679 0.673840
O O5 0.988956 0.222697 0.663032
O O6 0.858432 0.723689 0.751520
O O7 0.884817 0.871616 0.982186
O O8 0.117830 0.663490 0.482900
O O9 0.284259 0.650226 0.706222
O O10 0.068283 0.735909 0.707542
O O11 0.089501 0.945955 0.382712
O O12 0.985013 0.069836 0.866269
#
# Coordination Sequence:
#
# PCOD8050864 Si02
#       7
#     2   4   4   4   4   2   4
#     4  11  25  42  68 106 144 190 228 290 372 414
#     4  12  25  43  71 110 139 186 243 293 350 435
#     4  10  22  44  71  99 144 187 234 287 363 420
#     4  11  24  47  73 101 147 184 248 294 350 432
#     4  10  23  49  72  99 140 199 230 303 360 412
#     4   9  19  42  68  98 144 178 230 288 352 426
#     4  11  25  46  69 110 139 190 242 296 363 424
#
# _framework density 22.83839
#
# number of rings (size 3 to 8) (size 9 to 14) (size 15 to 20)
#    0.000    1.333    5.000    0.500    2.333    5.333 
#    6.000    0.000    0.000    0.000    0.000    0.000 
#    0.000    0.000    0.000    0.000    0.000    0.000 
#
# Total GULP energy -148732.561809 kJ/mol
# GULP energy per Si atom -12394.380151 kJ/mol
# Density = 2.278641 g / cm^3
# Si number density = 22.838390 Si / 1000 Ang^3
#
#
#
# Elastic Constant Matrix: (Units=GPa)
#
#
# Indices 1 2 3 4 5 6 
#
# 1 141.7012 53.6937 20.6241 0.0000 28.1371 0.0000
# 2 53.6937 103.0667 34.0900 0.0000 13.7959 0.0000
# 3 20.6241 34.0900 90.2065 0.0000 2.9405 0.0000
# 4 0.0000 0.0000 0.0000 32.3247 0.0000 1.6168
# 5 28.1371 13.7959 2.9405 0.0000 21.2736 0.0000
# 6 0.0000 0.0000 0.0000 1.6168 0.0000 34.8028
#
#
#
# Elastic Compliance Matrix: (Units=1/GPa)
#
#
# Indices 1 2 3 4 5 6 
#
# 1 0.011005 -0.003924 -0.000644 0.000000 -0.011922 0.000000
# 2 -0.003924 0.013508 -0.004110 0.000000 -0.003001 0.000000
# 3 -0.000644 -0.004110 0.012729 0.000000 0.001758 0.000000
# 4 0.000000 0.000000 0.000000 0.031008 0.000000 -0.001441
# 5 -0.011922 -0.003001 0.001758 0.000000 0.064478 0.000000
# 6 0.000000 0.000000 0.000000 -0.001441 0.000000 0.028800
#
#
# Mechanical properties :
#
#
# Convention : Reuss Voigt Hill
#
# Bulk Modulus (GPa) = 50.28943 61.30999 55.79971
# Shear Modulus (GPa) = 26.95219 32.78465 29.86842
#
# Velocity S-wave (km/s) = 3.43902 3.79292 3.62030
# Velocity P-wave (km/s) = 6.15115 6.78860 6.47772
#
# Compressibility (1/GPa) = 0.01988489
#
# Stress axis : x y z
#
# Youngs Moduli (GPa) = 90.86640 74.03047 78.56180
#
# Poissons Ratio (x) = 0.29052 0.05063
# Poissons Ratio (y) = 0.35659 0.32287
# Poissons Ratio (z) = 0.05856 0.30425
#
# Static dielectric constant tensor:
#      x y z
#    x 4.202160 0.000000 0.160730 
#    y 0.000000 4.327170 0.000000 
#    z 0.160730 0.000000 3.886580 
# 
# 
# High freq. dielectric constant tensor:
#      x y z
#    x 1.905730 0.000000 0.005330 
#    y 0.000000 1.906030 0.000000 
#    z 0.005330 0.000000 1.884130 
# 
# From -- ./inp_files/38456.got.cif
#   From: 2010.03.12/outbox.cif.g09.slc.cpg/sg5_20_cif.got.tgz:38456.got - 2010.03.31 09:47:26.
