data_PCOD8050910
_publ_section_title
;
Structure prediction by ZEFSAII (Michael W. Deem and Ramdas Pophale) SiO2 
 PCOD8050910
Probable space group: C 2
;
_chemical_formula_sum "Si O2"
_cell_formula_units_Z 20
_cell_length_a 7.959481
_cell_length_b 11.919669
_cell_length_c 10.115149
_cell_angle_alpha 90.000000
_cell_angle_beta 65.058446
_cell_angle_gamma 90.000000
_cell_volume 870.168278
_symmetry_space_group_name_H-M "C 2"
_symmetry_group_IT_number 5
_symmetry_cell_setting 'monoclinic'
loop_
_space_group_symop_operation_xyz
x,y,z
-x,y,-z
1/2+x,1/2+y,z
1/2-x,1/2+y,-z
loop_
_atom_site_type_symbol
_atom_site_label
_atom_site_fract_x
_atom_site_fract_y
_atom_site_fract_z
Si Si1 0.845150 0.396600 0.260993
Si Si2 0.898551 0.171720 0.160667
Si Si3 0.219246 0.305765 0.451236
Si Si4 0.994410 0.612335 0.345185
Si Si5 0.485512 0.499858 0.346676
O O1 0.960986 0.303840 0.140871
O O2 0.742804 0.317955 0.405107
O O3 0.679723 0.449730 0.229997
O O4 0.971448 0.491095 0.284976
O O5 0.677107 0.164065 0.219033
O O6 0.958080 0.115940 0.279319
O O7 0.000000 0.116238 0.000000
O O8 0.320013 0.192714 0.366521
O O9 0.316779 0.417833 0.358348
O O10 0.000000 0.302904 0.500000
O O11 0.000000 0.592883 0.500000
O O12 0.500000 0.523695 0.500000
#
# Coordination Sequence:
#
# PCOD8050910 Si02
#       5
#     4   4   4   4   4
#     4  11  24  41  71 101 139 180 234 294 346 411
#     4  12  27  47  70 103 152 186 227 290 360 421
#     4  11  22  38  73 110 138 176 239 301 347 401
#     4  12  23  45  70 105 144 181 241 296 342 417
#     4  10  22  45  72 104 138 182 237 296 341 415
#
# _framework density 22.984059999999999
#
# number of rings (size 3 to 8) (size 9 to 14) (size 15 to 20)
#    0.000    0.800    4.000    4.800    2.800    2.400 
#    0.000    0.000    0.000    0.000    0.000    0.000 
#    0.000    0.000    0.000    0.000    0.000    0.000 
#
# Total GULP energy -123934.778047 kJ/mol
# GULP energy per Si atom -12393.477805 kJ/mol
# Density = 2.293175 g / cm^3
# Si number density = 22.984060 Si / 1000 Ang^3
#
#
#
# Elastic Constant Matrix: (Units=GPa)
#
#
# Indices 1 2 3 4 5 6 
#
# 1 147.5028 68.7883 41.8708 0.0000 -17.2131 0.0000
# 2 68.7883 168.5010 44.2453 0.0000 -0.7187 0.0000
# 3 41.8708 44.2453 87.8307 0.0000 -7.3995 0.0000
# 4 0.0000 0.0000 0.0000 18.7070 0.0000 -2.3617
# 5 -17.2131 -0.7187 -7.3995 0.0000 19.5919 0.0000
# 6 0.0000 0.0000 0.0000 -2.3617 0.0000 34.7459
#
#
#
# Elastic Compliance Matrix: (Units=1/GPa)
#
#
# Indices 1 2 3 4 5 6 
#
# 1 0.009940 -0.003401 -0.002376 0.000000 0.007711 0.000000
# 2 -0.003401 0.008026 -0.002736 0.000000 -0.003727 0.000000
# 3 -0.002376 -0.002736 0.014162 0.000000 0.003161 0.000000
# 4 0.000000 0.000000 0.000000 0.053919 0.000000 0.003665
# 5 0.007711 -0.003727 0.003161 0.000000 0.058874 0.000000
# 6 0.000000 0.000000 0.000000 0.003665 0.000000 0.029029
#
#
# Mechanical properties :
#
#
# Convention : Reuss Voigt Hill
#
# Bulk Modulus (GPa) = 66.21036 79.29369 72.75202
# Shear Modulus (GPa) = 25.50912 31.20431 28.35671
#
# Velocity S-wave (km/s) = 3.33507 3.68863 3.51630
# Velocity P-wave (km/s) = 6.61059 7.26055 6.94318
#
# Compressibility (1/GPa) = 0.01510338
#
# Stress axis : x y z
#
# Youngs Moduli (GPa) = 100.60509 124.60206 70.60947
#
# Poissons Ratio (x) = 0.42379 0.16774
# Poissons Ratio (y) = 0.34217 0.19315
# Poissons Ratio (z) = 0.23899 0.34085
#
# Static dielectric constant tensor:
#      x y z
#    x 4.149240 0.000000 -0.277870 
#    y 0.000000 4.519010 0.000000 
#    z -0.277870 0.000000 3.745940 
# 
# 
# High freq. dielectric constant tensor:
#      x y z
#    x 1.909530 0.000000 -0.019900 
#    y 0.000000 1.936780 0.000000 
#    z -0.019900 0.000000 1.853690 
# 
# From -- ./inp_files/35120.got.cif
#   From: 2010.03.12/outbox.cif.g09.slc.cpg/sg5_18_cif.got.tgz:35120.got - 2010.03.31 09:47:26.
