data_PCOD8050983
_publ_section_title
;
Structure prediction by ZEFSAII (Michael W. Deem and Ramdas Pophale) SiO2 
 PCOD8050983
Probable space group: C 2
;
_chemical_formula_sum "Si O2"
_cell_formula_units_Z 28
_cell_length_a 9.268883
_cell_length_b 11.969094
_cell_length_c 14.373611
_cell_angle_alpha 90.000000
_cell_angle_beta 118.496804
_cell_angle_gamma 90.000000
_cell_volume 1401.413260
_symmetry_space_group_name_H-M "C 2"
_symmetry_group_IT_number 5
_symmetry_cell_setting 'monoclinic'
loop_
_space_group_symop_operation_xyz
x,y,z
-x,y,-z
1/2+x,1/2+y,z
1/2-x,1/2+y,-z
loop_
_atom_site_type_symbol
_atom_site_label
_atom_site_fract_x
_atom_site_fract_y
_atom_site_fract_z
Si Si1 0.729394 0.201750 0.753632
Si Si2 0.439201 0.555625 0.688861
Si Si3 0.938535 0.838275 0.577316
Si Si4 0.246822 0.636363 0.128367
Si Si5 0.416043 0.767685 0.568855
Si Si6 0.972761 0.342879 0.205448
Si Si7 0.085850 0.588377 0.885511
O O1 0.794440 0.097142 0.712589
O O2 0.570123 0.251253 0.655683
O O3 0.873232 0.294202 0.805671
O O4 0.682670 0.163498 0.841957
O O5 0.396487 0.433562 0.638985
O O6 0.612374 0.550263 0.796190
O O7 0.463737 0.641538 0.611035
O O8 0.777549 0.768193 0.505413
O O9 0.000000 0.894035 0.500000
O O10 0.315981 0.762183 0.144706
O O11 0.096950 0.636253 0.155551
O O12 0.188405 0.591887 0.011283
O O13 0.500000 0.806356 0.500000
O O14 0.473374 0.850534 0.669479
O O15 0.923064 0.462224 0.152563
#
# Coordination Sequence:
#
# PCOD8050983 Si02
#       7
#     4   4   4   4   4   4   4
#     4  10  24  41  61  98 121 158 216 252 291 385
#     4  10  23  41  62  89 127 163 205 255 310 361
#     4  12  22  41  64  92 126 168 206 249 306 364
#     4   9  23  42  62  94 123 157 211 252 310 375
#     4  10  23  40  59  93 127 163 206 254 302 367
#     4  10  23  44  61  91 131 158 205 255 308 364
#     4  11  23  41  69  90 121 168 200 259 313 357
#
# _framework density 19.979831000000001
#
# number of rings (size 3 to 8) (size 9 to 14) (size 15 to 20)
#    0.000    2.000    2.857    1.286    6.000    6.857 
#    0.000    4.286    0.000    0.000    0.000    0.000 
#    0.000    0.000    0.000    0.000    0.000    0.000 
#
# Total GULP energy -173608.344707 kJ/mol
# GULP energy per Si atom -12400.596050 kJ/mol
# Density = 1.993436 g / cm^3
# Si number density = 19.979831 Si / 1000 Ang^3
#
#
#
# Elastic Constant Matrix: (Units=GPa)
#
#
# Indices 1 2 3 4 5 6 
#
# 1 112.0877 47.4074 57.0123 0.0000 -12.3531 0.0000
# 2 47.4074 72.8538 55.8830 0.0000 3.3720 0.0000
# 3 57.0123 55.8830 111.3427 0.0000 5.6973 0.0000
# 4 0.0000 0.0000 0.0000 18.6211 0.0000 2.6347
# 5 -12.3531 3.3720 5.6973 0.0000 42.9781 0.0000
# 6 0.0000 0.0000 0.0000 2.6347 0.0000 22.3094
#
#
#
# Elastic Compliance Matrix: (Units=1/GPa)
#
#
# Indices 1 2 3 4 5 6 
#
# 1 0.014410 -0.006104 -0.004583 0.000000 0.005228 0.000000
# 2 -0.006104 0.024907 -0.009248 0.000000 -0.002483 0.000000
# 3 -0.004583 -0.009248 0.016109 0.000000 -0.002727 0.000000
# 4 0.000000 0.000000 0.000000 0.054615 0.000000 -0.006450
# 5 0.005228 -0.002483 -0.002727 0.000000 0.025327 0.000000
# 6 0.000000 0.000000 0.000000 -0.006450 0.000000 0.045586
#
#
# Mechanical properties :
#
#
# Convention : Reuss Voigt Hill
#
# Bulk Modulus (GPa) = 64.28158 68.54328 66.41243
# Shear Modulus (GPa) = 22.12293 25.84713 23.98503
#
# Velocity S-wave (km/s) = 3.33117 3.60065 3.46853
# Velocity P-wave (km/s) = 6.85847 7.18797 7.02516
#
# Compressibility (1/GPa) = 0.01555656
#
# Stress axis : x y z
#
# Youngs Moduli (GPa) = 69.39429 40.14940 62.07658
#
# Poissons Ratio (x) = 0.24507 0.28448
# Poissons Ratio (y) = 0.42358 0.57411
# Poissons Ratio (z) = 0.31801 0.37132
#
# Static dielectric constant tensor:
#      x y z
#    x 3.960170 0.000000 -0.068790 
#    y 0.000000 3.337120 0.000000 
#    z -0.068790 0.000000 3.765850 
# 
# 
# High freq. dielectric constant tensor:
#      x y z
#    x 1.792550 0.000000 0.003500 
#    y 0.000000 1.762710 0.000000 
#    z 0.003500 0.000000 1.790260 
# 
# From -- ./inp_files/50551.got.cif
#   From: 2010.03.12/outbox.cif.g09.slc.cpg/sg5_26_cif.got.tgz:50551.got - 2010.03.31 09:47:26.
