data_PCOD8050968
_publ_section_title
;
Structure prediction by ZEFSAII (Michael W. Deem and Ramdas Pophale) SiO2 
 PCOD8050968
Probable space group: C 2
;
_chemical_formula_sum "Si O2"
_cell_formula_units_Z 20
_cell_length_a 17.827026
_cell_length_b 9.708329
_cell_length_c 8.216603
_cell_angle_alpha 90.000000
_cell_angle_beta 38.913600
_cell_angle_gamma 90.000000
_cell_volume 893.259220
_symmetry_space_group_name_H-M "C 2"
_symmetry_group_IT_number 5
_symmetry_cell_setting 'monoclinic'
loop_
_space_group_symop_operation_xyz
x,y,z
-x,y,-z
1/2+x,1/2+y,z
1/2-x,1/2+y,-z
loop_
_atom_site_type_symbol
_atom_site_label
_atom_site_fract_x
_atom_site_fract_y
_atom_site_fract_z
Si Si1 0.120817 0.123930 0.101841
Si Si2 0.811805 0.623930 0.024916
Si Si3 0.471030 0.900099 0.863927
Si Si4 0.471030 0.347761 0.863927
Si Si5 0.875565 0.623930 0.563060
O O1 0.174354 0.123930 0.197386
O O2 0.040232 0.258351 0.215572
O O3 0.230894 0.123930 0.787762
O O4 0.040233 0.989509 0.215571
O O5 0.846180 0.761133 0.067623
O O6 0.901861 0.623930 0.714356
O O7 0.846180 0.486727 0.067622
O O8 0.422495 0.987208 0.395392
O O9 0.500000 0.865137 0.000000
O O10 0.577505 0.260652 0.604608
O O11 0.500000 0.382723 0.000000
#
# Coordination Sequence:
#
# PCOD8050968 Si02
#       5
#     4   4   4   4   4
#     4  10  23  37  61  84 115 148 192 230 279 337
#     4   9  20  41  59  79 119 151 184 232 281 336
#     4  11  20  38  62  84 114 150 187 236 282 328
#     4  11  20  38  62  84 114 150 187 236 282 328
#     4   9  22  39  61  78 120 149 188 227 286 333
#
# _framework density 22.389918000000002
#
# number of rings (size 3 to 8) (size 9 to 14) (size 15 to 20)
#    1.200    0.800    0.000    6.600    0.000    1.600 
#    0.000    8.000    0.000    0.000    0.000    0.000 
#    0.000    0.000    0.000    0.000    0.000    0.000 
#
# Total GULP energy -123961.313302 kJ/mol
# GULP energy per Si atom -12396.131330 kJ/mol
# Density = 2.233896 g / cm^3
# Si number density = 22.389918 Si / 1000 Ang^3
#
#
#
# Elastic Constant Matrix: (Units=GPa)
#
#
# Indices 1 2 3 4 5 6 
#
# 1 104.9314 26.5918 6.4818 0.0000 11.5454 0.0000
# 2 26.5918 163.1343 13.8450 0.0000 -16.8079 0.0000
# 3 6.4818 13.8450 45.9352 0.0000 -13.3212 0.0000
# 4 0.0000 0.0000 0.0000 14.8340 0.0000 2.9115
# 5 11.5454 -16.8079 -13.3212 0.0000 15.5454 0.0000
# 6 0.0000 0.0000 0.0000 2.9115 0.0000 20.8320
#
#
#
# Elastic Compliance Matrix: (Units=1/GPa)
#
#
# Indices 1 2 3 4 5 6 
#
# 1 0.012835 -0.003483 -0.006145 0.000000 -0.018564 0.000000
# 2 -0.003483 0.007844 0.001779 0.000000 0.012593 0.000000
# 3 -0.006145 0.001779 0.031912 0.000000 0.033834 0.000000
# 4 0.000000 0.000000 0.000000 0.069314 0.000000 -0.009687
# 5 -0.018564 0.012593 0.033834 0.000000 0.120724 0.000000
# 6 0.000000 0.000000 0.000000 -0.009687 0.000000 0.049357
#
#
# Mechanical properties :
#
#
# Convention : Reuss Voigt Hill
#
# Bulk Modulus (GPa) = 27.10496 45.31534 36.21015
# Shear Modulus (GPa) = 15.62587 28.04779 21.83683
#
# Velocity S-wave (km/s) = 2.64464 3.54319 3.12636
# Velocity P-wave (km/s) = 4.63224 6.08457 5.40739
#
# Compressibility (1/GPa) = 0.03689361
#
# Stress axis : x y z
#
# Youngs Moduli (GPa) = 77.91212 127.48280 31.33571
#
# Poissons Ratio (x) = 0.44407 0.19255
# Poissons Ratio (y) = 0.27140 -0.05575
# Poissons Ratio (z) = 0.47876 -0.22682
#
# Static dielectric constant tensor:
#      x y z
#    x 4.006340 0.000000 -0.018730 
#    y 0.000000 3.860020 0.000000 
#    z -0.018730 0.000000 3.512430 
# 
# 
# High freq. dielectric constant tensor:
#      x y z
#    x 1.888020 0.000000 -0.003410 
#    y 0.000000 1.885430 0.000000 
#    z -0.003410 0.000000 1.845500 
# 
# From -- ./inp_files/26652.got.cif
#   From: 2010.03.12/outbox.cif.g09.slc.cpg/sg5_14_cif.got.tgz:26652.got - 2010.03.31 09:47:26.
