data_PCOD8050495
_publ_section_title
;
Structure prediction by ZEFSAII (Michael W. Deem and Ramdas Pophale) SiO2 
 PCOD8050495
Probable space group: C 2
;
_chemical_formula_sum "Si O2"
_cell_formula_units_Z 22
_cell_length_a 28.980446
_cell_length_b 7.623619
_cell_length_c 9.365892
_cell_angle_alpha 90.000000
_cell_angle_beta 149.480296
_cell_angle_gamma 90.000000
_cell_volume 1050.842724
_symmetry_space_group_name_H-M "C 2"
_symmetry_group_IT_number 5
_symmetry_cell_setting 'monoclinic'
loop_
_space_group_symop_operation_xyz
x,y,z
-x,y,-z
1/2+x,1/2+y,z
1/2-x,1/2+y,-z
loop_
_atom_site_type_symbol
_atom_site_label
_atom_site_fract_x
_atom_site_fract_y
_atom_site_fract_z
Si Si1 0.043111 0.173700 0.261932
Si Si2 0.598843 0.444702 0.969002
Si Si3 0.759916 0.128374 0.847567
Si Si4 0.603547 0.329573 0.286648
Si Si5 0.643748 0.925372 0.738715
Si Si6 0.000000 0.679045 0.500000
O O1 0.099800 0.326124 0.486797
O O2 0.965756 0.110286 0.167161
O O3 0.105961 0.006398 0.388927
O O4 0.000000 0.248295 0.000000
O O5 0.541799 0.298326 0.734635
O O6 0.684989 0.498992 0.106372
O O7 0.639589 0.366236 0.223528
O O8 0.666692 0.183615 0.523413
O O9 0.732607 0.027653 0.919366
O O10 0.824428 0.291362 0.055119
O O11 0.500000 0.259668 0.000000
O O12 0.575465 0.059629 0.628510
#
# Coordination Sequence:
#
# PCOD8050495 Si02
#       6
#     4   4   4   4   4   2
#     4   9  20  41  64  85 117 159 199 241 296 358
#     4  10  22  40  62  88 119 154 199 248 294 353
#     4  12  24  38  61  91 122 154 200 254 294 346
#     4   9  21  42  63  84 119 161 198 244 300 354
#     4  12  24  38  60  89 122 159 199 245 297 353
#     4  12  24  40  62  86 122 164 196 238 300 364
#
# _framework density 20.935579000000001
#
# number of rings (size 3 to 8) (size 9 to 14) (size 15 to 20)
#    0.000    1.818    0.000    6.545    0.000    6.545 
#    0.000    0.000    0.000    0.000    0.000    0.000 
#    0.000    0.000    0.000    0.000    0.000    0.000 
#
# Total GULP energy -136428.586392 kJ/mol
# GULP energy per Si atom -12402.598763 kJ/mol
# Density = 2.088793 g / cm^3
# Si number density = 20.935579 Si / 1000 Ang^3
#
#
#
# Elastic Constant Matrix: (Units=GPa)
#
#
# Indices 1 2 3 4 5 6 
#
# 1 142.3476 31.6589 30.2750 0.0000 15.8084 0.0000
# 2 31.6589 61.3866 40.8345 0.0000 2.5535 0.0000
# 3 30.2750 40.8345 86.4749 0.0000 -1.6637 0.0000
# 4 0.0000 0.0000 0.0000 43.1254 0.0000 11.6217
# 5 15.8084 2.5535 -1.6637 0.0000 29.0210 0.0000
# 6 0.0000 0.0000 0.0000 11.6217 0.0000 29.2904
#
#
#
# Elastic Compliance Matrix: (Units=1/GPa)
#
#
# Indices 1 2 3 4 5 6 
#
# 1 0.008566 -0.003177 -0.001585 0.000000 -0.004477 0.000000
# 2 -0.003177 0.025148 -0.010784 0.000000 -0.001100 0.000000
# 3 -0.001585 -0.010784 0.017265 0.000000 0.002802 0.000000
# 4 0.000000 0.000000 0.000000 0.025964 0.000000 -0.010302
# 5 -0.004477 -0.001100 0.002802 0.000000 0.037154 0.000000
# 6 0.000000 0.000000 0.000000 -0.010302 0.000000 0.038228
#
#
# Mechanical properties :
#
#
# Convention : Reuss Voigt Hill
#
# Bulk Modulus (GPa) = 50.28388 55.08285 52.68337
# Shear Modulus (GPa) = 26.30920 32.78342 29.54631
#
# Velocity S-wave (km/s) = 3.54881 3.96146 3.76080
# Velocity P-wave (km/s) = 6.39238 6.87692 6.63907
#
# Compressibility (1/GPa) = 0.01988709
#
# Stress axis : x y z
#
# Youngs Moduli (GPa) = 116.74069 39.76430 57.92022
#
# Poissons Ratio (x) = 0.12634 0.09179
# Poissons Ratio (y) = 0.37092 0.62461
# Poissons Ratio (z) = 0.18500 0.42882
#
# Static dielectric constant tensor:
#      x y z
#    x 3.940390 0.000000 -0.069950 
#    y 0.000000 3.700390 0.000000 
#    z -0.069950 0.000000 3.685680 
# 
# 
# High freq. dielectric constant tensor:
#      x y z
#    x 1.836190 0.000000 -0.005720 
#    y 0.000000 1.817280 0.000000 
#    z -0.005720 0.000000 1.817910 
# 
# From -- ./inp_files/31720.got.cif
#   From: 2010.03.12/outbox.cif.g09.slc.cpg/sg5_16_cif.got.tgz:31720.got - 2010.03.31 09:47:26.
