data_PCOD8050735
_publ_section_title
;
Structure prediction by ZEFSAII (Michael W. Deem and Ramdas Pophale) SiO2 
 PCOD8050735
Probable space group: C 2
;
_chemical_formula_sum "Si O2"
_cell_formula_units_Z 28
_cell_length_a 9.237911
_cell_length_b 10.256137
_cell_length_c 21.658298
_cell_angle_alpha 90.000000
_cell_angle_beta 40.781730
_cell_angle_gamma 90.000000
_cell_volume 1340.337751
_symmetry_space_group_name_H-M "C 2"
_symmetry_group_IT_number 5
_symmetry_cell_setting 'monoclinic'
loop_
_space_group_symop_operation_xyz
x,y,z
-x,y,-z
1/2+x,1/2+y,z
1/2-x,1/2+y,-z
loop_
_atom_site_type_symbol
_atom_site_label
_atom_site_fract_x
_atom_site_fract_y
_atom_site_fract_z
Si Si1 0.000000 0.280870 0.000000
Si Si2 0.970832 0.990586 0.441287
Si Si3 0.025197 0.672409 0.127405
Si Si4 0.027626 0.517717 0.421500
Si Si5 0.500000 0.275900 0.000000
Si Si6 0.031933 0.382392 0.122026
Si Si7 0.870083 0.752364 0.691368
Si Si8 0.733977 0.244092 0.676109
O O1 0.993221 0.374002 0.061331
O O2 0.781660 0.192447 0.062945
O O3 0.713507 0.018141 0.528064
O O4 0.000000 0.934976 0.500000
O O5 0.094717 0.125613 0.386268
O O6 0.033437 0.879763 0.372765
O O7 0.960412 0.525564 0.165685
O O8 0.862195 0.758387 0.223069
O O9 0.978594 0.692281 0.069719
O O10 0.164827 0.628848 0.341705
O O11 0.145775 0.378480 0.378570
O O12 0.000000 0.562661 0.500000
O O13 0.715263 0.364733 0.938778
O O14 0.878144 0.277253 0.205139
O O15 0.029559 0.717565 0.696568
#
# Coordination Sequence:
#
# PCOD8050735 Si02
#       8
#     2   4   4   4   2   4   4   4
#     4  10  22  42  70  96 130 182 214 274 346 404
#     4  12  24  45  72  95 138 180 226 282 344 396
#     4  11  23  44  69  98 138 174 222 280 339 400
#     4  12  26  45  70 101 140 180 228 281 341 401
#     4  10  26  42  66 106 134 170 226 280 334 410
#     4  11  23  44  68 100 135 174 227 272 343 401
#     4  12  25  44  70 102 136 181 228 282 337 406
#     4  12  25  45  69 102 139 177 228 289 331 403
#
# _framework density 20.890257999999999
#
# number of rings (size 3 to 8) (size 9 to 14) (size 15 to 20)
#    0.000    0.571    5.714    2.571    0.000    4.571 
#   10.286    0.000    0.000    0.000    0.000    0.000 
#    0.000    0.000    0.000    0.000    0.000    0.000 
#
# Total GULP energy -173595.279248 kJ/mol
# GULP energy per Si atom -12399.662803 kJ/mol
# Density = 2.084271 g / cm^3
# Si number density = 20.890258 Si / 1000 Ang^3
#
#
#
# Elastic Constant Matrix: (Units=GPa)
#
#
# Indices 1 2 3 4 5 6 
#
# 1 120.6694 17.8943 41.5624 0.0000 12.2912 0.0000
# 2 17.8943 100.3270 25.8309 0.0000 7.1453 0.0000
# 3 41.5624 25.8309 120.0310 -0.0001 11.0544 0.0000
# 4 0.0000 0.0000 -0.0001 32.6861 0.0000 0.4465
# 5 12.2912 7.1453 11.0544 0.0000 30.9487 0.0000
# 6 0.0000 0.0000 0.0000 0.4465 0.0000 23.1207
#
#
#
# Elastic Compliance Matrix: (Units=1/GPa)
#
#
# Indices 1 2 3 4 5 6 
#
# 1 0.009683 -0.000783 -0.002944 0.000000 -0.002613 0.000000
# 2 -0.000783 0.010701 -0.001895 0.000000 -0.001483 0.000000
# 3 -0.002944 -0.001895 0.009937 0.000000 -0.001943 0.000000
# 4 0.000000 0.000000 0.000000 0.030602 0.000000 -0.000591
# 5 -0.002613 -0.001483 -0.001943 0.000000 0.034386 0.000000
# 6 0.000000 0.000000 0.000000 -0.000591 0.000000 0.043263
#
#
# Mechanical properties :
#
#
# Convention : Reuss Voigt Hill
#
# Bulk Modulus (GPa) = 52.41829 56.84473 54.63151
# Shear Modulus (GPa) = 32.01542 34.40042 33.20792
#
# Velocity S-wave (km/s) = 3.91903 4.06238 3.99135
# Velocity P-wave (km/s) = 6.75463 7.01955 6.88837
#
# Compressibility (1/GPa) = 0.01907731
#
# Stress axis : x y z
#
# Youngs Moduli (GPa) = 103.26990 93.45279 100.63136
#
# Poissons Ratio (x) = 0.07318 0.29624
# Poissons Ratio (y) = 0.08087 0.19071
# Poissons Ratio (z) = 0.30401 0.17710
#
# Static dielectric constant tensor:
#      x y z
#    x 3.951340 0.000000 0.068510 
#    y 0.000000 3.620460 0.000000 
#    z 0.068510 0.000000 3.956760 
# 
# 
# High freq. dielectric constant tensor:
#      x y z
#    x 1.830880 0.000000 0.003870 
#    y 0.000000 1.815840 0.000000 
#    z 0.003870 0.000000 1.835870 
# 
# From -- ./inp_files/50139.got.cif
#   From: 2010.03.12/outbox.cif.g09.slc.cpg/sg5_26_cif.got.tgz:50139.got - 2010.03.31 09:47:26.
