data_PCOD8050045
_publ_section_title
;
Structure prediction by ZEFSAII (Michael W. Deem and Ramdas Pophale) SiO2 
 PCOD8050045
Probable space group: C 2
;
_chemical_formula_sum "Si O2"
_cell_formula_units_Z 26
_cell_length_a 9.924410
_cell_length_b 9.392150
_cell_length_c 22.425318
_cell_angle_alpha 90.000000
_cell_angle_beta 139.642296
_cell_angle_gamma 90.000000
_cell_volume 1353.588642
_symmetry_space_group_name_H-M "C 2"
_symmetry_group_IT_number 5
_symmetry_cell_setting 'monoclinic'
loop_
_space_group_symop_operation_xyz
x,y,z
-x,y,-z
1/2+x,1/2+y,z
1/2-x,1/2+y,-z
loop_
_atom_site_type_symbol
_atom_site_label
_atom_site_fract_x
_atom_site_fract_y
_atom_site_fract_z
Si Si1 0.821152 0.973710 0.485509
Si Si2 0.285877 0.163474 0.447991
Si Si3 0.564475 0.004591 0.831108
Si Si4 0.000000 0.882267 0.000000
Si Si5 0.078012 0.204471 0.253521
Si Si6 0.627572 0.004823 0.721889
Si Si7 0.836657 0.724198 0.837972
O O1 0.845356 0.805201 0.506086
O O2 0.000000 0.026393 0.500000
O O3 0.852934 0.056837 0.558938
O O4 0.589177 0.009195 0.385820
O O5 0.500000 0.085715 0.500000
O O6 0.167755 0.219228 0.350164
O O7 0.591168 0.073342 0.774659
O O8 0.446058 0.113381 0.832585
O O9 0.793231 0.977599 0.934923
O O10 0.428503 0.860132 0.779383
O O11 0.001810 0.789097 0.940127
O O12 0.204949 0.097445 0.256273
O O13 0.841637 0.147380 0.182067
O O14 0.722452 0.846594 0.760502
#
# Coordination Sequence:
#
# PCOD8050045 Si02
#       7
#     4   4   4   2   4   4   4
#     4  11  24  39  58  85 118 160 206 250 293 342
#     4  11  22  40  58  83 119 161 201 248 293 343
#     4  10  22  41  65  89 120 156 191 244 296 358
#     4   8  20  40  62  92 124 148 186 244 302 352
#     4  10  21  40  60  84 123 158 196 245 295 344
#     4  10  21  41  57  86 122 156 198 246 296 344
#     4  10  22  40  65  89 119 155 196 240 295 361
#
# _framework density 19.208200999999999
#
# number of rings (size 3 to 8) (size 9 to 14) (size 15 to 20)
#    0.000    2.154    4.615    0.000    2.154    6.769 
#    2.769    0.000    0.000    0.000    0.000    0.000 
#    0.000    0.000    0.000    0.000    0.000    0.000 
#
# Total GULP energy -161133.805945 kJ/mol
# GULP energy per Si atom -12394.908150 kJ/mol
# Density = 1.916448 g / cm^3
# Si number density = 19.208201 Si / 1000 Ang^3
#
#
#
# Elastic Constant Matrix: (Units=GPa)
#
#
# Indices 1 2 3 4 5 6 
#
# 1 153.4315 82.2401 25.6074 0.0000 5.9447 0.0000
# 2 82.2401 87.5701 29.2346 0.0000 -0.2832 0.0000
# 3 25.6074 29.2346 82.9700 0.0000 4.6180 0.0000
# 4 0.0000 0.0000 0.0000 15.7542 0.0000 -1.8297
# 5 5.9447 -0.2832 4.6180 0.0000 22.1774 0.0000
# 6 0.0000 0.0000 0.0000 -1.8297 0.0000 53.3786
#
#
#
# Elastic Compliance Matrix: (Units=1/GPa)
#
#
# Indices 1 2 3 4 5 6 
#
# 1 0.013456 -0.012846 0.000590 0.000000 -0.003894 0.000000
# 2 -0.012846 0.025234 -0.005196 0.000000 0.004848 0.000000
# 3 0.000590 -0.005196 0.013875 0.000000 -0.003114 0.000000
# 4 0.000000 0.000000 0.000000 0.063729 0.000000 0.002185
# 5 -0.003894 0.004848 -0.003114 0.000000 0.046845 0.000000
# 6 0.000000 0.000000 0.000000 0.002185 0.000000 0.018809
#
#
# Mechanical properties :
#
#
# Convention : Reuss Voigt Hill
#
# Bulk Modulus (GPa) = 56.62590 66.45953 61.54272
# Shear Modulus (GPa) = 22.44787 30.72135 26.58461
#
# Velocity S-wave (km/s) = 3.42228 4.00357 3.72428
# Velocity P-wave (km/s) = 6.72012 7.48640 7.11358
#
# Compressibility (1/GPa) = 0.01765976
#
# Stress axis : x y z
#
# Youngs Moduli (GPa) = 74.31860 39.62872 72.07413
#
# Poissons Ratio (x) = 0.50908 -0.04254
# Poissons Ratio (y) = 0.95472 0.37452
# Poissons Ratio (z) = -0.04387 0.20592
#
# Static dielectric constant tensor:
#      x y z
#    x 3.614470 0.000000 0.091560 
#    y 0.000000 3.279870 0.000000 
#    z 0.091560 0.000000 3.649370 
# 
# 
# High freq. dielectric constant tensor:
#      x y z
#    x 1.754180 0.000000 0.008230 
#    y 0.000000 1.726200 0.000000 
#    z 0.008230 0.000000 1.756530 
# 
# From -- ./inp_files/64513.got.cif
#   From: 2010.03.12/outbox.cif.g09.slc.cpg/sg5_33_cif.got.tgz:64513.got - 2010.03.31 09:47:26.
