data_PCOD8050048
_publ_section_title
;
Structure prediction by ZEFSAII (Michael W. Deem and Ramdas Pophale) SiO2 
 PCOD8050048
Probable space group: C 2
;
_chemical_formula_sum "Si O2"
_cell_formula_units_Z 32
_cell_length_a 14.918005
_cell_length_b 9.442744
_cell_length_c 21.977509
_cell_angle_alpha 90.000000
_cell_angle_beta 149.765917
_cell_angle_gamma 90.000000
_cell_volume 1558.892669
_symmetry_space_group_name_H-M "C 2"
_symmetry_group_IT_number 5
_symmetry_cell_setting 'monoclinic'
loop_
_space_group_symop_operation_xyz
x,y,z
-x,y,-z
1/2+x,1/2+y,z
1/2-x,1/2+y,-z
loop_
_atom_site_type_symbol
_atom_site_label
_atom_site_fract_x
_atom_site_fract_y
_atom_site_fract_z
Si Si1 0.882688 0.759920 0.800997
Si Si2 0.335693 0.542782 0.627870
Si Si3 0.097867 0.234919 0.731194
Si Si4 0.361669 0.096441 0.972854
Si Si5 0.010510 0.540938 0.644841
Si Si6 0.882298 0.274373 0.991223
Si Si7 0.357560 0.587940 0.780160
Si Si8 0.513425 0.246482 0.267403
O O1 0.713864 0.697625 0.739042
O O2 0.858042 0.722876 0.715527
O O3 0.908953 0.926964 0.826188
O O4 0.066895 0.690112 0.929922
O O5 0.406598 0.657664 0.619906
O O6 0.136314 0.498070 0.491540
O O7 0.329258 0.608659 0.691711
O O8 0.468357 0.409185 0.701435
O O9 0.184378 0.172233 0.844076
O O10 0.075395 0.403274 0.719957
O O11 0.338661 0.936780 0.983888
O O12 0.500000 0.098238 0.000000
O O13 0.919971 0.646340 0.639711
O O14 0.173062 0.621198 0.706675
O O15 0.690879 0.204169 0.866946
O O16 0.000000 0.263259 0.000000
O O17 0.985889 0.193171 0.105981
#
# Coordination Sequence:
#
# PCOD8050048 Si02
#       8
#     4   4   4   4   4   4   4   4
#     4   9  22  37  59  89 124 158 201 248 304 376
#     4  11  23  43  62  88 124 170 212 255 311 371
#     4  10  21  40  60  89 121 166 205 252 307 367
#     4   9  19  36  57  85 123 161 190 242 313 369
#     4  11  23  41  64  89 123 164 216 263 301 370
#     4  11  21  36  61  95 129 158 196 259 317 375
#     4  10  23  39  63  92 121 162 206 259 310 364
#     4  11  23  39  62  93 124 161 209 256 316 370
#
# _framework density 20.527391000000001
#
# number of rings (size 3 to 8) (size 9 to 14) (size 15 to 20)
#    0.000    1.750    2.500    1.125    3.500    1.500 
#    0.000    1.875    0.000    0.000    0.000    0.000 
#    0.000    0.000    0.000    0.000    0.000    0.000 
#
# Total GULP energy -198374.493223 kJ/mol
# GULP energy per Si atom -12398.405826 kJ/mol
# Density = 2.048067 g / cm^3
# Si number density = 20.527391 Si / 1000 Ang^3
#
#
#
# Elastic Constant Matrix: (Units=GPa)
#
#
# Indices 1 2 3 4 5 6 
#
# 1 105.2563 54.8864 29.3445 0.0003 -7.0110 0.0000
# 2 54.8864 83.9130 38.7191 0.0005 -12.1903 0.0000
# 3 29.3445 38.7191 104.3706 0.0019 -7.5499 0.0003
# 4 0.0003 0.0005 0.0019 28.4117 0.0003 0.4192
# 5 -7.0110 -12.1903 -7.5499 0.0003 28.4932 0.0000
# 6 0.0000 0.0000 0.0003 0.4192 0.0000 31.2414
#
#
#
# Elastic Compliance Matrix: (Units=1/GPa)
#
#
# Indices 1 2 3 4 5 6 
#
# 1 0.014466 -0.009229 -0.000685 0.000000 -0.000570 0.000000
# 2 -0.009229 0.020949 -0.004785 0.000000 0.005424 0.000000
# 3 -0.000685 -0.004785 0.011611 -0.000001 0.000861 0.000000
# 4 0.000000 0.000000 -0.000001 0.035204 -0.000001 -0.000472
# 5 -0.000570 0.005424 0.000861 -0.000001 0.037505 0.000000
# 6 0.000000 0.000000 0.000000 -0.000472 0.000000 0.032015
#
#
# Mechanical properties :
#
#
# Convention : Reuss Voigt Hill
#
# Bulk Modulus (GPa) = 56.72205 59.93777 58.32991
# Shear Modulus (GPa) = 26.73470 29.00191 27.86831
#
# Velocity S-wave (km/s) = 3.61278 3.76285 3.68858
# Velocity P-wave (km/s) = 6.71530 6.93838 6.82775
#
# Compressibility (1/GPa) = 0.01762983
#
# Stress axis : x y z
#
# Youngs Moduli (GPa) = 69.12767 47.73435 86.12510
#
# Poissons Ratio (x) = 0.44054 0.05898
# Poissons Ratio (y) = 0.63797 0.41207
# Poissons Ratio (z) = 0.04734 0.22839
#
# Static dielectric constant tensor:
#      x y z
#    x 3.715590 0.000000 0.065590 
#    y 0.000000 3.618340 0.000000 
#    z 0.065590 0.000000 3.687910 
# 
# 
# High freq. dielectric constant tensor:
#      x y z
#    x 1.806560 0.000000 0.007440 
#    y 0.000000 1.792700 0.000000 
#    z 0.007440 0.000000 1.798330 
# 
# From -- ./inp_files/47321.got.cif
#   From: 2010.03.12/outbox.cif.g09.slc.cpg/sg5_24_cif.got.tgz:47321.got - 2010.03.31 09:47:26.
