data_PCOD8050082
_publ_section_title
;
Structure prediction by ZEFSAII (Michael W. Deem and Ramdas Pophale) SiO2 
 PCOD8050082
Probable space group: C 2
;
_chemical_formula_sum "Si O2"
_cell_formula_units_Z 32
_cell_length_a 15.418177
_cell_length_b 8.719681
_cell_length_c 11.591130
_cell_angle_alpha 90.000000
_cell_angle_beta 84.000475
_cell_angle_gamma 90.000000
_cell_volume 1549.794546
_symmetry_space_group_name_H-M "C 2"
_symmetry_group_IT_number 5
_symmetry_cell_setting 'monoclinic'
loop_
_space_group_symop_operation_xyz
x,y,z
-x,y,-z
1/2+x,1/2+y,z
1/2-x,1/2+y,-z
loop_
_atom_site_type_symbol
_atom_site_label
_atom_site_fract_x
_atom_site_fract_y
_atom_site_fract_z
Si Si1 0.410205 0.845450 0.066017
Si Si2 0.855217 0.034664 0.702998
Si Si3 0.397635 0.791281 0.529453
Si Si4 0.450018 0.277222 0.816801
Si Si5 0.608914 0.198047 0.930829
Si Si6 0.697973 0.805275 0.697921
Si Si7 0.799090 0.275530 0.878667
Si Si8 0.334520 0.040645 0.718939
O O1 0.383155 0.801908 0.200133
O O2 0.422888 0.025825 0.047841
O O3 0.500000 0.772483 0.000000
O O4 0.329040 0.778156 0.006124
O O5 0.930207 0.917943 0.733962
O O6 0.760733 0.952506 0.708905
O O7 0.878879 0.118706 0.579446
O O8 0.862094 0.168539 0.796232
O O9 0.500000 0.815674 0.500000
O O10 0.347869 0.812892 0.417596
O O11 0.359099 0.925525 0.614014
O O12 0.551979 0.273762 0.835524
O O13 0.421714 0.126291 0.749842
O O14 0.398803 0.288778 0.946516
O O15 0.706213 0.199545 0.875470
O O16 0.758029 0.655101 0.692390
O O17 0.797725 0.448598 0.833337
#
# Coordination Sequence:
#
# PCOD8050082 Si02
#       8
#     4   4   4   4   4   4   4   4
#     4  12  24  40  66  97 136 175 219 273 328 407
#     4  10  23  43  65  95 132 170 221 274 322 396
#     4  11  26  42  68  96 130 171 227 284 328 386
#     4  10  21  40  64  91 134 169 214 262 328 392
#     4  11  21  36  63  97 133 170 211 266 324 410
#     4  11  24  43  67  93 131 182 219 272 333 389
#     4  11  22  38  62  96 130 165 215 261 334 386
#     4  10  22  43  67  90 130 173 221 267 327 404
#
# _framework density 20.6479
#
# number of rings (size 3 to 8) (size 9 to 14) (size 15 to 20)
#    0.000    1.250    3.750    2.250    5.250    1.000 
#    2.250    2.500    0.000    0.000    0.000    0.000 
#    0.000    0.000    0.000    0.000    0.000    0.000 
#
# Total GULP energy -198333.685979 kJ/mol
# GULP energy per Si atom -12395.855374 kJ/mol
# Density = 2.060090 g / cm^3
# Si number density = 20.647900 Si / 1000 Ang^3
#
#
#
# Elastic Constant Matrix: (Units=GPa)
#
#
# Indices 1 2 3 4 5 6 
#
# 1 119.4237 35.3528 48.9463 0.0000 7.7156 0.0000
# 2 35.3528 94.4182 44.0525 0.0000 7.1308 0.0000
# 3 48.9463 44.0525 132.4571 0.0000 17.9259 0.0000
# 4 0.0000 0.0000 0.0000 17.8749 0.0000 -1.4633
# 5 7.7156 7.1308 17.9259 0.0000 43.6412 0.0000
# 6 0.0000 0.0000 0.0000 -1.4633 0.0000 17.6321
#
#
#
# Elastic Compliance Matrix: (Units=1/GPa)
#
#
# Indices 1 2 3 4 5 6 
#
# 1 0.010335 -0.002468 -0.002971 0.000000 -0.000204 0.000000
# 2 -0.002468 0.013131 -0.003414 0.000000 -0.000307 0.000000
# 3 -0.002971 -0.003414 0.010203 0.000000 -0.003108 0.000000
# 4 0.000000 0.000000 0.000000 0.056327 0.000000 0.004675
# 5 -0.000204 -0.000307 -0.003108 0.000000 0.024277 0.000000
# 6 0.000000 0.000000 0.000000 0.004675 0.000000 0.057103
#
#
# Mechanical properties :
#
#
# Convention : Reuss Voigt Hill
#
# Bulk Modulus (GPa) = 62.63868 67.00024 64.81946
# Shear Modulus (GPa) = 25.71987 30.35947 28.03967
#
# Velocity S-wave (km/s) = 3.53319 3.83866 3.68909
# Velocity P-wave (km/s) = 6.85909 7.22264 7.04321
#
# Compressibility (1/GPa) = 0.01596458
#
# Stress axis : x y z
#
# Youngs Moduli (GPa) = 96.75962 76.15436 98.00862
#
# Poissons Ratio (x) = 0.18798 0.29114
# Poissons Ratio (y) = 0.23884 0.33455
# Poissons Ratio (z) = 0.28743 0.25995
#
# Static dielectric constant tensor:
#      x y z
#    x 3.703490 0.000000 0.108020 
#    y 0.000000 3.781860 0.000000 
#    z 0.108020 0.000000 3.730830 
# 
# 
# High freq. dielectric constant tensor:
#      x y z
#    x 1.809820 0.000000 0.012410 
#    y 0.000000 1.809430 0.000000 
#    z 0.012410 0.000000 1.807540 
# 
# From -- ./inp_files/41963.got.cif
#   From: 2010.03.12/outbox.cif.g09.slc.cpg/sg5_21_cif.got.tgz:41963.got - 2010.03.31 09:47:26.
