data_PCOD8050277
_publ_section_title
;
Structure prediction by ZEFSAII (Michael W. Deem and Ramdas Pophale) SiO2 
 PCOD8050277
Probable space group: C 2
;
_chemical_formula_sum "Si O2"
_cell_formula_units_Z 24
_cell_length_a 20.013724
_cell_length_b 7.798776
_cell_length_c 15.290648
_cell_angle_alpha 90.000000
_cell_angle_beta 153.960629
_cell_angle_gamma 90.000000
_cell_volume 1047.691784
_symmetry_space_group_name_H-M "C 2"
_symmetry_group_IT_number 5
_symmetry_cell_setting 'monoclinic'
loop_
_space_group_symop_operation_xyz
x,y,z
-x,y,-z
1/2+x,1/2+y,z
1/2-x,1/2+y,-z
loop_
_atom_site_type_symbol
_atom_site_label
_atom_site_fract_x
_atom_site_fract_y
_atom_site_fract_z
Si Si1 0.527807 0.308860 0.264349
Si Si2 0.803582 0.129728 0.515913
Si Si3 0.731844 0.093177 0.082041
Si Si4 0.933102 0.685014 0.512157
Si Si5 0.180830 0.430147 0.205931
Si Si6 0.044837 0.360513 0.729923
O O1 0.662763 0.169099 0.413052
O O2 0.586153 0.494839 0.305068
O O3 0.385396 0.251579 0.038945
O O4 0.480463 0.297125 0.311231
O O5 0.741842 0.059335 0.351262
O O6 0.903651 0.301319 0.623687
O O7 0.669744 0.963276 0.934135
O O8 0.744619 0.997466 0.188583
O O9 0.886961 0.186937 0.233680
O O10 0.000000 0.748629 0.500000
O O11 0.969593 0.483831 0.568151
O O12 0.754140 0.740123 0.305151
O O13 0.000000 0.413523 0.000000
#
# Coordination Sequence:
#
# PCOD8050277 Si02
#       6
#     4   4   4   4   4   4
#     4  10  21  43  67  97 136 178 225 275 338 405
#     4  11  23  43  70  96 135 186 226 276 345 406
#     4  11  24  44  68 102 136 175 229 286 334 402
#     4  10  25  43  67  98 135 181 227 274 346 401
#     4  11  25  45  69  99 138 180 230 288 337 395
#     4  11  26  43  69  99 136 181 228 277 345 411
#
# _framework density 22.907499999999999
#
# number of rings (size 3 to 8) (size 9 to 14) (size 15 to 20)
#    0.000    1.333    1.667    3.000   14.000    0.000 
#    0.000    0.833    0.000    0.000    0.000    0.000 
#    0.000    0.000    0.000    0.000    0.000    0.000 
#
# Total GULP energy -148741.585894 kJ/mol
# GULP energy per Si atom -12395.132158 kJ/mol
# Density = 2.285536 g / cm^3
# Si number density = 22.907500 Si / 1000 Ang^3
#
#
#
# Elastic Constant Matrix: (Units=GPa)
#
#
# Indices 1 2 3 4 5 6 
#
# 1 72.8056 14.3505 3.5936 0.0000 -15.6772 0.0000
# 2 14.3505 89.4011 32.5758 0.0000 -10.7533 0.0000
# 3 3.5936 32.5758 80.1036 0.0000 -1.9045 0.0000
# 4 0.0000 0.0000 0.0000 56.6778 0.0000 9.3383
# 5 -15.6772 -10.7533 -1.9045 0.0000 26.9490 0.0000
# 6 0.0000 0.0000 0.0000 9.3383 0.0000 24.5036
#
#
#
# Elastic Compliance Matrix: (Units=1/GPa)
#
#
# Indices 1 2 3 4 5 6 
#
# 1 0.015895 -0.001559 0.000126 0.000000 0.008634 0.000000
# 2 -0.001559 0.013955 -0.005504 0.000000 0.004273 0.000000
# 3 0.000126 -0.005504 0.014691 0.000000 -0.001084 0.000000
# 4 0.000000 0.000000 0.000000 0.018826 0.000000 -0.007174
# 5 0.008634 0.004273 -0.001084 0.000000 0.043758 0.000000
# 6 0.000000 0.000000 0.000000 -0.007174 0.000000 0.043544
#
#
# Mechanical properties :
#
#
# Convention : Reuss Voigt Hill
#
# Bulk Modulus (GPa) = 32.60708 38.15000 35.37854
# Shear Modulus (GPa) = 28.60991 34.41212 31.51101
#
# Velocity S-wave (km/s) = 3.53786 3.88005 3.71290
# Velocity P-wave (km/s) = 5.56361 6.06326 5.81880
#
# Compressibility (1/GPa) = 0.03066818
#
# Stress axis : x y z
#
# Youngs Moduli (GPa) = 62.91134 71.65842 68.07095
#
# Poissons Ratio (x) = 0.11171 -0.00859
# Poissons Ratio (y) = 0.09808 0.37464
# Poissons Ratio (z) = -0.00794 0.39438
#
# Static dielectric constant tensor:
#      x y z
#    x 4.089010 0.000000 0.098410 
#    y 0.000000 4.164430 0.000000 
#    z 0.098410 0.000000 4.158490 
# 
# 
# High freq. dielectric constant tensor:
#      x y z
#    x 1.907210 0.000000 0.014180 
#    y 0.000000 1.908110 0.000000 
#    z 0.014180 0.000000 1.898740 
# 
# From -- ./inp_files/63318.got.cif
#   From: 2010.03.12/outbox.cif.g09.slc.cpg/sg5_32_cif.got.tgz:63318.got - 2010.03.31 09:47:26.
