data_PCOD8050415
_publ_section_title
;
Structure prediction by ZEFSAII (Michael W. Deem and Ramdas Pophale) SiO2 
 PCOD8050415
Probable space group: C 2
;
_chemical_formula_sum "Si O2"
_cell_formula_units_Z 24
_cell_length_a 22.860398
_cell_length_b 9.714052
_cell_length_c 8.467009
_cell_angle_alpha 90.000000
_cell_angle_beta 137.788096
_cell_angle_gamma 90.000000
_cell_volume 1263.288035
_symmetry_space_group_name_H-M "C 2"
_symmetry_group_IT_number 5
_symmetry_cell_setting 'monoclinic'
loop_
_space_group_symop_operation_xyz
x,y,z
-x,y,-z
1/2+x,1/2+y,z
1/2-x,1/2+y,-z
loop_
_atom_site_type_symbol
_atom_site_label
_atom_site_fract_x
_atom_site_fract_y
_atom_site_fract_z
Si Si1 0.249771 0.046310 0.355686
Si Si2 0.178017 0.947651 0.904995
Si Si3 0.000000 0.071259 0.500000
Si Si4 0.852026 0.296481 0.703815
Si Si5 0.000000 0.522926 0.500000
Si Si6 0.999880 0.297000 0.245471
Si Si7 0.678090 0.146299 0.806347
O O1 0.205582 0.160970 0.378458
O O2 0.319905 0.123644 0.380869
O O3 0.293743 0.931305 0.554560
O O4 0.179856 0.969321 0.100071
O O5 0.207954 0.797137 0.914878
O O6 0.083559 0.975311 0.641894
O O7 0.249984 0.047211 0.969138
O O8 0.020681 0.163807 0.692391
O O9 0.913654 0.263154 0.679374
O O10 0.913681 0.330574 0.974507
O O11 0.979862 0.430450 0.611035
O O12 0.083603 0.618928 0.691595
#
# Coordination Sequence:
#
# PCOD8050415 Si02
#       7
#     4   4   2   4   2   4   4
#     4  10  24  40  62  96 128 178 210 270 328 394
#     4  10  23  40  64 100 129 169 226 278 337 378
#     4  11  21  40  68  96 130 170 232 280 326 378
#     4  11  22  42  62  93 136 172 222 257 340 410
#     4  11  21  40  68  96 130 170 232 280 326 378
#     4  10  22  38  66  94 126 180 216 272 328 400
#     4  10  23  40  64 100 129 169 226 278 337 378
#
# _framework density 18.998042999999999
#
# number of rings (size 3 to 8) (size 9 to 14) (size 15 to 20)
#    1.000    0.667    3.333    0.500    9.333    2.667 
#    0.000    0.000    0.000    0.000    0.000    0.000 
#    0.000    0.000    0.000    0.000    0.000    0.000 
#
# Total GULP energy -148762.044126 kJ/mol
# GULP energy per Si atom -12396.837011 kJ/mol
# Density = 1.895480 g / cm^3
# Si number density = 18.998043 Si / 1000 Ang^3
#
#
#
# Elastic Constant Matrix: (Units=GPa)
#
#
# Indices 1 2 3 4 5 6 
#
# 1 97.8496 55.3579 40.4920 0.0000 12.7187 0.0000
# 2 55.3579 157.5189 55.5909 0.0000 8.7570 0.0000
# 3 40.4920 55.5909 97.1305 0.0000 12.2475 0.0000
# 4 0.0000 0.0000 0.0000 33.7383 0.0000 6.1916
# 5 12.7187 8.7570 12.2475 0.0000 39.5408 0.0000
# 6 0.0000 0.0000 0.0000 6.1916 0.0000 34.3545
#
#
#
# Elastic Compliance Matrix: (Units=1/GPa)
#
#
# Indices 1 2 3 4 5 6 
#
# 1 0.014010 -0.003550 -0.003475 0.000000 -0.002644 0.000000
# 2 -0.003550 0.008860 -0.003629 0.000000 0.000304 0.000000
# 3 -0.003475 -0.003629 0.014131 0.000000 -0.002455 0.000000
# 4 0.000000 0.000000 0.000000 0.030654 0.000000 -0.005525
# 5 -0.002644 0.000304 -0.002455 0.000000 0.026834 0.000000
# 6 0.000000 0.000000 0.000000 -0.005525 0.000000 0.030104
#
#
# Mechanical properties :
#
#
# Convention : Reuss Voigt Hill
#
# Bulk Modulus (GPa) = 63.72809 72.82005 68.27407
# Shear Modulus (GPa) = 33.08354 34.93059 34.00707
#
# Velocity S-wave (km/s) = 4.17756 4.29259 4.23546
# Velocity P-wave (km/s) = 7.54233 7.93612 7.74173
#
# Compressibility (1/GPa) = 0.01569167
#
# Stress axis : x y z
#
# Youngs Moduli (GPa) = 71.37735 112.86678 70.76680
#
# Poissons Ratio (x) = 0.40070 0.24594
# Poissons Ratio (y) = 0.25340 0.25682
# Poissons Ratio (z) = 0.24806 0.40961
#
# Static dielectric constant tensor:
#      x y z
#    x 3.409450 0.000000 0.048380 
#    y 0.000000 3.399470 0.000000 
#    z 0.048380 0.000000 3.405480 
# 
# 
# High freq. dielectric constant tensor:
#      x y z
#    x 1.734340 0.000000 0.008990 
#    y 0.000000 1.738920 0.000000 
#    z 0.008990 0.000000 1.733880 
# 
# From -- ./inp_files/30614.got.cif
#   From: 2010.03.12/outbox.cif.g09.slc.cpg/sg5_16_cif.got.tgz:30614.got - 2010.03.31 09:47:26.
