data_PCOD8050856
_publ_section_title
;
Structure prediction by ZEFSAII (Michael W. Deem and Ramdas Pophale) SiO2 
 PCOD8050856
Probable space group: C 2
;
_chemical_formula_sum "Si O2"
_cell_formula_units_Z 22
_cell_length_a 21.507111
_cell_length_b 10.776920
_cell_length_c 5.182902
_cell_angle_alpha 90.000000
_cell_angle_beta 55.878158
_cell_angle_gamma 90.000000
_cell_volume 994.488067
_symmetry_space_group_name_H-M "C 2"
_symmetry_group_IT_number 5
_symmetry_cell_setting 'monoclinic'
loop_
_space_group_symop_operation_xyz
x,y,z
-x,y,-z
1/2+x,1/2+y,z
1/2-x,1/2+y,-z
loop_
_atom_site_type_symbol
_atom_site_label
_atom_site_fract_x
_atom_site_fract_y
_atom_site_fract_z
Si Si1 0.389363 0.427870 0.638048
Si Si2 0.320336 0.327415 0.326003
Si Si3 0.081545 0.212969 0.392786
Si Si4 0.852251 0.326491 0.253836
Si Si5 0.083345 0.598607 0.926986
Si Si6 0.000000 0.742005 0.500000
O O1 0.327119 0.418667 0.557644
O O2 0.419050 0.566338 0.580151
O O3 0.458976 0.336758 0.394589
O O4 0.359603 0.388582 0.987846
O O5 0.233415 0.312156 0.460404
O O6 0.357393 0.196493 0.330838
O O7 0.098277 0.271313 0.631575
O O8 0.000000 0.262371 0.500000
O O9 0.139149 0.254493 0.036276
O O10 0.876365 0.467846 0.155182
O O11 0.066771 0.652542 0.248756
O O12 0.000000 0.594850 0.000000
#
# Coordination Sequence:
#
# PCOD8050856 Si02
#       6
#     4   4   4   4   4   2
#     4  11  23  45  74  97 140 174 247 289 352 412
#     4  11  26  46  70 106 136 190 234 299 354 417
#     4  12  26  47  73 104 143 187 233 289 361 429
#     4  12  29  45  70 106 150 186 235 292 369 424
#     4  11  24  44  74  97 145 182 244 289 353 425
#     4  10  22  44  70 106 124 190 238 304 334 422
#
# _framework density 22.121932999999999
#
# number of rings (size 3 to 8) (size 9 to 14) (size 15 to 20)
#    0.000    0.727    2.727    3.818    8.909    0.000 
#    0.000    0.000    0.000    0.000    0.000    0.000 
#    0.000    0.000    0.000    0.000    0.000    0.000 
#
# Total GULP energy -136348.948536 kJ/mol
# GULP energy per Si atom -12395.358958 kJ/mol
# Density = 2.207158 g / cm^3
# Si number density = 22.121933 Si / 1000 Ang^3
#
#
#
# Elastic Constant Matrix: (Units=GPa)
#
#
# Indices 1 2 3 4 5 6 
#
# 1 103.3983 47.3288 24.9439 0.0000 -4.6353 0.0000
# 2 47.3288 140.8438 52.2800 0.0000 -2.5492 0.0000
# 3 24.9439 52.2800 85.2137 0.0000 4.7761 0.0000
# 4 0.0000 0.0000 0.0000 24.4762 0.0000 -2.2592
# 5 -4.6353 -2.5492 4.7761 0.0000 52.1714 0.0000
# 6 0.0000 0.0000 0.0000 -2.2592 0.0000 26.2233
#
#
#
# Elastic Compliance Matrix: (Units=1/GPa)
#
#
# Indices 1 2 3 4 5 6 
#
# 1 0.011589 -0.003362 -0.001385 0.000000 0.000992 0.000000
# 2 -0.003362 0.010218 -0.005324 0.000000 0.000688 0.000000
# 3 -0.001385 -0.005324 0.015508 0.000000 -0.001803 0.000000
# 4 0.000000 0.000000 0.000000 0.041183 0.000000 0.003548
# 5 0.000992 0.000688 -0.001803 0.000000 0.019454 0.000000
# 6 0.000000 0.000000 0.000000 0.003548 0.000000 0.038440
#
#
# Mechanical properties :
#
#
# Convention : Reuss Voigt Hill
#
# Bulk Modulus (GPa) = 58.22983 64.28461 61.25722
# Shear Modulus (GPa) = 30.81494 34.23439 32.52467
#
# Velocity S-wave (km/s) = 3.73629 3.93814 3.83854
# Velocity P-wave (km/s) = 6.70764 7.05697 6.88452
#
# Compressibility (1/GPa) = 0.01717333
#
# Stress axis : x y z
#
# Youngs Moduli (GPa) = 86.28894 97.86286 64.48374
#
# Poissons Ratio (x) = 0.32903 0.08932
# Poissons Ratio (y) = 0.29012 0.34328
# Poissons Ratio (z) = 0.11953 0.52097
#
# Static dielectric constant tensor:
#      x y z
#    x 4.116360 0.000000 0.020010 
#    y 0.000000 4.042580 0.000000 
#    z 0.020010 0.000000 4.037730 
# 
# 
# High freq. dielectric constant tensor:
#      x y z
#    x 1.880050 0.000000 -0.000610 
#    y 0.000000 1.881500 0.000000 
#    z -0.000610 0.000000 1.867830 
# 
# From -- ./inp_files/10254.got.cif
#   From: 2010.03.12/outbox.cif.g09.slc.cpg/sg5_6_cif.got.tgz:10254.got - 2010.03.31 09:47:26.
