data_PCOD8050322
_publ_section_title
;
Structure prediction by ZEFSAII (Michael W. Deem and Ramdas Pophale) SiO2 
 PCOD8050322
Probable space group: C 2
;
_chemical_formula_sum "Si O2"
_cell_formula_units_Z 20
_cell_length_a 7.609418
_cell_length_b 11.081924
_cell_length_c 11.648577
_cell_angle_alpha 90.000000
_cell_angle_beta 82.533304
_cell_angle_gamma 90.000000
_cell_volume 973.960199
_symmetry_space_group_name_H-M "C 2"
_symmetry_group_IT_number 5
_symmetry_cell_setting 'monoclinic'
loop_
_space_group_symop_operation_xyz
x,y,z
-x,y,-z
1/2+x,1/2+y,z
1/2-x,1/2+y,-z
loop_
_atom_site_type_symbol
_atom_site_label
_atom_site_fract_x
_atom_site_fract_y
_atom_site_fract_z
Si Si1 0.181232 0.524320 0.801234
Si Si2 0.970586 0.899946 0.293468
Si Si3 0.620833 0.150859 0.590308
Si Si4 0.500000 0.883013 0.000000
Si Si5 0.500000 0.578935 0.500000
Si Si6 0.824946 0.779869 0.091680
O O1 0.342429 0.430519 0.780542
O O2 0.098742 0.544141 0.683461
O O3 0.027511 0.466905 0.888426
O O4 0.235942 0.654471 0.846242
O O5 0.969059 0.774481 0.361176
O O6 0.841986 0.881490 0.192453
O O7 0.933425 0.001769 0.393932
O O8 0.500000 0.100592 0.500000
O O9 0.831636 0.163777 0.544040
O O10 0.328461 0.805395 0.986360
O O11 0.000000 0.767393 0.000000
#
# Coordination Sequence:
#
# PCOD8050322 Si02
#       6
#     4   4   4   2   2   4
#     4  10  23  43  64  95 129 166 215 257 318 375
#     4  10  21  45  63  91 134 164 208 271 309 367
#     4  10  22  43  66  93 129 166 210 266 310 381
#     4  12  24  40  68  96 122 178 210 250 324 376
#     4  10  22  42  64  96 126 166 214 254 322 376
#     4  11  23  41  63  93 130 166 214 261 305 378
#
# _framework density 20.534721000000001
#
# number of rings (size 3 to 8) (size 9 to 14) (size 15 to 20)
#    0.000    1.600    4.000    0.000    2.800    1.600 
#   12.600    0.000    0.000    0.000    0.000    0.000 
#    0.000    0.000    0.000    0.000    0.000    0.000 
#
# Total GULP energy -123887.728614 kJ/mol
# GULP energy per Si atom -12388.772861 kJ/mol
# Density = 2.048798 g / cm^3
# Si number density = 20.534721 Si / 1000 Ang^3
#
#
#
# Elastic Constant Matrix: (Units=GPa)
#
#
# Indices 1 2 3 4 5 6 
#
# 1 137.5675 59.4247 69.2145 0.0000 6.4648 0.0000
# 2 59.4247 83.5818 36.4130 0.0000 -2.2677 0.0000
# 3 69.2145 36.4130 127.4877 0.0000 1.8151 0.0000
# 4 0.0000 0.0000 0.0000 247.7667 0.0000 -43.1199
# 5 6.4648 -2.2677 1.8151 0.0000 43.5315 0.0000
# 6 0.0000 0.0000 0.0000 -43.1199 0.0000 34.3965
#
#
#
# Elastic Compliance Matrix: (Units=1/GPa)
#
#
# Indices 1 2 3 4 5 6 
#
# 1 0.012924 -0.007082 -0.004964 0.000000 -0.002081 0.000000
# 2 -0.007082 0.017579 -0.001205 0.000000 0.002018 0.000000
# 3 -0.004964 -0.001205 0.010880 0.000000 0.000221 0.000000
# 4 0.000000 0.000000 0.000000 0.005162 0.000000 0.006472
# 5 -0.002081 0.002018 0.000221 0.000000 0.023377 0.000000
# 6 0.000000 0.000000 0.000000 0.006472 0.000000 0.037186
#
#
# Mechanical properties :
#
#
# Convention : Reuss Voigt Hill
#
# Bulk Modulus (GPa) = 67.20003 75.41571 71.30787
# Shear Modulus (GPa) = 36.08279 77.37793 56.73036
#
# Velocity S-wave (km/s) = 4.19640 6.14519 5.26180
# Velocity P-wave (km/s) = 7.50172 9.33578 8.46855
#
# Compressibility (1/GPa) = 0.01488094
#
# Stress axis : x y z
#
# Youngs Moduli (GPa) = 77.37597 56.88503 91.91324
#
# Poissons Ratio (x) = 0.40289 0.45626
# Poissons Ratio (y) = 0.54801 0.11072
# Poissons Ratio (z) = 0.38410 0.06852
#
# Static dielectric constant tensor:
#      x y z
#    x 3.334900 0.000000 0.185100 
#    y 0.000000 3.538120 0.000000 
#    z 0.185100 0.000000 4.135780 
# 
# 
# High freq. dielectric constant tensor:
#      x y z
#    x 1.790110 0.000000 -0.001150 
#    y 0.000000 1.785560 0.000000 
#    z -0.001150 0.000000 1.837010 
# 
# From -- ./inp_files/34757.got.cif
#   From: 2010.03.12/outbox.cif.g09.slc.cpg/sg5_18_cif.got.tgz:34757.got - 2010.03.31 09:47:26.
