data_PCOD8050572
_publ_section_title
;
Structure prediction by ZEFSAII (Michael W. Deem and Ramdas Pophale) SiO2 
 PCOD8050572
Probable space group: C 2
;
_chemical_formula_sum "Si O2"
_cell_formula_units_Z 30
_cell_length_a 16.557707
_cell_length_b 15.502270
_cell_length_c 5.257863
_cell_angle_alpha 90.000000
_cell_angle_beta 115.990259
_cell_angle_gamma 90.000000
_cell_volume 1213.112134
_symmetry_space_group_name_H-M "C 2"
_symmetry_group_IT_number 5
_symmetry_cell_setting 'monoclinic'
loop_
_space_group_symop_operation_xyz
x,y,z
-x,y,-z
1/2+x,1/2+y,z
1/2-x,1/2+y,-z
loop_
_atom_site_type_symbol
_atom_site_label
_atom_site_fract_x
_atom_site_fract_y
_atom_site_fract_z
Si Si1 0.394202 0.774360 0.900752
Si Si2 0.606004 0.270346 0.661146
Si Si3 0.500000 0.484127 0.000000
Si Si4 0.638653 0.450478 0.558859
Si Si5 0.345712 0.588596 0.012682
Si Si6 0.893292 0.671692 0.839886
Si Si7 0.197383 0.513547 0.508216
Si Si8 0.395546 0.858093 0.396701
O O1 0.363860 0.688885 0.007651
O O2 0.354702 0.794156 0.563279
O O3 0.500000 0.776953 0.000000
O O4 0.356746 0.843796 0.057317
O O5 0.500000 0.266954 0.500000
O O6 0.645963 0.367606 0.754621
O O7 0.641227 0.228585 0.446508
O O8 0.642502 0.216510 0.952556
O O9 0.459143 0.427867 0.712771
O O10 0.413559 0.543464 0.914171
O O11 0.727057 0.451084 0.506923
O O12 0.632931 0.544840 0.685082
O O13 0.243478 0.569772 0.794030
O O14 0.849001 0.576737 0.759902
O O15 0.000000 0.660543 0.000000
O O16 0.121502 0.455684 0.537712
O O17 0.500000 0.840561 0.500000
#
# Coordination Sequence:
#
# PCOD8050572 Si02
#       8
#     4   4   2   4   4   4   4   4
#     4  10  23  45  75 105 138 189 246 298 363 433
#     4  10  23  45  75 105 136 189 246 298 358 432
#     4  10  22  40  72 104 144 200 234 294 368 458
#     4  11  26  43  71 108 152 190 240 305 374 453
#     4  11  24  43  70 107 150 192 235 306 368 452
#     4  10  25  47  75 100 139 192 249 302 353 431
#     4  11  28  47  67 111 145 192 247 301 379 433
#     4  10  25  47  75 101 139 193 250 305 352 434
#
# _framework density 24.729783999999999
#
# number of rings (size 3 to 8) (size 9 to 14) (size 15 to 20)
#    0.000    1.600    0.667    1.200   14.000    5.333 
#    0.000    0.000    0.000    0.000    0.000    0.000 
#    0.000    0.000    0.000    0.000    0.000    0.000 
#
# Total GULP energy -185830.629692 kJ/mol
# GULP energy per Si atom -12388.708646 kJ/mol
# Density = 2.467350 g / cm^3
# Si number density = 24.729784 Si / 1000 Ang^3
#
#
#
# Elastic Constant Matrix: (Units=GPa)
#
#
# Indices 1 2 3 4 5 6 
#
# 1 50.9807 42.0148 48.3078 0.0000 -18.3236 0.0000
# 2 42.0148 144.6832 56.3507 0.0000 -17.2373 0.0000
# 3 48.3078 56.3507 154.3201 0.0000 -29.9771 0.0000
# 4 0.0000 0.0000 0.0000 27.4132 0.0000 4.2257
# 5 -18.3236 -17.2373 -29.9771 0.0000 30.4907 0.0000
# 6 0.0000 0.0000 0.0000 4.2257 0.0000 20.5896
#
#
#
# Elastic Compliance Matrix: (Units=1/GPa)
#
#
# Indices 1 2 3 4 5 6 
#
# 1 0.034924 -0.006299 -0.006486 0.000000 0.011050 0.000000
# 2 -0.006299 0.009299 -0.001407 0.000000 0.000089 0.000000
# 3 -0.006486 -0.001407 0.010027 0.000000 0.005166 0.000000
# 4 0.000000 0.000000 0.000000 0.037671 0.000000 -0.007731
# 5 0.011050 0.000089 0.005166 0.000000 0.044566 0.000000
# 6 0.000000 0.000000 0.000000 -0.007731 0.000000 0.050155
#
#
# Mechanical properties :
#
#
# Convention : Reuss Voigt Hill
#
# Bulk Modulus (GPa) = 38.65821 71.48116 55.06968
# Shear Modulus (GPa) = 22.35655 29.25274 25.80464
#
# Velocity S-wave (km/s) = 3.00998 3.44306 3.23377
# Velocity P-wave (km/s) = 5.26746 6.69132 6.02163
#
# Compressibility (1/GPa) = 0.02586773
#
# Stress axis : x y z
#
# Youngs Moduli (GPa) = 28.63359 107.53550 99.72689
#
# Poissons Ratio (x) = 0.67737 0.64681
# Poissons Ratio (y) = 0.18036 0.14027
# Poissons Ratio (z) = 0.18571 0.15126
#
# Static dielectric constant tensor:
#      x y z
#    x 4.501840 0.000000 -0.190680 
#    y 0.000000 4.282620 0.000000 
#    z -0.190680 0.000000 4.980280 
# 
# 
# High freq. dielectric constant tensor:
#      x y z
#    x 1.985230 0.000000 -0.010190 
#    y 0.000000 1.975730 0.000000 
#    z -0.010190 0.000000 1.986820 
# 
# From -- ./inp_files/8686.got.cif
#   From: 2010.03.12/outbox.cif.g09.slc.cpg/sg5_5_cif.got.tgz:8686.got - 2010.03.31 09:47:26.
