data_PCOD8050437
_publ_section_title
;
Structure prediction by ZEFSAII (Michael W. Deem and Ramdas Pophale) SiO2 
 PCOD8050437
Probable space group: C 2
;
_chemical_formula_sum "Si O2"
_cell_formula_units_Z 28
_cell_length_a 8.586131
_cell_length_b 11.056530
_cell_length_c 19.399588
_cell_angle_alpha 90.000000
_cell_angle_beta 139.547702
_cell_angle_gamma 90.000000
_cell_volume 1194.894535
_symmetry_space_group_name_H-M "C 2"
_symmetry_group_IT_number 5
_symmetry_cell_setting 'monoclinic'
loop_
_space_group_symop_operation_xyz
x,y,z
-x,y,-z
1/2+x,1/2+y,z
1/2-x,1/2+y,-z
loop_
_atom_site_type_symbol
_atom_site_label
_atom_site_fract_x
_atom_site_fract_y
_atom_site_fract_z
Si Si1 0.192832 0.991650 0.767108
Si Si2 0.581587 0.544686 0.103898
Si Si3 0.611792 0.263952 0.828579
Si Si4 0.326838 0.350298 0.381435
Si Si5 0.391811 0.157721 0.034804
Si Si6 0.166588 0.581642 0.618216
Si Si7 0.839096 0.374313 0.282211
O O1 0.196934 0.943225 0.689511
O O2 0.224149 0.881745 0.831083
O O3 0.419101 0.077781 0.857267
O O4 0.947511 0.064772 0.695696
O O5 0.670944 0.417217 0.162548
O O6 0.793052 0.645526 0.179212
O O7 0.500000 0.519153 0.000000
O O8 0.347870 0.585963 0.069105
O O9 0.690833 0.258644 0.936731
O O10 0.318099 0.277340 0.726408
O O11 0.500000 0.402330 0.500000
O O12 0.408505 0.217351 0.383404
O O13 0.075543 0.314902 0.332349
O O14 0.500000 0.210037 0.000000
O O15 0.089195 0.494630 0.653338
O O16 0.000000 0.539391 0.500000
#
# Coordination Sequence:
#
# PCOD8050437 Si02
#       7
#     4   4   4   4   4   4   4
#     4  11  23  42  64  91 129 168 207 260 319 373
#     4  10  22  39  58  87 123 159 204 252 301 364
#     4  10  23  39  59  85 120 163 206 251 305 362
#     4  11  23  39  66  98 124 162 212 260 316 377
#     4  11  23  40  63  93 127 167 215 259 308 372
#     4  10  22  41  62  88 124 161 205 262 316 374
#     4  11  22  40  63  88 121 164 206 252 312 370
#
# _framework density 23.433032000000001
#
# number of rings (size 3 to 8) (size 9 to 14) (size 15 to 20)
#    0.000    1.429    0.000    6.000    0.000    6.857 
#    0.000    1.429    0.000   10.286    0.000    0.000 
#    0.000    0.000    0.000    0.000    0.000    0.000 
#
# Total GULP energy -173523.205479 kJ/mol
# GULP energy per Si atom -12394.514677 kJ/mol
# Density = 2.337970 g / cm^3
# Si number density = 23.433032 Si / 1000 Ang^3
#
#
#
# Elastic Constant Matrix: (Units=GPa)
#
#
# Indices 1 2 3 4 5 6 
#
# 1 83.9866 10.9789 32.3376 0.0000 -10.9222 0.0000
# 2 10.9789 57.8837 36.9427 0.0000 -11.4119 0.0000
# 3 32.3376 36.9427 115.4074 0.0001 -3.2396 0.0000
# 4 0.0000 0.0000 0.0001 26.0394 0.0000 1.5658
# 5 -10.9222 -11.4119 -3.2396 0.0000 35.2378 0.0000
# 6 0.0000 0.0000 0.0000 1.5658 0.0000 27.5334
#
#
#
# Elastic Compliance Matrix: (Units=1/GPa)
#
#
# Indices 1 2 3 4 5 6 
#
# 1 0.013899 0.000753 -0.004018 0.000000 0.004183 0.000000
# 2 0.000753 0.023299 -0.007470 0.000000 0.007092 0.000000
# 3 -0.004018 -0.007470 0.012110 0.000000 -0.002551 0.000000
# 4 0.000000 0.000000 0.000000 0.038535 0.000000 -0.002191
# 5 0.004183 0.007092 -0.002551 0.000000 0.031737 0.000000
# 6 0.000000 0.000000 0.000000 -0.002191 0.000000 0.036444
#
#
# Mechanical properties :
#
#
# Convention : Reuss Voigt Hill
#
# Bulk Modulus (GPa) = 35.92225 46.42181 41.17203
# Shear Modulus (GPa) = 26.77010 29.56335 28.16672
#
# Velocity S-wave (km/s) = 3.38362 3.55577 3.47076
# Velocity P-wave (km/s) = 5.53428 6.05899 5.80257
#
# Compressibility (1/GPa) = 0.02783790
#
# Stress axis : x y z
#
# Youngs Moduli (GPa) = 71.94597 42.92029 82.57322
#
# Poissons Ratio (x) = -0.03231 0.33180
# Poissons Ratio (y) = -0.05416 0.61682
# Poissons Ratio (z) = 0.28909 0.32062
#
# Static dielectric constant tensor:
#      x y z
#    x 4.711120 0.000000 0.016220 
#    y 0.000000 4.172540 0.000000 
#    z 0.016220 0.000000 4.301130 
# 
# 
# High freq. dielectric constant tensor:
#      x y z
#    x 1.936830 0.000000 0.002790 
#    y 0.000000 1.922920 0.000000 
#    z 0.002790 0.000000 1.921550 
# 
# From -- ./inp_files/64572.got.cif
#   From: 2010.03.12/outbox.cif.g09.slc.cpg/sg5_33_cif.got.tgz:64572.got - 2010.03.31 09:47:26.
