data_PCOD8050298
_publ_section_title
;
Structure prediction by ZEFSAII (Michael W. Deem and Ramdas Pophale) SiO2 
 PCOD8050298
Probable space group: C 2
;
_chemical_formula_sum "Si O2"
_cell_formula_units_Z 24
_cell_length_a 12.351899
_cell_length_b 8.661610
_cell_length_c 24.365656
_cell_angle_alpha 90.000000
_cell_angle_beta 151.880232
_cell_angle_gamma 90.000000
_cell_volume 1228.634863
_symmetry_space_group_name_H-M "C 2"
_symmetry_group_IT_number 5
_symmetry_cell_setting 'monoclinic'
loop_
_space_group_symop_operation_xyz
x,y,z
-x,y,-z
1/2+x,1/2+y,z
1/2-x,1/2+y,-z
loop_
_atom_site_type_symbol
_atom_site_label
_atom_site_fract_x
_atom_site_fract_y
_atom_site_fract_z
Si Si1 0.500000 0.998111 0.000000
Si Si2 0.491647 0.776602 0.379720
Si Si3 0.000000 0.365241 0.500000
Si Si4 0.844494 0.277046 0.834341
Si Si5 0.176730 0.925967 0.151317
Si Si6 0.718341 0.776367 0.909941
Si Si7 0.610868 0.442243 0.396808
O O1 0.557343 0.896205 0.078100
O O2 0.719190 0.102784 0.081437
O O3 0.421222 0.761853 0.412560
O O4 0.302361 0.873876 0.262780
O O5 0.500167 0.605065 0.360632
O O6 0.736048 0.868289 0.485180
O O7 0.779781 0.467721 0.419753
O O8 0.584187 0.318153 0.703474
O O9 0.989779 0.280598 0.843356
O O10 0.854108 0.108504 0.864625
O O11 0.323579 0.878451 0.163334
O O12 0.928868 0.844586 0.039421
#
# Coordination Sequence:
#
# PCOD8050298 Si02
#       7
#     2   4   2   4   4   4   4
#     4  10  22  40  62  92 132 160 210 248 306 368
#     4  10  21  44  63  89 122 163 205 257 302 370
#     4   8  24  40  62  86 124 156 204 256 308 352
#     4  12  23  39  65  96 122 168 205 253 311 367
#     4  10  22  40  65  91 131 159 209 252 304 372
#     4  10  23  42  61  96 126 166 204 255 303 364
#     4  10  22  42  62  89 124 157 210 250 310 363
#
# _framework density 19.533874999999998
#
# number of rings (size 3 to 8) (size 9 to 14) (size 15 to 20)
#    1.000    1.000    0.000    5.000    0.000    5.333 
#    0.000    0.000    0.000    0.000    0.000    0.000 
#    0.000    0.000    0.000    0.000    0.000    0.000 
#
# Total GULP energy -148748.335129 kJ/mol
# GULP energy per Si atom -12395.694594 kJ/mol
# Density = 1.948942 g / cm^3
# Si number density = 19.533875 Si / 1000 Ang^3
#
#
#
# Elastic Constant Matrix: (Units=GPa)
#
#
# Indices 1 2 3 4 5 6 
#
# 1 137.6752 48.4906 48.2941 0.0000 -9.0391 0.0000
# 2 48.4906 117.7644 12.3558 0.0000 -4.1383 0.0000
# 3 48.2941 12.3558 74.1795 0.0004 -7.9881 0.0004
# 4 0.0000 0.0000 0.0004 18.5962 0.0001 -5.8728
# 5 -9.0391 -4.1383 -7.9881 0.0001 15.2523 0.0000
# 6 0.0000 0.0000 0.0004 -5.8728 0.0000 25.9750
#
#
#
# Elastic Compliance Matrix: (Units=1/GPa)
#
#
# Indices 1 2 3 4 5 6 
#
# 1 0.010926 -0.003766 -0.006251 0.000000 0.002179 0.000000
# 2 -0.003766 0.009982 0.000891 0.000000 0.000943 0.000000
# 3 -0.006251 0.000891 0.018047 -0.000001 0.005989 0.000000
# 4 0.000000 0.000000 -0.000001 0.057909 -0.000001 0.013093
# 5 0.002179 0.000943 0.005989 -0.000001 0.070248 0.000000
# 6 0.000000 0.000000 0.000000 0.013093 0.000000 0.041459
#
#
# Mechanical properties :
#
#
# Convention : Reuss Voigt Hill
#
# Bulk Modulus (GPa) = 48.30509 60.87781 54.59145
# Shear Modulus (GPa) = 21.39271 26.66329 24.02800
#
# Velocity S-wave (km/s) = 3.31291 3.69857 3.51104
# Velocity P-wave (km/s) = 6.27825 7.03364 6.66665
#
# Compressibility (1/GPa) = 0.02070175
#
# Stress axis : x y z
#
# Youngs Moduli (GPa) = 91.52525 100.17998 55.41039
#
# Poissons Ratio (x) = 0.37732 0.34638
# Poissons Ratio (y) = 0.34472 -0.04937
# Poissons Ratio (z) = 0.57215 -0.08926
#
# Static dielectric constant tensor:
#      x y z
#    x 3.526260 0.000000 -0.068800 
#    y 0.000000 3.533570 0.000000 
#    z -0.068800 0.000000 3.525830 
# 
# 
# High freq. dielectric constant tensor:
#      x y z
#    x 1.755760 0.000000 -0.007370 
#    y 0.000000 1.763720 0.000000 
#    z -0.007370 0.000000 1.763840 
# 
# From -- ./inp_files/47379.got.cif
#   From: 2010.03.12/outbox.cif.g09.slc.cpg/sg5_24_cif.got.tgz:47379.got - 2010.03.31 09:47:26.
