data_PCOD8050035
_publ_section_title
;
Structure prediction by ZEFSAII (Michael W. Deem and Ramdas Pophale) SiO2 
 PCOD8050035
Probable space group: C 2
;
_chemical_formula_sum "Si O2"
_cell_formula_units_Z 32
_cell_length_a 19.424576
_cell_length_b 11.584553
_cell_length_c 8.262748
_cell_angle_alpha 90.000000
_cell_angle_beta 131.084249
_cell_angle_gamma 90.000000
_cell_volume 1401.455302
_symmetry_space_group_name_H-M "C 2"
_symmetry_group_IT_number 5
_symmetry_cell_setting 'monoclinic'
loop_
_space_group_symop_operation_xyz
x,y,z
-x,y,-z
1/2+x,1/2+y,z
1/2-x,1/2+y,-z
loop_
_atom_site_type_symbol
_atom_site_label
_atom_site_fract_x
_atom_site_fract_y
_atom_site_fract_z
Si Si1 0.625850 0.692030 0.893276
Si Si2 0.866600 0.665951 0.977677
Si Si3 0.681116 0.139068 0.735245
Si Si4 0.033115 0.786812 0.365904
Si Si5 0.439264 0.928624 0.053415
Si Si6 0.535481 0.540308 0.237421
Si Si7 0.076905 0.421508 0.502523
Si Si8 0.174547 0.205349 0.592409
O O1 0.608771 0.822018 0.930421
O O2 0.540031 0.609145 0.778823
O O3 0.650099 0.686602 0.742544
O O4 0.710601 0.644122 0.131854
O O5 0.835289 0.687404 0.112300
O O6 0.962829 0.734599 0.121834
O O7 0.870099 0.533790 0.915658
O O8 0.784395 0.715851 0.739171
O O9 0.627052 0.211990 0.514045
O O10 0.648167 0.006247 0.696884
O O11 0.000000 0.783311 0.500000
O O12 0.053499 0.915962 0.342154
O O13 0.513241 0.994348 0.282800
O O14 0.500000 0.880543 0.000000
O O15 0.631475 0.608662 0.407167
O O16 0.500000 0.531905 0.000000
O O17 0.130173 0.327627 0.477349
O O18 0.000000 0.361312 0.500000
#
# Coordination Sequence:
#
# PCOD8050035 Si02
#       8
#     4   4   4   4   4   4   4   4
#     4  11  23  41  66  98 126 172 224 270 322 385
#     4  10  22  41  67 100 127 169 224 270 320 386
#     4  10  21  39  70  99 127 163 225 280 315 375
#     4  10  21  42  66  95 130 170 215 270 326 386
#     4  12  24  42  65  96 137 177 214 268 334 399
#     4  12  26  44  60  91 138 176 209 267 338 400
#     4  12  19  41  68  95 128 172 224 273 322 383
#     4  11  23  40  71  96 125 169 224 279 321 383
#
# _framework density 22.833406
#
# number of rings (size 3 to 8) (size 9 to 14) (size 15 to 20)
#    0.000    1.000    5.000    1.875    3.500    0.500 
#    2.250    0.000    0.000    0.000    0.000    0.000 
#    0.000    0.000    0.000    0.000    0.000    0.000 
#
# Total GULP energy -198209.020752 kJ/mol
# GULP energy per Si atom -12388.063797 kJ/mol
# Density = 2.278144 g / cm^3
# Si number density = 22.833406 Si / 1000 Ang^3
#
#
#
# Elastic Constant Matrix: (Units=GPa)
#
#
# Indices 1 2 3 4 5 6 
#
# 1 23.1700 5.6078 28.6620 0.0000 11.7729 0.0000
# 2 5.6078 118.3232 27.0324 0.0000 22.0238 0.0000
# 3 28.6620 27.0324 102.6277 0.0000 34.4447 0.0000
# 4 0.0000 0.0000 0.0000 26.3245 0.0000 7.7253
# 5 11.7729 22.0238 34.4447 0.0000 41.6625 0.0000
# 6 0.0000 0.0000 0.0000 7.7253 0.0000 16.8698
#
#
#
# Elastic Compliance Matrix: (Units=1/GPa)
#
#
# Indices 1 2 3 4 5 6 
#
# 1 0.066964 0.001818 -0.017311 0.000000 -0.005572 0.000000
# 2 0.001818 0.009516 -0.001597 0.000000 -0.004224 0.000000
# 3 -0.017311 -0.001597 0.018095 0.000000 -0.009225 0.000000
# 4 0.000000 0.000000 0.000000 0.043885 0.000000 -0.020097
# 5 -0.005572 -0.004224 -0.009225 0.000000 0.035437 0.000000
# 6 0.000000 0.000000 0.000000 -0.020097 0.000000 0.068481
#
#
# Mechanical properties :
#
#
# Convention : Reuss Voigt Hill
#
# Bulk Modulus (GPa) = 16.55695 40.74726 28.65210
# Shear Modulus (GPa) = 16.85271 29.15927 23.00599
#
# Velocity S-wave (km/s) = 2.71970 3.57745 3.17765
# Velocity P-wave (km/s) = 4.13875 5.91172 5.10283
#
# Compressibility (1/GPa) = 0.06039761
#
# Stress axis : x y z
#
# Youngs Moduli (GPa) = 14.93338 105.08271 55.26375
#
# Poissons Ratio (x) = -0.19107 0.95665
# Poissons Ratio (y) = -0.02715 0.08824
# Poissons Ratio (z) = 0.25851 0.16778
#
# Static dielectric constant tensor:
#      x y z
#    x 3.935400 0.000000 0.310840 
#    y 0.000000 3.907580 0.000000 
#    z 0.310840 0.000000 4.703720 
# 
# 
# High freq. dielectric constant tensor:
#      x y z
#    x 1.873980 0.000000 0.016430 
#    y 0.000000 1.896110 0.000000 
#    z 0.016430 0.000000 1.917850 
# 
# From -- ./inp_files/29637.got.cif
#   From: 2010.03.12/outbox.cif.g09.slc.cpg/sg5_15_cif.got.tgz:29637.got - 2010.03.31 09:47:26.
