data_PCOD8050647
_publ_section_title
;
Structure prediction by ZEFSAII (Michael W. Deem and Ramdas Pophale) SiO2 
 PCOD8050647
Probable space group: C 2
;
_chemical_formula_sum "Si O2"
_cell_formula_units_Z 24
_cell_length_a 8.547656
_cell_length_b 17.080690
_cell_length_c 8.400920
_cell_angle_alpha 90.000000
_cell_angle_beta 121.379475
_cell_angle_gamma 90.000000
_cell_volume 1047.137214
_symmetry_space_group_name_H-M "C 2"
_symmetry_group_IT_number 5
_symmetry_cell_setting 'monoclinic'
loop_
_space_group_symop_operation_xyz
x,y,z
-x,y,-z
1/2+x,1/2+y,z
1/2-x,1/2+y,-z
loop_
_atom_site_type_symbol
_atom_site_label
_atom_site_fract_x
_atom_site_fract_y
_atom_site_fract_z
Si Si1 0.695445 0.829950 0.184720
Si Si2 0.455951 0.454772 0.162231
Si Si3 0.813670 0.387085 0.460963
Si Si4 0.687985 0.244731 0.193153
Si Si5 0.647700 0.623651 0.947444
Si Si6 0.945466 0.675054 0.302455
O O1 0.798097 0.896076 0.135327
O O2 0.668177 0.855661 0.351312
O O3 0.821862 0.753230 0.249887
O O4 0.500000 0.813728 0.000000
O O5 0.640060 0.444297 0.363211
O O6 0.395047 0.543616 0.166415
O O7 0.500000 0.442773 0.000000
O O8 0.787644 0.320380 0.312938
O O9 0.000000 0.429950 0.500000
O O10 0.831668 0.196763 0.161633
O O11 0.636057 0.191716 0.316135
O O12 0.500000 0.267180 0.000000
O O13 0.500000 0.648132 0.000000
O O14 0.837629 0.609881 0.143956
O O15 0.000000 0.639397 0.500000
#
# Coordination Sequence:
#
# PCOD8050647 Si02
#       6
#     4   4   4   4   4   4
#     4  12  25  42  75 105 148 190 249 302 361 429
#     4  11  24  49  70 102 153 194 239 303 367 434
#     4  12  25  42  72 113 138 193 252 301 363 428
#     4  10  22  41  72 104 145 184 237 306 363 428
#     4  10  25  44  70 102 150 196 234 297 375 426
#     4  11  21  42  70 107 143 186 243 301 362 428
#
# _framework density 22.919632
#
# number of rings (size 3 to 8) (size 9 to 14) (size 15 to 20)
#    0.000    1.000    3.333    2.500    9.333    2.000 
#    0.000   15.000    0.000    0.000    0.000    0.000 
#    0.000    0.000    0.000    0.000    0.000    0.000 
#
# Total GULP energy -148772.927532 kJ/mol
# GULP energy per Si atom -12397.743961 kJ/mol
# Density = 2.286747 g / cm^3
# Si number density = 22.919632 Si / 1000 Ang^3
#
#
#
# Elastic Constant Matrix: (Units=GPa)
#
#
# Indices 1 2 3 4 5 6 
#
# 1 108.2377 24.5341 21.2001 0.0000 2.5542 0.0000
# 2 24.5341 93.8916 38.5088 0.0000 8.3138 0.0000
# 3 21.2001 38.5088 121.0717 0.0000 -9.7536 0.0000
# 4 0.0000 0.0000 0.0000 15.6327 0.0000 10.0959
# 5 2.5542 8.3138 -9.7536 0.0000 39.7189 0.0000
# 6 0.0000 0.0000 0.0000 10.0959 0.0000 22.3189
#
#
#
# Elastic Compliance Matrix: (Units=1/GPa)
#
#
# Indices 1 2 3 4 5 6 
#
# 1 0.009944 -0.002101 -0.001111 0.000000 -0.000473 0.000000
# 2 -0.002101 0.013216 -0.004129 0.000000 -0.003645 0.000000
# 3 -0.001111 -0.004129 0.010042 0.000000 0.003402 0.000000
# 4 0.000000 0.000000 0.000000 0.090368 0.000000 -0.040877
# 5 -0.000473 -0.003645 0.003402 0.000000 0.026806 0.000000
# 6 0.000000 0.000000 0.000000 -0.040877 0.000000 0.063296
#
#
# Mechanical properties :
#
#
# Convention : Reuss Voigt Hill
#
# Bulk Modulus (GPa) = 53.99890 54.63189 54.31540
# Shear Modulus (GPa) = 21.31960 31.46464 26.39212
#
# Velocity S-wave (km/s) = 3.05321 3.70918 3.39707
# Velocity P-wave (km/s) = 6.00339 6.49862 6.25591
#
# Compressibility (1/GPa) = 0.01851889
#
# Stress axis : x y z
#
# Youngs Moduli (GPa) = 100.56426 75.66642 99.58609
#
# Poissons Ratio (x) = 0.15896 0.11065
# Poissons Ratio (y) = 0.21127 0.41122
# Poissons Ratio (z) = 0.11174 0.31245
#
# Static dielectric constant tensor:
#      x y z
#    x 4.478160 0.000000 -0.013110 
#    y 0.000000 3.903740 0.000000 
#    z -0.013110 0.000000 4.587480 
# 
# 
# High freq. dielectric constant tensor:
#      x y z
#    x 1.925800 0.000000 -0.005330 
#    y 0.000000 1.880240 0.000000 
#    z -0.005330 0.000000 1.914310 
# 
# From -- ./inp_files/16846.got.cif
#   From: 2010.03.12/outbox.cif.g09.slc.cpg/sg5_9_cif.got.tgz:16846.got - 2010.03.31 09:47:26.
