data_PCOD8050619
_publ_section_title
;
Structure prediction by ZEFSAII (Michael W. Deem and Ramdas Pophale) SiO2 
 PCOD8050619
Probable space group: C 2
;
_chemical_formula_sum "Si O2"
_cell_formula_units_Z 26
_cell_length_a 9.495997
_cell_length_b 15.399868
_cell_length_c 15.673346
_cell_angle_alpha 90.000000
_cell_angle_beta 147.501244
_cell_angle_gamma 90.000000
_cell_volume 1231.461987
_symmetry_space_group_name_H-M "C 2"
_symmetry_group_IT_number 5
_symmetry_cell_setting 'monoclinic'
loop_
_space_group_symop_operation_xyz
x,y,z
-x,y,-z
1/2+x,1/2+y,z
1/2-x,1/2+y,-z
loop_
_atom_site_type_symbol
_atom_site_label
_atom_site_fract_x
_atom_site_fract_y
_atom_site_fract_z
Si Si1 0.579862 0.185250 0.177911
Si Si2 0.033257 0.251559 0.878678
Si Si3 0.506912 0.172407 0.339496
Si Si4 0.742284 0.501742 0.738310
Si Si5 0.500000 0.882580 0.000000
Si Si6 0.953807 0.292494 0.648689
Si Si7 0.854242 0.484156 0.610170
O O1 0.588750 0.183560 0.283993
O O2 0.764072 0.262917 0.240451
O O3 0.698762 0.098144 0.198734
O O4 0.284561 0.191025 0.990477
O O5 0.790377 0.201310 0.796917
O O6 0.936297 0.293696 0.741930
O O7 0.139989 0.323926 0.999605
O O8 0.713626 0.231275 0.496778
O O9 0.514322 0.069299 0.366801
O O10 0.921277 0.481415 0.746182
O O11 0.449906 0.494571 0.559022
O O12 0.784653 0.438911 0.840438
O O13 0.936108 0.392843 0.608736
#
# Coordination Sequence:
#
# PCOD8050619 Si02
#       7
#     4   4   4   4   2   4   4
#     4  11  24  45  67  99 136 174 221 275 339 393
#     4  12  25  44  65 101 138 177 217 274 338 400
#     4  11  23  46  69  96 137 180 221 275 334 400
#     4  10  22  41  67  96 131 179 220 270 330 405
#     4  12  22  42  64  98 130 182 220 264 330 406
#     4  12  24  43  70 100 133 176 226 280 329 393
#     4  10  22  42  67  99 130 172 228 276 330 388
#
# _framework density 21.113116999999999
#
# number of rings (size 3 to 8) (size 9 to 14) (size 15 to 20)
#    0.000    0.923    4.615    2.308    4.308    0.000 
#    2.769    4.615    0.000    0.000    0.000    0.000 
#    0.000    0.000    0.000    0.000    0.000    0.000 
#
# Total GULP energy -161158.899606 kJ/mol
# GULP energy per Si atom -12396.838431 kJ/mol
# Density = 2.106506 g / cm^3
# Si number density = 21.113117 Si / 1000 Ang^3
#
#
#
# Elastic Constant Matrix: (Units=GPa)
#
#
# Indices 1 2 3 4 5 6 
#
# 1 76.9078 55.1445 33.5499 0.0028 14.8828 0.0021
# 2 55.1445 181.9608 55.4194 -0.0004 3.9005 -0.0007
# 3 33.5499 55.4194 109.4395 0.0053 -0.6087 0.0029
# 4 0.0028 -0.0004 0.0053 39.1859 0.0026 -4.6403
# 5 14.8828 3.9005 -0.6087 0.0026 31.6037 0.0007
# 6 0.0021 -0.0007 0.0029 -4.6403 0.0007 34.2309
#
#
#
# Elastic Compliance Matrix: (Units=1/GPa)
#
#
# Indices 1 2 3 4 5 6 
#
# 1 0.019641 -0.004630 -0.003725 0.000000 -0.008749 -0.000001
# 2 -0.004630 0.007613 -0.002429 0.000001 0.001194 0.000001
# 3 -0.003725 -0.002429 0.011522 -0.000002 0.002276 -0.000001
# 4 0.000000 0.000001 -0.000002 0.025936 -0.000002 0.003516
# 5 -0.008749 0.001194 0.002276 -0.000002 0.035659 -0.000001
# 6 -0.000001 0.000001 -0.000001 0.003516 -0.000001 0.029690
#
#
# Mechanical properties :
#
#
# Convention : Reuss Voigt Hill
#
# Bulk Modulus (GPa) = 58.11510 72.94843 65.53176
# Shear Modulus (GPa) = 31.77329 35.95038 33.86183
#
# Velocity S-wave (km/s) = 3.88352 4.13092 4.00913
# Velocity P-wave (km/s) = 6.90611 7.57488 7.24821
#
# Compressibility (1/GPa) = 0.01720723
#
# Stress axis : x y z
#
# Youngs Moduli (GPa) = 50.91478 131.35177 86.78895
#
# Poissons Ratio (x) = 0.60818 0.32329
# Poissons Ratio (y) = 0.23574 0.21083
# Poissons Ratio (z) = 0.18966 0.31908
#
# Static dielectric constant tensor:
#      x y z
#    x 3.666480 -0.000020 -0.217660 
#    y -0.000020 4.217460 -0.000010 
#    z -0.217660 -0.000010 3.866860 
# 
# 
# High freq. dielectric constant tensor:
#      x y z
#    x 1.809220 0.000000 -0.011630 
#    y 0.000000 1.840770 0.000000 
#    z -0.011630 0.000000 1.834310 
# 
# From -- ./inp_files/51027.got.cif
#   From: 2010.03.12/outbox.cif.g09.slc.cpg/sg5_26_cif.got.tgz:51027.got - 2010.03.31 09:47:26.
