data_PCOD8050017
_publ_section_title
;
Structure prediction by ZEFSAII (Michael W. Deem and Ramdas Pophale) SiO2 
 PCOD8050017
Probable space group: C 2
;
_chemical_formula_sum "Si O2"
_cell_formula_units_Z 32
_cell_length_a 11.843313
_cell_length_b 13.848721
_cell_length_c 14.200346
_cell_angle_alpha 90.000000
_cell_angle_beta 139.475780
_cell_angle_gamma 90.000000
_cell_volume 1513.355897
_symmetry_space_group_name_H-M "C 2"
_symmetry_group_IT_number 5
_symmetry_cell_setting 'monoclinic'
loop_
_space_group_symop_operation_xyz
x,y,z
-x,y,-z
1/2+x,1/2+y,z
1/2-x,1/2+y,-z
loop_
_atom_site_type_symbol
_atom_site_label
_atom_site_fract_x
_atom_site_fract_y
_atom_site_fract_z
Si Si1 0.475279 0.737290 0.224404
Si Si2 0.448881 0.944352 0.173757
Si Si3 0.638824 0.531334 0.870567
Si Si4 0.661713 0.259428 0.165437
Si Si5 0.929534 0.504594 0.558884
Si Si6 0.383275 0.228097 0.518706
Si Si7 0.122899 0.872897 0.323726
Si Si8 0.853696 0.544695 0.837376
O O1 0.424683 0.831643 0.129821
O O2 0.445759 0.634794 0.152691
O O3 0.345928 0.746868 0.230639
O O4 0.678085 0.748295 0.377437
O O5 0.440406 0.959266 0.281137
O O6 0.636568 0.980477 0.251623
O O7 0.308441 0.016701 0.040826
O O8 0.523566 0.438647 0.816779
O O9 0.672482 0.535478 0.778684
O O10 0.704920 0.319882 0.285901
O O11 0.599592 0.154307 0.160023
O O12 0.500000 0.302423 0.000000
O O13 0.904465 0.617473 0.563326
O O14 0.751835 0.446185 0.457418
O O15 0.000000 0.486226 0.500000
O O16 0.500000 0.249714 0.500000
O O17 0.450251 0.296825 0.645749
O O18 0.000000 0.501981 0.000000
#
# Coordination Sequence:
#
# PCOD8050017 Si02
#       8
#     4   4   4   4   4   4   4   4
#     4  11  22  42  66  95 136 169 213 276 325 377
#     4  11  21  40  69  91 127 174 216 266 334 381
#     4  10  23  40  66  97 129 162 221 272 322 391
#     4  10  21  39  66  97 129 162 219 281 324 377
#     4  11  24  42  62  88 132 173 215 267 324 382
#     4  11  26  44  63  95 140 176 216 266 320 393
#     4  12  23  39  67  95 124 174 221 262 326 391
#     4   8  18  37  61  92 125 159 204 269 324 374
#
# _framework density 21.145060000000001
#
# number of rings (size 3 to 8) (size 9 to 14) (size 15 to 20)
#    0.000    1.500    2.500    3.000    1.750    1.000 
#    0.000    0.000    0.000    0.000    0.000    0.000 
#    0.000    0.000    0.000    0.000    0.000    0.000 
#
# Total GULP energy -198256.600845 kJ/mol
# GULP energy per Si atom -12391.037553 kJ/mol
# Density = 2.109693 g / cm^3
# Si number density = 21.145060 Si / 1000 Ang^3
#
#
#
# Elastic Constant Matrix: (Units=GPa)
#
#
# Indices 1 2 3 4 5 6 
#
# 1 101.3628 43.2967 35.3800 0.0001 1.0635 0.0001
# 2 43.2967 136.9757 29.7336 0.0000 -10.9594 0.0001
# 3 35.3800 29.7336 74.1325 0.0001 -0.9865 0.0003
# 4 0.0001 0.0000 0.0001 25.2108 0.0000 -3.0435
# 5 1.0635 -10.9594 -0.9865 0.0000 29.6206 0.0001
# 6 0.0001 0.0001 0.0003 -3.0435 0.0001 29.2855
#
#
#
# Elastic Compliance Matrix: (Units=1/GPa)
#
#
# Indices 1 2 3 4 5 6 
#
# 1 0.012962 -0.003169 -0.004939 0.000000 -0.001803 0.000000
# 2 -0.003169 0.009020 -0.002060 0.000000 0.003383 0.000000
# 3 -0.004939 -0.002060 0.016673 0.000000 -0.000030 0.000000
# 4 0.000000 0.000000 0.000000 0.040170 0.000000 0.004175
# 5 -0.001803 0.003383 -0.000030 0.000000 0.035076 0.000000
# 6 0.000000 0.000000 0.000000 0.004175 0.000000 0.034580
#
#
# Mechanical properties :
#
#
# Convention : Reuss Voigt Hill
#
# Bulk Modulus (GPa) = 54.59248 58.81017 56.70132
# Shear Modulus (GPa) = 28.58392 30.42744 29.50568
#
# Velocity S-wave (km/s) = 3.68067 3.79751 3.73955
# Velocity P-wave (km/s) = 6.62852 6.86303 6.74680
#
# Compressibility (1/GPa) = 0.01831754
#
# Stress axis : x y z
#
# Youngs Moduli (GPa) = 77.14768 110.86195 59.97894
#
# Poissons Ratio (x) = 0.35135 0.29624
# Poissons Ratio (y) = 0.24450 0.12358
# Poissons Ratio (z) = 0.38104 0.22841
#
# Static dielectric constant tensor:
#      x y z
#    x 3.943740 0.000000 0.046700 
#    y 0.000000 4.153070 0.000000 
#    z 0.046700 0.000000 3.543210 
# 
# 
# High freq. dielectric constant tensor:
#      x y z
#    x 1.824590 0.000000 0.006160 
#    y 0.000000 1.851740 0.000000 
#    z 0.006160 0.000000 1.801520 
# 
# From -- ./inp_files/53200.got.cif
#   From: 2010.03.12/outbox.cif.g09.slc.cpg/sg5_27_cif.got.tgz:53200.got - 2010.03.31 09:47:26.
