data_PCOD8050059
_publ_section_title
;
Structure prediction by ZEFSAII (Michael W. Deem and Ramdas Pophale) SiO2 
 PCOD8050059
Probable space group: C 2
;
_chemical_formula_sum "Si O2"
_cell_formula_units_Z 32
_cell_length_a 26.570938
_cell_length_b 6.846533
_cell_length_c 9.071148
_cell_angle_alpha 90.000000
_cell_angle_beta 84.509475
_cell_angle_gamma 90.000000
_cell_volume 1642.641277
_symmetry_space_group_name_H-M "C 2"
_symmetry_group_IT_number 5
_symmetry_cell_setting 'monoclinic'
loop_
_space_group_symop_operation_xyz
x,y,z
-x,y,-z
1/2+x,1/2+y,z
1/2-x,1/2+y,-z
loop_
_atom_site_type_symbol
_atom_site_label
_atom_site_fract_x
_atom_site_fract_y
_atom_site_fract_z
Si Si1 0.810845 0.170240 0.081133
Si Si2 0.706038 0.992012 0.151158
Si Si3 0.635404 0.279654 0.997408
Si Si4 0.989169 0.440955 0.172795
Si Si5 0.057174 0.750796 0.267816
Si Si6 0.872635 0.460522 0.582492
Si Si7 0.374555 0.971289 0.245405
Si Si8 0.042198 0.178441 0.370714
O O1 0.836141 0.312515 0.191976
O O2 0.762877 0.062335 0.167141
O O3 0.794112 0.292505 0.942564
O O4 0.850804 0.005768 0.023592
O O5 0.679770 0.945562 0.314043
O O6 0.678254 0.166623 0.075063
O O7 0.583038 0.275889 0.101075
O O8 0.628061 0.176080 0.841365
O O9 0.004448 0.637634 0.256967
O O10 0.025928 0.268191 0.218101
O O11 0.931255 0.387529 0.220039
O O12 0.000000 0.469774 0.000000
O O13 0.093387 0.635025 0.367165
O O14 0.044986 0.948582 0.354085
O O15 0.858655 0.505739 0.417976
O O16 0.903291 0.257995 0.592673
O O17 0.000000 0.240957 0.500000
#
# Coordination Sequence:
#
# PCOD8050059 Si02
#       8
#     4   4   4   4   4   4   4   4
#     4  11  22  40  67  90 116 158 206 260 308 365
#     4  10  21  42  67  86 117 155 207 256 309 361
#     4  10  21  40  62  91 115 154 206 254 301 359
#     4  11  23  41  58  87 131 161 201 256 297 356
#     4  10  23  37  64  89 118 168 210 239 301 365
#     4  10  23  44  59  89 130 162 197 261 305 364
#     4  11  24  40  58  90 129 160 196 253 311 361
#     4  11  23  38  64  91 120 171 207 241 305 368
#
# _framework density 19.480820000000001
#
# number of rings (size 3 to 8) (size 9 to 14) (size 15 to 20)
#    0.000    1.500    3.750    0.750    5.250    2.500 
#    2.250    0.000    0.000    0.000    0.000    0.000 
#    0.000    0.000    0.000    0.000    0.000    0.000 
#
# Total GULP energy -198465.915951 kJ/mol
# GULP energy per Si atom -12404.119747 kJ/mol
# Density = 1.943648 g / cm^3
# Si number density = 19.480820 Si / 1000 Ang^3
#
#
#
# Elastic Constant Matrix: (Units=GPa)
#
#
# Indices 1 2 3 4 5 6 
#
# 1 100.2234 28.9079 43.6330 0.0000 -5.5104 0.0000
# 2 28.9079 108.1247 36.6443 0.0000 0.4510 0.0000
# 3 43.6330 36.6443 128.1718 0.0000 -7.5816 0.0000
# 4 0.0000 0.0000 0.0000 18.1208 0.0000 -6.5964
# 5 -5.5104 0.4510 -7.5816 0.0000 24.6363 0.0000
# 6 0.0000 0.0000 0.0000 -6.5964 0.0000 28.3210
#
#
#
# Elastic Compliance Matrix: (Units=1/GPa)
#
#
# Indices 1 2 3 4 5 6 
#
# 1 0.012175 -0.002095 -0.003445 0.000000 0.001701 0.000000
# 2 -0.002095 0.010631 -0.002409 0.000000 -0.001405 0.000000
# 3 -0.003445 -0.002409 0.009799 0.000000 0.002289 0.000000
# 4 0.000000 0.000000 0.000000 0.060298 0.000000 0.014044
# 5 0.001701 -0.001405 0.002289 0.000000 0.041701 0.000000
# 6 0.000000 0.000000 0.000000 0.014044 0.000000 0.038581
#
#
# Mechanical properties :
#
#
# Convention : Reuss Voigt Hill
#
# Bulk Modulus (GPa) = 59.85583 61.65449 60.75516
# Shear Modulus (GPa) = 25.68673 29.37125 27.52899
#
# Velocity S-wave (km/s) = 3.63514 3.88713 3.76324
# Velocity P-wave (km/s) = 6.95782 7.20166 7.08079
#
# Compressibility (1/GPa) = 0.01670681
#
# Stress axis : x y z
#
# Youngs Moduli (GPa) = 82.13318 94.06424 102.04953
#
# Poissons Ratio (x) = 0.19703 0.35159
# Poissons Ratio (y) = 0.17204 0.24588
# Poissons Ratio (z) = 0.28297 0.22664
#
# Static dielectric constant tensor:
#      x y z
#    x 3.588380 0.000000 -0.074750 
#    y 0.000000 3.508360 0.000000 
#    z -0.074750 0.000000 3.543880 
# 
# 
# High freq. dielectric constant tensor:
#      x y z
#    x 1.758740 0.000000 -0.005220 
#    y 0.000000 1.760690 0.000000 
#    z -0.005220 0.000000 1.756960 
# 
# From -- ./inp_files/32276.got.cif
#   From: 2010.03.12/outbox.cif.g09.slc.cpg/sg5_17_cif.got.tgz:32276.got - 2010.03.31 09:47:26.
