data_PCOD8050497
_publ_section_title
;
Structure prediction by ZEFSAII (Michael W. Deem and Ramdas Pophale) SiO2 
 PCOD8050497
Probable space group: C 2
;
_chemical_formula_sum "Si O2"
_cell_formula_units_Z 30
_cell_length_a 19.114969
_cell_length_b 12.202961
_cell_length_c 14.523223
_cell_angle_alpha 90.000000
_cell_angle_beta 152.966891
_cell_angle_gamma 90.000000
_cell_volume 1539.716561
_symmetry_space_group_name_H-M "C 2"
_symmetry_group_IT_number 5
_symmetry_cell_setting 'monoclinic'
loop_
_space_group_symop_operation_xyz
x,y,z
-x,y,-z
1/2+x,1/2+y,z
1/2-x,1/2+y,-z
loop_
_atom_site_type_symbol
_atom_site_label
_atom_site_fract_x
_atom_site_fract_y
_atom_site_fract_z
Si Si1 0.000000 0.261261 0.000000
Si Si2 0.687893 0.608124 0.355039
Si Si3 0.231724 0.746140 0.374995
Si Si4 0.672309 0.640947 0.704467
Si Si5 0.517589 0.419191 0.917692
Si Si6 0.942353 0.452229 0.648194
Si Si7 0.357007 0.871528 0.263931
Si Si8 0.577663 0.969245 0.000799
O O1 0.885882 0.190986 0.803939
O O2 0.891806 0.341009 0.936815
O O3 0.739555 0.664310 0.508968
O O4 0.570106 0.510478 0.246502
O O5 0.842025 0.553986 0.491470
O O6 0.259193 0.686562 0.310558
O O7 0.059034 0.797849 0.181426
O O8 0.353333 0.841911 0.522371
O O9 0.500000 0.594163 0.500000
O O10 0.670793 0.740285 0.777434
O O11 0.772026 0.536714 0.853038
O O12 0.500000 0.463400 0.000000
O O13 0.697594 0.423128 0.109094
O O14 0.104947 0.433929 0.787116
O O15 0.961610 0.471309 0.779294
O O16 0.500000 0.894884 0.500000
O O17 0.500000 0.026938 0.000000
#
# Coordination Sequence:
#
# PCOD8050497 Si02
#       8
#     2   4   4   4   4   4   4   4
#     4  10  22  40  62  88 128 162 212 260 316 366
#     4  11  23  38  65  90 125 169 216 264 319 379
#     4  11  21  39  63  96 123 164 219 267 304 382
#     4  11  22  38  67  91 129 167 208 267 329 362
#     4  11  22  37  66  92 123 170 220 258 318 387
#     4  11  22  41  62  95 131 163 215 269 316 378
#     4  11  22  40  61  97 133 161 210 281 316 371
#     4  10  23  41  65  95 127 168 216 260 313 391
#
# _framework density 19.484106000000001
#
# number of rings (size 3 to 8) (size 9 to 14) (size 15 to 20)
#    0.400    0.800    6.000    1.600    3.733    1.067 
#    0.000    0.000    2.933    0.000    0.000    0.000 
#    0.000    0.000    0.000    0.000    0.000    0.000 
#
# Total GULP energy -185866.266504 kJ/mol
# GULP energy per Si atom -12391.084434 kJ/mol
# Density = 1.943976 g / cm^3
# Si number density = 19.484106 Si / 1000 Ang^3
#
#
#
# Elastic Constant Matrix: (Units=GPa)
#
#
# Indices 1 2 3 4 5 6 
#
# 1 88.1613 36.4914 46.3067 0.0000 8.7081 0.0000
# 2 36.4914 109.0898 46.0002 0.0000 -1.5117 0.0000
# 3 46.3067 46.0002 87.7625 0.0000 5.1052 0.0000
# 4 0.0000 0.0000 0.0000 65.0745 0.0000 22.6268
# 5 8.7081 -1.5117 5.1052 0.0000 30.2541 0.0000
# 6 0.0000 0.0000 0.0000 22.6268 0.0000 56.0915
#
#
#
# Elastic Compliance Matrix: (Units=1/GPa)
#
#
# Indices 1 2 3 4 5 6 
#
# 1 0.016529 -0.002558 -0.007167 0.000000 -0.003676 0.000000
# 2 -0.002558 0.012245 -0.005198 0.000000 0.002225 0.000000
# 3 -0.007167 -0.005198 0.017972 0.000000 -0.001230 0.000000
# 4 0.000000 0.000000 0.000000 0.017874 0.000000 -0.007210
# 5 -0.003676 0.002225 -0.001230 0.000000 0.034430 0.000000
# 6 0.000000 0.000000 0.000000 -0.007210 0.000000 0.020737
#
#
# Mechanical properties :
#
#
# Convention : Reuss Voigt Hill
#
# Bulk Modulus (GPa) = 59.16949 60.29001 59.72975
# Shear Modulus (GPa) = 32.20287 40.69836 36.45061
#
# Velocity S-wave (km/s) = 4.06985 4.57530 4.32995
# Velocity P-wave (km/s) = 7.24699 7.67603 7.46459
#
# Compressibility (1/GPa) = 0.01690060
#
# Stress axis : x y z
#
# Youngs Moduli (GPa) = 60.49942 81.66523 55.64274
#
# Poissons Ratio (x) = 0.20890 0.39878
# Poissons Ratio (y) = 0.15476 0.28923
# Poissons Ratio (z) = 0.43358 0.42449
#
# Static dielectric constant tensor:
#      x y z
#    x 3.508360 0.000000 0.076010 
#    y 0.000000 3.777260 0.000000 
#    z 0.076010 0.000000 3.719300 
# 
# 
# High freq. dielectric constant tensor:
#      x y z
#    x 1.736390 0.000000 -0.001870 
#    y 0.000000 1.763030 0.000000 
#    z -0.001870 0.000000 1.764990 
# 
# From -- ./inp_files/23907.got.cif
#   From: 2010.03.12/outbox.cif.g09.slc.cpg/sg5_12_cif.got.tgz:23907.got - 2010.03.31 09:47:26.
