data_PCOD8050873
_publ_section_title
;
Structure prediction by ZEFSAII (Michael W. Deem and Ramdas Pophale) SiO2 
 PCOD8050873
Probable space group: C 2
;
_chemical_formula_sum "Si O2"
_cell_formula_units_Z 24
_cell_length_a 9.587097
_cell_length_b 17.844647
_cell_length_c 9.322318
_cell_angle_alpha 90.000000
_cell_angle_beta 45.468142
_cell_angle_gamma 90.000000
_cell_volume 1136.903535
_symmetry_space_group_name_H-M "C 2"
_symmetry_group_IT_number 5
_symmetry_cell_setting 'monoclinic'
loop_
_space_group_symop_operation_xyz
x,y,z
-x,y,-z
1/2+x,1/2+y,z
1/2-x,1/2+y,-z
loop_
_atom_site_type_symbol
_atom_site_label
_atom_site_fract_x
_atom_site_fract_y
_atom_site_fract_z
Si Si1 0.496362 0.445430 0.842848
Si Si2 0.617374 0.778468 0.059379
Si Si3 0.568615 0.948164 0.113185
Si Si4 0.972594 0.798882 0.348774
Si Si5 0.835946 0.546521 0.504146
Si Si6 0.124344 0.192599 0.551447
O O1 0.538431 0.385321 0.688370
O O2 0.661070 0.508473 0.717320
O O3 0.500000 0.409355 0.000000
O O4 0.285316 0.483765 0.967052
O O5 0.586169 0.861098 0.151314
O O6 0.538559 0.711276 0.212908
O O7 0.500000 0.776865 0.000000
O O8 0.844064 0.760957 0.863720
O O9 0.419235 0.990768 0.323901
O O10 0.500000 0.954937 0.000000
O O11 0.774584 0.761623 0.434661
O O12 0.000000 0.792887 0.500000
O O13 0.752864 0.620037 0.489647
O O14 0.000000 0.570480 0.500000
O O15 0.000000 0.179899 0.500000
#
# Coordination Sequence:
#
# PCOD8050873 Si02
#       6
#     4   4   4   4   4   4
#     4  11  25  43  72 106 133 175 225 285 335 399
#     4  10  22  44  73 101 131 174 226 277 338 402
#     4  10  24  44  72 102 131 172 227 285 339 399
#     4  11  24  45  73 104 136 177 224 277 342 405
#     4  12  27  47  67  94 141 184 227 272 342 406
#     4  12  29  44  66 100 137 183 226 283 335 402
#
# _framework density 21.109971000000002
#
# number of rings (size 3 to 8) (size 9 to 14) (size 15 to 20)
#    0.000    1.000    3.333    1.500   11.667    3.333 
#    0.000    0.000    0.000    0.000    0.000    0.000 
#    0.000    0.000    0.000    0.000    0.000    0.000 
#
# Total GULP energy -148815.125587 kJ/mol
# GULP energy per Si atom -12401.260466 kJ/mol
# Density = 2.106192 g / cm^3
# Si number density = 21.109971 Si / 1000 Ang^3
#
#
#
# Elastic Constant Matrix: (Units=GPa)
#
#
# Indices 1 2 3 4 5 6 
#
# 1 151.6193 36.2863 47.9591 0.0000 -14.8749 0.0000
# 2 36.2863 62.8814 47.0176 0.0000 1.8806 0.0000
# 3 47.9591 47.0176 121.3196 0.0000 -10.4711 0.0000
# 4 0.0000 0.0000 0.0000 27.5897 0.0000 -3.0097
# 5 -14.8749 1.8806 -10.4711 0.0000 29.7631 0.0000
# 6 0.0000 0.0000 0.0000 -3.0097 0.0000 24.2480
#
#
#
# Elastic Compliance Matrix: (Units=1/GPa)
#
#
# Indices 1 2 3 4 5 6 
#
# 1 0.008365 -0.003834 -0.001484 0.000000 0.003901 0.000000
# 2 -0.003834 0.024779 -0.008651 0.000000 -0.006525 0.000000
# 3 -0.001484 -0.008651 0.012546 0.000000 0.004219 0.000000
# 4 0.000000 0.000000 0.000000 0.036743 0.000000 0.004561
# 5 0.003901 -0.006525 0.004219 0.000000 0.037445 0.000000
# 6 0.000000 0.000000 0.000000 0.004561 0.000000 0.041807
#
#
# Mechanical properties :
#
#
# Convention : Reuss Voigt Hill
#
# Bulk Modulus (GPa) = 56.33095 66.48292 61.40693
# Shear Modulus (GPa) = 25.57022 29.95731 27.76376
#
# Velocity S-wave (km/s) = 3.48413 3.77119 3.63050
# Velocity P-wave (km/s) = 6.55195 7.10806 6.83566
#
# Compressibility (1/GPa) = 0.01775223
#
# Stress axis : x y z
#
# Youngs Moduli (GPa) = 119.54194 40.35695 79.70576
#
# Poissons Ratio (x) = 0.15473 0.11831
# Poissons Ratio (y) = 0.45833 0.68951
# Poissons Ratio (z) = 0.17744 0.34911
#
# Static dielectric constant tensor:
#      x y z
#    x 4.024880 0.000000 -0.242060 
#    y 0.000000 3.710320 0.000000 
#    z -0.242060 0.000000 3.912950 
# 
# 
# High freq. dielectric constant tensor:
#      x y z
#    x 1.847840 0.000000 -0.012120 
#    y 0.000000 1.806820 0.000000 
#    z -0.012120 0.000000 1.841400 
# 
# From -- ./inp_files/16712.got.cif
#   From: 2010.03.12/outbox.cif.g09.slc.cpg/sg5_9_cif.got.tgz:16712.got - 2010.03.31 09:47:26.
