data_PCOD8050719
_publ_section_title
;
Structure prediction by ZEFSAII (Michael W. Deem and Ramdas Pophale) SiO2 
 PCOD8050719
Probable space group: C 2
;
_chemical_formula_sum "Si O2"
_cell_formula_units_Z 30
_cell_length_a 32.807298
_cell_length_b 7.616922
_cell_length_c 19.612942
_cell_angle_alpha 90.000000
_cell_angle_beta 163.826825
_cell_angle_gamma 90.000000
_cell_volume 1365.156986
_symmetry_space_group_name_H-M "C 2"
_symmetry_group_IT_number 5
_symmetry_cell_setting 'monoclinic'
loop_
_space_group_symop_operation_xyz
x,y,z
-x,y,-z
1/2+x,1/2+y,z
1/2-x,1/2+y,-z
loop_
_atom_site_type_symbol
_atom_site_label
_atom_site_fract_x
_atom_site_fract_y
_atom_site_fract_z
Si Si1 0.500000 0.887300 0.500000
Si Si2 0.347718 0.409918 0.592819
Si Si3 0.135907 0.752537 0.031996
Si Si4 0.553123 0.733189 0.159190
Si Si5 0.341539 0.314838 0.217446
Si Si6 0.790605 0.677969 0.994132
Si Si7 0.313975 0.094070 0.294181
Si Si8 0.259011 0.909955 0.728878
O O1 0.634905 0.767284 0.734467
O O2 0.468419 0.007503 0.516948
O O3 0.474420 0.262323 0.806167
O O4 0.408212 0.580582 0.727027
O O5 0.197384 0.351314 0.385133
O O6 0.324152 0.448555 0.475062
O O7 0.107953 0.719666 0.907392
O O8 0.235425 0.596290 0.222586
O O9 0.213167 0.943288 0.165504
O O10 0.500000 0.659687 0.000000
O O11 0.426174 0.851588 0.986911
O O12 0.500000 0.371741 0.500000
O O13 0.229311 0.472020 0.033061
O O14 0.257166 0.172527 0.130167
O O15 0.372725 0.244361 0.192385
O O16 0.327368 0.257369 0.368376
#
# Coordination Sequence:
#
# PCOD8050719 Si02
#       8
#     2   4   4   4   4   4   4   4
#     4  10  22  42  68  98 130 192 234 272 352 394
#     4  11  24  43  74 102 133 180 216 266 350 405
#     4  11  24  43  67 103 136 175 228 279 338 396
#     4  10  23  46  70 101 138 169 220 272 333 414
#     4  12  25  44  68  94 135 188 232 285 340 392
#     4  11  24  42  66  99 136 181 240 284 334 407
#     4  11  23  45  65  96 142 176 228 285 328 391
#     4  11  24  46  69 101 138 172 223 284 329 405
#
# _framework density 21.975494000000001
#
# number of rings (size 3 to 8) (size 9 to 14) (size 15 to 20)
#    0.000    1.067    4.000    2.400    1.867    1.067 
#    7.200    0.000    0.000    0.000    0.000    0.000 
#    0.000    0.000    0.000    0.000    0.000    0.000 
#
# Total GULP energy -185908.860581 kJ/mol
# GULP energy per Si atom -12393.924039 kJ/mol
# Density = 2.192548 g / cm^3
# Si number density = 21.975494 Si / 1000 Ang^3
#
#
#
# Elastic Constant Matrix: (Units=GPa)
#
#
# Indices 1 2 3 4 5 6 
#
# 1 109.3115 45.1007 28.4555 0.0000 -8.3425 0.0000
# 2 45.1007 129.7742 26.8060 0.0000 -12.7580 0.0000
# 3 28.4555 26.8060 77.0365 0.0000 -1.1454 0.0000
# 4 0.0000 0.0000 0.0000 -80.8002 0.0000 -2.6745
# 5 -8.3425 -12.7580 -1.1454 0.0000 44.9130 0.0000
# 6 0.0000 0.0000 0.0000 -2.6745 0.0000 39.4959
#
#
#
# Elastic Compliance Matrix: (Units=1/GPa)
#
#
# Indices 1 2 3 4 5 6 
#
# 1 0.011352 -0.003203 -0.003062 0.000000 0.001121 0.000000
# 2 -0.003203 0.009447 -0.002074 0.000000 0.002036 0.000000
# 3 -0.003062 -0.002074 0.014822 0.000000 -0.000780 0.000000
# 4 0.000000 0.000000 0.000000 -0.012349 0.000000 -0.000836
# 5 0.001121 0.002036 -0.000780 0.000000 0.023032 0.000000
# 6 0.000000 0.000000 0.000000 -0.000836 0.000000 0.025262
#
#
# Mechanical properties :
#
#
# Convention : Reuss Voigt Hill
#
# Bulk Modulus (GPa) = 52.78761 57.42741 55.10751
# Shear Modulus (GPa) = 52.87674 15.10574 33.99124
#
# Velocity S-wave (km/s) = 4.91059 2.62466 3.93718
# Velocity P-wave (km/s) = 7.49834 5.94763 6.76755
#
# Compressibility (1/GPa) = 0.01894384
#
# Stress axis : x y z
#
# Youngs Moduli (GPa) = 88.08884 105.85094 67.46690
#
# Poissons Ratio (x) = 0.33899 0.20660
# Poissons Ratio (y) = 0.28211 0.13993
# Poissons Ratio (z) = 0.26974 0.21955
#
# Static dielectric constant tensor:
#      x y z
#    x 4.208790 0.000000 0.118300 
#    y 0.000000 4.086040 0.000000 
#    z 0.118300 0.000000 3.919330 
# 
# 
# High freq. dielectric constant tensor:
#      x y z
#    x 1.871420 0.000000 0.006700 
#    y 0.000000 1.873720 0.000000 
#    z 0.006700 0.000000 1.861190 
# 
# From -- ./inp_files/63816.got.cif
#   From: 2010.03.12/outbox.cif.g09.slc.cpg/sg5_32_cif.got.tgz:63816.got - 2010.03.31 09:47:26.
