data_PCOD8050631
_publ_section_title
;
Structure prediction by ZEFSAII (Michael W. Deem and Ramdas Pophale) SiO2 
 PCOD8050631
Probable space group: C 2
;
_chemical_formula_sum "Si O2"
_cell_formula_units_Z 28
_cell_length_a 28.430485
_cell_length_b 5.463370
_cell_length_c 9.732310
_cell_angle_alpha 90.000000
_cell_angle_beta 124.481863
_cell_angle_gamma 90.000000
_cell_volume 1246.088775
_symmetry_space_group_name_H-M "C 2"
_symmetry_group_IT_number 5
_symmetry_cell_setting 'monoclinic'
loop_
_space_group_symop_operation_xyz
x,y,z
-x,y,-z
1/2+x,1/2+y,z
1/2-x,1/2+y,-z
loop_
_atom_site_type_symbol
_atom_site_label
_atom_site_fract_x
_atom_site_fract_y
_atom_site_fract_z
Si Si1 0.182032 0.700140 0.420229
Si Si2 0.020717 0.946453 0.782859
Si Si3 0.399089 0.826300 0.213649
Si Si4 0.094992 0.573676 0.052872
Si Si5 0.774781 0.245333 0.103118
Si Si6 0.292986 0.700780 0.437072
Si Si7 0.500000 0.742693 0.000000
Si Si8 0.500000 0.143888 0.500000
O O1 0.143737 0.701550 0.221146
O O2 0.248315 0.701205 0.488207
O O3 0.169704 0.451629 0.487427
O O4 0.169667 0.949631 0.486485
O O5 0.982958 0.804598 0.606432
O O6 0.069722 0.078347 0.776614
O O7 0.984950 0.114106 0.828186
O O8 0.048159 0.769169 0.937946
O O9 0.343343 0.762669 0.208170
O O10 0.443874 0.984976 0.376020
O O11 0.377672 0.963353 0.040646
O O12 0.060105 0.377557 0.083159
O O13 0.760161 0.201789 0.237897
O O14 0.746791 0.504456 0.013295
#
# Coordination Sequence:
#
# PCOD8050631 Si02
#       8
#     4   4   4   4   4   4   2   2
#     4  10  22  42  67  93 136 175 217 285 340 411
#     4  10  22  43  68  95 138 183 231 293 356 424
#     4  10  24  43  69 103 134 190 239 281 371 414
#     4  10  22  41  68  95 130 180 225 282 349 420
#     4  12  27  46  72 104 143 186 239 298 343 434
#     4  10  23  43  64 101 131 172 230 273 349 400
#     4  10  22  42  62 106 128 170 244 278 348 436
#     4  10  22  46  70 100 140 192 230 304 354 444
#
# _framework density 22.470307999999999
#
# number of rings (size 3 to 8) (size 9 to 14) (size 15 to 20)
#    0.000    1.714    0.000    2.571   10.000    1.143 
#   12.857    0.000    0.000    0.000    0.000    0.000 
#    0.000    0.000    0.000    0.000    0.000    0.000 
#
# Total GULP energy -173502.751756 kJ/mol
# GULP energy per Si atom -12393.053697 kJ/mol
# Density = 2.241916 g / cm^3
# Si number density = 22.470308 Si / 1000 Ang^3
#
#
#
# Elastic Constant Matrix: (Units=GPa)
#
#
# Indices 1 2 3 4 5 6 
#
# 1 67.4051 31.3964 18.5132 0.0000 0.1613 0.0000
# 2 31.3964 165.7098 69.5603 0.0000 -9.9612 0.0000
# 3 18.5132 69.5603 148.0493 0.0000 -1.6552 0.0000
# 4 0.0000 0.0000 0.0000 2843.0566 0.0000 -212.9552
# 5 0.1613 -9.9612 -1.6552 0.0000 14.6764 0.0000
# 6 0.0000 0.0000 0.0000 -212.9552 0.0000 -0.5054
#
#
#
# Elastic Compliance Matrix: (Units=1/GPa)
#
#
# Indices 1 2 3 4 5 6 
#
# 1 0.016407 -0.002956 -0.000688 0.000000 -0.002264 0.000000
# 2 -0.002956 0.008390 -0.003513 0.000000 0.005331 0.000000
# 3 -0.000688 -0.003513 0.008475 0.000000 -0.001421 0.000000
# 4 0.000000 0.000000 0.000000 0.000011 0.000000 -0.004552
# 5 -0.002264 0.005331 -0.001421 0.000000 0.071619 0.000000
# 6 0.000000 0.000000 0.000000 -0.004552 0.000000 -0.060766
#
#
# Mechanical properties :
#
#
# Convention : Reuss Voigt Hill
#
# Bulk Modulus (GPa) = 52.74708 68.90043 60.82375
# Shear Modulus (GPa) = 77.19874 588.89180 333.04527
#
# Velocity S-wave (km/s) = 5.86775 16.20631 12.18760
# Velocity P-wave (km/s) = 8.33261 19.51723 15.00591
#
# Compressibility (1/GPa) = 0.01895840
#
# Stress axis : x y z
#
# Youngs Moduli (GPa) = 60.95006 119.19531 117.99320
#
# Poissons Ratio (x) = 0.35231 0.08120
# Poissons Ratio (y) = 0.18015 0.41446
# Poissons Ratio (z) = 0.04195 0.41869
#
# Static dielectric constant tensor:
#      x y z
#    x 3.486080 0.000000 -0.816800 
#    y 0.000000 4.601160 0.000000 
#    z -0.816800 0.000000 1.909970 
# 
# 
# High freq. dielectric constant tensor:
#      x y z
#    x 1.858490 0.000000 -0.012750 
#    y 0.000000 1.908000 0.000000 
#    z -0.012750 0.000000 1.890430 
# 
# From -- ./inp_files/32202.got.cif
#   From: 2010.03.12/outbox.cif.g09.slc.cpg/sg5_17_cif.got.tgz:32202.got - 2010.03.31 09:47:26.
