data_PCOD8050834
_publ_section_title
;
Structure prediction by ZEFSAII (Michael W. Deem and Ramdas Pophale) SiO2 
 PCOD8050834
Probable space group: C 2
;
_chemical_formula_sum "Si O2"
_cell_formula_units_Z 28
_cell_length_a 20.636790
_cell_length_b 9.379702
_cell_length_c 15.159931
_cell_angle_alpha 90.000000
_cell_angle_beta 152.622647
_cell_angle_gamma 90.000000
_cell_volume 1349.408660
_symmetry_space_group_name_H-M "C 2"
_symmetry_group_IT_number 5
_symmetry_cell_setting 'monoclinic'
loop_
_space_group_symop_operation_xyz
x,y,z
-x,y,-z
1/2+x,1/2+y,z
1/2-x,1/2+y,-z
loop_
_atom_site_type_symbol
_atom_site_label
_atom_site_fract_x
_atom_site_fract_y
_atom_site_fract_z
Si Si1 0.139254 0.735420 0.218596
Si Si2 0.453547 0.775897 0.543176
Si Si3 0.076204 0.316509 0.959676
Si Si4 0.313358 0.906928 0.733749
Si Si5 0.113304 0.078467 0.872103
Si Si6 0.927327 0.524858 0.205615
Si Si7 0.937368 0.813074 0.680893
O O1 0.283397 0.784438 0.344747
O O2 0.129122 0.565746 0.208569
O O3 0.137237 0.798597 0.314728
O O4 0.000000 0.793934 0.000000
O O5 0.500000 0.738908 0.500000
O O6 0.509846 0.651517 0.675644
O O7 0.519895 0.928786 0.649032
O O8 0.114250 0.165064 0.964426
O O9 0.063803 0.437928 0.872586
O O10 0.924393 0.300441 0.822267
O O11 0.196022 0.364086 0.174439
O O12 0.163445 0.892658 0.508777
O O13 0.269835 0.080028 0.025014
O O14 0.072420 0.916594 0.847268
O O15 0.026628 0.661162 0.316670
#
# Coordination Sequence:
#
# PCOD8050834 Si02
#       7
#     4   4   4   4   4   4   4
#     4  12  25  45  72  99 134 186 230 285 339 407
#     4  11  27  45  69 102 141 181 231 279 340 410
#     4  10  22  44  67  92 135 170 223 272 344 401
#     4  11  22  41  70  97 128 173 221 290 333 403
#     4  11  25  43  68 101 136 183 222 280 345 407
#     4  11  24  45  67  94 144 180 218 282 341 410
#     4  12  24  42  71 100 132 174 234 275 347 397
#
# _framework density 20.749829999999999
#
# number of rings (size 3 to 8) (size 9 to 14) (size 15 to 20)
#    0.000    0.857    4.286    3.429    6.000    1.143 
#    2.571    2.143    0.000    0.000    0.000    0.000 
#    0.000    0.000    0.000    0.000    0.000    0.000 
#
# Total GULP energy -173639.906992 kJ/mol
# GULP energy per Si atom -12402.850499 kJ/mol
# Density = 2.070260 g / cm^3
# Si number density = 20.749830 Si / 1000 Ang^3
#
#
#
# Elastic Constant Matrix: (Units=GPa)
#
#
# Indices 1 2 3 4 5 6 
#
# 1 93.6302 25.1792 34.7659 0.0000 -5.8787 0.0000
# 2 25.1792 91.5865 13.2145 0.0000 -7.6620 0.0000
# 3 34.7659 13.2145 111.2845 0.0000 1.9587 0.0000
# 4 0.0000 0.0000 0.0000 72.6915 0.0000 75.2091
# 5 -5.8787 -7.6620 1.9587 0.0000 42.7290 0.0000
# 6 0.0000 0.0000 0.0000 75.2091 0.0000 123.6371
#
#
#
# Elastic Compliance Matrix: (Units=1/GPa)
#
#
# Indices 1 2 3 4 5 6 
#
# 1 0.012931 -0.002899 -0.003721 0.000000 0.001430 0.000000
# 2 -0.002899 0.011942 -0.000544 0.000000 0.001767 0.000000
# 3 -0.003721 -0.000544 0.010232 0.000000 -0.001078 0.000000
# 4 0.000000 0.000000 0.000000 0.037118 0.000000 -0.022579
# 5 0.001430 0.001767 -0.001078 0.000000 0.023966 0.000000
# 6 0.000000 0.000000 0.000000 -0.022579 0.000000 0.021823
#
#
# Mechanical properties :
#
#
# Convention : Reuss Voigt Hill
#
# Bulk Modulus (GPa) = 48.12555 49.20226 48.66391
# Shear Modulus (GPa) = 35.90298 62.70095 49.30197
#
# Velocity S-wave (km/s) = 4.16417 5.50301 4.87973
# Velocity P-wave (km/s) = 6.80911 8.00882 7.43321
#
# Compressibility (1/GPa) = 0.02077898
#
# Stress axis : x y z
#
# Youngs Moduli (GPa) = 77.33272 83.73928 97.73363
#
# Poissons Ratio (x) = 0.24273 0.36364
# Poissons Ratio (y) = 0.22416 0.05313
# Poissons Ratio (z) = 0.28773 0.04552
#
# Static dielectric constant tensor:
#      x y z
#    x 3.466650 0.000000 -0.188020 
#    y 0.000000 3.750260 0.000000 
#    z -0.188020 0.000000 3.774180 
# 
# 
# High freq. dielectric constant tensor:
#      x y z
#    x 1.818370 0.000000 -0.000640 
#    y 0.000000 1.812610 0.000000 
#    z -0.000640 0.000000 1.817510 
# 
# From -- ./inp_files/29162.got.cif
#   From: 2010.03.12/outbox.cif.g09.slc.cpg/sg5_15_cif.got.tgz:29162.got - 2010.03.31 09:47:26.
