data_PCOD8050997
_publ_section_title
;
Structure prediction by ZEFSAII (Michael W. Deem and Ramdas Pophale) SiO2 
 PCOD8050997
Probable space group: C 2
;
_chemical_formula_sum "Si O2"
_cell_formula_units_Z 22
_cell_length_a 8.251509
_cell_length_b 24.009570
_cell_length_c 7.826487
_cell_angle_alpha 90.000000
_cell_angle_beta 140.847810
_cell_angle_gamma 90.000000
_cell_volume 978.987451
_symmetry_space_group_name_H-M "C 2"
_symmetry_group_IT_number 5
_symmetry_cell_setting 'monoclinic'
loop_
_space_group_symop_operation_xyz
x,y,z
-x,y,-z
1/2+x,1/2+y,z
1/2-x,1/2+y,-z
loop_
_atom_site_type_symbol
_atom_site_label
_atom_site_fract_x
_atom_site_fract_y
_atom_site_fract_z
Si Si1 0.300131 0.984610 0.691761
Si Si2 0.410421 0.095337 0.616757
Si Si3 0.795045 0.867737 0.482376
Si Si4 0.585372 0.647419 0.882532
Si Si5 0.940244 0.268095 0.259468
Si Si6 0.500000 0.343796 0.000000
O O1 0.378717 0.922391 0.694193
O O2 0.000000 0.986755 0.500000
O O3 0.356253 0.029719 0.591076
O O4 0.500000 0.001749 0.000000
O O5 0.500000 0.108971 0.500000
O O6 0.137740 0.126596 0.430442
O O7 0.634928 0.119395 0.926837
O O8 0.657703 0.808188 0.359374
O O9 0.882626 0.880253 0.750320
O O10 0.000000 0.865470 0.500000
O O11 0.604020 0.714219 0.891984
O O12 0.500000 0.628293 0.000000
O O13 0.000000 0.248638 0.500000
O O14 0.688302 0.304711 0.048397
#
# Coordination Sequence:
#
# PCOD8050997 Si02
#       6
#     4   4   4   4   4   2
#     4  11  25  45  68 101 132 175 229 276 342 404
#     4  10  23  44  64  97 130 176 225 275 335 401
#     4  10  25  43  70  99 139 179 230 280 344 407
#     4  10  23  40  67  95 131 175 225 271 339 403
#     4  10  24  41  63  99 132 175 227 276 341 404
#     4  10  24  44  62 104 132 180 228 274 346 414
#
# _framework density 22.472199
#
# number of rings (size 3 to 8) (size 9 to 14) (size 15 to 20)
#    0.000    1.818    0.000    1.091   12.727    5.091 
#    4.909    0.000    0.000    0.000    0.000    0.000 
#    0.000    0.000    0.000    0.000    0.000    0.000 
#
# Total GULP energy -136312.064339 kJ/mol
# GULP energy per Si atom -12392.005849 kJ/mol
# Density = 2.242105 g / cm^3
# Si number density = 22.472199 Si / 1000 Ang^3
#
#
#
# Elastic Constant Matrix: (Units=GPa)
#
#
# Indices 1 2 3 4 5 6 
#
# 1 66.5401 40.8571 33.3501 0.0000 11.2813 0.0000
# 2 40.8571 144.6571 36.0836 0.0000 6.6944 0.0000
# 3 33.3501 36.0836 120.7542 0.0000 32.1242 0.0000
# 4 0.0000 0.0000 0.0000 29.9435 0.0000 -7.9660
# 5 11.2813 6.6944 32.1242 0.0000 22.7318 0.0000
# 6 0.0000 0.0000 0.0000 -7.9660 0.0000 28.5340
#
#
#
# Elastic Compliance Matrix: (Units=1/GPa)
#
#
# Indices 1 2 3 4 5 6 
#
# 1 0.020190 -0.004754 -0.002984 0.000000 -0.004402 0.000000
# 2 -0.004754 0.008623 -0.001948 0.000000 0.002573 0.000000
# 3 -0.002984 -0.001948 0.014648 0.000000 -0.018645 0.000000
# 4 0.000000 0.000000 0.000000 0.036076 0.000000 0.010071
# 5 -0.004402 0.002573 -0.018645 0.000000 0.071767 0.000000
# 6 0.000000 0.000000 0.000000 0.010071 0.000000 0.037858
#
#
# Mechanical properties :
#
#
# Convention : Reuss Voigt Hill
#
# Bulk Modulus (GPa) = 41.51608 61.39256 51.45432
# Shear Modulus (GPa) = 23.08795 31.01925 27.05360
#
# Velocity S-wave (km/s) = 3.20879 3.71932 3.47345
# Velocity P-wave (km/s) = 5.67829 6.76928 6.24764
#
# Compressibility (1/GPa) = 0.02408705
#
# Stress axis : x y z
#
# Youngs Moduli (GPa) = 49.52975 115.97483 68.26963
#
# Poissons Ratio (x) = 0.55138 0.20373
# Poissons Ratio (y) = 0.23548 0.13299
# Poissons Ratio (z) = 0.14781 0.22592
#
# Static dielectric constant tensor:
#      x y z
#    x 3.863900 0.000000 0.207410 
#    y 0.000000 3.999470 0.000000 
#    z 0.207410 0.000000 4.402190 
# 
# 
# High freq. dielectric constant tensor:
#      x y z
#    x 1.876890 0.000000 0.007840 
#    y 0.000000 1.888680 0.000000 
#    z 0.007840 0.000000 1.893060 
# 
# From -- ./inp_files/2890.got.cif
#   From: 2010.03.12/outbox.cif.g09.slc.cpg/sg5_2_cif.got.tgz:2890.got - 2010.03.31 09:47:26.
