data_PCOD8050133
_publ_section_title
;
Structure prediction by ZEFSAII (Michael W. Deem and Ramdas Pophale) SiO2 
 PCOD8050133
Probable space group: C 2
;
_chemical_formula_sum "Si O2"
_cell_formula_units_Z 22
_cell_length_a 7.827288
_cell_length_b 23.231663
_cell_length_c 7.078265
_cell_angle_alpha 90.000000
_cell_angle_beta 47.070661
_cell_angle_gamma 90.000000
_cell_volume 942.420520
_symmetry_space_group_name_H-M "C 2"
_symmetry_group_IT_number 5
_symmetry_cell_setting 'monoclinic'
loop_
_space_group_symop_operation_xyz
x,y,z
-x,y,-z
1/2+x,1/2+y,z
1/2-x,1/2+y,-z
loop_
_atom_site_type_symbol
_atom_site_label
_atom_site_fract_x
_atom_site_fract_y
_atom_site_fract_z
Si Si1 0.500000 0.372010 0.500000
Si Si2 0.271519 0.785950 0.049930
Si Si3 0.934991 0.687054 0.266011
Si Si4 0.307972 0.949962 0.508692
Si Si5 0.500000 0.518044 0.000000
Si Si6 0.453982 0.064237 0.816031
Si Si7 0.500000 0.754403 0.500000
O O1 0.593597 0.336371 0.248240
O O2 0.722572 0.408673 0.404804
O O3 0.135654 0.727189 0.204684
O O4 0.500000 0.789681 0.000000
O O5 0.347309 0.791015 0.769514
O O6 0.678566 0.714765 0.485071
O O7 0.941377 0.623254 0.353968
O O8 0.000000 0.680813 0.000000
O O9 0.500000 0.918340 0.500000
O O10 0.081941 0.972179 0.784340
O O11 0.425009 0.008031 0.350364
O O12 0.683994 0.560277 0.961340
O O13 0.500000 0.066398 0.000000
#
# Coordination Sequence:
#
# PCOD8050133 Si02
#       7
#     2   4   4   4   2   4   2
#     4  12  26  49  72 102 142 195 246 296 358 428
#     4  11  25  46  69 105 143 190 242 292 360 431
#     4   9  21  42  68 104 139 184 230 290 361 427
#     4  10  24  46  68 102 137 183 243 295 355 422
#     4  10  22  42  62 106 138 178 234 294 360 418
#     4  10  21  40  73 102 138 183 229 291 360 426
#     4  10  22  47  68  96 156 179 244 292 352 440
#
# _framework density 23.344145000000001
#
# number of rings (size 3 to 8) (size 9 to 14) (size 15 to 20)
#    0.000    1.818    0.000    2.182    1.273    8.727 
#   32.727    0.000    0.000    0.000    0.000    0.000 
#    0.000    0.000    0.000    0.000    0.000    0.000 
#
# Total GULP energy -136318.640264 kJ/mol
# GULP energy per Si atom -12392.603660 kJ/mol
# Density = 2.329101 g / cm^3
# Si number density = 23.344145 Si / 1000 Ang^3
#
#
#
# Elastic Constant Matrix: (Units=GPa)
#
#
# Indices 1 2 3 4 5 6 
#
# 1 128.9110 61.3658 38.2939 0.0000 -10.3468 0.0000
# 2 61.3658 119.9885 42.5629 0.0000 -6.7883 0.0000
# 3 38.2939 42.5629 111.6963 0.0000 -7.3633 0.0000
# 4 0.0000 0.0000 0.0000 37.3679 0.0000 26.2528
# 5 -10.3468 -6.7883 -7.3633 0.0000 35.1284 0.0000
# 6 0.0000 0.0000 0.0000 26.2528 0.0000 24.1234
#
#
#
# Elastic Compliance Matrix: (Units=1/GPa)
#
#
# Indices 1 2 3 4 5 6 
#
# 1 0.010678 -0.004742 -0.001731 0.000000 0.001866 0.000000
# 2 -0.004742 0.011785 -0.002846 0.000000 0.000284 0.000000
# 3 -0.001731 -0.002846 0.010709 0.000000 0.001185 0.000000
# 4 0.000000 0.000000 0.000000 0.113665 0.000000 -0.123698
# 5 0.001866 0.000284 0.001185 0.000000 0.029320 0.000000
# 6 0.000000 0.000000 0.000000 -0.123698 0.000000 0.176071
#
#
# Mechanical properties :
#
#
# Convention : Reuss Voigt Hill
#
# Bulk Modulus (GPa) = 68.80355 71.67122 70.23739
# Shear Modulus (GPa) = 13.30810 33.88215 23.59513
#
# Velocity S-wave (km/s) = 2.39023 3.81388 3.18268
# Velocity P-wave (km/s) = 6.09550 7.08258 6.60750
#
# Compressibility (1/GPa) = 0.01453413
#
# Stress axis : x y z
#
# Youngs Moduli (GPa) = 93.64612 84.85419 93.37846
#
# Poissons Ratio (x) = 0.40235 0.16165
# Poissons Ratio (y) = 0.44404 0.26579
# Poissons Ratio (z) = 0.16211 0.24153
#
# Static dielectric constant tensor:
#      x y z
#    x 4.445240 0.000000 -0.130400 
#    y 0.000000 4.652700 0.000000 
#    z -0.130400 0.000000 4.274010 
# 
# 
# High freq. dielectric constant tensor:
#      x y z
#    x 1.936460 0.000000 -0.004820 
#    y 0.000000 1.922260 0.000000 
#    z -0.004820 0.000000 1.923590 
# 
# From -- ./inp_files/2900.got.cif
#   From: 2010.03.12/outbox.cif.g09.slc.cpg/sg5_2_cif.got.tgz:2900.got - 2010.03.31 09:47:26.
