data_PCOD8050972
_publ_section_title
;
Structure prediction by ZEFSAII (Michael W. Deem and Ramdas Pophale) SiO2 
 PCOD8050972
Probable space group: C 2
;
_chemical_formula_sum "Si O2"
_cell_formula_units_Z 24
_cell_length_a 16.063823
_cell_length_b 12.721974
_cell_length_c 7.309745
_cell_angle_alpha 90.000000
_cell_angle_beta 52.195209
_cell_angle_gamma 90.000000
_cell_volume 1180.292830
_symmetry_space_group_name_H-M "C 2"
_symmetry_group_IT_number 5
_symmetry_cell_setting 'monoclinic'
loop_
_space_group_symop_operation_xyz
x,y,z
-x,y,-z
1/2+x,1/2+y,z
1/2-x,1/2+y,-z
loop_
_atom_site_type_symbol
_atom_site_label
_atom_site_fract_x
_atom_site_fract_y
_atom_site_fract_z
Si Si1 0.594769 0.369820 0.248701
Si Si2 0.140846 0.393838 0.674970
Si Si3 0.251408 0.991557 0.808185
Si Si4 0.482563 0.177975 0.226722
Si Si5 0.426204 0.966925 0.855597
Si Si6 0.729437 0.224893 0.319817
O O1 0.500000 0.419368 0.500000
O O2 0.543786 0.281338 0.193802
O O3 0.686817 0.315928 0.243397
O O4 0.641112 0.454471 0.045497
O O5 0.228963 0.445721 0.422381
O O6 0.026141 0.386459 0.730044
O O7 0.175041 0.276499 0.692691
O O8 0.130692 0.468150 0.868686
O O9 0.342957 0.940235 0.810370
O O10 0.238402 0.118290 0.829783
O O11 0.359205 0.189904 0.419863
O O12 0.528418 0.079027 0.275105
O O13 0.500000 0.144128 0.000000
#
# Coordination Sequence:
#
# PCOD8050972 Si02
#       6
#     4   4   4   4   4   4
#     4  10  23  38  64  93 132 168 227 274 319 390
#     4  11  23  38  63 104 131 161 218 281 322 390
#     4  12  22  41  70  93 134 178 215 271 339 380
#     4  11  19  37  64  98 122 167 224 272 320 389
#     4  11  21  38  68  98 129 166 222 272 319 392
#     4  11  22  39  65  96 132 167 221 272 329 391
#
# _framework density 20.333936999999999
#
# number of rings (size 3 to 8) (size 9 to 14) (size 15 to 20)
#    0.000    1.000    6.667    1.500    0.000    0.000 
#    0.000    0.000   25.667    0.000    0.000    0.000 
#    0.000    0.000    0.000    0.000    0.000    0.000 
#
# Total GULP energy -148703.210842 kJ/mol
# GULP energy per Si atom -12391.934237 kJ/mol
# Density = 2.028766 g / cm^3
# Si number density = 20.333937 Si / 1000 Ang^3
#
#
#
# Elastic Constant Matrix: (Units=GPa)
#
#
# Indices 1 2 3 4 5 6 
#
# 1 69.0462 46.3915 34.3161 0.0000 -10.1832 0.0000
# 2 46.3915 101.1652 68.0461 0.0000 -18.1311 0.0000
# 3 34.3161 68.0461 142.5297 0.0000 -3.3544 0.0000
# 4 0.0000 0.0000 0.0000 21.5084 0.0000 -23.8076
# 5 -10.1832 -18.1311 -3.3544 0.0000 27.6479 0.0000
# 6 0.0000 0.0000 0.0000 -23.8076 0.0000 14.1567
#
#
#
# Elastic Compliance Matrix: (Units=1/GPa)
#
#
# Indices 1 2 3 4 5 6 
#
# 1 0.021063 -0.008741 -0.000853 0.000000 0.001922 0.000000
# 2 -0.008741 0.020643 -0.007530 0.000000 0.009405 0.000000
# 3 -0.000853 -0.007530 0.010723 0.000000 -0.003951 0.000000
# 4 0.000000 0.000000 0.000000 -0.053968 0.000000 -0.090759
# 5 0.001922 0.009405 -0.003951 0.000000 0.042565 0.000000
# 6 0.000000 0.000000 0.000000 -0.090759 0.000000 -0.081994
#
#
# Mechanical properties :
#
#
# Convention : Reuss Voigt Hill
#
# Bulk Modulus (GPa) = 54.99655 67.80539 61.40097
# Shear Modulus (GPa) = -7582.11041 23.59509 -3779.25766
#
# Velocity S-wave (km/s) = -61.13011 3.41013 -43.15821
# Velocity P-wave (km/s) = 70.39471 6.99454 49.53025
#
# Compressibility (1/GPa) = 0.01818296
#
# Stress axis : x y z
#
# Youngs Moduli (GPa) = 47.47581 48.44212 93.25514
#
# Poissons Ratio (x) = 0.42342 0.07956
# Poissons Ratio (y) = 0.41497 0.70218
# Poissons Ratio (z) = 0.04050 0.36475
#
# Static dielectric constant tensor:
#      x y z
#    x 3.832390 0.000000 0.020520 
#    y 0.000000 3.584960 0.000000 
#    z 0.020520 0.000000 3.957540 
# 
# 
# High freq. dielectric constant tensor:
#      x y z
#    x 1.785610 0.000000 0.005750 
#    y 0.000000 1.772590 0.000000 
#    z 0.005750 0.000000 1.808250 
# 
# From -- ./inp_files/29383.got.cif
#   From: 2010.03.12/outbox.cif.g09.slc.cpg/sg5_15_cif.got.tgz:29383.got - 2010.03.31 09:47:26.
