data_PCOD8050772
_publ_section_title
;
Structure prediction by ZEFSAII (Michael W. Deem and Ramdas Pophale) SiO2 
 PCOD8050772
Probable space group: C 2
;
_chemical_formula_sum "Si O2"
_cell_formula_units_Z 26
_cell_length_a 7.840136
_cell_length_b 12.759907
_cell_length_c 14.106187
_cell_angle_alpha 90.000000
_cell_angle_beta 119.313430
_cell_angle_gamma 90.000000
_cell_volume 1230.480072
_symmetry_space_group_name_H-M "C 2"
_symmetry_group_IT_number 5
_symmetry_cell_setting 'monoclinic'
loop_
_space_group_symop_operation_xyz
x,y,z
-x,y,-z
1/2+x,1/2+y,z
1/2-x,1/2+y,-z
loop_
_atom_site_type_symbol
_atom_site_label
_atom_site_fract_x
_atom_site_fract_y
_atom_site_fract_z
Si Si1 0.295717 0.926740 0.999008
Si Si2 0.000000 0.779438 0.000000
Si Si3 0.621931 0.473577 0.772270
Si Si4 0.575160 0.049071 0.376315
Si Si5 0.216997 0.113671 0.392392
Si Si6 0.498792 0.102303 0.850465
Si Si7 0.809173 0.848645 0.384337
O O1 0.104042 0.935185 0.875569
O O2 0.500000 0.891038 0.000000
O O3 0.207532 0.841881 0.048998
O O4 0.312694 0.035977 0.062407
O O5 0.015431 0.712107 0.100645
O O6 0.484923 0.563581 0.693401
O O7 0.831062 0.525900 0.838785
O O8 0.621846 0.373372 0.703326
O O9 0.381122 0.043304 0.386325
O O10 0.746057 0.107149 0.483748
O O11 0.520246 0.116832 0.268322
O O12 0.644789 0.931826 0.371239
O O13 0.215939 0.234005 0.360693
O O14 0.000000 0.854224 0.500000
#
# Coordination Sequence:
#
# PCOD8050772 Si02
#       7
#     4   2   4   4   4   4   4
#     4  10  24  47  66 100 135 172 227 275 325 397
#     4  12  24  44  74  96 130 184 220 266 352 386
#     4  10  22  43  66  89 135 164 212 279 316 385
#     4  10  23  41  64  92 135 160 216 275 310 396
#     4  11  23  41  64 100 123 174 215 256 339 393
#     4  10  23  47  62  96 135 165 222 280 313 399
#     4  11  21  40  64  89 129 172 207 266 331 378
#
# _framework density 21.129964000000001
#
# number of rings (size 3 to 8) (size 9 to 14) (size 15 to 20)
#    0.000    1.538    5.385    0.000    4.308    3.692 
#    1.385    4.615    0.000    0.000    0.000    0.000 
#    0.000    0.000    0.000    0.000    0.000    0.000 
#
# Total GULP energy -161052.687370 kJ/mol
# GULP energy per Si atom -12388.668259 kJ/mol
# Density = 2.108187 g / cm^3
# Si number density = 21.129964 Si / 1000 Ang^3
#
#
#
# Elastic Constant Matrix: (Units=GPa)
#
#
# Indices 1 2 3 4 5 6 
#
# 1 57.4832 39.6274 32.8742 0.0000 -10.9187 0.0000
# 2 39.6274 129.4972 67.4416 0.0000 -9.2115 0.0000
# 3 32.8742 67.4416 177.9427 0.0000 -7.1079 0.0000
# 4 0.0000 0.0000 0.0000 -25.3970 0.0000 -93.3978
# 5 -10.9187 -9.2115 -7.1079 0.0000 17.7819 0.0000
# 6 0.0000 0.0000 0.0000 -93.3978 0.0000 -165.5748
#
#
#
# Elastic Compliance Matrix: (Units=1/GPa)
#
#
# Indices 1 2 3 4 5 6 
#
# 1 0.024597 -0.005716 -0.001923 0.000000 0.011374 0.000000
# 2 -0.005716 0.011180 -0.003140 0.000000 0.001026 0.000000
# 3 -0.001923 -0.003140 0.007168 0.000000 0.000057 0.000000
# 4 0.000000 0.000000 0.000000 0.036647 0.000000 -0.020672
# 5 0.011374 0.001026 0.000057 0.000000 0.063775 0.000000
# 6 0.000000 0.000000 0.000000 -0.020672 0.000000 0.005621
#
#
# Mechanical properties :
#
#
# Convention : Reuss Voigt Hill
#
# Bulk Modulus (GPa) = 46.76175 71.64548 59.20362
# Shear Modulus (GPa) = 28.14095 -19.63933 4.25081
#
# Velocity S-wave (km/s) = 3.65335 -3.05200 1.41990
# Velocity P-wave (km/s) = 6.32254 4.64339 5.54687
#
# Compressibility (1/GPa) = 0.02138500
#
# Stress axis : x y z
#
# Youngs Moduli (GPa) = 40.65464 89.44702 139.51723
#
# Poissons Ratio (x) = 0.51130 0.26835
# Poissons Ratio (y) = 0.23239 0.43811
# Poissons Ratio (z) = 0.07820 0.28088
#
# Static dielectric constant tensor:
#      x y z
#    x 3.737800 0.000000 -0.468580 
#    y 0.000000 3.753780 0.000000 
#    z -0.468580 0.000000 6.394000 
# 
# 
# High freq. dielectric constant tensor:
#      x y z
#    x 1.807440 0.000000 -0.004870 
#    y 0.000000 1.818660 0.000000 
#    z -0.004870 0.000000 1.855590 
# 
# From -- ./inp_files/50210.got.cif
#   From: 2010.03.12/outbox.cif.g09.slc.cpg/sg5_26_cif.got.tgz:50210.got - 2010.03.31 09:47:26.
