data_PCOD8050819
_publ_section_title
;
Structure prediction by ZEFSAII (Michael W. Deem and Ramdas Pophale) SiO2 
 PCOD8050819
Probable space group: C 2
;
_chemical_formula_sum "Si O2"
_cell_formula_units_Z 26
_cell_length_a 11.516799
_cell_length_b 8.582319
_cell_length_c 15.381093
_cell_angle_alpha 90.000000
_cell_angle_beta 122.941540
_cell_angle_gamma 90.000000
_cell_volume 1275.858421
_symmetry_space_group_name_H-M "C 2"
_symmetry_group_IT_number 5
_symmetry_cell_setting 'monoclinic'
loop_
_space_group_symop_operation_xyz
x,y,z
-x,y,-z
1/2+x,1/2+y,z
1/2-x,1/2+y,-z
loop_
_atom_site_type_symbol
_atom_site_label
_atom_site_fract_x
_atom_site_fract_y
_atom_site_fract_z
Si Si1 0.485943 0.494740 0.681504
Si Si2 0.000000 0.118777 0.500000
Si Si3 0.217816 0.660850 0.005235
Si Si4 0.389248 0.817540 0.215304
Si Si5 0.752298 0.300900 0.332707
Si Si6 0.444413 0.048949 0.830218
Si Si7 0.745253 0.375586 0.872310
O O1 0.487467 0.505982 0.577990
O O2 0.514801 0.664828 0.733319
O O3 0.339258 0.428854 0.654996
O O4 0.604987 0.372305 0.758528
O O5 0.865189 0.229904 0.444329
O O6 0.275018 0.711279 0.932678
O O7 0.050976 0.653044 0.929431
O O8 0.261155 0.779828 0.099263
O O9 0.278263 0.492894 0.055622
O O10 0.330115 0.880037 0.282792
O O11 0.480124 0.955856 0.214942
O O12 0.669356 0.155802 0.259817
O O13 0.374775 0.924882 0.866946
#
# Coordination Sequence:
#
# PCOD8050819 Si02
#       7
#     4   2   4   4   4   4   4
#     4  10  22  44  65  92 124 161 209 265 312 370
#     4  10  22  44  64  94 120 160 214 266 328 362
#     4  11  21  35  61  94 127 170 206 238 308 370
#     4  10  24  39  59  98 129 164 212 249 303 384
#     4  11  23  43  68  87 125 166 207 268 316 371
#     4  12  22  39  65  88 130 172 202 259 309 366
#     4  11  22  39  63  94 127 169 210 248 309 376
#
# _framework density 20.378437999999999
#
# number of rings (size 3 to 8) (size 9 to 14) (size 15 to 20)
#    0.000    1.231    7.692    0.462    0.000    3.692 
#    0.000    1.538    0.000    0.000    0.000    0.000 
#    0.000    0.000    0.000    0.000    0.000    0.000 
#
# Total GULP energy -161158.489465 kJ/mol
# GULP energy per Si atom -12396.806882 kJ/mol
# Density = 2.033206 g / cm^3
# Si number density = 20.378438 Si / 1000 Ang^3
#
#
#
# Elastic Constant Matrix: (Units=GPa)
#
#
# Indices 1 2 3 4 5 6 
#
# 1 135.9516 52.1513 57.6362 0.0000 -12.2165 0.0000
# 2 52.1513 45.7055 33.2378 0.0000 -16.4639 0.0000
# 3 57.6362 33.2378 137.5192 0.0000 -3.1996 0.0000
# 4 0.0000 0.0000 0.0000 22.1277 0.0000 -0.5434
# 5 -12.2165 -16.4639 -3.1996 0.0000 36.7795 0.0000
# 6 0.0000 0.0000 0.0000 -0.5434 0.0000 47.4436
#
#
#
# Elastic Compliance Matrix: (Units=1/GPa)
#
#
# Indices 1 2 3 4 5 6 
#
# 1 0.013855 -0.015022 -0.002230 0.000000 -0.002316 0.000000
# 2 -0.015022 0.048582 -0.005066 0.000000 0.016317 0.000000
# 3 -0.002230 -0.005066 0.009380 0.000000 -0.002193 0.000000
# 4 0.000000 0.000000 0.000000 0.045205 0.000000 0.000518
# 5 -0.002316 0.016317 -0.002193 0.000000 0.033533 0.000000
# 6 0.000000 0.000000 0.000000 0.000518 0.000000 0.021084
#
#
# Mechanical properties :
#
#
# Convention : Reuss Voigt Hill
#
# Bulk Modulus (GPa) = 36.79196 67.24745 52.01970
# Shear Modulus (GPa) = 22.18918 33.01355 27.60137
#
# Velocity S-wave (km/s) = 3.30336 4.02932 3.68426
# Velocity P-wave (km/s) = 5.71342 7.39717 6.60913
#
# Compressibility (1/GPa) = 0.02717985
#
# Stress axis : x y z
#
# Youngs Moduli (GPa) = 72.17456 20.58395 106.61083
#
# Poissons Ratio (x) = 0.30921 0.23775
# Poissons Ratio (y) = 1.08420 0.54014
# Poissons Ratio (z) = 0.16096 0.10429
#
# Static dielectric constant tensor:
#      x y z
#    x 3.735960 0.000000 0.022540 
#    y 0.000000 3.588510 0.000000 
#    z 0.022540 0.000000 3.950340 
# 
# 
# High freq. dielectric constant tensor:
#      x y z
#    x 1.791170 0.000000 0.002160 
#    y 0.000000 1.775360 0.000000 
#    z 0.002160 0.000000 1.810050 
# 
# From -- ./inp_files/52097.got.cif
#   From: 2010.03.12/outbox.cif.g09.slc.cpg/sg5_27_cif.got.tgz:52097.got - 2010.03.31 09:47:26.
