data_PCOD8050291
_publ_section_title
;
Structure prediction by ZEFSAII (Michael W. Deem and Ramdas Pophale) SiO2 
 PCOD8050291
Probable space group: C 2
;
_chemical_formula_sum "Si O2"
_cell_formula_units_Z 28
_cell_length_a 14.721027
_cell_length_b 9.318471
_cell_length_c 9.793130
_cell_angle_alpha 90.000000
_cell_angle_beta 66.379629
_cell_angle_gamma 90.000000
_cell_volume 1230.847397
_symmetry_space_group_name_H-M "C 2"
_symmetry_group_IT_number 5
_symmetry_cell_setting 'monoclinic'
loop_
_space_group_symop_operation_xyz
x,y,z
-x,y,-z
1/2+x,1/2+y,z
1/2-x,1/2+y,-z
loop_
_atom_site_type_symbol
_atom_site_label
_atom_site_fract_x
_atom_site_fract_y
_atom_site_fract_z
Si Si1 0.283711 0.942680 0.848882
Si Si2 0.039904 0.627668 0.324625
Si Si3 0.079545 0.048629 0.044938
Si Si4 0.651919 0.003959 0.664333
Si Si5 0.726005 0.320734 0.602698
Si Si6 0.607338 0.860246 0.955111
Si Si7 0.483268 0.441054 0.353462
O O1 0.251240 0.839728 0.746190
O O2 0.354319 0.866137 0.913798
O O3 0.345800 0.078323 0.754424
O O4 0.186433 0.978656 0.993487
O O5 0.000000 0.609672 0.500000
O O6 0.965990 0.534777 0.274497
O O7 0.041460 0.794360 0.283252
O O8 0.096476 0.190176 0.941447
O O9 0.031922 0.062255 0.225864
O O10 0.000000 0.957772 0.000000
O O11 0.681665 0.877680 0.541387
O O12 0.710609 0.150458 0.592583
O O13 0.676144 0.940612 0.801034
O O14 0.632273 0.414920 0.609451
O O15 0.500000 0.933128 0.000000
O O16 0.500000 0.489647 0.500000
#
# Coordination Sequence:
#
# PCOD8050291 Si02
#       7
#     4   4   4   4   4   4   4
#     4  12  25  44  69 105 139 196 231 293 355 418
#     4  10  21  43  72 103 139 184 237 288 350 423
#     4  11  26  46  67 104 149 183 238 299 354 417
#     4  11  25  46  70 106 141 183 240 293 350 426
#     4  11  26  44  75 105 140 186 238 293 357 418
#     4  11  27  45  68 101 144 188 234 294 353 418
#     4  10  24  45  70 102 140 187 235 294 352 423
#
# _framework density 22.748555
#
# number of rings (size 3 to 8) (size 9 to 14) (size 15 to 20)
#    0.000    1.143    4.286    0.000    8.000    0.000 
#    0.000    0.714    0.000    0.000    0.000    0.000 
#    0.000    0.000    0.000    0.000    0.000    0.000 
#
# Total GULP energy -173505.981568 kJ/mol
# GULP energy per Si atom -12393.284398 kJ/mol
# Density = 2.269678 g / cm^3
# Si number density = 22.748555 Si / 1000 Ang^3
#
#
#
# Elastic Constant Matrix: (Units=GPa)
#
#
# Indices 1 2 3 4 5 6 
#
# 1 123.5106 19.3003 41.4006 0.0000 16.0391 0.0000
# 2 19.3003 77.9347 39.4247 0.0000 -1.7448 0.0000
# 3 41.4006 39.4247 134.6880 0.0000 16.5706 0.0000
# 4 0.0000 0.0000 0.0000 36.3029 0.0000 4.4179
# 5 16.0391 -1.7448 16.5706 0.0000 44.5603 0.0000
# 6 0.0000 0.0000 0.0000 4.4179 0.0000 24.6279
#
#
#
# Elastic Compliance Matrix: (Units=1/GPa)
#
#
# Indices 1 2 3 4 5 6 
#
# 1 0.009367 -0.001272 -0.002186 0.000000 -0.002608 0.000000
# 2 -0.001272 0.015470 -0.004473 0.000000 0.002727 0.000000
# 3 -0.002186 -0.004473 0.009778 0.000000 -0.003024 0.000000
# 4 0.000000 0.000000 0.000000 0.028161 0.000000 -0.005052
# 5 -0.002608 0.002727 -0.003024 0.000000 0.024612 0.000000
# 6 0.000000 0.000000 0.000000 -0.005052 0.000000 0.041511
#
#
# Mechanical properties :
#
#
# Convention : Reuss Voigt Hill
#
# Bulk Modulus (GPa) = 53.32519 59.59827 56.46173
# Shear Modulus (GPa) = 33.11037 36.83206 34.97122
#
# Velocity S-wave (km/s) = 3.81923 4.02816 3.92509
# Velocity P-wave (km/s) = 6.55292 6.92029 6.73911
#
# Compressibility (1/GPa) = 0.01875287
#
# Stress axis : x y z
#
# Youngs Moduli (GPa) = 106.76114 64.64147 102.27328
#
# Poissons Ratio (x) = 0.08224 0.22355
# Poissons Ratio (y) = 0.13583 0.45743
# Poissons Ratio (z) = 0.23336 0.28912
#
# Static dielectric constant tensor:
#      x y z
#    x 4.351670 0.000000 -0.006220 
#    y 0.000000 3.934550 0.000000 
#    z -0.006220 0.000000 4.031550 
# 
# 
# High freq. dielectric constant tensor:
#      x y z
#    x 1.912870 0.000000 0.005100 
#    y 0.000000 1.871950 0.000000 
#    z 0.005100 0.000000 1.901880 
# 
# From -- ./inp_files/23523.got.cif
#   From: 2010.03.12/outbox.cif.g09.slc.cpg/sg5_12_cif.got.tgz:23523.got - 2010.03.31 09:47:26.
