data_PCOD8050013
_publ_section_title
;
Structure prediction by ZEFSAII (Michael W. Deem and Ramdas Pophale) SiO2 
 PCOD8050013
Probable space group: C 2
;
_chemical_formula_sum "Si O2"
_cell_formula_units_Z 20
_cell_length_a 29.562504
_cell_length_b 5.099331
_cell_length_c 8.334301
_cell_angle_alpha 90.000000
_cell_angle_beta 52.849953
_cell_angle_gamma 90.000000
_cell_volume 1001.412101
_symmetry_space_group_name_H-M "C 2"
_symmetry_group_IT_number 5
_symmetry_cell_setting 'monoclinic'
loop_
_space_group_symop_operation_xyz
x,y,z
-x,y,-z
1/2+x,1/2+y,z
1/2-x,1/2+y,-z
loop_
_atom_site_type_symbol
_atom_site_label
_atom_site_fract_x
_atom_site_fract_y
_atom_site_fract_z
Si Si1 0.636272 0.933200 0.432604
Si Si2 0.756226 0.612771 0.596255
Si Si3 0.217442 0.183070 0.016953
Si Si4 0.027826 0.693904 0.601622
Si Si5 0.527635 0.703223 0.775598
O O1 0.660268 0.773325 0.228246
O O2 0.596313 0.743079 0.626969
O O3 0.684558 0.049101 0.443378
O O4 0.596691 0.166473 0.444722
O O5 0.736503 0.370157 0.528669
O O6 0.710369 0.663439 0.837747
O O7 0.266263 0.397709 0.949018
O O8 0.000915 0.412297 0.706407
O O9 0.000000 0.797497 0.500000
O O10 0.011259 0.907861 0.769687
O O11 0.500000 0.781782 0.000000
#
# Coordination Sequence:
#
# PCOD8050013 Si02
#       5
#     4   4   4   4   4
#     4   9  24  41  67  83 130 164 202 238 323 351
#     4  11  23  40  61  95 127 156 205 254 293 364
#     4  10  21  39  66  86 124 165 202 246 300 365
#     4  10  22  41  65  88 120 157 211 251 298 366
#     4  10  22  41  65  88 125 160 200 259 309 350
#
# _framework density 19.971796000000001
#
# number of rings (size 3 to 8) (size 9 to 14) (size 15 to 20)
#    1.200    0.800    0.000    3.600    8.400    0.000 
#    3.600    0.000    0.000    0.000    0.000    0.000 
#    0.000    0.000    0.000    0.000    0.000    0.000 
#
# Total GULP energy -123887.508135 kJ/mol
# GULP energy per Si atom -12388.750814 kJ/mol
# Density = 1.992634 g / cm^3
# Si number density = 19.971796 Si / 1000 Ang^3
#
#
#
# Elastic Constant Matrix: (Units=GPa)
#
#
# Indices 1 2 3 4 5 6 
#
# 1 91.7574 24.6904 45.8967 0.0000 13.0004 0.0000
# 2 24.6904 107.1177 37.4740 0.0000 10.5888 0.0000
# 3 45.8967 37.4740 165.3520 0.0000 16.8320 0.0000
# 4 0.0000 0.0000 0.0000 41.6118 0.0000 8.0750
# 5 13.0004 10.5888 16.8320 0.0000 27.5560 0.0000
# 6 0.0000 0.0000 0.0000 8.0750 0.0000 29.9343
#
#
#
# Elastic Compliance Matrix: (Units=1/GPa)
#
#
# Indices 1 2 3 4 5 6 
#
# 1 0.013365 -0.001671 -0.002937 0.000000 -0.003869 0.000000
# 2 -0.001671 0.010534 -0.001697 0.000000 -0.002223 0.000000
# 3 -0.002937 -0.001697 0.007507 0.000000 -0.002548 0.000000
# 4 0.000000 0.000000 0.000000 0.025359 0.000000 -0.006841
# 5 -0.003869 -0.002223 -0.002548 0.000000 0.040526 0.000000
# 6 0.000000 0.000000 0.000000 -0.006841 0.000000 0.035252
#
#
# Mechanical properties :
#
#
# Convention : Reuss Voigt Hill
#
# Bulk Modulus (GPa) = 53.20312 64.48323 58.84318
# Shear Modulus (GPa) = 33.02099 36.89814 34.95957
#
# Velocity S-wave (km/s) = 4.07059 4.30293 4.18837
# Velocity P-wave (km/s) = 6.98498 7.55276 7.27441
#
# Compressibility (1/GPa) = 0.01879589
#
# Stress axis : x y z
#
# Youngs Moduli (GPa) = 74.82077 94.92934 133.20871
#
# Poissons Ratio (x) = 0.15859 0.39127
# Poissons Ratio (y) = 0.12499 0.22611
# Poissons Ratio (z) = 0.21977 0.16113
#
# Static dielectric constant tensor:
#      x y z
#    x 3.246690 0.000000 0.098820 
#    y 0.000000 3.666830 0.000000 
#    z 0.098820 0.000000 3.681360 
# 
# 
# High freq. dielectric constant tensor:
#      x y z
#    x 1.746390 0.000000 0.011340 
#    y 0.000000 1.797460 0.000000 
#    z 0.011340 0.000000 1.780860 
# 
# From -- ./inp_files/31988.got.cif
#   From: 2010.03.12/outbox.cif.g09.slc.cpg/sg5_16_cif.got.tgz:31988.got - 2010.03.31 09:47:26.
