data_PCOD8050044
_publ_section_title
;
Structure prediction by ZEFSAII (Michael W. Deem and Ramdas Pophale) SiO2 
 PCOD8050044
Probable space group: C 2
;
_chemical_formula_sum "Si O2"
_cell_formula_units_Z 32
_cell_length_a 23.961999
_cell_length_b 8.765450
_cell_length_c 23.975624
_cell_angle_alpha 90.000000
_cell_angle_beta 17.696699
_cell_angle_gamma 90.000000
_cell_volume 1530.768737
_symmetry_space_group_name_H-M "C 2"
_symmetry_group_IT_number 5
_symmetry_cell_setting 'monoclinic'
loop_
_space_group_symop_operation_xyz
x,y,z
-x,y,-z
1/2+x,1/2+y,z
1/2-x,1/2+y,-z
loop_
_atom_site_type_symbol
_atom_site_label
_atom_site_fract_x
_atom_site_fract_y
_atom_site_fract_z
Si Si1 0.582274 0.081370 0.860330
Si Si2 0.286127 0.242215 0.537652
Si Si3 0.177103 0.404588 0.536255
Si Si4 0.558752 0.387653 0.501711
Si Si5 0.740419 0.439239 0.137905
Si Si6 0.671159 0.686139 0.120871
Si Si7 0.108612 0.155539 0.056025
Si Si8 0.980545 0.836461 0.159783
O O1 0.577847 0.255295 0.842361
O O2 0.783956 0.009647 0.662030
O O3 0.500000 0.076319 0.000000
O O4 0.450989 0.985551 0.944916
O O5 0.288492 0.374739 0.487964
O O6 0.406149 0.278995 0.478319
O O7 0.082951 0.240708 0.755094
O O8 0.352830 0.085679 0.444252
O O9 0.296174 0.347097 0.371117
O O10 0.983861 0.314850 0.721323
O O11 0.500000 0.300066 0.500000
O O12 0.370797 0.471756 0.699149
O O13 0.632698 0.535466 0.193675
O O14 0.745029 0.260545 0.115808
O O15 0.683101 0.622887 0.046951
O O16 0.870402 0.745719 0.946845
O O17 0.071266 0.999419 0.058029
#
# Coordination Sequence:
#
# PCOD8050044 Si02
#       8
#     4   4   4   4   4   4   4   4
#     4  11  23  46  64  93 122 166 227 278 328 389
#     4  10  24  39  66  95 135 179 216 274 340 385
#     4  10  23  41  61 100 136 170 217 272 333 414
#     4  12  25  42  68  94 124 180 231 270 326 392
#     4  11  23  39  67  91 127 169 218 268 317 403
#     4  10  22  37  61  97 132 168 208 259 330 398
#     4  10  21  40  59  99 133 167 209 263 329 408
#     4  10  23  38  64  91 133 168 207 272 336 387
#
# _framework density 20.904527999999999
#
# number of rings (size 3 to 8) (size 9 to 14) (size 15 to 20)
#    0.000    1.500    2.500    1.500   10.500    1.000 
#    0.000    3.125    0.000    0.000    0.000    0.000 
#    0.000    0.000    0.000    0.000    0.000    0.000 
#
# Total GULP energy -198263.695794 kJ/mol
# GULP energy per Si atom -12391.480987 kJ/mol
# Density = 2.085695 g / cm^3
# Si number density = 20.904528 Si / 1000 Ang^3
#
#
#
# Elastic Constant Matrix: (Units=GPa)
#
#
# Indices 1 2 3 4 5 6 
#
# 1 124.8168 65.6145 21.1490 -0.0089 7.1404 0.0032
# 2 65.6145 126.2942 31.0814 0.0097 13.4390 -0.0034
# 3 21.1490 31.0814 77.6368 0.0087 10.6644 0.0034
# 4 -0.0089 0.0097 0.0087 23.5091 -0.0140 3.0204
# 5 7.1404 13.4390 10.6644 -0.0140 28.7207 0.0032
# 6 0.0032 -0.0034 0.0034 3.0204 0.0032 26.1200
#
#
#
# Elastic Compliance Matrix: (Units=1/GPa)
#
#
# Indices 1 2 3 4 5 6 
#
# 1 0.011066 -0.005567 -0.000807 0.000007 0.000153 -0.000003
# 2 -0.005567 0.011829 -0.002791 -0.000008 -0.003114 0.000004
# 3 -0.000807 -0.002791 0.014764 -0.000007 -0.003975 -0.000001
# 4 0.000007 -0.000008 -0.000007 0.043178 0.000026 -0.004993
# 5 0.000153 -0.003114 -0.003975 0.000026 0.037713 -0.000008
# 6 -0.000003 0.000004 -0.000001 -0.004993 -0.000008 0.038862
#
#
# Mechanical properties :
#
#
# Convention : Reuss Voigt Hill
#
# Bulk Modulus (GPa) = 51.73732 62.71530 57.22631
# Shear Modulus (GPa) = 27.44455 29.73014 28.58734
#
# Velocity S-wave (km/s) = 3.62726 3.77528 3.70201
# Velocity P-wave (km/s) = 6.50736 7.00497 6.76075
#
# Compressibility (1/GPa) = 0.01932841
#
# Stress axis : x y z
#
# Youngs Moduli (GPa) = 90.36517 84.54065 67.73324
#
# Poissons Ratio (x) = 0.47064 0.05465
# Poissons Ratio (y) = 0.50307 0.18906
# Poissons Ratio (z) = 0.07291 0.23597
#
# Static dielectric constant tensor:
#      x y z
#    x 3.816470 -0.000040 -0.116050 
#    y -0.000040 3.765540 0.000120 
#    z -0.116050 0.000120 3.977750 
# 
# 
# High freq. dielectric constant tensor:
#      x y z
#    x 1.812620 0.000000 -0.005530 
#    y 0.000000 1.805540 0.000000 
#    z -0.005530 0.000000 1.837830 
# 
# From -- ./inp_files/69654.got.cif
#   From: 2010.03.12/outbox.cif.g09.slc.cpg/sg5_35_cif.got.tgz:69654.got - 2010.03.31 09:47:26.
