data_PCOD8050273
_publ_section_title
;
Structure prediction by ZEFSAII (Michael W. Deem and Ramdas Pophale) SiO2 
 PCOD8050273
Probable space group: C 2
;
_chemical_formula_sum "Si O2"
_cell_formula_units_Z 24
_cell_length_a 16.696503
_cell_length_b 10.100821
_cell_length_c 14.819816
_cell_angle_alpha 90.000000
_cell_angle_beta 25.161523
_cell_angle_gamma 90.000000
_cell_volume 1062.647467
_symmetry_space_group_name_H-M "C 2"
_symmetry_group_IT_number 5
_symmetry_cell_setting 'monoclinic'
loop_
_space_group_symop_operation_xyz
x,y,z
-x,y,-z
1/2+x,1/2+y,z
1/2-x,1/2+y,-z
loop_
_atom_site_type_symbol
_atom_site_label
_atom_site_fract_x
_atom_site_fract_y
_atom_site_fract_z
Si Si1 0.516405 0.493610 0.375761
Si Si2 0.583073 0.032288 0.240017
Si Si3 0.288161 0.774300 0.086273
Si Si4 0.500000 0.157990 0.000000
Si Si5 0.883500 0.454443 0.266003
Si Si6 0.358868 0.775682 0.722085
Si Si7 0.000000 0.656427 0.500000
O O1 0.500000 0.475016 0.500000
O O2 0.691563 0.413069 0.153624
O O3 0.339726 0.429589 0.502646
O O4 0.553718 0.647574 0.316974
O O5 0.745516 0.147614 0.064281
O O6 0.451878 0.070674 0.460099
O O7 0.450915 0.023569 0.288793
O O8 0.671110 0.888209 0.171536
O O9 0.189069 0.743229 0.284890
O O10 0.508538 0.814862 0.865829
O O11 0.654698 0.249760 0.888364
O O12 0.601339 0.063090 0.826707
O O13 0.500000 0.824599 0.500000
#
# Coordination Sequence:
#
# PCOD8050273 Si02
#       7
#     4   4   4   2   4   4   2
#     4  11  20  39  66  95 128 182 231 281 335 417
#     4  10  24  43  69 101 142 182 233 292 353 420
#     4  10  21  43  66  93 140 174 227 290 343 409
#     4  12  24  38  70  98 132 176 234 270 362 406
#     4  12  24  39  71 105 130 182 238 281 346 418
#     4  11  21  43  67  92 134 178 223 287 341 413
#     4   8  20  44  70  86 144 182 208 298 352 400
#
# _framework density 22.585101000000002
#
# number of rings (size 3 to 8) (size 9 to 14) (size 15 to 20)
#    1.000    0.333    6.667    0.000    2.333    1.333 
#    0.000    5.833    0.000    0.000    0.000    0.000 
#    0.000    0.000    0.000    0.000    0.000    0.000 
#
# Total GULP energy -148667.547946 kJ/mol
# GULP energy per Si atom -12388.962329 kJ/mol
# Density = 2.253370 g / cm^3
# Si number density = 22.585101 Si / 1000 Ang^3
#
#
#
# Elastic Constant Matrix: (Units=GPa)
#
#
# Indices 1 2 3 4 5 6 
#
# 1 90.9691 29.4858 17.8557 -0.0018 -19.7997 -0.0001
# 2 29.4858 146.7090 16.0642 -0.0021 -17.2770 0.0010
# 3 17.8557 16.0642 70.2046 -0.0035 -29.3759 0.0016
# 4 -0.0018 -0.0021 -0.0035 0.8778 0.0015 -10.9024
# 5 -19.7997 -17.2770 -29.3759 0.0015 38.5188 -0.0005
# 6 -0.0001 0.0010 0.0016 -10.9024 -0.0005 2.5193
#
#
#
# Elastic Compliance Matrix: (Units=1/GPa)
#
#
# Indices 1 2 3 4 5 6 
#
# 1 0.012883 -0.001897 -0.000628 -0.000001 0.005292 -0.000001
# 2 -0.001897 0.007485 -0.000343 0.000000 0.002121 -0.000001
# 3 -0.000628 -0.000343 0.020977 0.000001 0.015521 -0.000004
# 4 -0.000001 0.000000 0.000001 -0.021597 0.000000 -0.093462
# 5 0.005292 0.002121 0.015521 0.000000 0.041470 -0.000001
# 6 -0.000001 -0.000001 -0.000004 -0.093462 -0.000001 -0.007525
#
#
# Mechanical properties :
#
#
# Convention : Reuss Voigt Hill
#
# Bulk Modulus (GPa) = 28.08339 48.29933 38.19136
# Shear Modulus (GPa) = 70.12789 24.68164 47.40476
#
# Velocity S-wave (km/s) = 5.57834 3.30938 4.58639
# Velocity P-wave (km/s) = 7.34520 6.00288 6.70771
#
# Compressibility (1/GPa) = 0.03560824
#
# Stress axis : x y z
#
# Youngs Moduli (GPa) = 77.62284 133.60448 47.67161
#
# Poissons Ratio (x) = 0.25348 0.02994
# Poissons Ratio (y) = 0.14727 0.01634
# Poissons Ratio (z) = 0.04875 0.04580
#
# Static dielectric constant tensor:
#      x y z
#    x 4.132210 0.000000 -0.047440 
#    y 0.000000 4.227790 0.000000 
#    z -0.047440 0.000000 3.955600 
# 
# 
# High freq. dielectric constant tensor:
#      x y z
#    x 1.874040 0.000000 0.007260 
#    y 0.000000 1.898960 0.000000 
#    z 0.007260 0.000000 1.876780 
# 
# From -- ./inp_files/54421.got.cif
#   From: 2010.03.12/outbox.cif.g09.slc.cpg/sg5_28_cif.got.tgz:54421.got - 2010.03.31 09:47:26.
