data_PCOD8050071
_publ_section_title
;
Structure prediction by ZEFSAII (Michael W. Deem and Ramdas Pophale) SiO2 
 PCOD8050071
Probable space group: C 2
;
_chemical_formula_sum "Si O2"
_cell_formula_units_Z 30
_cell_length_a 11.711189
_cell_length_b 14.109320
_cell_length_c 13.922971
_cell_angle_alpha 90.000000
_cell_angle_beta 139.289727
_cell_angle_gamma 90.000000
_cell_volume 1500.522951
_symmetry_space_group_name_H-M "C 2"
_symmetry_group_IT_number 5
_symmetry_cell_setting 'monoclinic'
loop_
_space_group_symop_operation_xyz
x,y,z
-x,y,-z
1/2+x,1/2+y,z
1/2-x,1/2+y,-z
loop_
_atom_site_type_symbol
_atom_site_label
_atom_site_fract_x
_atom_site_fract_y
_atom_site_fract_z
Si Si1 0.771317 0.272640 0.784335
Si Si2 0.553473 0.297970 0.284628
Si Si3 0.597658 0.475905 0.883357
Si Si4 0.000000 0.104711 0.000000
Si Si5 0.711998 0.111754 0.313076
Si Si6 0.833877 0.295760 0.619715
Si Si7 0.000159 0.428338 0.855778
Si Si8 0.490935 0.612062 0.647179
O O1 0.611761 0.297254 0.750600
O O2 0.844261 0.170088 0.861355
O O3 0.709222 0.271241 0.632576
O O4 0.922448 0.354534 0.885695
O O5 0.523609 0.381557 0.188017
O O6 0.579837 0.198939 0.247018
O O7 0.725817 0.320421 0.456294
O O8 0.572845 0.539181 0.961420
O O9 0.542610 0.527950 0.750639
O O10 0.796039 0.442405 0.999242
O O11 0.851817 0.140045 0.322533
O O12 0.816209 0.082111 0.476512
O O13 0.596740 0.027952 0.197016
O O14 0.960578 0.384758 0.724506
O O15 0.958362 0.205812 0.687014
#
# Coordination Sequence:
#
# PCOD8050071 Si02
#       8
#     4   4   4   2   4   4   4   4
#     4  10  21  40  63  91 121 167 205 264 296 374
#     4  11  22  38  64  92 126 158 212 254 318 357
#     4  12  24  40  61  92 125 168 205 260 303 388
#     4  12  24  42  62  92 132 164 210 250 326 362
#     4  10  22  39  63  91 123 162 204 267 302 378
#     4   9  21  40  64  89 119 164 208 265 301 366
#     4  10  22  38  60  91 119 161 205 256 307 360
#     4  10  21  41  63  87 123 162 212 253 321 353
#
# _framework density 19.993030000000001
#
# number of rings (size 3 to 8) (size 9 to 14) (size 15 to 20)
#    0.800    0.800    1.333    3.600    0.000    4.800 
#    0.000    0.000    0.000    0.000    0.000    0.000 
#    0.000    0.000    0.000    0.000    0.000    0.000 
#
# Total GULP energy -185922.871222 kJ/mol
# GULP energy per Si atom -12394.858081 kJ/mol
# Density = 1.994752 g / cm^3
# Si number density = 19.993030 Si / 1000 Ang^3
#
#
#
# Elastic Constant Matrix: (Units=GPa)
#
#
# Indices 1 2 3 4 5 6 
#
# 1 74.6907 52.7685 25.4861 0.0000 -1.7967 0.0000
# 2 52.7685 140.8482 55.6344 -0.0001 8.2151 -0.0001
# 3 25.4861 55.6344 76.2161 -0.0002 10.3536 -0.0002
# 4 0.0000 -0.0001 -0.0002 40.8943 -0.0003 0.7682
# 5 -1.7967 8.2151 10.3536 -0.0003 27.6102 -0.0002
# 6 0.0000 -0.0001 -0.0002 0.7682 -0.0002 27.8624
#
#
#
# Elastic Compliance Matrix: (Units=1/GPa)
#
#
# Indices 1 2 3 4 5 6 
#
# 1 0.018735 -0.006411 -0.002117 0.000000 0.003921 0.000000
# 2 -0.006411 0.012172 -0.006525 0.000000 -0.001592 0.000000
# 3 -0.002117 -0.006525 0.019331 0.000000 -0.005445 0.000000
# 4 0.000000 0.000000 0.000000 0.024466 0.000000 -0.000675
# 5 0.003921 -0.001592 -0.005445 0.000000 0.038989 0.000000
# 6 0.000000 0.000000 0.000000 -0.000675 0.000000 0.035909
#
#
# Mechanical properties :
#
#
# Convention : Reuss Voigt Hill
#
# Bulk Modulus (GPa) = 49.67482 62.17032 55.92257
# Shear Modulus (GPa) = 26.82115 29.79780 28.30948
#
# Velocity S-wave (km/s) = 3.66666 3.86477 3.76702
# Velocity P-wave (km/s) = 6.54415 7.14694 6.85218
#
# Compressibility (1/GPa) = 0.02013092
#
# Stress axis : x y z
#
# Youngs Moduli (GPa) = 53.37623 82.15610 51.72980
#
# Poissons Ratio (x) = 0.52673 0.10954
# Poissons Ratio (y) = 0.34221 0.33753
# Poissons Ratio (z) = 0.11302 0.53605
#
# Static dielectric constant tensor:
#      x y z
#    x 3.505770 0.000000 -0.080550 
#    y 0.000000 3.733010 0.000000 
#    z -0.080550 0.000000 3.671530 
# 
# 
# High freq. dielectric constant tensor:
#      x y z
#    x 1.768480 0.000000 -0.006080 
#    y 0.000000 1.787620 0.000000 
#    z -0.006080 0.000000 1.787150 
# 
# From -- ./inp_files/53079.got.cif
#   From: 2010.03.12/outbox.cif.g09.slc.cpg/sg5_27_cif.got.tgz:53079.got - 2010.03.31 09:47:26.
