data_PCOD8050014
_publ_section_title
;
Structure prediction by ZEFSAII (Michael W. Deem and Ramdas Pophale) SiO2 
 PCOD8050014
Probable space group: C 2
;
_chemical_formula_sum "Si O2"
_cell_formula_units_Z 30
_cell_length_a 7.600844
_cell_length_b 13.031120
_cell_length_c 21.399691
_cell_angle_alpha 90.000000
_cell_angle_beta 138.630666
_cell_angle_gamma 90.000000
_cell_volume 1400.856282
_symmetry_space_group_name_H-M "C 2"
_symmetry_group_IT_number 5
_symmetry_cell_setting 'monoclinic'
loop_
_space_group_symop_operation_xyz
x,y,z
-x,y,-z
1/2+x,1/2+y,z
1/2-x,1/2+y,-z
loop_
_atom_site_type_symbol
_atom_site_label
_atom_site_fract_x
_atom_site_fract_y
_atom_site_fract_z
Si Si1 0.000000 0.904390 0.000000
Si Si2 0.403365 0.238551 0.595626
Si Si3 0.804854 0.965712 0.599505
Si Si4 0.645492 0.177308 0.193163
Si Si5 0.534412 0.670252 0.605728
Si Si6 0.662580 0.577591 0.130388
Si Si7 0.190437 0.271262 0.000034
Si Si8 0.865565 0.089342 0.733177
O O1 0.742342 0.836427 0.951245
O O2 0.935431 0.970146 0.922057
O O3 0.447973 0.356660 0.626640
O O4 0.249906 0.173864 0.607946
O O5 0.688318 0.185452 0.661723
O O6 0.231307 0.231782 0.485710
O O7 0.500000 0.955153 0.500000
O O8 0.810978 0.991173 0.674889
O O9 0.958944 0.052134 0.600746
O O10 0.839365 0.223867 0.298744
O O11 0.445906 0.100262 0.175075
O O12 0.823630 0.117842 0.189918
O O13 0.477730 0.260244 0.110035
O O14 0.444852 0.663959 0.055241
O O15 0.700601 0.562450 0.213737
O O16 0.000000 0.327841 0.000000
#
# Coordination Sequence:
#
# PCOD8050014 Si02
#       8
#     2   4   4   4   4   4   4   4
#     4  12  24  44  74  96 130 180 220 266 346 398
#     4  11  22  42  66  91 135 184 213 278 327 383
#     4  11  22  41  65  98 131 178 228 264 331 402
#     4  10  21  43  69  97 134 171 218 278 325 397
#     4  10  21  39  66  91 135 172 217 275 322 382
#     4  11  23  47  68  97 140 169 219 285 327 389
#     4  10  23  46  69  97 133 172 222 277 332 399
#     4  11  24  42  70  98 136 179 219 273 336 388
#
# _framework density 21.415474
#
# number of rings (size 3 to 8) (size 9 to 14) (size 15 to 20)
#    0.000    1.333    6.000    0.800    0.000    2.133 
#   10.800    8.000    0.000    0.000    0.000    0.000 
#    0.000    0.000    0.000    0.000    0.000    0.000 
#
# Total GULP energy -185965.346903 kJ/mol
# GULP energy per Si atom -12397.689794 kJ/mol
# Density = 2.136673 g / cm^3
# Si number density = 21.415474 Si / 1000 Ang^3
#
#
#
# Elastic Constant Matrix: (Units=GPa)
#
#
# Indices 1 2 3 4 5 6 
#
# 1 106.2607 51.3372 24.7687 -0.0001 11.2573 -0.0001
# 2 51.3372 125.3084 39.2926 -0.0001 -0.7161 0.0000
# 3 24.7687 39.2926 110.4713 -0.0001 2.9866 0.0000
# 4 -0.0001 -0.0001 -0.0001 1.8962 -0.0001 -4.4548
# 5 11.2573 -0.7161 2.9866 -0.0001 29.1657 -0.0001
# 6 -0.0001 0.0000 0.0000 -4.4548 -0.0001 33.3451
#
#
#
# Elastic Compliance Matrix: (Units=1/GPa)
#
#
# Indices 1 2 3 4 5 6 
#
# 1 0.012485 -0.004847 -0.000945 0.000000 -0.004841 0.000000
# 2 -0.004847 0.010872 -0.002846 0.000000 0.002429 0.000000
# 3 -0.000945 -0.002846 0.010297 0.000001 -0.000760 0.000000
# 4 0.000000 0.000000 0.000001 0.768613 0.000004 0.102684
# 5 -0.004841 0.002429 -0.000760 0.000004 0.036293 0.000001
# 6 0.000000 0.000000 0.000000 0.102684 0.000001 0.043708
#
#
# Mechanical properties :
#
#
# Convention : Reuss Voigt Hill
#
# Bulk Modulus (GPa) = 61.05067 63.64860 62.34963
# Shear Modulus (GPa) = 5.52485 27.99087 16.75786
#
# Velocity S-wave (km/s) = 1.60793 3.61922 2.80038
# Velocity P-wave (km/s) = 5.65835 6.87389 6.29552
#
# Compressibility (1/GPa) = 0.01637984
#
# Stress axis : x y z
#
# Youngs Moduli (GPa) = 80.09365 91.97783 97.11803
#
# Poissons Ratio (x) = 0.44578 0.09174
# Poissons Ratio (y) = 0.38818 0.27640
# Poissons Ratio (z) = 0.07566 0.26177
#
# Static dielectric constant tensor:
#      x y z
#    x 4.088430 0.000000 0.009030 
#    y 0.000000 3.606900 0.000000 
#    z 0.009030 0.000000 4.127180 
# 
# 
# High freq. dielectric constant tensor:
#      x y z
#    x 1.854160 0.000000 -0.001460 
#    y 0.000000 1.811030 0.000000 
#    z -0.001460 0.000000 1.851640 
# 
# From -- ./inp_files/67964.got.cif
#   From: 2010.03.12/outbox.cif.g09.slc.cpg/sg5_34_cif.got.tgz:67964.got - 2010.03.31 09:47:26.
