data_PCOD8050553
_publ_section_title
;
Structure prediction by ZEFSAII (Michael W. Deem and Ramdas Pophale) SiO2 
 PCOD8050553
Probable space group: C 2
;
_chemical_formula_sum "Si O2"
_cell_formula_units_Z 30
_cell_length_a 29.888945
_cell_length_b 8.156474
_cell_length_c 17.289664
_cell_angle_alpha 90.000000
_cell_angle_beta 160.970690
_cell_angle_gamma 90.000000
_cell_volume 1374.314708
_symmetry_space_group_name_H-M "C 2"
_symmetry_group_IT_number 5
_symmetry_cell_setting 'monoclinic'
loop_
_space_group_symop_operation_xyz
x,y,z
-x,y,-z
1/2+x,1/2+y,z
1/2-x,1/2+y,-z
loop_
_atom_site_type_symbol
_atom_site_label
_atom_site_fract_x
_atom_site_fract_y
_atom_site_fract_z
Si Si1 0.414447 0.683490 0.670932
Si Si2 0.629945 0.180744 0.164323
Si Si3 0.266331 0.219907 0.162018
Si Si4 0.433840 0.981076 0.088460
Si Si5 0.000000 0.933759 0.500000
Si Si6 0.104960 0.061741 0.105092
Si Si7 0.983738 0.040803 0.305928
Si Si8 0.386251 0.194385 0.513580
O O1 0.258390 0.626137 0.427810
O O2 0.444337 0.868883 0.749217
O O3 0.440317 0.682027 0.619468
O O4 0.520950 0.562672 0.887223
O O5 0.647222 0.375152 0.185772
O O6 0.500000 0.124173 0.000000
O O7 0.630942 0.097754 0.082215
O O8 0.367562 0.316813 0.269198
O O9 0.358241 0.136049 0.379703
O O10 0.181298 0.358451 0.068841
O O11 0.179140 0.079787 0.974968
O O12 0.494358 0.082467 0.257883
O O13 0.014311 0.048809 0.447608
O O14 0.241696 0.176754 0.325630
O O15 0.000000 0.125564 0.000000
O O16 0.046150 0.874205 0.372379
#
# Coordination Sequence:
#
# PCOD8050553 Si02
#       8
#     4   4   4   4   2   4   4   4
#     4  11  23  43  61  93 132 168 218 271 320 388
#     4  11  25  39  59  94 130 174 225 271 320 375
#     4  10  23  45  63 100 127 167 216 267 323 395
#     4  11  23  39  65  92 126 171 221 261 326 388
#     4  10  22  40  68  94 130 160 216 270 326 396
#     4  11  24  42  62  95 134 172 224 273 320 377
#     4  10  22  42  69  91 130 171 209 267 329 385
#     4  11  21  41  64  91 126 177 209 270 324 379
#
# _framework density 21.829060999999999
#
# number of rings (size 3 to 8) (size 9 to 14) (size 15 to 20)
#    0.000    1.333    4.000    2.400    1.867    2.667 
#    0.000    4.000    0.000    1.600    0.000    0.000 
#    0.000    0.000    0.000    0.000    0.000    0.000 
#
# Total GULP energy -185845.802408 kJ/mol
# GULP energy per Si atom -12389.720161 kJ/mol
# Density = 2.177938 g / cm^3
# Si number density = 21.829061 Si / 1000 Ang^3
#
#
#
# Elastic Constant Matrix: (Units=GPa)
#
#
# Indices 1 2 3 4 5 6 
#
# 1 80.9225 27.8564 23.8256 0.0000 -1.8649 0.0000
# 2 27.8564 60.3635 33.1149 0.0000 -5.3581 0.0000
# 3 23.8256 33.1149 128.3560 0.0000 -10.8061 0.0000
# 4 0.0000 0.0000 0.0000 34.0973 0.0000 2.3845
# 5 -1.8649 -5.3581 -10.8061 0.0000 33.3746 0.0000
# 6 0.0000 0.0000 0.0000 2.3845 0.0000 26.3374
#
#
#
# Elastic Compliance Matrix: (Units=1/GPa)
#
#
# Indices 1 2 3 4 5 6 
#
# 1 0.014846 -0.006247 -0.001191 0.000000 -0.000559 0.000000
# 2 -0.006247 0.022002 -0.004368 0.000000 0.001769 0.000000
# 3 -0.001191 -0.004368 0.009328 0.000000 0.002253 0.000000
# 4 0.000000 0.000000 0.000000 0.029515 0.000000 -0.002672
# 5 -0.000559 0.001769 0.002253 0.000000 0.030945 0.000000
# 6 0.000000 0.000000 0.000000 -0.002672 0.000000 0.038211
#
#
# Mechanical properties :
#
#
# Convention : Reuss Voigt Hill
#
# Bulk Modulus (GPa) = 44.31765 48.80396 46.56080
# Shear Modulus (GPa) = 28.41214 31.08487 29.74851
#
# Velocity S-wave (km/s) = 3.61165 3.77770 3.69561
# Velocity P-wave (km/s) = 6.14314 6.43692 6.29175
#
# Compressibility (1/GPa) = 0.02256438
#
# Stress axis : x y z
#
# Youngs Moduli (GPa) = 67.35907 45.44938 107.19906
#
# Poissons Ratio (x) = 0.28393 0.12768
# Poissons Ratio (y) = 0.42081 0.46824
# Poissons Ratio (z) = 0.08023 0.19852
#
# Static dielectric constant tensor:
#      x y z
#    x 3.878290 0.000000 0.030640 
#    y 0.000000 3.818830 0.000000 
#    z 0.030640 0.000000 4.314200 
# 
# 
# High freq. dielectric constant tensor:
#      x y z
#    x 1.841870 0.000000 -0.002490 
#    y 0.000000 1.841900 0.000000 
#    z -0.002490 0.000000 1.880190 
# 
# From -- ./inp_files/63814.got.cif
#   From: 2010.03.12/outbox.cif.g09.slc.cpg/sg5_32_cif.got.tgz:63814.got - 2010.03.31 09:47:26.
