data_PCOD8050433
_publ_section_title
;
Structure prediction by ZEFSAII (Michael W. Deem and Ramdas Pophale) SiO2 
 PCOD8050433
Probable space group: C 2
;
_chemical_formula_sum "Si O2"
_cell_formula_units_Z 18
_cell_length_a 14.534363
_cell_length_b 5.704529
_cell_length_c 13.474603
_cell_angle_alpha 90.000000
_cell_angle_beta 134.977317
_cell_angle_gamma 90.000000
_cell_volume 790.293922
_symmetry_space_group_name_H-M "C 2"
_symmetry_group_IT_number 5
_symmetry_cell_setting 'monoclinic'
loop_
_space_group_symop_operation_xyz
x,y,z
-x,y,-z
1/2+x,1/2+y,z
1/2-x,1/2+y,-z
loop_
_atom_site_type_symbol
_atom_site_label
_atom_site_fract_x
_atom_site_fract_y
_atom_site_fract_z
Si Si1 0.805863 0.290060 0.954270
Si Si2 0.802429 0.477850 0.581015
Si Si3 0.500000 0.467663 0.000000
Si Si4 0.894553 0.438564 0.229599
Si Si5 0.218861 0.657692 0.222550
O O1 0.832248 0.521533 0.912498
O O2 0.920386 0.110768 0.019599
O O3 0.663211 0.201438 0.808745
O O4 0.811928 0.327671 0.076147
O O5 0.737256 0.232616 0.495414
O O6 0.767101 0.493166 0.670467
O O7 0.953281 0.442409 0.671980
O O8 0.400321 0.334079 0.850631
O O9 0.854442 0.292623 0.298575
#
# Coordination Sequence:
#
# PCOD8050433 Si02
#       5
#     4   4   2   4   4
#     4  11  22  42  75 111 145 177 242 327 395 450
#     4  12  32  53  74 104 155 215 261 305 360 457
#     4  10  22  38  74 108 146 182 234 318 404 444
#     4  11  25  44  77 112 145 190 247 318 393 452
#     4  11  25  45  73 109 146 196 250 318 380 453
#
# _framework density 22.776336000000001
#
# number of rings (size 3 to 8) (size 9 to 14) (size 15 to 20)
#    0.000    0.889    2.222    3.333   15.556    0.889 
#    0.000    0.000    0.000    0.000    0.000    0.000 
#    0.000    0.000    0.000    0.000    0.000    0.000 
#
# Total GULP energy -111510.656593 kJ/mol
# GULP energy per Si atom -12390.072955 kJ/mol
# Density = 2.272450 g / cm^3
# Si number density = 22.776336 Si / 1000 Ang^3
#
#
#
# Elastic Constant Matrix: (Units=GPa)
#
#
# Indices 1 2 3 4 5 6 
#
# 1 133.6141 40.0685 56.0166 0.0000 17.4377 0.0000
# 2 40.0685 114.1765 39.6083 0.0000 6.6954 0.0000
# 3 56.0166 39.6083 77.9022 0.0000 15.0275 0.0000
# 4 0.0000 0.0000 0.0000 12.7829 0.0000 -40.9979
# 5 17.4377 6.6954 15.0275 0.0000 40.1252 0.0000
# 6 0.0000 0.0000 0.0000 -40.9979 0.0000 -30.4701
#
#
#
# Elastic Compliance Matrix: (Units=1/GPa)
#
#
# Indices 1 2 3 4 5 6 
#
# 1 0.011027 -0.001379 -0.006843 0.000000 -0.002000 0.000000
# 2 -0.001379 0.010809 -0.004605 0.000000 0.000520 0.000000
# 3 -0.006843 -0.004605 0.020885 0.000000 -0.004080 0.000000
# 4 0.000000 0.000000 0.000000 0.014718 0.000000 -0.019803
# 5 -0.002000 0.000520 -0.004080 0.000000 0.027232 0.000000
# 6 0.000000 0.000000 0.000000 -0.019803 0.000000 -0.006174
#
#
# Mechanical properties :
#
#
# Convention : Reuss Voigt Hill
#
# Bulk Modulus (GPa) = 58.58442 66.34219 62.46331
# Shear Modulus (GPa) = 45.52127 17.15422 31.33774
#
# Velocity S-wave (km/s) = 4.47544 2.74735 3.71332
# Velocity P-wave (km/s) = 7.24456 6.26537 6.77268
#
# Compressibility (1/GPa) = 0.01706939
#
# Stress axis : x y z
#
# Youngs Moduli (GPa) = 90.68300 92.51445 47.88134
#
# Poissons Ratio (x) = 0.12757 0.32763
# Poissons Ratio (y) = 0.12505 0.22047
# Poissons Ratio (z) = 0.62051 0.42599
#
# Static dielectric constant tensor:
#      x y z
#    x 4.319100 0.000000 0.234560 
#    y 0.000000 4.720960 0.000000 
#    z 0.234560 0.000000 4.200760 
# 
# 
# High freq. dielectric constant tensor:
#      x y z
#    x 1.923240 0.000000 0.008230 
#    y 0.000000 1.918130 0.000000 
#    z 0.008230 0.000000 1.868410 
# 
# From -- ./inp_files/26036.got.cif
#   From: 2010.03.12/outbox.cif.g09.slc.cpg/sg5_14_cif.got.tgz:26036.got - 2010.03.31 09:47:26.
