data_PCOD8050329
_publ_section_title
;
Structure prediction by ZEFSAII (Michael W. Deem and Ramdas Pophale) SiO2 
 PCOD8050329
Probable space group: C 2
;
_chemical_formula_sum "Si O2"
_cell_formula_units_Z 28
_cell_length_a 15.747372
_cell_length_b 8.944940
_cell_length_c 10.227954
_cell_angle_alpha 90.000000
_cell_angle_beta 60.796077
_cell_angle_gamma 90.000000
_cell_volume 1257.572820
_symmetry_space_group_name_H-M "C 2"
_symmetry_group_IT_number 5
_symmetry_cell_setting 'monoclinic'
loop_
_space_group_symop_operation_xyz
x,y,z
-x,y,-z
1/2+x,1/2+y,z
1/2-x,1/2+y,-z
loop_
_atom_site_type_symbol
_atom_site_label
_atom_site_fract_x
_atom_site_fract_y
_atom_site_fract_z
Si Si1 0.090800 0.261210 0.681275
Si Si2 0.157062 0.459439 0.385424
Si Si3 0.446624 0.152498 0.170076
Si Si4 0.634006 0.434134 0.673013
Si Si5 0.388554 0.301182 0.574530
Si Si6 0.701908 0.927366 0.806046
Si Si7 0.589096 0.931377 0.157008
O O1 0.110120 0.357490 0.534586
O O2 0.163760 0.288162 0.747970
O O3 0.984677 0.297266 0.818096
O O4 0.088187 0.085769 0.651996
O O5 0.271687 0.469777 0.314999
O O6 0.112218 0.623871 0.409357
O O7 0.140598 0.390443 0.254476
O O8 0.439775 0.331576 0.186369
O O9 0.338491 0.074149 0.244356
O O10 0.519888 0.081523 0.223694
O O11 0.500000 0.102055 0.000000
O O12 0.658281 0.328569 0.532641
O O13 0.500000 0.359384 0.500000
O O14 0.319230 0.400545 0.723422
O O15 0.668251 0.935137 0.981731
#
# Coordination Sequence:
#
# PCOD8050329 Si02
#       7
#     4   4   4   4   4   4   4
#     4  11  22  41  71  97 135 174 226 269 332 401
#     4  12  23  44  68 100 135 181 221 276 337 399
#     4   9  21  43  71  96 136 179 222 272 342 406
#     4  12  24  41  67 101 134 177 222 283 327 394
#     4  12  25  44  69  95 135 178 231 276 332 399
#     4  10  21  45  70  96 129 183 221 272 337 402
#     4  10  23  44  71  96 133 182 221 269 343 406
#
# _framework density 22.265111999999998
#
# number of rings (size 3 to 8) (size 9 to 14) (size 15 to 20)
#    0.000    1.143    2.857    5.143    2.000    2.286 
#    7.714    0.000    0.000    0.000    0.000    0.000 
#    0.000    0.000    0.000    0.000    0.000    0.000 
#
# Total GULP energy -173451.637243 kJ/mol
# GULP energy per Si atom -12389.402660 kJ/mol
# Density = 2.221444 g / cm^3
# Si number density = 22.265112 Si / 1000 Ang^3
#
#
#
# Elastic Constant Matrix: (Units=GPa)
#
#
# Indices 1 2 3 4 5 6 
#
# 1 119.0566 30.0068 57.5254 0.0000 -11.8104 0.0000
# 2 30.0068 113.1156 39.0862 0.0000 -10.2607 0.0000
# 3 57.5254 39.0862 96.6427 0.0000 -10.0012 0.0000
# 4 0.0000 0.0000 0.0000 28.0159 0.0000 -2.1862
# 5 -11.8104 -10.2607 -10.0012 0.0000 40.9924 0.0000
# 6 0.0000 0.0000 0.0000 -2.1862 0.0000 18.4393
#
#
#
# Elastic Compliance Matrix: (Units=1/GPa)
#
#
# Indices 1 2 3 4 5 6 
#
# 1 0.011961 -0.000724 -0.006657 0.000000 0.001641 0.000000
# 2 -0.000724 0.010424 -0.003628 0.000000 0.001515 0.000000
# 3 -0.006657 -0.003628 0.015886 0.000000 0.001050 0.000000
# 4 0.000000 0.000000 0.000000 0.036027 0.000000 0.004272
# 5 0.001641 0.001515 0.001050 0.000000 0.025503 0.000000
# 6 0.000000 0.000000 0.000000 0.004272 0.000000 0.054738
#
#
# Mechanical properties :
#
#
# Convention : Reuss Voigt Hill
#
# Bulk Modulus (GPa) = 61.52863 64.67240 63.10051
# Shear Modulus (GPa) = 27.47626 30.96927 29.22277
#
# Velocity S-wave (km/s) = 3.51672 3.73357 3.62676
# Velocity P-wave (km/s) = 6.64712 6.90620 6.77790
#
# Compressibility (1/GPa) = 0.01625260
#
# Stress axis : x y z
#
# Youngs Moduli (GPa) = 83.60389 95.93575 62.94858
#
# Poissons Ratio (x) = 0.06944 0.41906
# Poissons Ratio (y) = 0.06051 0.22838
# Poissons Ratio (z) = 0.55657 0.34806
#
# Static dielectric constant tensor:
#      x y z
#    x 4.013930 0.000000 -0.053530 
#    y 0.000000 3.965910 0.000000 
#    z -0.053530 0.000000 4.009270 
# 
# 
# High freq. dielectric constant tensor:
#      x y z
#    x 1.876050 0.000000 0.000980 
#    y 0.000000 1.864240 0.000000 
#    z 0.000980 0.000000 1.874330 
# 
# From -- ./inp_files/41874.got.cif
#   From: 2010.03.12/outbox.cif.g09.slc.cpg/sg5_21_cif.got.tgz:41874.got - 2010.03.31 09:47:26.
