data_PCOD8050709
_publ_section_title
;
Structure prediction by ZEFSAII (Michael W. Deem and Ramdas Pophale) SiO2 
 PCOD8050709
Probable space group: C 2
;
_chemical_formula_sum "Si O2"
_cell_formula_units_Z 28
_cell_length_a 16.569126
_cell_length_b 12.491018
_cell_length_c 8.039401
_cell_angle_alpha 90.000000
_cell_angle_beta 128.076596
_cell_angle_gamma 90.000000
_cell_volume 1309.782068
_symmetry_space_group_name_H-M "C 2"
_symmetry_group_IT_number 5
_symmetry_cell_setting 'monoclinic'
loop_
_space_group_symop_operation_xyz
x,y,z
-x,y,-z
1/2+x,1/2+y,z
1/2-x,1/2+y,-z
loop_
_atom_site_type_symbol
_atom_site_label
_atom_site_fract_x
_atom_site_fract_y
_atom_site_fract_z
Si Si1 0.170442 0.422840 0.419891
Si Si2 0.764981 0.052713 0.823380
Si Si3 0.829778 0.654017 0.968489
Si Si4 0.926823 0.871284 0.067613
Si Si5 0.500000 0.425737 0.500000
Si Si6 0.500000 0.042579 0.000000
Si Si7 0.894525 0.197997 0.771072
Si Si8 0.166803 0.041574 0.559116
O O1 0.182853 0.480243 0.615539
O O2 0.146953 0.296649 0.393226
O O3 0.277731 0.442548 0.461519
O O4 0.077614 0.470396 0.199037
O O5 0.803150 0.160243 0.777899
O O6 0.705868 0.095791 0.909060
O O7 0.867337 0.983686 0.987151
O O8 0.749933 0.627521 0.722189
O O9 0.838207 0.782187 0.979960
O O10 0.942752 0.613924 0.064121
O O11 0.997781 0.860727 0.323878
O O12 0.000000 0.855594 0.000000
O O13 0.602632 0.497615 0.632367
O O14 0.913029 0.099115 0.668250
O O15 0.000000 0.225860 0.000000
#
# Coordination Sequence:
#
# PCOD8050709 Si02
#       8
#     4   4   4   4   2   2   4   4
#     4  10  22  42  67  95 136 183 227 292 358 419
#     4  11  24  42  71 100 142 182 245 292 352 437
#     4  11  24  44  69  99 139 185 236 288 357 420
#     4  12  25  46  72 106 143 188 241 299 360 428
#     4  12  24  42  70 100 140 180 232 294 350 418
#     4  10  22  44  64  96 138 178 226 294 346 422
#     4  11  22  41  70 101 135 185 230 290 371 426
#     4  10  23  42  64  95 141 175 232 291 348 420
#
# _framework density 21.377600999999999
#
# number of rings (size 3 to 8) (size 9 to 14) (size 15 to 20)
#    0.000    1.143    2.857    3.857    2.000    1.714 
#    0.000    1.429    0.000    0.000    0.000    0.000 
#    0.000    0.000    0.000    0.000    0.000    0.000 
#
# Total GULP energy -173525.057199 kJ/mol
# GULP energy per Si atom -12394.646943 kJ/mol
# Density = 2.132894 g / cm^3
# Si number density = 21.377601 Si / 1000 Ang^3
#
#
#
# Elastic Constant Matrix: (Units=GPa)
#
#
# Indices 1 2 3 4 5 6 
#
# 1 128.0675 38.4302 31.4745 0.0000 -19.0896 0.0000
# 2 38.4302 77.6116 17.6170 0.0000 -1.0738 0.0000
# 3 31.4745 17.6170 93.3312 0.0000 -13.8204 0.0000
# 4 0.0000 0.0000 0.0000 32.7441 0.0000 -0.3028
# 5 -19.0896 -1.0738 -13.8204 0.0000 35.3260 0.0000
# 6 0.0000 0.0000 0.0000 -0.3028 0.0000 25.1680
#
#
#
# Elastic Compliance Matrix: (Units=1/GPa)
#
#
# Indices 1 2 3 4 5 6 
#
# 1 0.010375 -0.004635 -0.001926 0.000000 0.004712 0.000000
# 2 -0.004635 0.015545 -0.001775 0.000000 -0.002726 0.000000
# 3 -0.001926 -0.001775 0.012246 0.000000 0.003696 0.000000
# 4 0.000000 0.000000 0.000000 0.030543 0.000000 0.000367
# 5 0.004712 -0.002726 0.003696 0.000000 0.032217 0.000000
# 6 0.000000 0.000000 0.000000 0.000367 0.000000 0.039737
#
#
# Mechanical properties :
#
#
# Convention : Reuss Voigt Hill
#
# Bulk Modulus (GPa) = 46.52380 52.67264 49.59822
# Shear Modulus (GPa) = 30.39496 32.74685 31.57091
#
# Velocity S-wave (km/s) = 3.77479 3.91811 3.84711
# Velocity P-wave (km/s) = 6.38818 6.72022 6.55630
#
# Compressibility (1/GPa) = 0.02149437
#
# Stress axis : x y z
#
# Youngs Moduli (GPa) = 96.38592 64.33003 81.65615
#
# Poissons Ratio (x) = 0.29816 0.15728
# Poissons Ratio (y) = 0.44674 0.14493
# Poissons Ratio (z) = 0.18566 0.11418
#
# Static dielectric constant tensor:
#      x y z
#    x 3.755930 0.000000 -0.009920 
#    y 0.000000 3.836860 0.000000 
#    z -0.009920 0.000000 3.972560 
# 
# 
# High freq. dielectric constant tensor:
#      x y z
#    x 1.832650 0.000000 0.001050 
#    y 0.000000 1.836650 0.000000 
#    z 0.001050 0.000000 1.853610 
# 
# From -- ./inp_files/23960.got.cif
#   From: 2010.03.12/outbox.cif.g09.slc.cpg/sg5_12_cif.got.tgz:23960.got - 2010.03.31 09:47:26.
