data_PCOD8050557
_publ_section_title
;
Structure prediction by ZEFSAII (Michael W. Deem and Ramdas Pophale) SiO2 
 PCOD8050557
Probable space group: C 2
;
_chemical_formula_sum "Si O2"
_cell_formula_units_Z 20
_cell_length_a 7.832241
_cell_length_b 12.268450
_cell_length_c 11.629582
_cell_angle_alpha 90.000000
_cell_angle_beta 118.526995
_cell_angle_gamma 90.000000
_cell_volume 981.809407
_symmetry_space_group_name_H-M "C 2"
_symmetry_group_IT_number 5
_symmetry_cell_setting 'monoclinic'
loop_
_space_group_symop_operation_xyz
x,y,z
-x,y,-z
1/2+x,1/2+y,z
1/2-x,1/2+y,-z
loop_
_atom_site_type_symbol
_atom_site_label
_atom_site_fract_x
_atom_site_fract_y
_atom_site_fract_z
Si Si1 0.727493 0.182000 0.791292
Si Si2 0.500000 0.523003 0.000000
Si Si3 0.500000 0.647524 0.500000
Si Si4 0.807684 0.815613 0.993357
Si Si5 0.025724 0.296483 0.297319
Si Si6 0.406502 0.039141 0.595286
O O1 0.894578 0.093220 0.868923
O O2 0.775953 0.243238 0.687540
O O3 0.520012 0.123598 0.713724
O O4 0.726543 0.270044 0.891781
O O5 0.342174 0.446363 0.014603
O O6 0.443305 0.725878 0.376119
O O7 0.680240 0.570875 0.523144
O O8 0.625972 0.791027 0.855057
O O9 0.000000 0.759904 0.000000
O O10 0.070537 0.418162 0.349873
O O11 0.500000 0.044790 0.500000
#
# Coordination Sequence:
#
# PCOD8050557 Si02
#       6
#     4   2   2   4   4   4
#     4  12  23  45  70  99 138 181 226 283 351 402
#     4  10  22  40  68  96 140 172 214 290 344 402
#     4  12  28  44  70 102 134 190 236 276 342 408
#     4  10  22  42  66 102 137 174 223 288 338 411
#     4  12  24  44  70 100 139 181 237 280 339 414
#     4  12  26  47  70  99 142 186 229 286 336 404
#
# _framework density 20.370552
#
# number of rings (size 3 to 8) (size 9 to 14) (size 15 to 20)
#    0.600    0.000    7.000    1.200    0.000    3.200 
#    7.200    0.000    0.000    0.000    0.000    0.000 
#    0.000    0.000    0.000    0.000    0.000    0.000 
#
# Total GULP energy -124002.022169 kJ/mol
# GULP energy per Si atom -12400.202217 kJ/mol
# Density = 2.032419 g / cm^3
# Si number density = 20.370552 Si / 1000 Ang^3
#
#
#
# Elastic Constant Matrix: (Units=GPa)
#
#
# Indices 1 2 3 4 5 6 
#
# 1 119.9802 56.0310 40.7846 0.0000 -2.3905 0.0000
# 2 56.0310 124.0653 48.2176 0.0000 -10.4383 0.0000
# 3 40.7846 48.2176 94.8969 0.0000 -9.7106 0.0000
# 4 0.0000 0.0000 0.0000 28.7350 0.0000 -8.0300
# 5 -2.3905 -10.4383 -9.7106 0.0000 40.9318 0.0000
# 6 0.0000 0.0000 0.0000 -8.0300 0.0000 23.8252
#
#
#
# Elastic Compliance Matrix: (Units=1/GPa)
#
#
# Indices 1 2 3 4 5 6 
#
# 1 0.011163 -0.004017 -0.002864 0.000000 -0.001052 0.000000
# 2 -0.004017 0.011566 -0.003969 0.000000 0.001773 0.000000
# 3 -0.002864 -0.003969 0.014005 0.000000 0.002143 0.000000
# 4 0.000000 0.000000 0.000000 0.038419 0.000000 0.012949
# 5 -0.001052 0.001773 0.002143 0.000000 0.025330 0.000000
# 6 0.000000 0.000000 0.000000 0.012949 0.000000 0.046337
#
#
# Mechanical properties :
#
#
# Convention : Reuss Voigt Hill
#
# Bulk Modulus (GPa) = 66.51730 69.88989 68.20359
# Shear Modulus (GPa) = 28.81314 31.62568 30.21941
#
# Velocity S-wave (km/s) = 3.76500 3.94448 3.85578
# Velocity P-wave (km/s) = 7.18504 7.42489 7.30595
#
# Compressibility (1/GPa) = 0.01503368
#
# Stress axis : x y z
#
# Youngs Moduli (GPa) = 89.57891 86.45926 71.40433
#
# Poissons Ratio (x) = 0.34730 0.20453
# Poissons Ratio (y) = 0.35983 0.28340
# Poissons Ratio (z) = 0.25659 0.34315
#
# Static dielectric constant tensor:
#      x y z
#    x 3.768630 0.000000 0.115920 
#    y 0.000000 3.774220 0.000000 
#    z 0.115920 0.000000 3.718600 
# 
# 
# High freq. dielectric constant tensor:
#      x y z
#    x 1.794930 0.000000 0.003080 
#    y 0.000000 1.805740 0.000000 
#    z 0.003080 0.000000 1.802010 
# 
# From -- ./inp_files/35036.got.cif
#   From: 2010.03.12/outbox.cif.g09.slc.cpg/sg5_18_cif.got.tgz:35036.got - 2010.03.31 09:47:26.
