data_PCOD8050212
_publ_section_title
;
Structure prediction by ZEFSAII (Michael W. Deem and Ramdas Pophale) SiO2 
 PCOD8050212
Probable space group: C 2
;
_chemical_formula_sum "Si O2"
_cell_formula_units_Z 26
_cell_length_a 9.197534
_cell_length_b 27.159855
_cell_length_c 9.136822
_cell_angle_alpha 90.000000
_cell_angle_beta 33.548129
_cell_angle_gamma 90.000000
_cell_volume 1261.345836
_symmetry_space_group_name_H-M "C 2"
_symmetry_group_IT_number 5
_symmetry_cell_setting 'monoclinic'
loop_
_space_group_symop_operation_xyz
x,y,z
-x,y,-z
1/2+x,1/2+y,z
1/2-x,1/2+y,-z
loop_
_atom_site_type_symbol
_atom_site_label
_atom_site_fract_x
_atom_site_fract_y
_atom_site_fract_z
Si Si1 0.404352 0.402960 0.413251
Si Si2 0.398755 0.597165 0.241796
Si Si3 0.598081 0.849344 0.079699
Si Si4 0.212056 0.991009 0.690750
Si Si5 0.000000 0.681154 0.500000
Si Si6 0.701054 0.656512 0.199591
Si Si7 0.809836 0.236506 0.024672
O O1 0.500000 0.407422 0.500000
O O2 0.363616 0.456809 0.382430
O O3 0.137974 0.369716 0.620048
O O4 0.629599 0.377986 0.124112
O O5 0.261675 0.545912 0.403490
O O6 0.642460 0.609830 0.143918
O O7 0.221319 0.645477 0.379133
O O8 0.500000 0.582815 0.000000
O O9 0.500000 0.857966 0.000000
O O10 0.668886 0.792358 0.044475
O O11 0.500000 0.974345 0.500000
O O12 0.000000 0.985812 0.000000
O O13 0.959381 0.717415 0.674302
O O14 0.500000 0.654276 0.500000
O O15 0.641488 0.706702 0.163513
O O16 0.000000 0.652708 0.000000
O O17 0.000000 0.222855 0.000000
#
# Coordination Sequence:
#
# PCOD8050212 Si02
#       7
#     4   4   4   4   2   4   4
#     4  10  21  42  62  91 127 161 208 269 324 380
#     4  11  23  42  65  95 126 175 226 269 309 395
#     4   9  21  37  65  93 119 160 220 268 308 375
#     4  11  24  41  68  95 125 165 220 270 322 379
#     4  12  18  38  72  94 128 158 234 278 308 368
#     4  12  26  41  59  93 140 170 207 264 338 396
#     4  11  23  38  67  93 121 178 224 268 314 386
#
# _framework density 20.612901999999998
#
# number of rings (size 3 to 8) (size 9 to 14) (size 15 to 20)
#    0.000    1.231    3.846    1.846    5.385    0.615 
#    0.000    6.923    0.000    0.000    0.000    0.000 
#    0.000    0.000    0.000    0.000    0.000    0.000 
#
# Total GULP energy -161069.989776 kJ/mol
# GULP energy per Si atom -12389.999214 kJ/mol
# Density = 2.056599 g / cm^3
# Si number density = 20.612902 Si / 1000 Ang^3
#
#
#
# Elastic Constant Matrix: (Units=GPa)
#
#
# Indices 1 2 3 4 5 6 
#
# 1 104.8003 55.8782 40.1050 0.0000 -10.9379 0.0000
# 2 55.8782 153.7382 58.3295 0.0000 -3.6254 0.0000
# 3 40.1050 58.3295 113.1411 0.0000 -16.6190 0.0000
# 4 0.0000 0.0000 0.0000 32.4190 0.0000 2.7828
# 5 -10.9379 -3.6254 -16.6190 0.0000 31.3657 0.0000
# 6 0.0000 0.0000 0.0000 2.7828 0.0000 78.2608
#
#
#
# Elastic Compliance Matrix: (Units=1/GPa)
#
#
# Indices 1 2 3 4 5 6 
#
# 1 0.012640 -0.003712 -0.002150 0.000000 0.002840 0.000000
# 2 -0.003712 0.009232 -0.003771 0.000000 -0.002225 0.000000
# 3 -0.002150 -0.003771 0.012330 0.000000 0.005347 0.000000
# 4 0.000000 0.000000 0.000000 0.030941 0.000000 -0.001100
# 5 0.002840 -0.002225 0.005347 0.000000 0.035448 0.000000
# 6 0.000000 0.000000 0.000000 -0.001100 0.000000 0.012817
#
#
# Mechanical properties :
#
#
# Convention : Reuss Voigt Hill
#
# Bulk Modulus (GPa) = 66.94494 75.58946 71.26720
# Shear Modulus (GPa) = 36.32383 42.90022 39.61203
#
# Velocity S-wave (km/s) = 4.20240 4.56700 4.38849
# Velocity P-wave (km/s) = 7.48963 8.03496 7.76708
#
# Compressibility (1/GPa) = 0.01493765
#
# Stress axis : x y z
#
# Youngs Moduli (GPa) = 79.11394 108.32260 81.10317
#
# Poissons Ratio (x) = 0.40204 0.17436
# Poissons Ratio (y) = 0.29363 0.30581
# Poissons Ratio (z) = 0.17009 0.40844
#
# Static dielectric constant tensor:
#      x y z
#    x 3.723830 0.000000 -0.181980 
#    y 0.000000 3.772720 0.000000 
#    z -0.181980 0.000000 3.905970 
# 
# 
# High freq. dielectric constant tensor:
#      x y z
#    x 1.793660 0.000000 -0.013850 
#    y 0.000000 1.814030 0.000000 
#    z -0.013850 0.000000 1.811480 
# 
# From -- ./inp_files/3656.got.cif
#   From: 2010.03.12/outbox.cif.g09.slc.cpg/sg5_2_cif.got.tgz:3656.got - 2010.03.31 09:47:26.
