data_PCOD8050310
_publ_section_title
;
Structure prediction by ZEFSAII (Michael W. Deem and Ramdas Pophale) SiO2 
 PCOD8050310
Probable space group: C 2
;
_chemical_formula_sum "Si O2"
_cell_formula_units_Z 18
_cell_length_a 5.394306
_cell_length_b 13.559588
_cell_length_c 11.924198
_cell_angle_alpha 90.000000
_cell_angle_beta 88.734651
_cell_angle_gamma 90.000000
_cell_volume 871.977612
_symmetry_space_group_name_H-M "C 2"
_symmetry_group_IT_number 5
_symmetry_cell_setting 'monoclinic'
loop_
_space_group_symop_operation_xyz
x,y,z
-x,y,-z
1/2+x,1/2+y,z
1/2-x,1/2+y,-z
loop_
_atom_site_type_symbol
_atom_site_label
_atom_site_fract_x
_atom_site_fract_y
_atom_site_fract_z
Si Si1 0.662552 0.379230 0.107862
Si Si2 0.514403 0.246757 0.293254
Si Si3 0.482840 0.681210 0.623931
Si Si4 0.756421 0.591654 0.175773
Si Si5 0.500000 0.722029 0.000000
O O1 0.494648 0.342274 0.212792
O O2 0.804814 0.479179 0.141040
O O3 0.860254 0.292693 0.088599
O O4 0.500000 0.400273 0.000000
O O5 0.769208 0.246434 0.360534
O O6 0.505715 0.144079 0.220161
O O7 0.264122 0.251252 0.371656
O O8 0.500000 0.631973 0.500000
O O9 0.453703 0.599322 0.723031
O O10 0.684469 0.653209 0.066551
#
# Coordination Sequence:
#
# PCOD8050310 Si02
#       5
#     4   4   4   4   2
#     4  12  22  38  65  98 131 176 209 263 325 391
#     4  10  22  42  64  96 131 163 226 260 319 385
#     4  10  21  44  69  91 130 173 213 274 326 370
#     4  10  24  38  65  94 132 171 215 266 316 387
#     4  12  22  40  58  98 132 174 214 260 320 394
#
# _framework density 20.642731999999999
#
# number of rings (size 3 to 8) (size 9 to 14) (size 15 to 20)
#    1.333    0.000    5.556    0.667    0.000    3.556 
#    0.000    2.222    0.000    0.000    0.000    0.000 
#    0.000    0.000    0.000    0.000    0.000    0.000 
#
# Total GULP energy -111499.505789 kJ/mol
# GULP energy per Si atom -12388.833977 kJ/mol
# Density = 2.059575 g / cm^3
# Si number density = 20.642732 Si / 1000 Ang^3
#
#
#
# Elastic Constant Matrix: (Units=GPa)
#
#
# Indices 1 2 3 4 5 6 
#
# 1 106.8945 18.5004 15.4507 0.0000 2.3754 0.0000
# 2 18.5004 118.4446 31.0117 0.0000 -3.9396 0.0000
# 3 15.4507 31.0117 99.4210 0.0000 -0.8457 0.0000
# 4 0.0000 0.0000 0.0000 13.3353 0.0000 -2.9853
# 5 2.3754 -3.9396 -0.8457 0.0000 22.8757 0.0000
# 6 0.0000 0.0000 0.0000 -2.9853 0.0000 16.3430
#
#
#
# Elastic Compliance Matrix: (Units=1/GPa)
#
#
# Indices 1 2 3 4 5 6 
#
# 1 0.009767 -0.001272 -0.001132 0.000000 -0.001275 0.000000
# 2 -0.001272 0.009409 -0.002723 0.000000 0.001652 0.000000
# 3 -0.001132 -0.002723 0.011084 0.000000 0.000058 0.000000
# 4 0.000000 0.000000 0.000000 0.078186 0.000000 0.014282
# 5 -0.001275 0.001652 0.000058 0.000000 0.044134 0.000000
# 6 0.000000 0.000000 0.000000 0.014282 0.000000 0.063797
#
#
# Mechanical properties :
#
#
# Convention : Reuss Voigt Hill
#
# Bulk Modulus (GPa) = 49.98355 50.52065 50.25210
# Shear Modulus (GPa) = 21.43163 27.83062 24.63112
#
# Velocity S-wave (km/s) = 3.22563 3.67577 3.45804
# Velocity P-wave (km/s) = 6.17569 6.52243 6.35142
#
# Compressibility (1/GPa) = 0.02000658
#
# Stress axis : x y z
#
# Youngs Moduli (GPa) = 102.38497 106.27722 90.21907
#
# Poissons Ratio (x) = 0.13514 0.10214
# Poissons Ratio (y) = 0.13019 0.24570
# Poissons Ratio (z) = 0.11591 0.28943
#
# Static dielectric constant tensor:
#      x y z
#    x 3.594310 0.000000 -0.074820 
#    y 0.000000 3.353070 0.000000 
#    z -0.074820 0.000000 3.778660 
# 
# 
# High freq. dielectric constant tensor:
#      x y z
#    x 1.803120 0.000000 -0.000250 
#    y 0.000000 1.770030 0.000000 
#    z -0.000250 0.000000 1.812170 
# 
# From -- ./inp_files/32959.got.cif
#   From: 2010.03.12/outbox.cif.g09.slc.cpg/sg5_17_cif.got.tgz:32959.got - 2010.03.31 09:47:26.
