data_PCOD8050218
_publ_section_title
;
Structure prediction by ZEFSAII (Michael W. Deem and Ramdas Pophale) SiO2 
 PCOD8050218
Probable space group: C 2
;
_chemical_formula_sum "Si O2"
_cell_formula_units_Z 30
_cell_length_a 11.211141
_cell_length_b 20.241101
_cell_length_c 13.027191
_cell_angle_alpha 90.000000
_cell_angle_beta 149.273165
_cell_angle_gamma 90.000000
_cell_volume 1510.460509
_symmetry_space_group_name_H-M "C 2"
_symmetry_group_IT_number 5
_symmetry_cell_setting 'monoclinic'
loop_
_space_group_symop_operation_xyz
x,y,z
-x,y,-z
1/2+x,1/2+y,z
1/2-x,1/2+y,-z
loop_
_atom_site_type_symbol
_atom_site_label
_atom_site_fract_x
_atom_site_fract_y
_atom_site_fract_z
Si Si1 0.499630 0.100460 0.187535
Si Si2 0.663316 0.141663 0.717011
Si Si3 0.500000 0.649171 0.500000
Si Si4 0.742467 0.505138 0.265570
Si Si5 0.267006 0.210865 0.881004
Si Si6 0.710633 0.284652 0.733102
Si Si7 0.170531 0.324282 0.972455
Si Si8 0.765950 0.968656 0.965988
O O1 0.489790 0.129255 0.294654
O O2 0.772281 0.103691 0.355207
O O3 0.404104 0.025021 0.112569
O O4 0.333468 0.143945 0.991103
O O5 0.500000 0.149325 0.500000
O O6 0.802062 0.210149 0.823993
O O7 0.833089 0.079905 0.821817
O O8 0.566236 0.694988 0.647613
O O9 0.750374 0.462552 0.168584
O O10 0.000000 0.501925 0.500000
O O11 0.541448 0.481849 0.196147
O O12 0.180834 0.268954 0.891750
O O13 0.500000 0.238811 0.000000
O O14 0.500000 0.290212 0.500000
O O15 0.917086 0.324726 0.834971
O O16 0.643826 0.312531 0.797298
O O17 0.198604 0.397621 0.954443
#
# Coordination Sequence:
#
# PCOD8050218 Si02
#       8
#     4   4   2   4   4   4   4   4
#     4  10  21  42  64  92 124 164 208 262 312 364
#     4   9  18  34  67  96 116 141 201 266 316 364
#     4  10  24  42  62  94 120 166 220 254 306 378
#     4   9  20  38  63  98 119 154 207 260 323 368
#     4  10  23  40  64  90 120 161 209 260 310 368
#     4  10  23  40  63  94 120 157 205 257 315 379
#     4  11  24  41  62  90 127 165 203 253 318 374
#     4  10  23  39  61  90 130 164 205 257 310 377
#
# _framework density 19.861491999999998
#
# number of rings (size 3 to 8) (size 9 to 14) (size 15 to 20)
#    0.000    2.133    1.333    0.000    7.467    4.267 
#    9.600    0.000    0.000    0.000    0.000    0.000 
#    0.000    0.000    0.000    0.000    0.000    0.000 
#
# Total GULP energy -185830.378330 kJ/mol
# GULP energy per Si atom -12388.691889 kJ/mol
# Density = 1.981629 g / cm^3
# Si number density = 19.861492 Si / 1000 Ang^3
#
#
#
# Elastic Constant Matrix: (Units=GPa)
#
#
# Indices 1 2 3 4 5 6 
#
# 1 103.5271 78.1624 44.9561 -0.0002 -1.2951 0.0002
# 2 78.1624 164.4814 62.3152 0.0001 0.7253 0.0000
# 3 44.9561 62.3152 126.9578 -0.0010 -2.7114 -0.0002
# 4 -0.0002 0.0001 -0.0010 18.9696 -0.0006 1.6867
# 5 -1.2951 0.7253 -2.7114 -0.0006 39.0883 -0.0001
# 6 0.0002 0.0000 -0.0002 1.6867 -0.0001 32.7422
#
#
#
# Elastic Compliance Matrix: (Units=1/GPa)
#
#
# Indices 1 2 3 4 5 6 
#
# 1 0.015608 -0.006547 -0.002303 0.000000 0.000479 0.000000
# 2 -0.006547 0.010220 -0.002711 0.000000 -0.000595 0.000000
# 3 -0.002303 -0.002711 0.010037 0.000001 0.000670 0.000000
# 4 0.000000 0.000000 0.000001 0.052958 0.000001 -0.002728
# 5 0.000479 -0.000595 0.000670 0.000001 0.025657 0.000000
# 6 0.000000 0.000000 0.000000 -0.002728 0.000000 0.030682
#
#
# Mechanical properties :
#
#
# Convention : Reuss Voigt Hill
#
# Bulk Modulus (GPa) = 78.46947 85.09264 81.78106
# Shear Modulus (GPa) = 28.98000 32.12886 30.55443
#
# Velocity S-wave (km/s) = 3.82397 4.02636 3.92647
# Velocity P-wave (km/s) = 7.68707 8.03439 7.86265
#
# Compressibility (1/GPa) = 0.01274381
#
# Stress axis : x y z
#
# Youngs Moduli (GPa) = 64.06921 97.84365 99.62864
#
# Poissons Ratio (x) = 0.64053 0.22948
# Poissons Ratio (y) = 0.41943 0.27010
# Poissons Ratio (z) = 0.14758 0.26526
#
# Static dielectric constant tensor:
#      x y z
#    x 4.142810 0.000000 -0.187020 
#    y 0.000000 3.761720 0.000000 
#    z -0.187020 0.000000 3.506340 
# 
# 
# High freq. dielectric constant tensor:
#      x y z
#    x 1.780510 0.000000 -0.008890 
#    y 0.000000 1.763360 0.000000 
#    z -0.008890 0.000000 1.782680 
# 
# From -- ./inp_files/53424.got.cif
#   From: 2010.03.12/outbox.cif.g09.slc.cpg/sg5_27_cif.got.tgz:53424.got - 2010.03.31 09:47:26.
