data_PCOD8050434
_publ_section_title
;
Structure prediction by ZEFSAII (Michael W. Deem and Ramdas Pophale) SiO2 
 PCOD8050434
Probable space group: C 2
;
_chemical_formula_sum "Si O2"
_cell_formula_units_Z 22
_cell_length_a 11.328493
_cell_length_b 17.453442
_cell_length_c 5.190387
_cell_angle_alpha 90.000000
_cell_angle_beta 99.728892
_cell_angle_gamma 90.000000
_cell_volume 1011.490393
_symmetry_space_group_name_H-M "C 2"
_symmetry_group_IT_number 5
_symmetry_cell_setting 'monoclinic'
loop_
_space_group_symop_operation_xyz
x,y,z
-x,y,-z
1/2+x,1/2+y,z
1/2-x,1/2+y,-z
loop_
_atom_site_type_symbol
_atom_site_label
_atom_site_fract_x
_atom_site_fract_y
_atom_site_fract_z
Si Si1 0.500000 0.573740 0.500000
Si Si2 0.876978 0.184159 0.823826
Si Si3 0.139850 0.897663 0.091368
Si Si4 0.791906 0.046925 0.094331
Si Si5 0.741276 0.838304 0.370545
Si Si6 0.577019 0.977629 0.283305
O O1 0.404891 0.625576 0.610200
O O2 0.417405 0.522931 0.283127
O O3 0.805025 0.251755 0.662490
O O4 0.796848 0.134636 0.996991
O O5 0.000000 0.214634 0.000000
O O6 0.193777 0.852460 0.872354
O O7 0.206946 0.981581 0.130265
O O8 0.167663 0.849399 0.358841
O O9 0.000000 0.905193 0.000000
O O10 0.681216 0.038680 0.250695
O O11 0.629679 0.894856 0.375015
O O12 0.500000 0.008264 0.500000
O O13 0.500000 0.967713 0.000000
#
# Coordination Sequence:
#
# PCOD8050434 Si02
#       6
#     2   4   4   4   4   4
#     4  10  22  38  74  94 136 170 234 296 342 390
#     4  10  23  41  68 103 133 175 229 292 346 396
#     4  11  24  42  69  99 133 177 230 284 343 405
#     4  10  24  41  70 103 134 177 233 290 342 400
#     4  11  25  41  69  97 138 180 226 284 340 412
#     4  11  24  41  67  99 143 184 225 272 341 417
#
# _framework density 21.750084000000001
#
# number of rings (size 3 to 8) (size 9 to 14) (size 15 to 20)
#    0.000    1.455    0.000    4.909   19.091    0.000 
#    0.000    0.909    4.000    0.000    0.000    0.000 
#    0.000    0.000    0.000    0.000    0.000    0.000 
#
# Total GULP energy -136360.836527 kJ/mol
# GULP energy per Si atom -12396.439684 kJ/mol
# Density = 2.170058 g / cm^3
# Si number density = 21.750084 Si / 1000 Ang^3
#
#
#
# Elastic Constant Matrix: (Units=GPa)
#
#
# Indices 1 2 3 4 5 6 
#
# 1 111.1813 61.8712 29.1758 0.0000 1.2347 0.0000
# 2 61.8712 90.4470 37.3261 0.0000 -1.0533 0.0000
# 3 29.1758 37.3261 116.9255 0.0000 5.6692 0.0000
# 4 0.0000 0.0000 0.0000 -16.7459 0.0000 -19.2285
# 5 1.2347 -1.0533 5.6692 0.0000 23.1235 0.0000
# 6 0.0000 0.0000 0.0000 -19.2285 0.0000 -19.6278
#
#
#
# Elastic Compliance Matrix: (Units=1/GPa)
#
#
# Indices 1 2 3 4 5 6 
#
# 1 0.014578 -0.009797 -0.000456 0.000000 -0.001113 0.000000
# 2 -0.009797 0.019376 -0.003855 0.000000 0.002351 0.000000
# 3 -0.000456 -0.003855 0.010023 0.000000 -0.002609 0.000000
# 4 0.000000 0.000000 0.000000 0.478159 0.000000 -0.468431
# 5 -0.001113 0.002351 -0.002609 0.000000 0.044052 0.000000
# 6 0.000000 0.000000 0.000000 -0.468431 0.000000 0.407953
#
#
# Mechanical properties :
#
#
# Convention : Reuss Voigt Hill
#
# Bulk Modulus (GPa) = 63.44513 63.92220 63.68367
# Shear Modulus (GPa) = 4.96223 10.02868 7.49546
#
# Velocity S-wave (km/s) = 1.51209 2.14962 1.85840
# Velocity P-wave (km/s) = 5.68172 5.96778 5.82651
#
# Compressibility (1/GPa) = 0.01576165
#
# Stress axis : x y z
#
# Youngs Moduli (GPa) = 68.59449 51.60948 99.76724
#
# Poissons Ratio (x) = 0.50563 0.04551
# Poissons Ratio (y) = 0.67204 0.38458
# Poissons Ratio (z) = 0.03129 0.19895
#
# Static dielectric constant tensor:
#      x y z
#    x 5.111190 0.000000 -0.178430 
#    y 0.000000 3.702950 0.000000 
#    z -0.178430 0.000000 4.440810 
# 
# 
# High freq. dielectric constant tensor:
#      x y z
#    x 1.857490 0.000000 -0.007520 
#    y 0.000000 1.831790 0.000000 
#    z -0.007520 0.000000 1.871740 
# 
# From -- ./inp_files/5210.got.cif
#   From: 2010.03.12/outbox.cif.g09.slc.cpg/sg5_3_cif.got.tgz:5210.got - 2010.03.31 09:47:26.
