data_PCOD8050302
_publ_section_title
;
Structure prediction by ZEFSAII (Michael W. Deem and Ramdas Pophale) SiO2 
 PCOD8050302
Probable space group: C 2
;
_chemical_formula_sum "Si O2"
_cell_formula_units_Z 26
_cell_length_a 10.233919
_cell_length_b 14.736349
_cell_length_c 9.496238
_cell_angle_alpha 90.000000
_cell_angle_beta 117.888303
_cell_angle_gamma 90.000000
_cell_volume 1265.807033
_symmetry_space_group_name_H-M "C 2"
_symmetry_group_IT_number 5
_symmetry_cell_setting 'monoclinic'
loop_
_space_group_symop_operation_xyz
x,y,z
-x,y,-z
1/2+x,1/2+y,z
1/2-x,1/2+y,-z
loop_
_atom_site_type_symbol
_atom_site_label
_atom_site_fract_x
_atom_site_fract_y
_atom_site_fract_z
Si Si1 0.311515 0.966560 0.647839
Si Si2 0.500000 0.600075 0.000000
Si Si3 0.592775 0.332978 0.673502
Si Si4 0.831712 0.570827 0.920567
Si Si5 0.868221 0.965287 0.713976
Si Si6 0.346193 0.925674 0.152177
Si Si7 0.237743 0.237186 0.016398
O O1 0.238360 0.876117 0.675392
O O2 0.239039 0.999562 0.465193
O O3 0.486916 0.949220 0.716525
O O4 0.267381 0.045809 0.735532
O O5 0.454848 0.544824 0.837533
O O6 0.368699 0.665437 0.969968
O O7 0.500000 0.287951 0.500000
O O8 0.494306 0.403465 0.710893
O O9 0.637684 0.255279 0.804312
O O10 0.771770 0.505138 0.017504
O O11 0.812777 0.679160 0.928613
O O12 0.000000 0.540902 0.000000
O O13 0.761715 0.912716 0.769211
O O14 0.343677 0.829064 0.071272
#
# Coordination Sequence:
#
# PCOD8050302 Si02
#       7
#     4   2   4   4   4   4   4
#     4  10  21  44  66  95 129 178 205 267 328 393
#     4  12  24  40  64 102 122 176 214 274 326 382
#     4  10  22  40  65  93 128 173 217 266 326 379
#     4  10  22  40  63  93 127 170 209 252 332 382
#     4  11  23  43  69  93 130 166 227 268 320 379
#     4  11  22  42  70  93 131 171 216 264 321 387
#     4  12  23  40  66  96 129 169 220 267 320 391
#
# _framework density 20.540255999999999
#
# number of rings (size 3 to 8) (size 9 to 14) (size 15 to 20)
#    0.000    1.231    3.077    3.231    3.231    0.000 
#    5.538    3.077    0.000    0.000    0.000    0.000 
#    0.000    0.000    0.000    0.000    0.000    0.000 
#
# Total GULP energy -161117.549865 kJ/mol
# GULP energy per Si atom -12393.657682 kJ/mol
# Density = 2.049351 g / cm^3
# Si number density = 20.540256 Si / 1000 Ang^3
#
#
#
# Elastic Constant Matrix: (Units=GPa)
#
#
# Indices 1 2 3 4 5 6 
#
# 1 70.1721 10.9071 23.1546 0.0000 2.8631 0.0000
# 2 10.9071 111.6340 63.6199 0.0000 11.2283 0.0000
# 3 23.1546 63.6199 158.6333 0.0000 8.7785 0.0000
# 4 0.0000 0.0000 0.0000 39.2323 0.0000 -8.4965
# 5 2.8631 11.2283 8.7785 0.0000 31.2866 0.0000
# 6 0.0000 0.0000 0.0000 -8.4965 0.0000 36.2279
#
#
#
# Elastic Compliance Matrix: (Units=1/GPa)
#
#
# Indices 1 2 3 4 5 6 
#
# 1 0.014994 -0.000218 -0.002061 0.000000 -0.000715 0.000000
# 2 -0.000218 0.011881 -0.004569 0.000000 -0.002962 0.000000
# 3 -0.002061 -0.004569 0.008467 0.000000 -0.000547 0.000000
# 4 0.000000 0.000000 0.000000 0.026853 0.000000 0.006298
# 5 -0.000715 -0.002962 -0.000547 0.000000 0.033245 0.000000
# 6 0.000000 0.000000 0.000000 0.006298 0.000000 0.029080
#
#
# Mechanical properties :
#
#
# Convention : Reuss Voigt Hill
#
# Bulk Modulus (GPa) = 46.20021 59.53361 52.86691
# Shear Modulus (GPa) = 34.38014 37.53322 35.95668
#
# Velocity S-wave (km/s) = 4.09564 4.27933 4.18849
# Velocity P-wave (km/s) = 6.70127 7.31189 7.01323
#
# Compressibility (1/GPa) = 0.02164492
#
# Stress axis : x y z
#
# Youngs Moduli (GPa) = 66.69337 84.16792 118.09876
#
# Poissons Ratio (x) = 0.01836 0.24346
# Poissons Ratio (y) = 0.01455 0.53961
# Poissons Ratio (z) = 0.13749 0.38457
#
# Static dielectric constant tensor:
#      x y z
#    x 3.611220 0.000000 0.060740 
#    y 0.000000 3.803300 0.000000 
#    z 0.060740 0.000000 3.985680 
# 
# 
# High freq. dielectric constant tensor:
#      x y z
#    x 1.824930 0.000000 0.000540 
#    y 0.000000 1.781410 0.000000 
#    z 0.000540 0.000000 1.811520 
# 
# From -- ./inp_files/20458.got.cif
#   From: 2010.03.12/outbox.cif.g09.slc.cpg/sg5_11_cif.got.tgz:20458.got - 2010.03.31 09:47:26.
