data_PCOD8050454
_publ_section_title
;
Structure prediction by ZEFSAII (Michael W. Deem and Ramdas Pophale) SiO2 
 PCOD8050454
Probable space group: C 2
;
_chemical_formula_sum "Si O2"
_cell_formula_units_Z 32
_cell_length_a 17.185320
_cell_length_b 16.920772
_cell_length_c 13.182113
_cell_angle_alpha 90.000000
_cell_angle_beta 156.696494
_cell_angle_gamma 90.000000
_cell_volume 1516.425152
_symmetry_space_group_name_H-M "C 2"
_symmetry_group_IT_number 5
_symmetry_cell_setting 'monoclinic'
loop_
_space_group_symop_operation_xyz
x,y,z
-x,y,-z
1/2+x,1/2+y,z
1/2-x,1/2+y,-z
loop_
_atom_site_type_symbol
_atom_site_label
_atom_site_fract_x
_atom_site_fract_y
_atom_site_fract_z
Si Si1 0.550048 0.813370 0.171091
Si Si2 0.836762 0.614763 0.380316
Si Si3 0.432373 0.663404 0.117947
Si Si4 0.045012 0.554706 0.935714
Si Si5 0.915498 0.697597 0.154467
Si Si6 0.184490 0.920864 0.787592
Si Si7 0.964328 0.872188 0.712665
Si Si8 0.182417 0.017724 0.371104
O O1 0.580589 0.737303 0.281209
O O2 0.750984 0.862283 0.406130
O O3 0.500000 0.783794 0.000000
O O4 0.368752 0.863566 0.996203
O O5 0.924458 0.676424 0.567152
O O6 0.729533 0.543393 0.311827
O O7 0.000000 0.577422 0.500000
O O8 0.687842 0.662169 0.131504
O O9 0.551038 0.582545 0.273309
O O10 0.298875 0.680370 0.055814
O O11 0.059963 0.644509 0.915759
O O12 0.880647 0.508591 0.673896
O O13 0.251047 0.509798 0.163596
O O14 0.000000 0.553535 0.000000
O O15 0.941406 0.787432 0.146778
O O16 0.000000 0.892182 0.500000
O O17 0.113987 0.917927 0.818855
O O18 0.930615 0.932924 0.766834
#
# Coordination Sequence:
#
# PCOD8050454 Si02
#       8
#     4   4   4   4   4   4   4   4
#     4  12  21  35  60  91 130 159 203 260 329 378
#     4   9  20  38  63  92 124 162 207 261 319 384
#     4  11  21  39  64  95 126 165 208 261 323 387
#     4  11  23  44  61  86 127 173 218 259 305 374
#     4  10  22  39  63  92 125 170 214 259 313 373
#     4  12  23  37  61  94 128 160 209 263 325 376
#     4  12  23  38  59  93 128 164 205 264 310 372
#     4  11  22  38  62  92 129 166 213 255 320 376
#
# _framework density 21.102262
#
# number of rings (size 3 to 8) (size 9 to 14) (size 15 to 20)
#    0.000    1.000    3.750    5.250    0.000    0.000 
#    0.000    1.250    0.000    0.000    0.000    2.625 
#    0.000    0.000    0.000    0.000    0.000    0.000 
#
# Total GULP energy -198353.103543 kJ/mol
# GULP energy per Si atom -12397.068971 kJ/mol
# Density = 2.105423 g / cm^3
# Si number density = 21.102262 Si / 1000 Ang^3
#
#
#
# Elastic Constant Matrix: (Units=GPa)
#
#
# Indices 1 2 3 4 5 6 
#
# 1 115.4097 65.0184 16.8074 0.0000 24.7654 0.0000
# 2 65.0184 150.0654 14.0032 0.0000 17.5297 0.0000
# 3 16.8074 14.0032 48.0392 0.0000 21.7282 0.0000
# 4 0.0000 0.0000 0.0000 27.9291 0.0000 8.8088
# 5 24.7654 17.5297 21.7282 0.0000 29.6283 0.0000
# 6 0.0000 0.0000 0.0000 8.8088 0.0000 34.7906
#
#
#
# Elastic Compliance Matrix: (Units=1/GPa)
#
#
# Indices 1 2 3 4 5 6 
#
# 1 0.013080 -0.004722 0.000721 0.000000 -0.008668 0.000000
# 2 -0.004722 0.008865 -0.000516 0.000000 -0.000920 0.000000
# 3 0.000721 -0.000516 0.031197 0.000000 -0.023176 0.000000
# 4 0.000000 0.000000 0.000000 0.038912 0.000000 -0.009852
# 5 -0.008668 -0.000920 -0.023176 0.000000 0.058537 0.000000
# 6 0.000000 0.000000 0.000000 -0.009852 0.000000 0.031238
#
#
# Mechanical properties :
#
#
# Convention : Reuss Voigt Hill
#
# Bulk Modulus (GPa) = 22.67178 56.13026 39.40102
# Shear Modulus (GPa) = 24.32296 32.98194 28.65245
#
# Velocity S-wave (km/s) = 3.39871 3.95771 3.68882
# Velocity P-wave (km/s) = 5.11554 6.89504 6.07085
#
# Compressibility (1/GPa) = 0.04410769
#
# Stress axis : x y z
#
# Youngs Moduli (GPa) = 76.45251 112.80074 32.05427
#
# Poissons Ratio (x) = 0.53263 -0.02310
# Poissons Ratio (y) = 0.36100 0.01654
# Poissons Ratio (z) = -0.05510 0.05822
#
# Static dielectric constant tensor:
#      x y z
#    x 3.894560 0.000000 0.422500 
#    y 0.000000 3.796990 0.000000 
#    z 0.422500 0.000000 3.751880 
# 
# 
# High freq. dielectric constant tensor:
#      x y z
#    x 1.827850 0.000000 0.038380 
#    y 0.000000 1.827220 0.000000 
#    z 0.038380 0.000000 1.805920 
# 
# From -- ./inp_files/43383.got.cif
#   From: 2010.03.12/outbox.cif.g09.slc.cpg/sg5_22_cif.got.tgz:43383.got - 2010.03.31 09:47:26.
