data_PCOD8050465
_publ_section_title
;
Structure prediction by ZEFSAII (Michael W. Deem and Ramdas Pophale) SiO2 
 PCOD8050465
Probable space group: C 2
;
_chemical_formula_sum "Si O2"
_cell_formula_units_Z 26
_cell_length_a 10.772564
_cell_length_b 10.738629
_cell_length_c 10.988269
_cell_angle_alpha 90.000000
_cell_angle_beta 90.076451
_cell_angle_gamma 90.000000
_cell_volume 1271.150046
_symmetry_space_group_name_H-M "C 2"
_symmetry_group_IT_number 5
_symmetry_cell_setting 'monoclinic'
loop_
_space_group_symop_operation_xyz
x,y,z
-x,y,-z
1/2+x,1/2+y,z
1/2-x,1/2+y,-z
loop_
_atom_site_type_symbol
_atom_site_label
_atom_site_fract_x
_atom_site_fract_y
_atom_site_fract_z
Si Si1 0.145753 0.646280 0.308569
Si Si2 0.345559 0.846053 0.303434
Si Si3 0.811762 0.008795 0.863651
Si Si4 0.046372 0.246601 0.131832
Si Si5 0.014226 0.799790 0.864472
Si Si6 0.757620 0.448898 0.870003
Si Si7 0.000000 0.490798 0.500000
O O1 0.229874 0.763251 0.350183
O O2 0.027986 0.692778 0.228987
O O3 0.233813 0.553500 0.233036
O O4 0.094195 0.577670 0.426581
O O5 0.299509 0.961832 0.221692
O O6 0.431892 0.755912 0.223486
O O7 0.419512 0.899783 0.416777
O O8 0.927920 0.918924 0.852341
O O9 0.855606 0.144437 0.819510
O O10 0.766511 0.016495 0.002460
O O11 0.110790 0.380222 0.122767
O O12 0.000000 0.201424 0.000000
O O13 0.153322 0.845946 0.837107
O O14 0.000000 0.742841 0.000000
#
# Coordination Sequence:
#
# PCOD8050465 Si02
#       7
#     4   4   4   4   4   4   2
#     4  11  25  44  66  88 130 163 213 271 309 379
#     4  11  25  46  64  96 126 169 219 263 321 373
#     4  10  22  39  65  97 135 166 204 254 317 394
#     4  12  22  38  67 100 136 167 201 257 322 390
#     4   9  21  39  62  99 128 163 204 248 319 389
#     4  11  22  37  66 100 130 165 201 253 322 387
#     4  12  28  44  62  96 120 168 232 270 316 364
#
# _framework density 20.453918000000002
#
# number of rings (size 3 to 8) (size 9 to 14) (size 15 to 20)
#    0.000    1.231    3.077    3.231    6.462    3.077 
#    0.000    0.000    0.000    0.000    0.000    0.000 
#    0.000    0.000    0.000    0.000    0.000    0.000 
#
# Total GULP energy -161260.221425 kJ/mol
# GULP energy per Si atom -12404.632417 kJ/mol
# Density = 2.040736 g / cm^3
# Si number density = 20.453918 Si / 1000 Ang^3
#
#
#
# Elastic Constant Matrix: (Units=GPa)
#
#
# Indices 1 2 3 4 5 6 
#
# 1 101.0748 42.0074 56.0681 0.0000 5.8188 0.0000
# 2 42.0074 93.1124 52.3864 0.0000 -0.7968 0.0000
# 3 56.0681 52.3864 127.6274 0.0000 1.0430 0.0000
# 4 0.0000 0.0000 0.0000 -42.4686 0.0000 -9.7715
# 5 5.8188 -0.7968 1.0430 0.0000 26.6480 0.0000
# 6 0.0000 0.0000 0.0000 -9.7715 0.0000 39.8998
#
#
#
# Elastic Compliance Matrix: (Units=1/GPa)
#
#
# Indices 1 2 3 4 5 6 
#
# 1 0.014247 -0.003831 -0.004661 0.000000 -0.003043 0.000000
# 2 -0.003831 0.015006 -0.004488 0.000000 0.001461 0.000000
# 3 -0.004661 -0.004488 0.011722 0.000000 0.000425 0.000000
# 4 0.000000 0.000000 0.000000 -0.022291 0.000000 -0.005459
# 5 -0.003043 0.001461 0.000425 0.000000 0.038218 0.000000
# 6 0.000000 0.000000 0.000000 -0.005459 0.000000 0.023726
#
#
# Mechanical properties :
#
#
# Convention : Reuss Voigt Hill
#
# Bulk Modulus (GPa) = 66.60807 69.19317 67.90062
# Shear Modulus (GPa) = 44.80576 16.23936 30.52256
#
# Velocity S-wave (km/s) = 4.68543 2.82077 3.86717
# Velocity P-wave (km/s) = 7.86808 6.67167 7.29445
#
# Compressibility (1/GPa) = 0.01501319
#
# Stress axis : x y z
#
# Youngs Moduli (GPa) = 70.19131 66.64156 85.31000
#
# Poissons Ratio (x) = 0.25529 0.39767
# Poissons Ratio (y) = 0.26889 0.38290
# Poissons Ratio (z) = 0.32720 0.29911
#
# Static dielectric constant tensor:
#      x y z
#    x 3.870190 0.000000 0.038660 
#    y 0.000000 3.670550 0.000000 
#    z 0.038660 0.000000 3.536930 
# 
# 
# High freq. dielectric constant tensor:
#      x y z
#    x 1.816390 0.000000 0.000070 
#    y 0.000000 1.808800 0.000000 
#    z 0.000070 0.000000 1.772460 
# 
# From -- ./inp_files/19385.got.cif
#   From: 2010.03.12/outbox.cif.g09.slc.cpg/sg5_10_cif.got.tgz:19385.got - 2010.03.31 09:47:26.
