data_PCOD8050303
_publ_section_title
;
Structure prediction by ZEFSAII (Michael W. Deem and Ramdas Pophale) SiO2 
 PCOD8050303
Probable space group: C 2
;
_chemical_formula_sum "Si O2"
_cell_formula_units_Z 24
_cell_length_a 9.445363
_cell_length_b 14.997451
_cell_length_c 17.938767
_cell_angle_alpha 90.000000
_cell_angle_beta 151.497261
_cell_angle_gamma 90.000000
_cell_volume 1212.634251
_symmetry_space_group_name_H-M "C 2"
_symmetry_group_IT_number 5
_symmetry_cell_setting 'monoclinic'
loop_
_space_group_symop_operation_xyz
x,y,z
-x,y,-z
1/2+x,1/2+y,z
1/2-x,1/2+y,-z
loop_
_atom_site_type_symbol
_atom_site_label
_atom_site_fract_x
_atom_site_fract_y
_atom_site_fract_z
Si Si1 0.177179 0.540930 0.651149
Si Si2 0.831110 0.689107 0.127490
Si Si3 0.744244 0.342194 0.325874
Si Si4 0.351356 0.022834 0.654476
Si Si5 0.789261 0.169882 0.093155
Si Si6 0.817271 0.345885 0.184206
O O1 0.314029 0.446672 0.687558
O O2 0.458155 0.598280 0.804560
O O3 0.000000 0.584381 0.500000
O O4 0.950256 0.533829 0.614584
O O5 0.965228 0.781374 0.221707
O O6 0.023713 0.603506 0.238765
O O7 0.500000 0.673924 0.000000
O O8 0.841387 0.703342 0.044570
O O9 0.821047 0.330202 0.274529
O O10 0.000000 0.308862 0.500000
O O11 0.000000 0.023075 0.500000
O O12 0.472174 0.928344 0.740886
O O13 0.935376 0.253812 0.203551
O O14 0.500000 0.128934 0.000000
O O15 0.500000 0.367382 0.000000
#
# Coordination Sequence:
#
# PCOD8050303 Si02
#       6
#     4   4   4   4   4   4
#     4  10  24  44  63  94 129 167 213 266 317 381
#     4  12  23  41  65  97 127 167 218 264 318 378
#     4  10  22  43  65  91 133 165 210 268 320 371
#     4  11  25  42  66  93 129 173 211 260 323 382
#     4  11  23  41  68  95 125 169 213 264 319 379
#     4  10  21  44  67  92 126 171 215 260 317 385
#
# _framework density 19.791623000000001
#
# number of rings (size 3 to 8) (size 9 to 14) (size 15 to 20)
#    0.000    1.333    5.000    1.000    4.667    2.667 
#    9.000    0.000    0.000    0.000    0.000    0.000 
#    0.000    0.000    0.000    0.000    0.000    0.000 
#
# Total GULP energy -148758.982653 kJ/mol
# GULP energy per Si atom -12396.581888 kJ/mol
# Density = 1.974658 g / cm^3
# Si number density = 19.791623 Si / 1000 Ang^3
#
#
#
# Elastic Constant Matrix: (Units=GPa)
#
#
# Indices 1 2 3 4 5 6 
#
# 1 88.1228 26.1794 52.9581 0.0013 1.4361 0.0005
# 2 26.1794 104.8986 60.0373 -0.0015 15.1579 0.0001
# 3 52.9581 60.0373 139.8674 0.0076 6.3029 -0.0108
# 4 0.0013 -0.0015 0.0076 39.9751 0.0023 1.7382
# 5 1.4361 15.1579 6.3029 0.0023 48.5197 0.0005
# 6 0.0005 0.0001 -0.0108 1.7382 0.0005 29.9642
#
#
#
# Elastic Compliance Matrix: (Units=1/GPa)
#
#
# Indices 1 2 3 4 5 6 
#
# 1 0.014733 -0.000717 -0.005292 0.000001 0.000475 -0.000002
# 2 -0.000717 0.013208 -0.005244 0.000002 -0.003424 -0.000002
# 3 -0.005292 -0.005244 0.011390 -0.000002 0.000315 0.000004
# 4 0.000001 0.000002 -0.000002 0.025079 -0.000001 -0.001455
# 5 0.000475 -0.003424 0.000315 -0.000001 0.021625 0.000000
# 6 -0.000002 -0.000002 0.000004 -0.001455 0.000000 0.033458
#
#
# Mechanical properties :
#
#
# Convention : Reuss Voigt Hill
#
# Bulk Modulus (GPa) = 59.43230 67.91536 63.67383
# Shear Modulus (GPa) = 33.87382 36.60606 35.23994
#
# Velocity S-wave (km/s) = 4.14154 4.30533 4.22423
# Velocity P-wave (km/s) = 7.27764 7.68793 7.48560
#
# Compressibility (1/GPa) = 0.01682587
#
# Stress axis : x y z
#
# Youngs Moduli (GPa) = 67.87285 75.71285 87.79559
#
# Poissons Ratio (x) = 0.05426 0.46464
# Poissons Ratio (y) = 0.04864 0.46038
# Poissons Ratio (z) = 0.35920 0.39702
#
# Static dielectric constant tensor:
#      x y z
#    x 3.473310 -0.000030 -0.165320 
#    y -0.000030 3.821040 -0.000020 
#    z -0.165320 -0.000020 3.687120 
# 
# 
# High freq. dielectric constant tensor:
#      x y z
#    x 1.766270 0.000000 -0.017110 
#    y 0.000000 1.781940 0.000000 
#    z -0.017110 0.000000 1.780880 
# 
# From -- ./inp_files/14959.got.cif
#   From: 2010.03.12/outbox.cif.g09.slc.cpg/sg5_8_cif.got.tgz:14959.got - 2010.03.31 09:47:26.
