data_PCOD8050452
_publ_section_title
;
Structure prediction by ZEFSAII (Michael W. Deem and Ramdas Pophale) SiO2 
 PCOD8050452
Probable space group: C 2
;
_chemical_formula_sum "Si O2"
_cell_formula_units_Z 24
_cell_length_a 24.449559
_cell_length_b 11.229277
_cell_length_c 9.289017
_cell_angle_alpha 90.000000
_cell_angle_beta 25.226187
_cell_angle_gamma 90.000000
_cell_volume 1086.922775
_symmetry_space_group_name_H-M "C 2"
_symmetry_group_IT_number 5
_symmetry_cell_setting 'monoclinic'
loop_
_space_group_symop_operation_xyz
x,y,z
-x,y,-z
1/2+x,1/2+y,z
1/2-x,1/2+y,-z
loop_
_atom_site_type_symbol
_atom_site_label
_atom_site_fract_x
_atom_site_fract_y
_atom_site_fract_z
Si Si1 0.353174 0.363050 0.609028
Si Si2 0.850780 0.017297 0.351763
Si Si3 0.905045 0.370902 0.601844
Si Si4 0.629756 0.451124 0.010027
Si Si5 0.687632 0.102874 0.236356
Si Si6 0.234324 0.211230 0.244227
O O1 0.314150 0.407681 0.543596
O O2 0.474438 0.441680 0.376811
O O3 0.374136 0.220440 0.544647
O O4 0.240012 0.380385 0.991946
O O5 0.781145 0.137082 0.572749
O O6 0.000000 0.043977 0.000000
O O7 0.808575 0.982821 0.291972
O O8 0.927145 0.503070 0.484132
O O9 0.902255 0.270122 0.484277
O O10 0.000000 0.330670 0.500000
O O11 0.684539 0.553926 0.985492
O O12 0.667861 0.317982 0.962586
O O13 0.719003 0.123857 0.993617
#
# Coordination Sequence:
#
# PCOD8050452 Si02
#       6
#     4   4   4   4   4   4
#     4  10  22  41  65  97 130 173 221 270 329 401
#     4  10  22  42  63  92 131 173 220 262 334 401
#     4  10  22  39  62  99 127 166 219 277 335 383
#     4  10  24  42  68  96 133 177 221 270 335 399
#     4  10  22  39  66  96 127 167 224 274 329 378
#     4  10  22  42  62  96 127 171 223 270 330 391
#
# _framework density 22.080684000000002
#
# number of rings (size 3 to 8) (size 9 to 14) (size 15 to 20)
#    0.000    2.000    1.667    0.000    4.667   10.667 
#    0.000    0.000    0.000    0.000    0.000    0.000 
#    0.000    0.000    0.000    0.000    0.000    0.000 
#
# Total GULP energy -148682.848898 kJ/mol
# GULP energy per Si atom -12390.237408 kJ/mol
# Density = 2.203043 g / cm^3
# Si number density = 22.080684 Si / 1000 Ang^3
#
#
#
# Elastic Constant Matrix: (Units=GPa)
#
#
# Indices 1 2 3 4 5 6 
#
# 1 120.0740 30.2742 25.0342 0.0000 6.4065 0.0000
# 2 30.2742 106.9852 15.6654 0.0000 10.3491 0.0000
# 3 25.0342 15.6654 47.0105 0.0000 12.3338 0.0000
# 4 0.0000 0.0000 0.0000 26.2309 0.0000 5.3619
# 5 6.4065 10.3491 12.3338 0.0000 31.0099 0.0000
# 6 0.0000 0.0000 0.0000 5.3619 0.0000 41.1416
#
#
#
# Elastic Compliance Matrix: (Units=1/GPa)
#
#
# Indices 1 2 3 4 5 6 
#
# 1 0.009810 -0.002147 -0.004650 0.000000 0.000539 0.000000
# 2 -0.002147 0.010434 -0.001715 0.000000 -0.002356 0.000000
# 3 -0.004650 -0.001715 0.026704 0.000000 -0.009088 0.000000
# 4 0.000000 0.000000 0.000000 0.039166 0.000000 -0.005105
# 5 0.000539 -0.002356 -0.009088 0.000000 0.036537 0.000000
# 6 0.000000 0.000000 0.000000 -0.005105 0.000000 0.024972
#
#
# Mechanical properties :
#
#
# Convention : Reuss Voigt Hill
#
# Bulk Modulus (GPa) = 33.41929 46.22415 39.82172
# Shear Modulus (GPa) = 28.63307 33.21622 30.92464
#
# Velocity S-wave (km/s) = 3.60494 3.88275 3.74642
# Velocity P-wave (km/s) = 5.70048 6.40942 6.06532
#
# Compressibility (1/GPa) = 0.02992284
#
# Stress axis : x y z
#
# Youngs Moduli (GPa) = 101.93322 95.84219 37.44747
#
# Poissons Ratio (x) = 0.20581 0.17414
# Poissons Ratio (y) = 0.21889 0.06423
# Poissons Ratio (z) = 0.47401 0.16438
#
# Static dielectric constant tensor:
#      x y z
#    x 4.443690 0.000000 0.231980 
#    y 0.000000 4.521750 0.000000 
#    z 0.231980 0.000000 3.626400 
# 
# 
# High freq. dielectric constant tensor:
#      x y z
#    x 1.875620 0.000000 0.004240 
#    y 0.000000 1.894310 0.000000 
#    z 0.004240 0.000000 1.823270 
# 
# From -- ./inp_files/30905.got.cif
#   From: 2010.03.12/outbox.cif.g09.slc.cpg/sg5_16_cif.got.tgz:30905.got - 2010.03.31 09:47:26.
