data_PCOD8050532
_publ_section_title
;
Structure prediction by ZEFSAII (Michael W. Deem and Ramdas Pophale) SiO2 
 PCOD8050532
Probable space group: C 2
;
_chemical_formula_sum "Si O2"
_cell_formula_units_Z 24
_cell_length_a 9.367521
_cell_length_b 10.716017
_cell_length_c 22.468108
_cell_angle_alpha 90.000000
_cell_angle_beta 150.254851
_cell_angle_gamma 90.000000
_cell_volume 1119.003477
_symmetry_space_group_name_H-M "C 2"
_symmetry_group_IT_number 5
_symmetry_cell_setting 'monoclinic'
loop_
_space_group_symop_operation_xyz
x,y,z
-x,y,-z
1/2+x,1/2+y,z
1/2-x,1/2+y,-z
loop_
_atom_site_type_symbol
_atom_site_label
_atom_site_fract_x
_atom_site_fract_y
_atom_site_fract_z
Si Si1 0.877804 0.563690 0.586385
Si Si2 0.146642 0.015431 0.685218
Si Si3 0.139058 0.955041 0.298259
Si Si4 0.000000 0.272944 0.500000
Si Si5 0.500000 0.609280 0.000000
Si Si6 0.634906 0.928795 0.790940
Si Si7 0.041884 0.757595 0.171886
O O1 0.632117 0.500056 0.456751
O O2 0.768747 0.694899 0.571586
O O3 0.176858 0.576528 0.657104
O O4 0.949828 0.474787 0.667637
O O5 0.260883 0.157640 0.721032
O O6 0.392397 0.915226 0.754834
O O7 0.083628 0.990351 0.731505
O O8 0.384197 0.858172 0.405859
O O9 0.979354 0.884379 0.186554
O O10 0.369054 0.527385 0.899236
O O11 0.266324 0.693792 0.950272
O O12 0.800433 0.800315 0.832899
#
# Coordination Sequence:
#
# PCOD8050532 Si02
#       7
#     4   4   4   2   2   4   4
#     4  11  20  37  59  92 124 160 197 237 294 372
#     4  11  20  39  60  94 128 151 198 242 293 379
#     4  11  23  36  59  92 124 164 196 235 297 360
#     4  12  18  34  58  80 126 166 186 234 292 340
#     4  10  22  44  62  86 118 154 212 262 292 350
#     4  10  22  40  66  87 119 162 203 250 302 347
#     4  10  23  42  64  89 117 163 198 251 309 346
#
# _framework density 21.447655999999998
#
# number of rings (size 3 to 8) (size 9 to 14) (size 15 to 20)
#    0.000    1.333    5.000    1.000    0.000    4.000 
#    0.000    5.000    0.000    0.000    0.000    0.000 
#    0.000    0.000    0.000    0.000    0.000    0.000 
#
# Total GULP energy -148699.262310 kJ/mol
# GULP energy per Si atom -12391.605192 kJ/mol
# Density = 2.139884 g / cm^3
# Si number density = 21.447656 Si / 1000 Ang^3
#
#
#
# Elastic Constant Matrix: (Units=GPa)
#
#
# Indices 1 2 3 4 5 6 
#
# 1 145.4388 28.9996 36.1645 0.0004 25.5322 0.0000
# 2 28.9996 55.7370 23.6582 0.0001 8.0075 0.0001
# 3 36.1645 23.6582 91.2915 -0.0044 13.4085 0.0000
# 4 0.0004 0.0001 -0.0044 33.3929 -0.0001 6.7645
# 5 25.5322 8.0075 13.4085 -0.0001 27.0528 0.0001
# 6 0.0000 0.0001 0.0000 6.7645 0.0001 41.9709
#
#
#
# Elastic Compliance Matrix: (Units=1/GPa)
#
#
# Indices 1 2 3 4 5 6 
#
# 1 0.009126 -0.002988 -0.001840 0.000000 -0.006816 0.000000
# 2 -0.002988 0.021476 -0.004166 -0.000001 -0.001472 0.000000
# 3 -0.001840 -0.004166 0.013294 0.000002 -0.003620 0.000000
# 4 0.000000 -0.000001 0.000002 0.030957 0.000000 -0.004989
# 5 -0.006816 -0.001472 -0.003620 0.000000 0.045628 0.000000
# 6 0.000000 0.000000 0.000000 -0.004989 0.000000 0.024630
#
#
# Mechanical properties :
#
#
# Convention : Reuss Voigt Hill
#
# Bulk Modulus (GPa) = 38.59659 52.23464 45.41562
# Shear Modulus (GPa) = 29.11503 34.05967 31.58735
#
# Velocity S-wave (km/s) = 3.68841 3.98934 3.84183
# Velocity P-wave (km/s) = 6.01448 6.75479 6.39535
#
# Compressibility (1/GPa) = 0.02590902
#
# Stress axis : x y z
#
# Youngs Moduli (GPa) = 109.58204 46.56446 75.22286
#
# Poissons Ratio (x) = 0.13913 0.13838
# Poissons Ratio (y) = 0.32742 0.31335
# Poissons Ratio (z) = 0.20158 0.19397
#
# Static dielectric constant tensor:
#      x y z
#    x 4.175000 0.000000 0.252420 
#    y 0.000000 3.778180 0.000000 
#    z 0.252420 0.000000 3.832200 
# 
# 
# High freq. dielectric constant tensor:
#      x y z
#    x 1.851210 0.000000 0.010340 
#    y 0.000000 1.818340 0.000000 
#    z 0.010340 0.000000 1.834090 
# 
# From -- ./inp_files/35373.got.cif
#   From: 2010.03.12/outbox.cif.g09.slc.cpg/sg5_18_cif.got.tgz:35373.got - 2010.03.31 09:47:26.
