data_PCOD8050810
_publ_section_title
;
Structure prediction by ZEFSAII (Michael W. Deem and Ramdas Pophale) SiO2 
 PCOD8050810
Probable space group: C 2
;
_chemical_formula_sum "Si O2"
_cell_formula_units_Z 28
_cell_length_a 19.697355
_cell_length_b 10.581219
_cell_length_c 15.677479
_cell_angle_alpha 90.000000
_cell_angle_beta 21.699646
_cell_angle_gamma 90.000000
_cell_volume 1208.140586
_symmetry_space_group_name_H-M "C 2"
_symmetry_group_IT_number 5
_symmetry_cell_setting 'monoclinic'
loop_
_space_group_symop_operation_xyz
x,y,z
-x,y,-z
1/2+x,1/2+y,z
1/2-x,1/2+y,-z
loop_
_atom_site_type_symbol
_atom_site_label
_atom_site_fract_x
_atom_site_fract_y
_atom_site_fract_z
Si Si1 0.592460 0.245300 0.545723
Si Si2 0.771956 0.682452 0.344337
Si Si3 0.440406 0.071774 0.873991
Si Si4 0.500000 0.091810 0.500000
Si Si5 0.450385 0.507062 0.711397
Si Si6 0.369650 0.545037 0.000085
Si Si7 0.000000 0.881918 0.000000
Si Si8 0.432224 0.791615 0.255375
O O1 0.506005 0.151496 0.716289
O O2 0.623686 0.169772 0.422220
O O3 0.457228 0.360037 0.678176
O O4 0.784785 0.304617 0.351572
O O5 0.636785 0.577086 0.462231
O O6 0.818774 0.793784 0.222768
O O7 0.666434 0.734409 0.548325
O O8 0.968720 0.624796 0.145344
O O9 0.490817 0.925401 0.805606
O O10 0.219162 0.078632 0.136033
O O11 0.653736 0.013972 0.267889
O O12 0.430081 0.498775 0.837190
O O13 0.489431 0.467462 0.928230
O O14 0.407995 0.695665 0.961933
#
# Coordination Sequence:
#
# PCOD8050810 Si02
#       8
#     4   4   4   2   4   4   2   4
#     4  11  23  42  69 102 140 179 235 286 354 414
#     4  10  25  44  68 103 139 187 230 285 354 408
#     4  11  22  43  73 103 136 184 240 286 334 430
#     4  12  24  42  62 114 136 170 226 302 352 406
#     4  11  23  47  72  97 136 192 238 277 339 438
#     4  11  24  43  69 101 137 183 229 286 354 416
#     4  12  26  48  68 104 148 174 232 300 364 408
#     4  10  22  43  74  97 132 192 233 280 340 431
#
# _framework density 23.176110000000001
#
# number of rings (size 3 to 8) (size 9 to 14) (size 15 to 20)
#    0.000    1.143    2.857    3.429    8.000    0.000 
#    7.714    0.000    0.000    0.000    0.000    0.000 
#    0.000    0.000    0.000    0.000    0.000    0.000 
#
# Total GULP energy -173571.029572 kJ/mol
# GULP energy per Si atom -12397.930684 kJ/mol
# Density = 2.312336 g / cm^3
# Si number density = 23.176110 Si / 1000 Ang^3
#
#
#
# Elastic Constant Matrix: (Units=GPa)
#
#
# Indices 1 2 3 4 5 6 
#
# 1 38.5122 8.4218 9.7288 0.0000 -20.0303 0.0000
# 2 8.4218 113.3001 22.1342 0.0001 -5.5097 -0.0002
# 3 9.7288 22.1342 90.9138 0.0000 -12.2786 -0.0004
# 4 0.0000 0.0001 0.0000 28.2611 -0.0001 -4.7281
# 5 -20.0303 -5.5097 -12.2786 -0.0001 30.1956 0.0002
# 6 0.0000 -0.0002 -0.0004 -4.7281 0.0002 21.6789
#
#
#
# Elastic Compliance Matrix: (Units=1/GPa)
#
#
# Indices 1 2 3 4 5 6 
#
# 1 0.039974 -0.001633 -0.000359 0.000000 0.026073 0.000000
# 2 -0.001633 0.009353 -0.002135 0.000000 -0.000245 0.000000
# 3 -0.000359 -0.002135 0.012140 0.000000 0.004309 0.000000
# 4 0.000000 0.000000 0.000000 0.036724 0.000000 0.008009
# 5 0.026073 -0.000245 0.004309 0.000000 0.052120 0.000000
# 6 0.000000 0.000000 0.000000 0.008009 0.000000 0.047875
#
#
# Mechanical properties :
#
#
# Convention : Reuss Voigt Hill
#
# Bulk Modulus (GPa) = 18.79280 35.92175 27.35728
# Shear Modulus (GPa) = 22.30369 29.52321 25.91345
#
# Velocity S-wave (km/s) = 3.10555 3.57299 3.34744
# Velocity P-wave (km/s) = 4.58100 5.70569 5.17399
#
# Compressibility (1/GPa) = 0.05321186
#
# Stress axis : x y z
#
# Youngs Moduli (GPa) = 25.01610 106.92016 82.37466
#
# Poissons Ratio (x) = 0.17464 0.02954
# Poissons Ratio (y) = 0.04086 0.17590
# Poissons Ratio (z) = 0.00897 0.22832
#
# Static dielectric constant tensor:
#      x y z
#    x 4.072170 0.000000 -0.207160 
#    y 0.000000 4.241510 0.000000 
#    z -0.207160 0.000000 4.210490 
# 
# 
# High freq. dielectric constant tensor:
#      x y z
#    x 1.906370 0.000000 -0.006480 
#    y 0.000000 1.918740 0.000000 
#    z -0.006480 0.000000 1.917260 
# 
# From -- ./inp_files/62881.got.cif
#   From: 2010.03.12/outbox.cif.g09.slc.cpg/sg5_32_cif.got.tgz:62881.got - 2010.03.31 09:47:26.
