data_PCOD8050727
_publ_section_title
;
Structure prediction by ZEFSAII (Michael W. Deem and Ramdas Pophale) SiO2 
 PCOD8050727
Probable space group: C 2
;
_chemical_formula_sum "Si O2"
_cell_formula_units_Z 26
_cell_length_a 13.020889
_cell_length_b 4.956349
_cell_length_c 15.477809
_cell_angle_alpha 90.000000
_cell_angle_beta 94.420895
_cell_angle_gamma 90.000000
_cell_volume 995.905017
_symmetry_space_group_name_H-M "C 2"
_symmetry_group_IT_number 5
_symmetry_cell_setting 'monoclinic'
loop_
_space_group_symop_operation_xyz
x,y,z
-x,y,-z
1/2+x,1/2+y,z
1/2-x,1/2+y,-z
loop_
_atom_site_type_symbol
_atom_site_label
_atom_site_fract_x
_atom_site_fract_y
_atom_site_fract_z
Si Si1 0.401175 0.562560 0.660113
Si Si2 0.588950 0.467489 0.117339
Si Si3 0.628020 0.621523 0.927771
Si Si4 0.197175 0.614169 0.842286
Si Si5 0.500000 0.813464 0.500000
Si Si6 0.983086 0.558921 0.761610
Si Si7 0.214264 0.503599 0.547623
O O1 0.450997 0.629765 0.570901
O O2 0.441122 0.266693 0.687343
O O3 0.276242 0.578630 0.639998
O O4 0.436900 0.766732 0.737554
O O5 0.487785 0.657362 0.119171
O O6 0.686048 0.559606 0.184248
O O7 0.554723 0.166505 0.145647
O O8 0.625881 0.483896 0.021150
O O9 0.679588 0.915283 0.924853
O O10 0.693485 0.423258 0.871097
O O11 0.108493 0.548710 0.766316
O O12 0.590189 0.993871 0.550599
O O13 0.259570 0.211496 0.526387
#
# Coordination Sequence:
#
# PCOD8050727 Si02
#       7
#     4   4   4   4   2   4   4
#     4  11  24  45  67  95 132 169 214 267 321 391
#     4  10  23  42  65  91 131 173 209 272 328 362
#     4  10  23  40  66  96 123 166 228 267 306 382
#     4  11  23  42  65  95 128 169 219 262 313 384
#     4  10  24  46  74  96 124 170 218 268 322 376
#     4  11  25  43  63  97 137 169 214 264 325 397
#     4  10  22  42  69  99 125 157 211 266 316 383
#
# _framework density 26.106907
#
# number of rings (size 3 to 8) (size 9 to 14) (size 15 to 20)
#    0.000    1.538    0.000    4.615    0.000   16.615 
#    0.000   10.769    0.000    0.000    0.000    0.000 
#    0.000    0.000    0.000    0.000    0.000    0.000 
#
# Total GULP energy -161140.817296 kJ/mol
# GULP energy per Si atom -12395.447484 kJ/mol
# Density = 2.604749 g / cm^3
# Si number density = 26.106907 Si / 1000 Ang^3
#
#
#
# Elastic Constant Matrix: (Units=GPa)
#
#
# Indices 1 2 3 4 5 6 
#
# 1 204.9981 41.6966 19.3858 0.0000 40.4421 0.0000
# 2 41.6966 69.8447 2.5504 0.0000 -0.0713 0.0000
# 3 19.3858 2.5504 74.3802 0.0000 33.6748 0.0000
# 4 0.0000 0.0000 0.0000 33.9775 0.0000 -4.6961
# 5 40.4421 -0.0713 33.6748 0.0000 42.9874 0.0000
# 6 0.0000 0.0000 0.0000 -4.6961 0.0000 27.8800
#
#
#
# Elastic Compliance Matrix: (Units=1/GPa)
#
#
# Indices 1 2 3 4 5 6 
#
# 1 0.007248 -0.004412 0.002096 0.000000 -0.008468 0.000000
# 2 -0.004412 0.017032 -0.002055 0.000000 0.005789 0.000000
# 3 0.002096 -0.002055 0.021482 0.000000 -0.018803 0.000000
# 4 0.000000 0.000000 0.000000 0.030133 0.000000 0.005076
# 5 -0.008468 0.005789 -0.018803 0.000000 0.045969 0.000000
# 6 0.000000 0.000000 0.000000 0.005076 0.000000 0.036723
#
#
# Mechanical properties :
#
#
# Convention : Reuss Voigt Hill
#
# Bulk Modulus (GPa) = 27.01247 52.94318 39.97782
# Shear Modulus (GPa) = 27.82906 40.00832 33.91869
#
# Velocity S-wave (km/s) = 3.26845 3.91894 3.60838
# Velocity P-wave (km/s) = 4.96115 6.38755 5.71900
#
# Compressibility (1/GPa) = 0.03701994
#
# Stress axis : x y z
#
# Youngs Moduli (GPa) = 137.97142 58.71161 46.55147
#
# Poissons Ratio (x) = 0.25904 -0.09758
# Poissons Ratio (y) = 0.60874 0.09566
# Poissons Ratio (z) = -0.28920 0.12065
#
# Static dielectric constant tensor:
#      x y z
#    x 5.272310 0.000000 0.488030 
#    y 0.000000 4.438760 0.000000 
#    z 0.488030 0.000000 4.463610 
# 
# 
# High freq. dielectric constant tensor:
#      x y z
#    x 2.071570 0.000000 0.026080 
#    y 0.000000 2.040340 0.000000 
#    z 0.026080 0.000000 2.035810 
# 
# From -- ./inp_files/60069.got.cif
#   From: 2010.03.12/outbox.cif.g09.slc.cpg/sg5_31_cif.got.tgz:60069.got - 2010.03.31 09:47:26.
