data_PCOD8050108
_publ_section_title
;
Structure prediction by ZEFSAII (Michael W. Deem and Ramdas Pophale) SiO2 
 PCOD8050108
Probable space group: C 2
;
_chemical_formula_sum "Si O2"
_cell_formula_units_Z 32
_cell_length_a 14.458351
_cell_length_b 9.351537
_cell_length_c 22.746390
_cell_angle_alpha 90.000000
_cell_angle_beta 30.268272
_cell_angle_gamma 90.000000
_cell_volume 1550.198716
_symmetry_space_group_name_H-M "C 2"
_symmetry_group_IT_number 5
_symmetry_cell_setting 'monoclinic'
loop_
_space_group_symop_operation_xyz
x,y,z
-x,y,-z
1/2+x,1/2+y,z
1/2-x,1/2+y,-z
loop_
_atom_site_type_symbol
_atom_site_label
_atom_site_fract_x
_atom_site_fract_y
_atom_site_fract_z
Si Si1 0.615860 0.848080 0.292863
Si Si2 0.659815 0.594082 0.874693
Si Si3 0.108064 0.752362 0.763899
Si Si4 0.552286 0.672828 0.120500
Si Si5 0.346214 0.911098 0.541299
Si Si6 0.271724 0.369169 0.883761
Si Si7 0.402304 0.991885 0.916878
Si Si8 0.486952 0.592167 0.285201
O O1 0.801904 0.815167 0.226292
O O2 0.442429 0.850386 0.430838
O O3 0.554645 0.732887 0.279102
O O4 0.661884 0.993351 0.232018
O O5 0.604683 0.659801 0.842263
O O6 0.708487 0.723985 0.890372
O O7 0.500000 0.512132 0.000000
O O8 0.240004 0.782174 0.634536
O O9 0.917418 0.833026 0.856290
O O10 0.076526 0.583612 0.796881
O O11 0.477635 0.602172 0.220069
O O12 0.596905 0.836876 0.114156
O O13 0.727118 0.589938 0.998162
O O14 0.500000 0.978697 0.500000
O O15 0.215636 0.036485 0.587468
O O16 0.363065 0.468315 0.783474
O O17 0.104199 0.453907 0.008737
#
# Coordination Sequence:
#
# PCOD8050108 Si02
#       8
#     4   4   4   4   4   4   4   4
#     4  11  25  41  69  93 123 165 218 261 316 383
#     4  12  24  39  63  97 130 171 203 254 322 381
#     4  10  21  40  67  89 123 172 212 257 314 372
#     4  11  24  39  62  92 134 171 211 251 316 374
#     4   9  20  45  67  85 121 170 213 267 322 365
#     4  10  22  40  61  93 136 167 201 256 317 373
#     4  11  20  38  64  89 130 169 206 254 309 371
#     4  10  24  41  64  95 123 165 213 261 312 377
#
# _framework density 20.642515
#
# number of rings (size 3 to 8) (size 9 to 14) (size 15 to 20)
#    0.000    1.500    2.500    3.000    5.250    3.000 
#    0.000    0.000    0.000    0.000    0.000    0.000 
#    0.000    0.000    0.000    0.000    0.000    0.000 
#
# Total GULP energy -198220.852230 kJ/mol
# GULP energy per Si atom -12388.803264 kJ/mol
# Density = 2.059553 g / cm^3
# Si number density = 20.642515 Si / 1000 Ang^3
#
#
#
# Elastic Constant Matrix: (Units=GPa)
#
#
# Indices 1 2 3 4 5 6 
#
# 1 92.2206 37.2395 31.3450 0.0001 2.8228 0.0000
# 2 37.2395 138.1438 52.6438 -0.0004 -4.7548 0.0001
# 3 31.3450 52.6438 105.3719 -0.0054 7.5879 0.0006
# 4 0.0001 -0.0004 -0.0054 30.1835 0.0002 -2.9773
# 5 2.8228 -4.7548 7.5879 0.0002 22.4159 -0.0001
# 6 0.0000 0.0001 0.0006 -2.9773 -0.0001 31.0390
#
#
#
# Elastic Compliance Matrix: (Units=1/GPa)
#
#
# Indices 1 2 3 4 5 6 
#
# 1 0.012739 -0.002559 -0.002415 0.000000 -0.001330 0.000000
# 2 -0.002559 0.009731 -0.004379 -0.000001 0.003869 0.000000
# 3 -0.002415 -0.004379 0.012752 0.000002 -0.004941 0.000000
# 4 0.000000 -0.000001 0.000002 0.033447 -0.000001 0.003208
# 5 -0.001330 0.003869 -0.004941 -0.000001 0.047272 0.000000
# 6 0.000000 0.000000 0.000000 0.003208 0.000000 0.032525
#
#
# Mechanical properties :
#
#
# Convention : Reuss Voigt Hill
#
# Bulk Modulus (GPa) = 60.55039 64.24365 62.39702
# Shear Modulus (GPa) = 28.95592 31.02821 29.99206
#
# Velocity S-wave (km/s) = 3.74937 3.88122 3.81586
# Velocity P-wave (km/s) = 6.93832 7.16064 7.05035
#
# Compressibility (1/GPa) = 0.01651517
#
# Stress axis : x y z
#
# Youngs Moduli (GPa) = 78.50165 102.76931 78.41950
#
# Poissons Ratio (x) = 0.26303 0.18938
# Poissons Ratio (y) = 0.20092 0.34337
# Poissons Ratio (z) = 0.18957 0.44999
#
# Static dielectric constant tensor:
#      x y z
#    x 3.613550 0.000000 0.003200 
#    y 0.000000 3.884430 0.000000 
#    z 0.003200 0.000000 4.026880 
# 
# 
# High freq. dielectric constant tensor:
#      x y z
#    x 1.799560 0.000000 0.004880 
#    y 0.000000 1.809040 0.000000 
#    z 0.004880 0.000000 1.801780 
# 
# From -- ./inp_files/68755.got.cif
#   From: 2010.03.12/outbox.cif.g09.slc.cpg/sg5_35_cif.got.tgz:68755.got - 2010.03.31 09:47:26.
