data_PCOD8050959
_publ_section_title
;
Structure prediction by ZEFSAII (Michael W. Deem and Ramdas Pophale) SiO2 
 PCOD8050959
Probable space group: C 2
;
_chemical_formula_sum "Si O2"
_cell_formula_units_Z 20
_cell_length_a 12.209456
_cell_length_b 8.055695
_cell_length_c 7.880090
_cell_angle_alpha 90.000000
_cell_angle_beta 73.827157
_cell_angle_gamma 90.000000
_cell_volume 744.379374
_symmetry_space_group_name_H-M "C 2"
_symmetry_group_IT_number 5
_symmetry_cell_setting 'monoclinic'
loop_
_space_group_symop_operation_xyz
x,y,z
-x,y,-z
1/2+x,1/2+y,z
1/2-x,1/2+y,-z
loop_
_atom_site_type_symbol
_atom_site_label
_atom_site_fract_x
_atom_site_fract_y
_atom_site_fract_z
Si Si1 0.915039 0.272390 0.384553
Si Si2 0.817607 0.938783 0.937238
Si Si3 0.682880 0.442744 0.447731
Si Si4 0.414618 0.070662 0.885440
Si Si5 0.000000 0.666902 0.500000
Si Si6 0.000000 0.174233 0.000000
O O1 0.812485 0.404243 0.444294
O O2 0.866248 0.084956 0.409782
O O3 0.000000 0.306627 0.500000
O O4 0.979114 0.290948 0.174425
O O5 0.862168 0.752960 0.926948
O O6 0.825001 0.006485 0.741975
O O7 0.890110 0.058395 0.025783
O O8 0.687314 0.936826 0.057741
O O9 0.607848 0.278204 0.504946
O O10 0.476046 0.051107 0.675059
O O11 0.500000 0.038084 0.000000
#
# Coordination Sequence:
#
# PCOD8050959 Si02
#       6
#     4   4   4   4   2   2
#     4  12  26  51  75 110 148 194 244 307 364 436
#     4  11  24  48  75 108 145 195 240 302 366 435
#     4  11  25  50  75 106 151 191 246 300 366 436
#     4  11  25  47  74 103 148 190 237 298 362 430
#     4  10  22  48  72 104 144 190 236 298 362 434
#     4  12  22  46  82 102 150 198 236 302 376 430
#
# _framework density 26.868016999999998
#
# number of rings (size 3 to 8) (size 9 to 14) (size 15 to 20)
#    0.000    0.800    4.000    3.600    2.800    0.000 
#   12.600    0.000    0.000    1.200    0.000    0.000 
#    0.000    0.000    0.000    0.000    0.000    0.000 
#
# Total GULP energy -124134.298636 kJ/mol
# GULP energy per Si atom -12413.429864 kJ/mol
# Density = 2.680686 g / cm^3
# Si number density = 26.868017 Si / 1000 Ang^3
#
#
#
# Elastic Constant Matrix: (Units=GPa)
#
#
# Indices 1 2 3 4 5 6 
#
# 1 210.6484 42.4763 90.9624 0.0000 6.6588 0.0000
# 2 42.4763 91.8062 76.1679 0.0000 10.4721 0.0000
# 3 90.9624 76.1679 220.0605 0.0000 -7.8826 0.0000
# 4 0.0000 0.0000 0.0000 53.9521 0.0000 -7.7155
# 5 6.6588 10.4721 -7.8826 0.0000 47.3989 0.0000
# 6 0.0000 0.0000 0.0000 -7.7155 0.0000 13.7822
#
#
#
# Elastic Compliance Matrix: (Units=1/GPa)
#
#
# Indices 1 2 3 4 5 6 
#
# 1 0.005887 -0.000783 -0.002199 0.000000 -0.001020 0.000000
# 2 -0.000783 0.016300 -0.005476 0.000000 -0.004402 0.000000
# 3 -0.002199 -0.005476 0.007447 0.000000 0.002757 0.000000
# 4 0.000000 0.000000 0.000000 0.020148 0.000000 0.011279
# 5 -0.001020 -0.004402 0.002757 0.000000 0.022672 0.000000
# 6 0.000000 0.000000 0.000000 0.011279 0.000000 0.078871
#
#
# Mechanical properties :
#
#
# Convention : Reuss Voigt Hill
#
# Bulk Modulus (GPa) = 78.62508 104.63648 91.63078
# Shear Modulus (GPa) = 28.98886 43.88722 36.43804
#
# Velocity S-wave (km/s) = 3.28828 4.04597 3.68664
# Velocity P-wave (km/s) = 6.61393 7.80100 7.23186
#
# Compressibility (1/GPa) = 0.01271859
#
# Stress axis : x y z
#
# Youngs Moduli (GPa) = 169.86897 61.34983 134.27974
#
# Poissons Ratio (x) = 0.04804 0.29526
# Poissons Ratio (y) = 0.13303 0.73528
# Poissons Ratio (z) = 0.37351 0.33594
#
# Static dielectric constant tensor:
#      x y z
#    x 5.049330 0.000000 -0.167770 
#    y 0.000000 4.902900 0.000000 
#    z -0.167770 0.000000 5.162700 
# 
# 
# High freq. dielectric constant tensor:
#      x y z
#    x 2.100030 0.000000 -0.002570 
#    y 0.000000 2.113520 0.000000 
#    z -0.002570 0.000000 2.089900 
# 
# From -- ./inp_files/18292.got.cif
#   From: 2010.03.12/outbox.cif.g09.slc.cpg/sg5_10_cif.got.tgz:18292.got - 2010.03.31 09:47:26.
