data_PCOD8050825
_publ_section_title
;
Structure prediction by ZEFSAII (Michael W. Deem and Ramdas Pophale) SiO2 
 PCOD8050825
Probable space group: C 2
;
_chemical_formula_sum "Si O2"
_cell_formula_units_Z 24
_cell_length_a 11.941237
_cell_length_b 8.300108
_cell_length_c 11.128672
_cell_angle_alpha 90.000000
_cell_angle_beta 87.121555
_cell_angle_gamma 90.000000
_cell_volume 1101.610628
_symmetry_space_group_name_H-M "C 2"
_symmetry_group_IT_number 5
_symmetry_cell_setting 'monoclinic'
loop_
_space_group_symop_operation_xyz
x,y,z
-x,y,-z
1/2+x,1/2+y,z
1/2-x,1/2+y,-z
loop_
_atom_site_type_symbol
_atom_site_label
_atom_site_fract_x
_atom_site_fract_y
_atom_site_fract_z
Si Si1 0.500000 0.803500 0.000000
Si Si2 0.628489 0.254733 0.963904
Si Si3 0.194727 0.100562 0.898542
Si Si4 0.570956 0.245027 0.387932
Si Si5 0.052966 0.523246 0.782041
Si Si6 0.500000 0.552652 0.500000
Si Si7 0.169819 0.239536 0.646459
O O1 0.391477 0.691145 0.009203
O O2 0.512871 0.912215 0.118752
O O3 0.696256 0.413213 0.926527
O O4 0.641283 0.131869 0.851397
O O5 0.500000 0.294647 0.000000
O O6 0.683321 0.174940 0.079257
O O7 0.161462 0.125102 0.762474
O O8 0.500000 0.163300 0.500000
O O9 0.537775 0.143420 0.272612
O O10 0.538317 0.436449 0.386475
O O11 0.703073 0.242211 0.406307
O O12 0.122499 0.416771 0.682529
O O13 0.599256 0.666674 0.540655
#
# Coordination Sequence:
#
# PCOD8050825 Si02
#       7
#     2   4   4   4   4   2   4
#     4  10  22  44  66 110 142 184 228 274 350 422
#     4  12  24  43  69 100 144 184 225 280 340 421
#     4  11  24  43  69 103 144 186 225 282 347 412
#     4  10  26  45  71  99 137 179 236 286 346 405
#     4  11  24  44  70 106 141 180 229 285 347 415
#     4  10  26  46  68  98 134 182 238 286 350 394
#     4  11  25  45  69  98 140 176 237 291 338 411
#
# _framework density 21.786282
#
# number of rings (size 3 to 8) (size 9 to 14) (size 15 to 20)
#    0.500    0.667    1.667    4.000    5.833    0.000 
#    6.000    0.000    0.000    0.000    0.000    0.000 
#    0.000    0.000    0.000    0.000    0.000    0.000 
#
# Total GULP energy -148772.741076 kJ/mol
# GULP energy per Si atom -12397.728423 kJ/mol
# Density = 2.173670 g / cm^3
# Si number density = 21.786282 Si / 1000 Ang^3
#
#
#
# Elastic Constant Matrix: (Units=GPa)
#
#
# Indices 1 2 3 4 5 6 
#
# 1 133.9230 39.6713 41.5435 0.0000 2.5769 0.0000
# 2 39.6713 132.1645 41.4249 0.0000 4.7870 0.0000
# 3 41.5435 41.4249 79.4946 0.0000 5.5708 0.0000
# 4 0.0000 0.0000 0.0000 26.8965 0.0000 12.7769
# 5 2.5769 4.7870 5.5708 0.0000 41.7441 0.0000
# 6 0.0000 0.0000 0.0000 12.7769 0.0000 29.6110
#
#
#
# Elastic Compliance Matrix: (Units=1/GPa)
#
#
# Indices 1 2 3 4 5 6 
#
# 1 0.009152 -0.001494 -0.004014 0.000000 0.000142 0.000000
# 2 -0.001494 0.009294 -0.004032 0.000000 -0.000436 0.000000
# 3 -0.004014 -0.004032 0.016887 0.000000 -0.001543 0.000000
# 4 0.000000 0.000000 0.000000 0.046765 0.000000 -0.020179
# 5 0.000142 -0.000436 -0.001543 0.000000 0.024203 0.000000
# 6 0.000000 0.000000 0.000000 -0.020179 0.000000 0.042478
#
#
# Mechanical properties :
#
#
# Convention : Reuss Voigt Hill
#
# Bulk Modulus (GPa) = 61.52957 65.65128 63.59042
# Shear Modulus (GPa) = 28.85550 34.51314 31.68432
#
# Velocity S-wave (km/s) = 3.64329 3.98448 3.81770
# Velocity P-wave (km/s) = 6.78246 7.16713 6.97745
#
# Compressibility (1/GPa) = 0.01625235
#
# Stress axis : x y z
#
# Youngs Moduli (GPa) = 109.26506 107.59234 59.21884
#
# Poissons Ratio (x) = 0.16075 0.23772
# Poissons Ratio (y) = 0.16325 0.23877
# Poissons Ratio (z) = 0.43861 0.43381
#
# Static dielectric constant tensor:
#      x y z
#    x 3.909180 0.000000 0.005240 
#    y 0.000000 4.036850 0.000000 
#    z 0.005240 0.000000 3.751880 
# 
# 
# High freq. dielectric constant tensor:
#      x y z
#    x 1.859910 0.000000 0.003660 
#    y 0.000000 1.866230 0.000000 
#    z 0.003660 0.000000 1.842970 
# 
# From -- ./inp_files/38390.got.cif
#   From: 2010.03.12/outbox.cif.g09.slc.cpg/sg5_20_cif.got.tgz:38390.got - 2010.03.31 09:47:26.
