data_PCOD8050208
_publ_section_title
;
Structure prediction by ZEFSAII (Michael W. Deem and Ramdas Pophale) SiO2 
 PCOD8050208
Probable space group: C 2
;
_chemical_formula_sum "Si O2"
_cell_formula_units_Z 24
_cell_length_a 8.276362
_cell_length_b 11.621083
_cell_length_c 23.155130
_cell_angle_alpha 90.000000
_cell_angle_beta 33.681111
_cell_angle_gamma 90.000000
_cell_volume 1235.064882
_symmetry_space_group_name_H-M "C 2"
_symmetry_group_IT_number 5
_symmetry_cell_setting 'monoclinic'
loop_
_space_group_symop_operation_xyz
x,y,z
-x,y,-z
1/2+x,1/2+y,z
1/2-x,1/2+y,-z
loop_
_atom_site_type_symbol
_atom_site_label
_atom_site_fract_x
_atom_site_fract_y
_atom_site_fract_z
Si Si1 0.378902 0.965300 0.680073
Si Si2 0.202687 0.644772 0.392979
Si Si3 0.000000 0.865300 0.500000
Si Si4 0.819745 0.720579 0.245153
Si Si5 0.714434 0.566540 0.847745
Si Si6 0.221234 0.250731 0.985114
Si Si7 0.000000 0.902209 0.000000
O O1 0.727398 0.950005 0.572559
O O2 0.231120 0.843656 0.708711
O O3 0.287796 0.072050 0.667809
O O4 0.236703 0.993339 0.783655
O O5 0.522485 0.652970 0.324206
O O6 0.000000 0.577936 0.500000
O O7 0.072027 0.776587 0.424672
O O8 0.011423 0.651483 0.233923
O O9 0.974981 0.724353 0.136592
O O10 0.413554 0.637652 0.944304
O O11 0.731805 0.478852 0.896071
O O12 0.292539 0.335206 0.016713
O O13 0.000000 0.297928 0.000000
#
# Coordination Sequence:
#
# PCOD8050208 Si02
#       7
#     4   4   2   4   4   4   2
#     4  11  22  40  65  90 120 172 204 257 331 364
#     4   9  22  42  60  88 122 159 207 262 319 369
#     4   8  22  40  60  86 130 148 212 272 294 384
#     4  10  21  42  58  91 129 152 212 270 291 389
#     4  11  24  41  62  95 127 165 215 257 313 386
#     4  10  23  42  61  97 133 166 223 259 302 398
#     4  12  22  42  66  88 136 178 202 264 330 354
#
# _framework density 19.432179000000001
#
# number of rings (size 3 to 8) (size 9 to 14) (size 15 to 20)
#    0.500    1.333    4.167    0.000    4.667    2.667 
#    4.500    0.000    0.000    0.000    0.000    0.000 
#    0.000    0.000    0.000    0.000    0.000    0.000 
#
# Total GULP energy -148658.075117 kJ/mol
# GULP energy per Si atom -12388.172926 kJ/mol
# Density = 1.938795 g / cm^3
# Si number density = 19.432179 Si / 1000 Ang^3
#
#
#
# Elastic Constant Matrix: (Units=GPa)
#
#
# Indices 1 2 3 4 5 6 
#
# 1 71.4303 38.8726 21.0193 -0.0108 6.5741 0.0008
# 2 38.8726 84.3401 19.2128 -0.0102 -3.5202 -0.0028
# 3 21.0193 19.2128 97.7348 -0.0282 -9.7723 -0.0040
# 4 -0.0108 -0.0102 -0.0282 34.5447 0.0012 7.9459
# 5 6.5741 -3.5202 -9.7723 0.0012 28.1272 -0.0035
# 6 0.0008 -0.0028 -0.0040 7.9459 -0.0035 33.1586
#
#
#
# Elastic Compliance Matrix: (Units=1/GPa)
#
#
# Indices 1 2 3 4 5 6 
#
# 1 0.020536 -0.008996 -0.003357 0.000002 -0.007092 -0.000003
# 2 -0.008996 0.016368 -0.000899 0.000001 0.003839 0.000002
# 3 -0.003357 -0.000899 0.011601 0.000008 0.004703 0.000000
# 4 0.000002 0.000001 0.000008 0.030637 0.000000 -0.007342
# 5 -0.007092 0.003839 0.004703 0.000000 0.039325 0.000005
# 6 -0.000003 0.000002 0.000000 -0.007342 0.000005 0.031917
#
#
# Mechanical properties :
#
#
# Convention : Reuss Voigt Hill
#
# Bulk Modulus (GPa) = 45.45487 45.74604 45.60046
# Shear Modulus (GPa) = 27.14108 30.79279 28.96694
#
# Velocity S-wave (km/s) = 3.74131 3.98506 3.86511
# Velocity P-wave (km/s) = 6.48888 6.69080 6.59061
#
# Compressibility (1/GPa) = 0.02199984
#
# Stress axis : x y z
#
# Youngs Moduli (GPa) = 48.69461 61.09391 86.20146
#
# Poissons Ratio (x) = 0.54963 0.28940
# Poissons Ratio (y) = 0.43808 0.07750
# Poissons Ratio (z) = 0.16348 0.05493
#
# Static dielectric constant tensor:
#      x y z
#    x 3.245560 0.000000 -0.038030 
#    y 0.000000 3.636150 0.000020 
#    z -0.038030 0.000020 3.755480 
# 
# 
# High freq. dielectric constant tensor:
#      x y z
#    x 1.723370 0.000000 -0.006700 
#    y 0.000000 1.758720 0.000000 
#    z -0.006700 0.000000 1.776390 
# 
# From -- ./inp_files/50007.got.cif
#   From: 2010.03.12/outbox.cif.g09.slc.cpg/sg5_26_cif.got.tgz:50007.got - 2010.03.31 09:47:26.
