data_PCOD8050878
_publ_section_title
;
Structure prediction by ZEFSAII (Michael W. Deem and Ramdas Pophale) SiO2 
 PCOD8050878
Probable space group: C 2
;
_chemical_formula_sum "Si O2"
_cell_formula_units_Z 14
_cell_length_a 12.445896
_cell_length_b 8.855172
_cell_length_c 9.810970
_cell_angle_alpha 90.000000
_cell_angle_beta 35.637041
_cell_angle_gamma 90.000000
_cell_volume 630.001749
_symmetry_space_group_name_H-M "C 2"
_symmetry_group_IT_number 5
_symmetry_cell_setting 'monoclinic'
loop_
_space_group_symop_operation_xyz
x,y,z
-x,y,-z
1/2+x,1/2+y,z
1/2-x,1/2+y,-z
loop_
_atom_site_type_symbol
_atom_site_label
_atom_site_fract_x
_atom_site_fract_y
_atom_site_fract_z
Si Si1 0.870346 0.790550 0.413030
Si Si2 0.500000 0.520881 0.500000
Si Si3 0.568983 0.966573 0.577972
Si Si4 0.628973 0.109026 0.992530
O O1 0.894685 0.918655 0.499758
O O2 0.704525 0.832249 0.482838
O O3 0.824054 0.629436 0.533052
O O4 0.055786 0.768987 0.129486
O O5 0.344278 0.624036 0.731896
O O6 0.500000 0.924513 0.500000
O O7 0.400004 0.979602 0.860999
O O8 0.500000 0.059895 0.000000
#
# Coordination Sequence:
#
# PCOD8050878 Si02
#       4
#     4   2   4   4
#     4  10  22  44  74 110 146 195 244 303 376 431
#     4  12  20  48  74 104 156 192 238 320 360 440
#     4  10  22  47  74 113 147 188 254 302 371 443
#     4  10  23  44  71 107 142 195 242 298 374 430
#
# _framework density 22.222159999999999
#
# number of rings (size 3 to 8) (size 9 to 14) (size 15 to 20)
#    1.714    0.000    4.286    0.000    0.000    2.286 
#   20.571    0.000    0.000    0.000    0.000    0.000 
#    0.000    0.000    0.000    0.000    0.000    0.000 
#
# Total GULP energy -86742.130658 kJ/mol
# GULP energy per Si atom -12391.732951 kJ/mol
# Density = 2.217158 g / cm^3
# Si number density = 22.222160 Si / 1000 Ang^3
#
#
#
# Elastic Constant Matrix: (Units=GPa)
#
#
# Indices 1 2 3 4 5 6 
#
# 1 139.8337 11.0741 34.1930 0.0000 12.5269 0.0000
# 2 11.0741 45.0945 20.5337 0.0000 -10.1865 0.0000
# 3 34.1930 20.5337 155.3499 0.0000 -10.6963 0.0000
# 4 0.0000 0.0000 0.0000 32.5066 0.0000 -3.9152
# 5 12.5269 -10.1865 -10.6963 0.0000 41.8573 0.0000
# 6 0.0000 0.0000 0.0000 -3.9152 0.0000 28.8541
#
#
#
# Elastic Compliance Matrix: (Units=1/GPa)
#
#
# Indices 1 2 3 4 5 6 
#
# 1 0.008027 -0.001928 -0.001740 0.000000 -0.003316 0.000000
# 2 -0.001928 0.025149 -0.002482 0.000000 0.006063 0.000000
# 3 -0.001740 -0.002482 0.007270 0.000000 0.001775 0.000000
# 4 0.000000 0.000000 0.000000 0.031274 0.000000 0.004244
# 5 -0.003316 0.006063 0.001775 0.000000 0.026812 0.000000
# 6 0.000000 0.000000 0.000000 0.004244 0.000000 0.035233
#
#
# Mechanical properties :
#
#
# Convention : Reuss Voigt Hill
#
# Bulk Modulus (GPa) = 35.52995 52.43109 43.98052
# Shear Modulus (GPa) = 32.16518 38.94208 35.55363
#
# Velocity S-wave (km/s) = 3.80865 4.19071 4.00424
# Velocity P-wave (km/s) = 5.94679 6.86013 6.41972
#
# Compressibility (1/GPa) = 0.02814527
#
# Stress axis : x y z
#
# Youngs Moduli (GPa) = 124.58557 39.76305 137.54411
#
# Poissons Ratio (x) = 0.07666 0.23935
# Poissons Ratio (y) = 0.24018 0.34143
# Poissons Ratio (z) = 0.21680 0.09871
#
# Static dielectric constant tensor:
#      x y z
#    x 3.897840 0.000000 0.180600 
#    y 0.000000 3.663180 0.000000 
#    z 0.180600 0.000000 3.966800 
# 
# 
# High freq. dielectric constant tensor:
#      x y z
#    x 1.882420 0.000000 0.016740 
#    y 0.000000 1.859010 0.000000 
#    z 0.016740 0.000000 1.861710 
# 
# From -- ./inp_files/4244.got.cif
#   From: 2010.03.12/outbox.cif.g09.slc.cpg/sg5_3_cif.got.tgz:4244.got - 2010.03.31 09:47:26.
