data_PCOD8050382
_publ_section_title
;
Structure prediction by ZEFSAII (Michael W. Deem and Ramdas Pophale) SiO2 
 PCOD8050382
Probable space group: C 2
;
_chemical_formula_sum "Si O2"
_cell_formula_units_Z 28
_cell_length_a 23.686046
_cell_length_b 5.044435
_cell_length_c 11.203424
_cell_angle_alpha 90.000000
_cell_angle_beta 74.539994
_cell_angle_gamma 90.000000
_cell_volume 1290.180116
_symmetry_space_group_name_H-M "C 2"
_symmetry_group_IT_number 5
_symmetry_cell_setting 'monoclinic'
loop_
_space_group_symop_operation_xyz
x,y,z
-x,y,-z
1/2+x,1/2+y,z
1/2-x,1/2+y,-z
loop_
_atom_site_type_symbol
_atom_site_label
_atom_site_fract_x
_atom_site_fract_y
_atom_site_fract_z
Si Si1 0.436365 0.178390 0.994939
Si Si2 0.195325 0.205464 0.146134
Si Si3 0.446407 0.739087 0.361088
Si Si4 0.735525 0.705028 0.852632
Si Si5 0.565897 0.221043 0.489643
Si Si6 0.888471 0.167526 0.146933
Si Si7 0.424969 0.949471 0.747686
O O1 0.433473 0.148035 0.854248
O O2 0.500000 0.276654 0.000000
O O3 0.390966 0.400525 0.065545
O O4 0.422810 0.898353 0.061337
O O5 0.230963 0.434861 0.193363
O O6 0.125911 0.235917 0.201037
O O7 0.216892 0.934682 0.193903
O O8 0.208414 0.220789 0.999272
O O9 0.429426 0.526654 0.474211
O O10 0.419101 0.623077 0.256283
O O11 0.516497 0.774890 0.308008
O O12 0.415412 0.017743 0.414274
O O13 0.680167 0.735382 0.794815
O O14 0.500000 0.140082 0.500000
O O15 0.597020 0.142471 0.347824
#
# Coordination Sequence:
#
# PCOD8050382 Si02
#       7
#     4   4   4   4   4   4   4
#     4  12  25  38  60 102 136 170 207 262 341 403
#     4  10  22  37  63  89 131 164 213 260 317 382
#     4  11  24  42  63  93 129 172 213 263 321 388
#     4  10  22  40  57  93 129 171 207 256 320 390
#     4  10  23  41  61  91 127 169 218 260 317 379
#     4  12  24  41  64  91 138 173 210 260 335 401
#     4  11  24  42  68  97 133 169 216 275 323 388
#
# _framework density 21.702396
#
# number of rings (size 3 to 8) (size 9 to 14) (size 15 to 20)
#    0.000    1.143    2.857    3.429    6.000    4.571 
#    0.000    0.000    0.000    3.429    0.000    0.000 
#    0.000    0.000    0.000    0.000    0.000    0.000 
#
# Total GULP energy -173591.257215 kJ/mol
# GULP energy per Si atom -12399.375515 kJ/mol
# Density = 2.165300 g / cm^3
# Si number density = 21.702396 Si / 1000 Ang^3
#
#
#
# Elastic Constant Matrix: (Units=GPa)
#
#
# Indices 1 2 3 4 5 6 
#
# 1 102.8940 19.1689 21.0000 0.0000 5.4921 0.0000
# 2 19.1689 106.6927 38.6268 0.0000 13.1563 0.0000
# 3 21.0000 38.6268 83.7304 0.0000 8.7937 0.0000
# 4 0.0000 0.0000 0.0000 26.6576 0.0000 -2.7060
# 5 5.4921 13.1563 8.7937 0.0000 10.9153 0.0000
# 6 0.0000 0.0000 0.0000 -2.7060 0.0000 27.6925
#
#
#
# Elastic Compliance Matrix: (Units=1/GPa)
#
#
# Indices 1 2 3 4 5 6 
#
# 1 0.010414 -0.000838 -0.001946 0.000000 -0.002662 0.000000
# 2 -0.000838 0.012477 -0.004381 0.000000 -0.011087 0.000000
# 3 -0.001946 -0.004381 0.015070 0.000000 -0.005881 0.000000
# 4 0.000000 0.000000 0.000000 0.037889 0.000000 0.003702
# 5 -0.002662 -0.011087 -0.005881 0.000000 0.111055 0.000000
# 6 0.000000 0.000000 0.000000 0.003702 0.000000 0.036473
#
#
# Mechanical properties :
#
#
# Convention : Reuss Voigt Hill
#
# Bulk Modulus (GPa) = 42.31851 50.10095 46.20973
# Shear Modulus (GPa) = 20.35970 27.35451 23.85710
#
# Velocity S-wave (km/s) = 3.06622 3.55412 3.31914
# Velocity P-wave (km/s) = 5.66369 6.32281 6.00230
#
# Compressibility (1/GPa) = 0.02363032
#
# Stress axis : x y z
#
# Youngs Moduli (GPa) = 96.02372 80.15022 66.35787
#
# Poissons Ratio (x) = 0.06720 0.12910
# Poissons Ratio (y) = 0.08051 0.29072
# Poissons Ratio (z) = 0.18682 0.35114
#
# Static dielectric constant tensor:
#      x y z
#    x 3.869450 0.000000 0.070100 
#    y 0.000000 3.963250 0.000000 
#    z 0.070100 0.000000 4.073640 
# 
# 
# High freq. dielectric constant tensor:
#      x y z
#    x 1.837560 0.000000 0.005210 
#    y 0.000000 1.867910 0.000000 
#    z 0.005210 0.000000 1.831870 
# 
# From -- ./inp_files/46793.got.cif
#   From: 2010.03.12/outbox.cif.g09.slc.cpg/sg5_24_cif.got.tgz:46793.got - 2010.03.31 09:47:26.
