data_PCOD8050309
_publ_section_title
;
Structure prediction by ZEFSAII (Michael W. Deem and Ramdas Pophale) SiO2 
 PCOD8050309
Probable space group: C 2
;
_chemical_formula_sum "Si O2"
_cell_formula_units_Z 32
_cell_length_a 11.212902
_cell_length_b 10.733072
_cell_length_c 13.979445
_cell_angle_alpha 90.000000
_cell_angle_beta 115.577204
_cell_angle_gamma 90.000000
_cell_volume 1517.541719
_symmetry_space_group_name_H-M "C 2"
_symmetry_group_IT_number 5
_symmetry_cell_setting 'monoclinic'
loop_
_space_group_symop_operation_xyz
x,y,z
-x,y,-z
1/2+x,1/2+y,z
1/2-x,1/2+y,-z
loop_
_atom_site_type_symbol
_atom_site_label
_atom_site_fract_x
_atom_site_fract_y
_atom_site_fract_z
Si Si1 0.484605 0.339980 0.604127
Si Si2 0.871363 0.471296 0.761938
Si Si3 0.740305 0.168219 0.400065
Si Si4 0.844404 0.590194 0.942803
Si Si5 0.413266 0.611811 0.631673
Si Si6 0.759012 0.217664 0.737288
Si Si7 0.825394 0.261268 0.230561
Si Si8 0.663402 0.029172 0.850892
O O1 0.500000 0.374177 0.500000
O O2 0.377449 0.230895 0.581029
O O3 0.448839 0.466482 0.646776
O O4 0.623306 0.291330 0.689385
O O5 0.785537 0.524730 0.643212
O O6 0.807454 0.498724 0.843110
O O7 0.877614 0.320780 0.767361
O O8 0.006040 0.550895 0.799295
O O9 0.870412 0.160570 0.511522
O O10 0.757572 0.249535 0.310563
O O11 0.761314 0.713325 0.889278
O O12 0.791232 0.526413 0.022397
O O13 0.000000 0.621833 0.000000
O O14 0.286204 0.625721 0.657840
O O15 0.533798 0.693242 0.713490
O O16 0.752066 0.136554 0.831942
O O17 0.829571 0.405823 0.209319
#
# Coordination Sequence:
#
# PCOD8050309 Si02
#       8
#     4   4   4   4   4   4   4   4
#     4  12  23  42  67  97 141 184 234 281 335 409
#     4  10  21  44  68  94 137 180 225 282 342 409
#     4  11  23  42  69  98 139 190 225 275 350 409
#     4   9  22  43  70  93 126 182 224 283 357 401
#     4  12  25  42  68 102 143 186 229 283 348 408
#     4  12  24  42  68 103 136 180 229 285 340 412
#     4  11  23  44  65 102 139 174 233 290 341 417
#     4  11  23  42  68 100 135 177 229 290 343 410
#
# _framework density 21.086734
#
# number of rings (size 3 to 8) (size 9 to 14) (size 15 to 20)
#    0.000    1.000    3.750    4.125    1.750    0.000 
#    0.000    0.625    0.000    0.000    0.000    0.000 
#    0.000    0.000    0.000    0.000    0.000    0.000 
#
# Total GULP energy -198236.347192 kJ/mol
# GULP energy per Si atom -12389.771700 kJ/mol
# Density = 2.103874 g / cm^3
# Si number density = 21.086734 Si / 1000 Ang^3
#
#
#
# Elastic Constant Matrix: (Units=GPa)
#
#
# Indices 1 2 3 4 5 6 
#
# 1 73.5310 41.6860 39.2267 0.0000 -11.4056 0.0000
# 2 41.6860 122.1983 41.0896 0.0000 -14.0451 0.0000
# 3 39.2267 41.0896 104.0336 0.0000 -6.0536 0.0000
# 4 0.0000 0.0000 0.0000 21.1298 0.0000 -2.7641
# 5 -11.4056 -14.0451 -6.0536 0.0000 36.9417 0.0000
# 6 0.0000 0.0000 0.0000 -2.7641 0.0000 36.7005
#
#
#
# Elastic Compliance Matrix: (Units=1/GPa)
#
#
# Indices 1 2 3 4 5 6 
#
# 1 0.019546 -0.004451 -0.005411 0.000000 0.003456 0.000000
# 2 -0.004451 0.010793 -0.002449 0.000000 0.002328 0.000000
# 3 -0.005411 -0.002449 0.012588 0.000000 -0.000539 0.000000
# 4 0.000000 0.000000 0.000000 0.047797 0.000000 0.003600
# 5 0.003456 0.002328 -0.000539 0.000000 0.028933 0.000000
# 6 0.000000 0.000000 0.000000 0.003600 0.000000 0.027519
#
#
# Mechanical properties :
#
#
# Convention : Reuss Voigt Hill
#
# Bulk Modulus (GPa) = 54.62946 60.41863 57.52405
# Shear Modulus (GPa) = 28.10571 30.80511 29.45541
#
# Velocity S-wave (km/s) = 3.65480 3.82629 3.74153
# Velocity P-wave (km/s) = 6.61614 6.94516 6.78265
#
# Compressibility (1/GPa) = 0.01830514
#
# Stress axis : x y z
#
# Youngs Moduli (GPa) = 51.16240 92.65349 79.43847
#
# Poissons Ratio (x) = 0.41241 0.42982
# Poissons Ratio (y) = 0.22773 0.19455
# Poissons Ratio (z) = 0.27683 0.22691
#
# Static dielectric constant tensor:
#      x y z
#    x 4.013040 0.000000 -0.158290 
#    y 0.000000 3.884360 0.000000 
#    z -0.158290 0.000000 3.858160 
# 
# 
# High freq. dielectric constant tensor:
#      x y z
#    x 1.830630 0.000000 -0.011740 
#    y 0.000000 1.822830 0.000000 
#    z -0.011740 0.000000 1.826650 
# 
# From -- ./inp_files/39454.got.cif
#   From: 2010.03.12/outbox.cif.g09.slc.cpg/sg5_20_cif.got.tgz:39454.got - 2010.03.31 09:47:26.
