data_PCOD8050368
_publ_section_title
;
Structure prediction by ZEFSAII (Michael W. Deem and Ramdas Pophale) SiO2 
 PCOD8050368
Probable space group: C 2
;
_chemical_formula_sum "Si O2"
_cell_formula_units_Z 26
_cell_length_a 21.752611
_cell_length_b 6.190845
_cell_length_c 10.340207
_cell_angle_alpha 90.000000
_cell_angle_beta 127.422167
_cell_angle_gamma 90.000000
_cell_volume 1105.883226
_symmetry_space_group_name_H-M "C 2"
_symmetry_group_IT_number 5
_symmetry_cell_setting 'monoclinic'
loop_
_space_group_symop_operation_xyz
x,y,z
-x,y,-z
1/2+x,1/2+y,z
1/2-x,1/2+y,-z
loop_
_atom_site_type_symbol
_atom_site_label
_atom_site_fract_x
_atom_site_fract_y
_atom_site_fract_z
Si Si1 0.000000 0.577390 0.000000
Si Si2 0.838855 0.943734 0.467182
Si Si3 0.498725 0.347396 0.243814
Si Si4 0.650862 0.086760 0.878842
Si Si5 0.593943 0.733524 0.978072
Si Si6 0.777962 0.292360 0.222723
Si Si7 0.210450 0.077145 0.324795
O O1 0.068855 0.426843 0.040359
O O2 0.028480 0.725725 0.153655
O O3 0.830714 0.084253 0.324353
O O4 0.831377 0.079664 0.590746
O O5 0.771788 0.768160 0.390346
O O6 0.926201 0.852165 0.567954
O O7 0.429898 0.218094 0.228456
O O8 0.473835 0.590494 0.172768
O O9 0.679032 0.013299 0.771795
O O10 0.712355 0.230884 0.034884
O O11 0.642341 0.847500 0.927606
O O12 0.646839 0.581926 0.130422
O O13 0.748282 0.349304 0.330379
#
# Coordination Sequence:
#
# PCOD8050368 Si02
#       7
#     2   4   4   4   4   4   4
#     4  10  22  36  70 104 144 190 240 298 356 432
#     4  12  27  43  72 112 152 184 239 312 376 423
#     4  11  25  44  70 108 150 192 243 305 368 430
#     4  11  26  46  77 102 139 201 260 289 358 442
#     4  11  22  43  71 103 141 195 249 294 352 438
#     4  12  26  48  76 105 142 194 251 301 353 449
#     4  12  24  43  72 109 147 190 238 299 372 435
#
# _framework density 23.510618999999998
#
# number of rings (size 3 to 8) (size 9 to 14) (size 15 to 20)
#    0.000    0.615    4.615    3.231    4.308    2.462 
#    0.000    4.615    0.000    0.000    0.000    0.000 
#    0.000    0.000    0.000    0.000    0.000    0.000 
#
# Total GULP energy -161138.215475 kJ/mol
# GULP energy per Si atom -12395.247344 kJ/mol
# Density = 2.345711 g / cm^3
# Si number density = 23.510619 Si / 1000 Ang^3
#
#
#
# Elastic Constant Matrix: (Units=GPa)
#
#
# Indices 1 2 3 4 5 6 
#
# 1 89.0256 23.9546 34.7142 0.0000 4.0904 0.0000
# 2 23.9546 77.1013 9.9658 0.0000 -0.4605 0.0000
# 3 34.7142 9.9658 85.9017 0.0000 14.1831 0.0000
# 4 0.0000 0.0000 0.0000 37.1136 0.0000 -5.7067
# 5 4.0904 -0.4605 14.1831 0.0000 30.1426 0.0000
# 6 0.0000 0.0000 0.0000 -5.7067 0.0000 42.9644
#
#
#
# Elastic Compliance Matrix: (Units=1/GPa)
#
#
# Indices 1 2 3 4 5 6 
#
# 1 0.014342 -0.003748 -0.005454 0.000000 0.000563 0.000000
# 2 -0.003748 0.014174 -0.000271 0.000000 0.000852 0.000000
# 3 -0.005454 -0.000271 0.014914 0.000000 -0.006281 0.000000
# 4 0.000000 0.000000 0.000000 0.027506 0.000000 0.003653
# 5 0.000563 0.000852 -0.006281 0.000000 0.036068 0.000000
# 6 0.000000 0.000000 0.000000 0.003653 0.000000 0.023760
#
#
# Mechanical properties :
#
#
# Convention : Reuss Voigt Hill
#
# Bulk Modulus (GPa) = 40.84038 43.25532 42.04785
# Shear Modulus (GPa) = 31.67148 34.27039 32.97094
#
# Velocity S-wave (km/s) = 3.67429 3.82207 3.74891
# Velocity P-wave (km/s) = 5.95057 6.15758 6.05496
#
# Compressibility (1/GPa) = 0.02448557
#
# Stress axis : x y z
#
# Youngs Moduli (GPa) = 69.72567 70.54991 67.05218
#
# Poissons Ratio (x) = 0.26439 0.36570
# Poissons Ratio (y) = 0.26130 0.01815
# Poissons Ratio (z) = 0.38028 0.01910
#
# Static dielectric constant tensor:
#      x y z
#    x 4.557120 0.000000 -0.244720 
#    y 0.000000 4.307890 0.000000 
#    z -0.244720 0.000000 4.142280 
# 
# 
# High freq. dielectric constant tensor:
#      x y z
#    x 1.935070 0.000000 -0.001960 
#    y 0.000000 1.944390 0.000000 
#    z -0.001960 0.000000 1.918540 
# 
# From -- ./inp_files/45535.got.cif
#   From: 2010.03.12/outbox.cif.g09.slc.cpg/sg5_23_cif.got.tgz:45535.got - 2010.03.31 09:47:26.
