data_PCOD8050385
_publ_section_title
;
Structure prediction by ZEFSAII (Michael W. Deem and Ramdas Pophale) SiO2 
 PCOD8050385
Probable space group: C 2
;
_chemical_formula_sum "Si O2"
_cell_formula_units_Z 24
_cell_length_a 24.781119
_cell_length_b 8.233926
_cell_length_c 18.313914
_cell_angle_alpha 90.000000
_cell_angle_beta 19.222407
_cell_angle_gamma 90.000000
_cell_volume 1230.314908
_symmetry_space_group_name_H-M "C 2"
_symmetry_group_IT_number 5
_symmetry_cell_setting 'monoclinic'
loop_
_space_group_symop_operation_xyz
x,y,z
-x,y,-z
1/2+x,1/2+y,z
1/2-x,1/2+y,-z
loop_
_atom_site_type_symbol
_atom_site_label
_atom_site_fract_x
_atom_site_fract_y
_atom_site_fract_z
Si Si1 0.702417 0.452730 0.645692
Si Si2 0.296538 0.696508 0.807449
Si Si3 0.573287 0.223958 0.688103
Si Si4 0.000000 0.182446 0.000000
Si Si5 0.132689 0.252593 0.438980
Si Si6 0.316147 0.377816 0.602108
Si Si7 0.000000 0.903551 0.500000
O O1 0.620576 0.313854 0.702154
O O2 0.834242 0.551479 0.429144
O O3 0.798736 0.380780 0.591620
O O4 0.559318 0.571337 0.856842
O O5 0.433623 0.764421 0.688997
O O6 0.294867 0.798328 0.733572
O O7 0.346394 0.514026 0.721344
O O8 0.120757 0.697854 0.069712
O O9 0.625633 0.328117 0.551942
O O10 0.857519 0.301514 0.155066
O O11 0.189670 0.072324 0.389155
O O12 0.439952 0.303381 0.505949
#
# Coordination Sequence:
#
# PCOD8050385 Si02
#       7
#     4   4   4   2   4   4   2
#     4  11  23  37  55  83 115 148 185 227 275 327
#     4   8  18  35  58  81 107 143 184 224 273 326
#     4  11  22  36  54  84 115 141 183 235 274 316
#     4  10  22  38  56  82 112 150 188 218 272 340
#     4   9  19  38  59  79 108 150 185 219 274 335
#     4   9  20  38  57  81 110 143 184 227 273 328
#     4   8  18  38  58  78 106 146 182 216 274 338
#
# _framework density 19.507201999999999
#
# number of rings (size 3 to 8) (size 9 to 14) (size 15 to 20)
#    0.000    3.000    0.000    2.000    0.000   11.333 
#    0.000   13.333    0.000    0.000    0.000    0.000 
#    0.000    0.000    0.000    0.000    0.000    0.000 
#
# Total GULP energy -148728.323681 kJ/mol
# GULP energy per Si atom -12394.026973 kJ/mol
# Density = 1.946280 g / cm^3
# Si number density = 19.507202 Si / 1000 Ang^3
#
#
#
# Elastic Constant Matrix: (Units=GPa)
#
#
# Indices 1 2 3 4 5 6 
#
# 1 112.7103 33.8259 38.3004 0.0001 -15.0972 0.0000
# 2 33.8259 76.6767 43.8676 -0.0003 -8.7748 0.0000
# 3 38.3004 43.8676 148.5963 -0.0002 -9.8888 -0.0001
# 4 0.0001 -0.0003 -0.0002 14.6317 0.0000 -0.6534
# 5 -15.0972 -8.7748 -9.8888 0.0000 20.3664 0.0000
# 6 0.0000 0.0000 -0.0001 -0.6534 0.0000 31.8648
#
#
#
# Elastic Compliance Matrix: (Units=1/GPa)
#
#
# Indices 1 2 3 4 5 6 
#
# 1 0.011217 -0.003400 -0.001479 0.000000 0.006132 0.000000
# 2 -0.003400 0.017163 -0.003995 0.000000 0.002934 0.000000
# 3 -0.001479 -0.003995 0.008373 0.000000 0.001248 0.000000
# 4 0.000000 0.000000 0.000000 0.068407 0.000000 0.001403
# 5 0.006132 0.002934 0.001248 0.000000 0.055516 0.000000
# 6 0.000000 0.000000 0.000000 0.001403 0.000000 0.031411
#
#
# Mechanical properties :
#
#
# Convention : Reuss Voigt Hill
#
# Bulk Modulus (GPa) = 52.62037 63.33013 57.97525
# Shear Modulus (GPa) = 23.12976 28.17188 25.65082
#
# Velocity S-wave (km/s) = 3.44714 3.80436 3.63015
# Velocity P-wave (km/s) = 6.54806 7.19951 6.88150
#
# Compressibility (1/GPa) = 0.01900405
#
# Stress axis : x y z
#
# Youngs Moduli (GPa) = 89.15242 58.26401 119.42627
#
# Poissons Ratio (x) = 0.19811 0.17666
# Poissons Ratio (y) = 0.30314 0.47712
# Poissons Ratio (z) = 0.13188 0.23277
#
# Static dielectric constant tensor:
#      x y z
#    x 3.756070 0.000000 -0.090460 
#    y 0.000000 3.375550 0.000000 
#    z -0.090460 0.000000 3.548120 
# 
# 
# High freq. dielectric constant tensor:
#      x y z
#    x 1.770880 0.000000 -0.007780 
#    y 0.000000 1.740530 0.000000 
#    z -0.007780 0.000000 1.758840 
# 
# From -- ./inp_files/61415.got.cif
#   From: 2010.03.12/outbox.cif.g09.slc.cpg/sg5_31_cif.got.tgz:61415.got - 2010.03.31 09:47:26.
