data_PCOD8050974
_publ_section_title
;
Structure prediction by ZEFSAII (Michael W. Deem and Ramdas Pophale) SiO2 
 PCOD8050974
Probable space group: C 2
;
_chemical_formula_sum "Si O2"
_cell_formula_units_Z 32
_cell_length_a 11.727934
_cell_length_b 14.540530
_cell_length_c 18.157275
_cell_angle_alpha 90.000000
_cell_angle_beta 31.184943
_cell_angle_gamma 90.000000
_cell_volume 1603.305632
_symmetry_space_group_name_H-M "C 2"
_symmetry_group_IT_number 5
_symmetry_cell_setting 'monoclinic'
loop_
_space_group_symop_operation_xyz
x,y,z
-x,y,-z
1/2+x,1/2+y,z
1/2-x,1/2+y,-z
loop_
_atom_site_type_symbol
_atom_site_label
_atom_site_fract_x
_atom_site_fract_y
_atom_site_fract_z
Si Si1 0.211615 0.000000 0.836468
Si Si2 0.758308 0.302156 0.837385
Si Si3 0.674578 0.675234 0.339848
Si Si4 0.029043 0.652623 0.696095
Si Si5 0.404059 0.533422 0.411334
Si Si6 0.984305 0.823456 0.395169
Si Si7 0.826287 0.262876 0.308417
Si Si8 0.752194 0.560226 0.657477
O O1 0.346629 0.906064 0.776060
O O2 0.306517 0.094906 0.815426
O O3 0.166303 0.002040 0.774112
O O4 0.000000 0.980374 0.000000
O O5 0.809099 0.250033 0.733105
O O6 0.911163 0.267683 0.821399
O O7 0.500000 0.289824 0.000000
O O8 0.500000 0.705644 0.500000
O O9 0.904125 0.660183 0.255167
O O10 0.614198 0.577588 0.335628
O O11 0.192835 0.588834 0.557586
O O12 0.996380 0.757428 0.686561
O O13 0.396234 0.424786 0.427458
O O14 0.415706 0.546509 0.317165
O O15 0.221497 0.833425 0.306266
O O16 0.797866 0.773911 0.545948
O O17 0.756445 0.165622 0.312298
O O18 0.000000 0.529587 0.500000
#
# Coordination Sequence:
#
# PCOD8050974 Si02
#       8
#     4   4   4   4   4   4   4   4
#     4  11  25  41  61  89 122 167 207 249 309 371
#     4  11  25  43  62  90 126 170 210 248 314 382
#     4  10  23  39  62  92 129 159 202 263 310 360
#     4  11  21  40  58  93 131 157 202 260 314 360
#     4  11  22  37  62  97 126 157 206 258 317 363
#     4  11  22  35  64 100 123 158 208 266 312 361
#     4  11  19  38  64  88 127 163 207 256 309 366
#     4  12  20  41  66  92 123 159 208 261 307 366
#
# _framework density 19.958765
#
# number of rings (size 3 to 8) (size 9 to 14) (size 15 to 20)
#    0.000    1.000    6.250    1.500    8.750    1.500 
#    0.000    0.000    0.000    0.750    0.000    0.000 
#    0.000    0.000    0.000    0.000    0.000    0.000 
#
# Total GULP energy -198275.061712 kJ/mol
# GULP energy per Si atom -12392.191357 kJ/mol
# Density = 1.991334 g / cm^3
# Si number density = 19.958765 Si / 1000 Ang^3
#
#
#
# Elastic Constant Matrix: (Units=GPa)
#
#
# Indices 1 2 3 4 5 6 
#
# 1 122.2785 20.2647 33.7485 -0.0090 -2.4124 -0.0007
# 2 20.2647 119.1126 26.0313 -0.0008 4.7001 0.0005
# 3 33.7485 26.0313 57.3811 -0.0081 1.6881 0.0025
# 4 -0.0090 -0.0008 -0.0081 20.5458 0.0084 -1.3852
# 5 -2.4124 4.7001 1.6881 0.0084 27.9336 -0.0042
# 6 -0.0007 0.0005 0.0025 -1.3852 -0.0042 30.9820
#
#
#
# Elastic Compliance Matrix: (Units=1/GPa)
#
#
# Indices 1 2 3 4 5 6 
#
# 1 0.009829 -0.000500 -0.005591 0.000002 0.001271 0.000001
# 2 -0.000500 0.009393 -0.003926 -0.000001 -0.001386 0.000000
# 3 -0.005591 -0.003926 0.022532 0.000007 -0.001184 -0.000002
# 4 0.000002 -0.000001 0.000007 0.048819 -0.000014 0.002183
# 5 0.001271 -0.001386 -0.001184 -0.000014 0.036214 0.000004
# 6 0.000001 0.000000 -0.000002 0.002183 0.000004 0.032374
#
#
# Mechanical properties :
#
#
# Convention : Reuss Voigt Hill
#
# Bulk Modulus (GPa) = 46.04404 50.98458 48.51431
# Shear Modulus (GPa) = 26.81869 30.47414 28.64641
#
# Velocity S-wave (km/s) = 3.66963 3.91174 3.79262
# Velocity P-wave (km/s) = 6.40895 6.78253 6.59838
#
# Compressibility (1/GPa) = 0.02171834
#
# Stress axis : x y z
#
# Youngs Moduli (GPa) = 101.73679 106.45872 44.38153
#
# Poissons Ratio (x) = 0.05328 0.24816
# Poissons Ratio (y) = 0.05091 0.17425
# Poissons Ratio (z) = 0.56885 0.41798
#
# Static dielectric constant tensor:
#      x y z
#    x 3.863920 -0.000060 -0.016930 
#    y -0.000060 3.781300 0.000070 
#    z -0.016930 0.000070 3.213050 
# 
# 
# High freq. dielectric constant tensor:
#      x y z
#    x 1.798490 0.000000 -0.002670 
#    y 0.000000 1.785790 0.000000 
#    z -0.002670 0.000000 1.732250 
# 
# From -- ./inp_files/44962.got.cif
#   From: 2010.03.12/outbox.cif.g09.slc.cpg/sg5_23_cif.got.tgz:44962.got - 2010.03.31 09:47:26.
