data_PCOD8050185
_publ_section_title
;
Structure prediction by ZEFSAII (Michael W. Deem and Ramdas Pophale) SiO2 
 PCOD8050185
Probable space group: C 2
;
_chemical_formula_sum "Si O2"
_cell_formula_units_Z 32
_cell_length_a 5.705186
_cell_length_b 18.280634
_cell_length_c 14.195194
_cell_angle_alpha 90.000000
_cell_angle_beta 82.578746
_cell_angle_gamma 90.000000
_cell_volume 1468.077978
_symmetry_space_group_name_H-M "C 2"
_symmetry_group_IT_number 5
_symmetry_cell_setting 'monoclinic'
loop_
_space_group_symop_operation_xyz
x,y,z
-x,y,-z
1/2+x,1/2+y,z
1/2-x,1/2+y,-z
loop_
_atom_site_type_symbol
_atom_site_label
_atom_site_fract_x
_atom_site_fract_y
_atom_site_fract_z
Si Si1 0.123329 0.713110 0.280006
Si Si2 0.232757 0.977250 0.547744
Si Si3 0.857808 0.696242 0.102555
Si Si4 0.114973 0.850575 0.660728
Si Si5 0.233835 0.441997 0.783895
Si Si6 0.962098 0.058543 0.891111
Si Si7 0.459783 0.806472 0.802498
Si Si8 0.355648 0.051927 0.723521
O O1 0.389278 0.744489 0.261210
O O2 0.086156 0.631965 0.323480
O O3 0.032289 0.714796 0.177851
O O4 0.973069 0.768010 0.354665
O O5 0.500000 0.000261 0.500000
O O6 0.228629 0.888543 0.561836
O O7 0.000000 0.002904 0.500000
O O8 0.195691 0.012169 0.653578
O O9 0.719774 0.621285 0.130463
O O10 0.677730 0.764808 0.106672
O O11 0.000000 0.689028 0.000000
O O12 0.297621 0.848759 0.736347
O O13 0.898556 0.904381 0.697781
O O14 0.365517 0.480080 0.863926
O O15 0.099616 0.374220 0.841144
O O16 0.080757 0.502353 0.735634
O O17 0.212025 0.070010 0.826521
O O18 0.000000 0.059920 0.000000
#
# Coordination Sequence:
#
# PCOD8050185 Si02
#       8
#     4   4   4   4   4   4   4   4
#     4  10  22  40  71  95 131 192 232 286 369 419
#     4  12  27  46  80 110 142 191 246 302 381 448
#     4  11  23  39  62  96 138 184 245 294 347 433
#     4  10  22  44  69 100 134 182 234 287 362 441
#     4  11  21  42  70  94 141 183 237 296 358 424
#     4  12  25  39  67 101 137 192 249 290 359 427
#     4  10  21  41  67  95 125 187 232 285 365 428
#     4  12  23  45  71 102 143 187 231 310 357 437
#
# _framework density 21.797208000000001
#
# number of rings (size 3 to 8) (size 9 to 14) (size 15 to 20)
#    0.000    1.000    5.000    1.500    1.750    0.000 
#    0.000   15.625    0.000    0.000    0.000    0.000 
#    0.000    0.000    0.000    0.000    0.000    0.000 
#
# Total GULP energy -198277.171825 kJ/mol
# GULP energy per Si atom -12392.323239 kJ/mol
# Density = 2.174760 g / cm^3
# Si number density = 21.797208 Si / 1000 Ang^3
#
#
#
# Elastic Constant Matrix: (Units=GPa)
#
#
# Indices 1 2 3 4 5 6 
#
# 1 93.9542 34.8445 8.2965 0.0000 -2.3583 0.0000
# 2 34.8445 141.0005 5.1830 0.0000 -1.4279 0.0000
# 3 8.2965 5.1830 52.0343 0.0000 3.8760 0.0000
# 4 0.0000 0.0000 0.0000 20.6482 0.0000 -2.1998
# 5 -2.3583 -1.4279 3.8760 0.0000 23.7261 0.0000
# 6 0.0000 0.0000 0.0000 -2.1998 0.0000 49.1061
#
#
#
# Elastic Compliance Matrix: (Units=1/GPa)
#
#
# Indices 1 2 3 4 5 6 
#
# 1 0.011888 -0.002862 -0.001706 0.000000 0.001288 0.000000
# 2 -0.002862 0.007814 -0.000340 0.000000 0.000241 0.000000
# 3 -0.001706 -0.000340 0.019779 0.000000 -0.003421 0.000000
# 4 0.000000 0.000000 0.000000 0.048663 0.000000 0.002180
# 5 0.001288 0.000241 -0.003421 0.000000 0.042849 0.000000
# 6 0.000000 0.000000 0.000000 0.002180 0.000000 0.020462
#
#
# Mechanical properties :
#
#
# Convention : Reuss Voigt Hill
#
# Bulk Modulus (GPa) = 33.71036 42.62633 38.16835
# Shear Modulus (GPa) = 29.21252 34.60709 31.90980
#
# Velocity S-wave (km/s) = 3.66484 3.98890 3.83030
# Velocity P-wave (km/s) = 5.77989 6.38854 6.09182
#
# Compressibility (1/GPa) = 0.02966447
#
# Stress axis : x y z
#
# Youngs Moduli (GPa) = 84.11901 127.96914 50.55897
#
# Poissons Ratio (x) = 0.36625 0.08627
# Poissons Ratio (y) = 0.24075 0.01719
# Poissons Ratio (z) = 0.14353 0.04351
#
# Static dielectric constant tensor:
#      x y z
#    x 4.242230 0.000000 -0.039490 
#    y 0.000000 4.400860 0.000000 
#    z -0.039490 0.000000 3.546860 
# 
# 
# High freq. dielectric constant tensor:
#      x y z
#    x 1.873090 0.000000 0.002730 
#    y 0.000000 1.877890 0.000000 
#    z 0.002730 0.000000 1.813820 
# 
# From -- ./inp_files/49346.got.cif
#   From: 2010.03.12/outbox.cif.g09.slc.cpg/sg5_25_cif.got.tgz:49346.got - 2010.03.31 09:47:26.
