data_PCOD8050511
_publ_section_title
;
Structure prediction by ZEFSAII (Michael W. Deem and Ramdas Pophale) SiO2 
 PCOD8050511
Probable space group: C 2
;
_chemical_formula_sum "Si O2"
_cell_formula_units_Z 28
_cell_length_a 27.524312
_cell_length_b 8.565911
_cell_length_c 8.766490
_cell_angle_alpha 90.000000
_cell_angle_beta 40.007783
_cell_angle_gamma 90.000000
_cell_volume 1328.781476
_symmetry_space_group_name_H-M "C 2"
_symmetry_group_IT_number 5
_symmetry_cell_setting 'monoclinic'
loop_
_space_group_symop_operation_xyz
x,y,z
-x,y,-z
1/2+x,1/2+y,z
1/2-x,1/2+y,-z
loop_
_atom_site_type_symbol
_atom_site_label
_atom_site_fract_x
_atom_site_fract_y
_atom_site_fract_z
Si Si1 0.079393 0.045590 0.377216
Si Si2 0.689631 0.924517 0.460815
Si Si3 0.893952 0.274997 0.943284
Si Si4 0.271597 0.651227 0.445429
Si Si5 0.725546 0.000875 0.847522
Si Si6 0.786239 0.823454 0.961624
Si Si7 0.042652 0.230734 0.748728
O O1 0.079804 0.092322 0.556818
O O2 0.000000 0.991548 0.500000
O O3 0.131156 0.896753 0.220174
O O4 0.107692 0.199183 0.220376
O O5 0.741960 0.824454 0.453763
O O6 0.603454 0.861339 0.658767
O O7 0.700824 0.097762 0.507594
O O8 0.726054 0.918871 0.207382
O O9 0.850371 0.155292 0.162546
O O10 0.853933 0.444037 0.032579
O O11 0.979134 0.309170 0.793462
O O12 0.281250 0.548006 0.576028
O O13 0.760857 0.850776 0.847969
O O14 0.712972 0.141763 0.997194
O O15 0.000000 0.161436 0.000000
#
# Coordination Sequence:
#
# PCOD8050511 Si02
#       7
#     4   4   4   4   4   4   4
#     4  10  22  40  63  91 131 179 215 270 335 399
#     4  11  22  37  63  95 125 173 214 275 317 383
#     4  11  21  40  62  93 132 176 218 265 334 397
#     4  11  20  37  61  95 129 162 218 266 325 384
#     4  11  23  38  64  96 125 174 214 279 327 383
#     4  11  23  39  63  92 132 161 231 266 328 391
#     4  11  21  38  65  97 131 174 223 267 324 405
#
# _framework density 21.071936999999998
#
# number of rings (size 3 to 8) (size 9 to 14) (size 15 to 20)
#    0.000    1.143    4.286    3.429    0.000    0.000 
#    0.000    3.571    0.000    0.000    3.714    0.000 
#    0.000    0.000    0.000    0.000    0.000    0.000 
#
# Total GULP energy -173456.251160 kJ/mol
# GULP energy per Si atom -12389.732226 kJ/mol
# Density = 2.102398 g / cm^3
# Si number density = 21.071937 Si / 1000 Ang^3
#
#
#
# Elastic Constant Matrix: (Units=GPa)
#
#
# Indices 1 2 3 4 5 6 
#
# 1 92.2011 51.7011 32.7377 0.0000 -5.2594 0.0000
# 2 51.7011 80.0416 36.5327 0.0000 -0.0725 0.0000
# 3 32.7377 36.5327 121.5036 0.0000 11.8160 0.0000
# 4 0.0000 0.0000 0.0000 31.3403 0.0000 8.6282
# 5 -5.2594 -0.0725 11.8160 0.0000 38.0064 0.0000
# 6 0.0000 0.0000 0.0000 8.6282 0.0000 36.5487
#
#
#
# Elastic Compliance Matrix: (Units=1/GPa)
#
#
# Indices 1 2 3 4 5 6 
#
# 1 0.017561 -0.010487 -0.001869 0.000000 0.002991 0.000000
# 2 -0.010487 0.020819 -0.003399 0.000000 -0.000355 0.000000
# 3 -0.001869 -0.003399 0.010087 0.000000 -0.003401 0.000000
# 4 0.000000 0.000000 0.000000 0.034126 0.000000 -0.008056
# 5 0.002991 -0.000355 -0.003401 0.000000 0.027782 0.000000
# 6 0.000000 0.000000 0.000000 -0.008056 0.000000 0.029263
#
#
# Mechanical properties :
#
#
# Convention : Reuss Voigt Hill
#
# Bulk Modulus (GPa) = 58.98138 59.52105 59.25122
# Shear Modulus (GPa) = 28.28058 32.69741 30.48900
#
# Velocity S-wave (km/s) = 3.66744 3.94344 3.80794
# Velocity P-wave (km/s) = 6.78120 7.00301 6.89300
#
# Compressibility (1/GPa) = 0.01695450
#
# Stress axis : x y z
#
# Youngs Moduli (GPa) = 56.94505 48.03375 99.14022
#
# Poissons Ratio (x) = 0.50374 0.18532
# Poissons Ratio (y) = 0.59719 0.33702
# Poissons Ratio (z) = 0.10644 0.16329
#
# Static dielectric constant tensor:
#      x y z
#    x 3.986060 0.000000 0.241840 
#    y 0.000000 3.630990 0.000000 
#    z 0.241840 0.000000 4.068440 
# 
# 
# High freq. dielectric constant tensor:
#      x y z
#    x 1.840620 0.000000 0.022770 
#    y 0.000000 1.790610 0.000000 
#    z 0.022770 0.000000 1.833500 
# 
# From -- ./inp_files/31686.got.cif
#   From: 2010.03.12/outbox.cif.g09.slc.cpg/sg5_16_cif.got.tgz:31686.got - 2010.03.31 09:47:26.
