data_PCOD8050413
_publ_section_title
;
Structure prediction by ZEFSAII (Michael W. Deem and Ramdas Pophale) SiO2 
 PCOD8050413
Probable space group: C 2
;
_chemical_formula_sum "Si O2"
_cell_formula_units_Z 30
_cell_length_a 15.472212
_cell_length_b 16.811808
_cell_length_c 12.180747
_cell_angle_alpha 90.000000
_cell_angle_beta 25.703158
_cell_angle_gamma 90.000000
_cell_volume 1374.165164
_symmetry_space_group_name_H-M "C 2"
_symmetry_group_IT_number 5
_symmetry_cell_setting 'monoclinic'
loop_
_space_group_symop_operation_xyz
x,y,z
-x,y,-z
1/2+x,1/2+y,z
1/2-x,1/2+y,-z
loop_
_atom_site_type_symbol
_atom_site_label
_atom_site_fract_x
_atom_site_fract_y
_atom_site_fract_z
Si Si1 0.500000 0.403690 0.000000
Si Si2 0.459357 0.507963 0.420873
Si Si3 0.252336 0.970161 0.898465
Si Si4 0.759457 0.643858 0.838840
Si Si5 0.893653 0.173619 0.397804
Si Si6 0.334057 0.874377 0.281093
Si Si7 0.087259 0.345482 0.564061
Si Si8 0.623827 0.213687 0.518711
O O1 0.428477 0.455967 0.979374
O O2 0.309198 0.353932 0.260252
O O3 0.500000 0.491320 0.500000
O O4 0.398813 0.599813 0.473912
O O5 0.264182 0.460216 0.610489
O O6 0.653541 0.478498 0.131785
O O7 0.420425 0.900803 0.695831
O O8 0.346391 0.054978 0.758853
O O9 0.767489 0.663436 0.701240
O O10 0.888830 0.702736 0.768327
O O11 0.535309 0.655338 0.132783
O O12 0.958993 0.251245 0.393189
O O13 0.683497 0.185737 0.574039
O O14 0.433461 0.867984 0.285628
O O15 0.167690 0.806858 0.454820
O O16 0.500000 0.863026 0.000000
#
# Coordination Sequence:
#
# PCOD8050413 Si02
#       8
#     2   4   4   4   4   4   4   4
#     4  12  26  44  68 104 136 180 228 284 330 408
#     4  11  25  44  67  97 137 179 226 281 332 411
#     4  11  26  43  72 102 138 177 229 279 347 402
#     4  10  23  36  68 102 132 172 218 288 341 400
#     4  10  24  44  64  95 136 178 226 276 331 404
#     4  11  23  43  69 100 136 181 225 281 342 401
#     4  11  25  45  70 100 136 183 226 280 340 405
#     4  10  22  38  66 101 132 169 222 278 352 394
#
# _framework density 21.831434999999999
#
# number of rings (size 3 to 8) (size 9 to 14) (size 15 to 20)
#    0.000    1.333    1.333    3.200   13.067    1.067 
#    1.200    1.333    0.000    0.000    0.000    0.000 
#    0.000    0.000    0.000    0.000    0.000    0.000 
#
# Total GULP energy -185963.164944 kJ/mol
# GULP energy per Si atom -12397.544330 kJ/mol
# Density = 2.178175 g / cm^3
# Si number density = 21.831435 Si / 1000 Ang^3
#
#
#
# Elastic Constant Matrix: (Units=GPa)
#
#
# Indices 1 2 3 4 5 6 
#
# 1 72.0223 36.4957 34.8225 0.1138 -1.3457 -0.0698
# 2 36.4957 148.6228 30.7335 -0.1491 -12.5610 0.0304
# 3 34.8225 30.7335 66.0255 -0.1299 4.8163 0.0286
# 4 0.1138 -0.1491 -0.1299 35.3726 -0.0049 -0.9278
# 5 -1.3457 -12.5610 4.8163 -0.0049 35.6258 0.0290
# 6 -0.0698 0.0304 0.0286 -0.9278 0.0290 29.9052
#
#
#
# Elastic Compliance Matrix: (Units=1/GPa)
#
#
# Indices 1 2 3 4 5 6 
#
# 1 0.019798 -0.002883 -0.009171 -0.000108 0.000971 0.000054
# 2 -0.002883 0.008226 -0.002537 0.000035 0.003134 -0.000015
# 3 -0.009171 -0.002537 0.021466 0.000096 -0.004143 -0.000032
# 4 -0.000108 0.000035 0.000096 0.028294 -0.000002 0.000877
# 5 0.000971 0.003134 -0.004143 -0.000002 0.029771 -0.000026
# 6 0.000054 -0.000015 -0.000032 0.000877 -0.000026 0.033466
#
#
# Mechanical properties :
#
#
# Convention : Reuss Voigt Hill
#
# Bulk Modulus (GPa) = 49.24173 54.53044 51.88609
# Shear Modulus (GPa) = 28.25296 32.48864 30.37080
#
# Velocity S-wave (km/s) = 3.60132 3.86185 3.73386
# Velocity P-wave (km/s) = 6.31641 6.70204 6.51208
#
# Compressibility (1/GPa) = 0.02030798
#
# Stress axis : x y z
#
# Youngs Moduli (GPa) = 50.51036 121.56569 46.58617
#
# Poissons Ratio (x) = 0.35050 0.42722
# Poissons Ratio (y) = 0.14563 0.11819
# Poissons Ratio (z) = 0.46321 0.30841
#
# Static dielectric constant tensor:
#      x y z
#    x 3.919430 0.000190 0.054580 
#    y 0.000190 4.114130 -0.000080 
#    z 0.054580 -0.000080 3.796580 
# 
# 
# High freq. dielectric constant tensor:
#      x y z
#    x 1.861380 0.000000 0.003900 
#    y 0.000000 1.865180 0.000010 
#    z 0.003900 0.000010 1.852390 
# 
# From -- ./inp_files/43298.got.cif
#   From: 2010.03.12/outbox.cif.g09.slc.cpg/sg5_22_cif.got.tgz:43298.got - 2010.03.31 09:47:26.
