data_PCOD8050528
_publ_section_title
;
Structure prediction by ZEFSAII (Michael W. Deem and Ramdas Pophale) SiO2 
 PCOD8050528
Probable space group: C 2
;
_chemical_formula_sum "Si O2"
_cell_formula_units_Z 30
_cell_length_a 8.242804
_cell_length_b 18.143339
_cell_length_c 12.229195
_cell_angle_alpha 90.000000
_cell_angle_beta 49.940548
_cell_angle_gamma 90.000000
_cell_volume 1399.798410
_symmetry_space_group_name_H-M "C 2"
_symmetry_group_IT_number 5
_symmetry_cell_setting 'monoclinic'
loop_
_space_group_symop_operation_xyz
x,y,z
-x,y,-z
1/2+x,1/2+y,z
1/2-x,1/2+y,-z
loop_
_atom_site_type_symbol
_atom_site_label
_atom_site_fract_x
_atom_site_fract_y
_atom_site_fract_z
Si Si1 0.934233 0.889330 0.720599
Si Si2 0.208090 0.494827 0.477737
Si Si3 0.328547 0.641308 0.335422
Si Si4 0.000000 0.770529 0.500000
Si Si5 0.232527 0.682987 0.939779
Si Si6 0.229566 0.085022 0.879102
Si Si7 0.946557 0.460300 0.223746
Si Si8 0.178405 0.334445 0.014355
O O1 0.740860 0.946764 0.781663
O O2 0.892380 0.854029 0.856729
O O3 0.133508 0.940836 0.652643
O O4 0.968594 0.823666 0.617973
O O5 0.289552 0.579738 0.446151
O O6 0.000000 0.491461 0.500000
O O7 0.175122 0.458434 0.609233
O O8 0.207455 0.717421 0.418990
O O9 0.235287 0.607799 0.262174
O O10 0.582264 0.651230 0.218850
O O11 0.266164 0.658116 0.049893
O O12 0.266640 0.769434 0.927406
O O13 0.000000 0.659441 0.000000
O O14 0.423019 0.035946 0.840218
O O15 0.000000 0.046203 0.000000
O O16 0.113577 0.395784 0.130553
O O17 0.000000 0.316395 0.000000
#
# Coordination Sequence:
#
# PCOD8050528 Si02
#       8
#     4   4   4   2   4   4   4   4
#     4  11  25  41  69  99 135 175 231 282 339 411
#     4  12  24  42  63 103 133 178 221 288 342 411
#     4  11  23  42  70  92 140 183 230 272 356 420
#     4  12  20  44  72  92 130 190 224 272 346 424
#     4  11  25  41  65 100 133 174 233 291 337 401
#     4  10  22  40  65  96 130 178 224 279 336 417
#     4  11  22  42  67  96 132 178 221 276 339 408
#     4  10  23  43  68  94 133 181 225 275 341 411
#
# _framework density 21.431657000000001
#
# number of rings (size 3 to 8) (size 9 to 14) (size 15 to 20)
#    0.000    1.067    3.333    3.600    5.600    2.133 
#    0.000    0.000    0.000    0.000    0.000    0.000 
#    0.000    0.000    0.000    0.000    0.000    0.000 
#
# Total GULP energy -185911.658644 kJ/mol
# GULP energy per Si atom -12394.110576 kJ/mol
# Density = 2.138288 g / cm^3
# Si number density = 21.431657 Si / 1000 Ang^3
#
#
#
# Elastic Constant Matrix: (Units=GPa)
#
#
# Indices 1 2 3 4 5 6 
#
# 1 42.7803 30.1467 41.8652 0.0000 -12.2692 0.0000
# 2 30.1467 117.8843 59.3296 0.0000 -13.7475 0.0000
# 3 41.8652 59.3296 129.3745 0.0000 -20.6350 0.0000
# 4 0.0000 0.0000 0.0000 54.7692 0.0000 -9.9158
# 5 -12.2692 -13.7475 -20.6350 0.0000 35.0855 0.0000
# 6 0.0000 0.0000 0.0000 -9.9158 0.0000 33.6329
#
#
#
# Elastic Compliance Matrix: (Units=1/GPa)
#
#
# Indices 1 2 3 4 5 6 
#
# 1 0.036906 -0.004176 -0.009082 0.000000 0.005928 0.000000
# 2 -0.004176 0.011571 -0.003824 0.000000 0.000825 0.000000
# 3 -0.009082 -0.003824 0.012885 0.000000 0.002904 0.000000
# 4 0.000000 0.000000 0.000000 0.019288 0.000000 0.005687
# 5 0.005928 0.000825 0.002904 0.000000 0.032606 0.000000
# 6 0.000000 0.000000 0.000000 0.005687 0.000000 0.031409
#
#
# Mechanical properties :
#
#
# Convention : Reuss Voigt Hill
#
# Bulk Modulus (GPa) = 36.76577 61.41358 49.08967
# Shear Modulus (GPa) = 26.61060 35.27737 30.94399
#
# Velocity S-wave (km/s) = 3.52753 4.06154 3.80392
# Velocity P-wave (km/s) = 5.81235 7.12128 6.49985
#
# Compressibility (1/GPa) = 0.02719921
#
# Stress axis : x y z
#
# Youngs Moduli (GPa) = 27.09601 86.42020 77.60886
#
# Poissons Ratio (x) = 0.36087 0.70485
# Poissons Ratio (y) = 0.11315 0.29675
# Poissons Ratio (z) = 0.24609 0.33044
#
# Static dielectric constant tensor:
#      x y z
#    x 3.460770 0.000000 -0.337300 
#    y 0.000000 3.987830 0.000000 
#    z -0.337300 0.000000 4.004990 
# 
# 
# High freq. dielectric constant tensor:
#      x y z
#    x 1.809800 0.000000 -0.013130 
#    y 0.000000 1.847200 0.000000 
#    z -0.013130 0.000000 1.867590 
# 
# From -- ./inp_files/51379.got.cif
#   From: 2010.03.12/outbox.cif.g09.slc.cpg/sg5_26_cif.got.tgz:51379.got - 2010.03.31 09:47:26.
