data_PCOD8050797
_publ_section_title
;
Structure prediction by ZEFSAII (Michael W. Deem and Ramdas Pophale) SiO2 
 PCOD8050797
Probable space group: C 2
;
_chemical_formula_sum "Si O2"
_cell_formula_units_Z 28
_cell_length_a 7.672644
_cell_length_b 17.454909
_cell_length_c 11.276941
_cell_angle_alpha 90.000000
_cell_angle_beta 59.788182
_cell_angle_gamma 90.000000
_cell_volume 1305.129626
_symmetry_space_group_name_H-M "C 2"
_symmetry_group_IT_number 5
_symmetry_cell_setting 'monoclinic'
loop_
_space_group_symop_operation_xyz
x,y,z
-x,y,-z
1/2+x,1/2+y,z
1/2-x,1/2+y,-z
loop_
_atom_site_type_symbol
_atom_site_label
_atom_site_fract_x
_atom_site_fract_y
_atom_site_fract_z
Si Si1 0.174957 0.350770 0.610981
Si Si2 0.175654 0.109827 0.847916
Si Si3 0.265294 0.655349 0.613359
Si Si4 0.628344 0.234311 0.067973
Si Si5 0.469268 0.300405 0.340392
Si Si6 0.573298 0.717578 0.219744
Si Si7 0.986828 0.512068 0.364400
O O1 0.288279 0.357564 0.443334
O O2 0.331830 0.322671 0.656513
O O3 0.075420 0.431883 0.674406
O O4 0.004992 0.285562 0.669317
O O5 0.343017 0.163346 0.852666
O O6 0.293927 0.034998 0.762484
O O7 0.092512 0.154398 0.760700
O O8 0.000000 0.085436 0.000000
O O9 0.500000 0.661625 0.500000
O O10 0.121685 0.716279 0.593705
O O11 0.254330 0.675860 0.758646
O O12 0.187682 0.570984 0.612204
O O13 0.529645 0.303777 0.179313
O O14 0.500000 0.209515 0.000000
O O15 0.843877 0.254126 0.932768
O O16 0.000000 0.503905 0.500000
#
# Coordination Sequence:
#
# PCOD8050797 Si02
#       7
#     4   4   4   4   4   4   4
#     4  11  26  43  65  95 137 182 220 285 342 392
#     4  10  22  43  70  99 135 177 227 282 330 406
#     4  12  23  38  71 102 130 181 228 277 334 407
#     4  11  20  36  71 104 129 166 230 281 331 394
#     4  11  23  43  67  95 132 172 228 281 322 400
#     4  11  21  40  72  99 129 172 232 271 336 406
#     4  12  27  44  66  99 143 176 226 283 348 402
#
# _framework density 21.453807000000001
#
# number of rings (size 3 to 8) (size 9 to 14) (size 15 to 20)
#    0.000    0.857    5.714    0.857    6.000    0.000 
#    0.000    2.143   12.571    0.000    0.000    0.000 
#    0.000    0.000    0.000    0.000    0.000    0.000 
#
# Total GULP energy -173483.705574 kJ/mol
# GULP energy per Si atom -12391.693255 kJ/mol
# Density = 2.140498 g / cm^3
# Si number density = 21.453807 Si / 1000 Ang^3
#
#
#
# Elastic Constant Matrix: (Units=GPa)
#
#
# Indices 1 2 3 4 5 6 
#
# 1 110.6834 67.2396 30.4294 0.0000 9.8944 0.0000
# 2 67.2396 123.6493 38.5587 0.0000 -2.0397 0.0000
# 3 30.4294 38.5587 121.2642 0.0000 -6.8615 0.0000
# 4 0.0000 0.0000 0.0000 24.8320 0.0000 -6.3622
# 5 9.8944 -2.0397 -6.8615 0.0000 39.0633 0.0000
# 6 0.0000 0.0000 0.0000 -6.3622 0.0000 32.7137
#
#
#
# Elastic Compliance Matrix: (Units=1/GPa)
#
#
# Indices 1 2 3 4 5 6 
#
# 1 0.014315 -0.007393 -0.001483 0.000000 -0.004273 0.000000
# 2 -0.007393 0.012795 -0.002090 0.000000 0.002173 0.000000
# 3 -0.001483 -0.002090 0.009392 0.000000 0.001916 0.000000
# 4 0.000000 0.000000 0.000000 0.042382 0.000000 0.008243
# 5 -0.004273 0.002173 0.001916 0.000000 0.027132 0.000000
# 6 0.000000 0.000000 0.000000 0.008243 0.000000 0.032171
#
#
# Mechanical properties :
#
#
# Convention : Reuss Voigt Hill
#
# Bulk Modulus (GPa) = 68.63591 69.78358 69.20975
# Shear Modulus (GPa) = 30.30720 33.94641 32.12680
#
# Velocity S-wave (km/s) = 3.76263 3.98213 3.87394
# Velocity P-wave (km/s) = 7.13711 7.33084 7.23462
#
# Compressibility (1/GPa) = 0.01456963
#
# Stress axis : x y z
#
# Youngs Moduli (GPa) = 69.85447 78.15457 106.47557
#
# Poissons Ratio (x) = 0.57776 0.15794
# Poissons Ratio (y) = 0.51640 0.22258
# Poissons Ratio (z) = 0.10362 0.16338
#
# Static dielectric constant tensor:
#      x y z
#    x 4.006300 0.000000 -0.208360 
#    y 0.000000 3.508330 0.000000 
#    z -0.208360 0.000000 4.591700 
# 
# 
# High freq. dielectric constant tensor:
#      x y z
#    x 1.863070 0.000000 -0.014230 
#    y 0.000000 1.792310 0.000000 
#    z -0.014230 0.000000 1.864880 
# 
# From -- ./inp_files/36311.got.cif
#   From: 2010.03.12/outbox.cif.g09.slc.cpg/sg5_19_cif.got.tgz:36311.got - 2010.03.31 09:47:26.
