data_PCOD8050485
_publ_section_title
;
Structure prediction by ZEFSAII (Michael W. Deem and Ramdas Pophale) SiO2 
 PCOD8050485
Probable space group: C 2
;
_chemical_formula_sum "Si O2"
_cell_formula_units_Z 22
_cell_length_a 11.796542
_cell_length_b 19.795484
_cell_length_c 6.287897
_cell_angle_alpha 90.000000
_cell_angle_beta 52.626446
_cell_angle_gamma 90.000000
_cell_volume 1166.881295
_symmetry_space_group_name_H-M "C 2"
_symmetry_group_IT_number 5
_symmetry_cell_setting 'monoclinic'
loop_
_space_group_symop_operation_xyz
x,y,z
-x,y,-z
1/2+x,1/2+y,z
1/2-x,1/2+y,-z
loop_
_atom_site_type_symbol
_atom_site_label
_atom_site_fract_x
_atom_site_fract_y
_atom_site_fract_z
Si Si1 0.358848 0.865540 0.022987
Si Si2 0.388496 0.687182 0.320265
Si Si3 0.500000 0.799076 0.500000
Si Si4 0.000000 0.857569 0.000000
Si Si5 0.636737 0.267157 0.486515
Si Si6 0.500000 0.578905 0.500000
Si Si7 0.618039 0.449788 0.208940
O O1 0.388745 0.847565 0.744019
O O2 0.500000 0.872002 0.000000
O O3 0.251631 0.808520 0.223009
O O4 0.276382 0.937224 0.121212
O O5 0.425856 0.755282 0.402508
O O6 0.222615 0.697047 0.441303
O O7 0.397200 0.623745 0.470082
O O8 0.500000 0.677567 0.000000
O O9 0.907622 0.808586 0.254090
O O10 0.104422 0.909599 0.003639
O O11 0.500000 0.247984 0.500000
O O12 0.592717 0.530931 0.234323
O O13 0.500000 0.415612 0.500000
#
# Coordination Sequence:
#
# PCOD8050485 Si02
#       7
#     4   4   2   2   4   2   4
#     4  12  21  37  59  94 128 150 194 253 314 363
#     4  11  22  39  63  87 122 164 203 246 290 364
#     4  11  20  34  62  92 128 153 190 248 320 355
#     4  12  20  36  70  90 126 156 186 260 320 352
#     4  12  22  36  58  99 129 149 196 247 315 368
#     4   9  24  42  64  82 116 169 218 238 286 353
#     4  10  22  40  60  88 118 157 207 245 292 361
#
# _framework density 18.853673000000001
#
# number of rings (size 3 to 8) (size 9 to 14) (size 15 to 20)
#    0.545    0.364    7.273    1.091    1.273    0.000 
#    0.000    0.000    6.000    0.000    0.000    0.000 
#    0.000    0.000    0.000    0.000    0.000    0.000 
#
# Total GULP energy -136302.335770 kJ/mol
# GULP energy per Si atom -12391.121434 kJ/mol
# Density = 1.881076 g / cm^3
# Si number density = 18.853673 Si / 1000 Ang^3
#
#
#
# Elastic Constant Matrix: (Units=GPa)
#
#
# Indices 1 2 3 4 5 6 
#
# 1 153.8370 62.4517 44.6076 0.0000 -15.7495 0.0000
# 2 62.4517 110.4831 41.7582 0.0000 -5.6926 0.0000
# 3 44.6076 41.7582 114.8381 0.0000 1.3093 0.0000
# 4 0.0000 0.0000 0.0000 0.8226 0.0000 2.2237
# 5 -15.7495 -5.6926 1.3093 0.0000 30.1165 0.0000
# 6 0.0000 0.0000 0.0000 2.2237 0.0000 29.8347
#
#
#
# Elastic Compliance Matrix: (Units=1/GPa)
#
#
# Indices 1 2 3 4 5 6 
#
# 1 0.009246 -0.004218 -0.002105 0.000000 0.004129 0.000000
# 2 -0.004218 0.012559 -0.002932 0.000000 0.000295 0.000000
# 3 -0.002105 -0.002932 0.010616 0.000000 -0.002116 0.000000
# 4 0.000000 0.000000 0.000000 1.522316 0.000000 -0.113463
# 5 0.004129 0.000295 -0.002116 0.000000 0.035512 0.000000
# 6 0.000000 0.000000 0.000000 -0.113463 0.000000 0.041975
#
#
# Mechanical properties :
#
#
# Convention : Reuss Voigt Hill
#
# Bulk Modulus (GPa) = 71.88348 75.19924 73.54136
# Shear Modulus (GPa) = 3.02048 27.51080 15.26564
#
# Velocity S-wave (km/s) = 1.26710 3.82406 2.84859
# Velocity P-wave (km/s) = 6.35221 7.71169 7.06473
#
# Compressibility (1/GPa) = 0.01391140
#
# Stress axis : x y z
#
# Youngs Moduli (GPa) = 108.15741 79.62620 94.20085
#
# Poissons Ratio (x) = 0.33586 0.19827
# Poissons Ratio (y) = 0.45621 0.27616
# Poissons Ratio (z) = 0.22764 0.23343
#
# Static dielectric constant tensor:
#      x y z
#    x 3.966960 0.000000 -0.101190 
#    y 0.000000 3.315590 0.000000 
#    z -0.101190 0.000000 3.715000 
# 
# 
# High freq. dielectric constant tensor:
#      x y z
#    x 1.739750 0.000000 0.008170 
#    y 0.000000 1.704500 0.000000 
#    z 0.008170 0.000000 1.735890 
# 
# From -- ./inp_files/5757.got.cif
#   From: 2010.03.12/outbox.cif.g09.slc.cpg/sg5_3_cif.got.tgz:5757.got - 2010.03.31 09:47:26.
