data_PCOD8050053
_publ_section_title
;
Structure prediction by ZEFSAII (Michael W. Deem and Ramdas Pophale) SiO2 
 PCOD8050053
Probable space group: C 2
;
_chemical_formula_sum "Si O2"
_cell_formula_units_Z 32
_cell_length_a 9.412433
_cell_length_b 10.647380
_cell_length_c 21.263828
_cell_angle_alpha 90.000000
_cell_angle_beta 136.644691
_cell_angle_gamma 90.000000
_cell_volume 1462.984271
_symmetry_space_group_name_H-M "C 2"
_symmetry_group_IT_number 5
_symmetry_cell_setting 'monoclinic'
loop_
_space_group_symop_operation_xyz
x,y,z
-x,y,-z
1/2+x,1/2+y,z
1/2-x,1/2+y,-z
loop_
_atom_site_type_symbol
_atom_site_label
_atom_site_fract_x
_atom_site_fract_y
_atom_site_fract_z
Si Si1 0.594741 0.680350 0.864965
Si Si2 0.352772 0.263432 0.270602
Si Si3 0.197639 0.288833 0.020108
Si Si4 0.380382 0.317177 0.524907
Si Si5 0.486938 0.165728 0.799855
Si Si6 0.365170 0.537146 0.243413
Si Si7 0.268305 0.054458 0.451073
Si Si8 0.758054 0.936858 0.926029
O O1 0.684122 0.670509 0.965361
O O2 0.664238 0.571703 0.839395
O O3 0.682510 0.811644 0.864205
O O4 0.346060 0.675606 0.788005
O O5 0.450373 0.277225 0.369960
O O6 0.520528 0.205023 0.275911
O O7 0.271484 0.398396 0.219726
O O8 0.199179 0.418450 0.981177
O O9 0.411743 0.279457 0.127631
O O10 0.000000 0.284129 0.000000
O O11 0.500000 0.353026 0.500000
O O12 0.233347 0.194305 0.468996
O O13 0.256569 0.441951 0.506232
O O14 0.258845 0.132031 0.750642
O O15 0.645637 0.052289 0.858368
O O16 0.604887 0.537319 0.341885
O O17 0.500000 0.045819 0.500000
O O18 0.000000 0.957821 0.000000
#
# Coordination Sequence:
#
# PCOD8050053 Si02
#       8
#     4   4   4   4   4   4   4   4
#     4  10  21  43  64  91 133 173 218 266 321 373
#     4  11  24  45  64 102 132 167 214 274 328 387
#     4  10  21  40  61  92 132 176 220 269 321 371
#     4  10  23  44  73  98 136 170 216 267 341 405
#     4  12  23  42  63  94 135 172 222 270 324 380
#     4  11  24  44  67  96 134 168 217 271 325 391
#     4  10  23  44  69 102 134 170 217 271 336 406
#     4  10  22  39  62  94 130 174 232 263 317 381
#
# _framework density 21.873100000000001
#
# number of rings (size 3 to 8) (size 9 to 14) (size 15 to 20)
#    0.750    0.750    2.500    2.625    0.000    5.500 
#    4.500    0.000    0.000    0.000    0.000    0.000 
#    0.000    0.000    0.000    0.000    0.000    0.000 
#
# Total GULP energy -198307.817038 kJ/mol
# GULP energy per Si atom -12394.238565 kJ/mol
# Density = 2.182332 g / cm^3
# Si number density = 21.873100 Si / 1000 Ang^3
#
#
#
# Elastic Constant Matrix: (Units=GPa)
#
#
# Indices 1 2 3 4 5 6 
#
# 1 122.5660 25.9208 43.7706 0.0000 -10.8580 0.0000
# 2 25.9208 78.8737 -2.7418 0.0000 -11.3642 0.0000
# 3 43.7706 -2.7418 72.9404 0.0000 -10.2616 0.0000
# 4 0.0000 0.0000 0.0000 22.1753 0.0000 -2.0781
# 5 -10.8580 -11.3642 -10.2616 0.0000 43.4355 0.0000
# 6 0.0000 0.0000 0.0000 -2.0781 0.0000 28.4299
#
#
#
# Elastic Compliance Matrix: (Units=1/GPa)
#
#
# Indices 1 2 3 4 5 6 
#
# 1 0.011541 -0.004014 -0.007053 0.000000 0.000169 0.000000
# 2 -0.004014 0.014644 0.003472 0.000000 0.003648 0.000000
# 3 -0.007053 0.003472 0.018570 0.000000 0.003532 0.000000
# 4 0.000000 0.000000 0.000000 0.045406 0.000000 0.003319
# 5 0.000169 0.003648 0.003532 0.000000 0.024854 0.000000
# 6 0.000000 0.000000 0.000000 0.003319 0.000000 0.035417
#
#
# Mechanical properties :
#
#
# Convention : Reuss Voigt Hill
#
# Bulk Modulus (GPa) = 33.82242 45.36436 39.59339
# Shear Modulus (GPa) = 28.49388 32.63687 30.56538
#
# Velocity S-wave (km/s) = 3.61320 3.86696 3.74223
# Velocity P-wave (km/s) = 5.73616 6.38143 6.06738
#
# Compressibility (1/GPa) = 0.02956619
#
# Stress axis : x y z
#
# Youngs Moduli (GPa) = 86.64434 68.28766 53.85101
#
# Poissons Ratio (x) = 0.27409 0.37981
# Poissons Ratio (y) = 0.34777 -0.18699
# Poissons Ratio (z) = 0.61110 -0.23712
#
# Static dielectric constant tensor:
#      x y z
#    x 3.842610 0.000000 -0.054710 
#    y 0.000000 4.059650 0.000000 
#    z -0.054710 0.000000 3.946460 
# 
# 
# High freq. dielectric constant tensor:
#      x y z
#    x 1.858920 0.000000 -0.004460 
#    y 0.000000 1.859390 0.000000 
#    z -0.004460 0.000000 1.852060 
# 
# From -- ./inp_files/64571.got.cif
#   From: 2010.03.12/outbox.cif.g09.slc.cpg/sg5_33_cif.got.tgz:64571.got - 2010.03.31 09:47:26.
