data_PCOD8050271
_publ_section_title
;
Structure prediction by ZEFSAII (Michael W. Deem and Ramdas Pophale) SiO2 
 PCOD8050271
Probable space group: C 2
;
_chemical_formula_sum "Si O2"
_cell_formula_units_Z 22
_cell_length_a 19.401761
_cell_length_b 11.154107
_cell_length_c 15.535629
_cell_angle_alpha 90.000000
_cell_angle_beta 19.407704
_cell_angle_gamma 90.000000
_cell_volume 1117.170340
_symmetry_space_group_name_H-M "C 2"
_symmetry_group_IT_number 5
_symmetry_cell_setting 'monoclinic'
loop_
_space_group_symop_operation_xyz
x,y,z
-x,y,-z
1/2+x,1/2+y,z
1/2-x,1/2+y,-z
loop_
_atom_site_type_symbol
_atom_site_label
_atom_site_fract_x
_atom_site_fract_y
_atom_site_fract_z
Si Si1 0.118421 0.289290 0.775096
Si Si2 0.059903 0.202677 0.191170
Si Si3 0.349279 0.056959 0.308594
Si Si4 0.980795 0.606738 0.339317
Si Si5 0.079351 0.370224 0.500321
Si Si6 0.000000 0.734619 0.000000
O O1 0.156919 0.430828 0.732602
O O2 0.341698 0.225528 0.509984
O O3 0.979148 0.256692 0.857025
O O4 0.000000 0.247347 0.000000
O O5 0.885399 0.104785 0.418363
O O6 0.061612 0.306384 0.261280
O O7 0.280194 0.138887 0.932746
O O8 0.434770 0.040350 0.303686
O O9 0.505869 0.148862 0.076674
O O10 0.922168 0.512921 0.483140
O O11 0.000000 0.337421 0.500000
O O12 0.310758 0.323595 0.232174
#
# Coordination Sequence:
#
# PCOD8050271 Si02
#       6
#     4   4   4   4   4   2
#     4  11  24  41  64  92 123 160 203 254 309 359
#     4  10  24  43  62  91 122 163 205 250 304 362
#     4  10  21  43  66  88 120 163 206 253 300 362
#     4  11  25  40  63  91 127 161 202 252 308 360
#     4  11  24  40  63  91 121 161 206 247 303 365
#     4  10  22  42  66  86 120 162 210 250 298 360
#
# _framework density 19.692610999999999
#
# number of rings (size 3 to 8) (size 9 to 14) (size 15 to 20)
#    0.000    1.455    2.727    1.091    6.364    1.455 
#    0.000    0.000    0.000    0.000    0.000    0.000 
#    0.000    0.000    0.000    0.000    0.000    0.000 
#
# Total GULP energy -136443.943183 kJ/mol
# GULP energy per Si atom -12403.994835 kJ/mol
# Density = 1.964779 g / cm^3
# Si number density = 19.692611 Si / 1000 Ang^3
#
#
#
# Elastic Constant Matrix: (Units=GPa)
#
#
# Indices 1 2 3 4 5 6 
#
# 1 113.2151 29.3601 38.0923 -0.0002 10.3724 0.0078
# 2 29.3601 112.5880 55.1775 0.0002 -3.4985 0.0056
# 3 38.0923 55.1775 107.6862 -0.0394 2.0581 -0.0915
# 4 -0.0002 0.0002 -0.0394 41.2332 0.0061 52.0292
# 5 10.3724 -3.4985 2.0581 0.0061 31.8099 0.0099
# 6 0.0078 0.0056 -0.0915 52.0292 0.0099 159.9201
#
#
#
# Elastic Compliance Matrix: (Units=1/GPa)
#
#
# Indices 1 2 3 4 5 6 
#
# 1 0.010492 -0.001408 -0.002926 0.000000 -0.003387 -0.000002
# 2 -0.001408 0.012142 -0.005765 -0.000002 0.002167 -0.000003
# 3 -0.002926 -0.005765 0.013285 0.000005 -0.000540 0.000006
# 4 0.000000 -0.000002 0.000005 0.041143 -0.000004 -0.013386
# 5 -0.003387 0.002167 -0.000540 -0.000004 0.032814 -0.000001
# 6 -0.000002 -0.000003 0.000006 -0.013386 -0.000001 0.010608
#
#
# Mechanical properties :
#
#
# Convention : Reuss Voigt Hill
#
# Bulk Modulus (GPa) = 63.59953 64.30545 63.95249
# Shear Modulus (GPa) = 34.26512 60.64996 47.45754
#
# Velocity S-wave (km/s) = 4.17585 5.55565 4.91442
# Velocity P-wave (km/s) = 7.45765 8.59529 8.04660
#
# Compressibility (1/GPa) = 0.01572339
#
# Stress axis : x y z
#
# Youngs Moduli (GPa) = 95.30706 82.36182 75.27165
#
# Poissons Ratio (x) = 0.11593 0.22021
# Poissons Ratio (y) = 0.13416 0.43392
# Poissons Ratio (z) = 0.27882 0.47479
#
# Static dielectric constant tensor:
#      x y z
#    x 2.489300 0.000040 0.416980 
#    y 0.000040 3.571420 -0.000010 
#    z 0.416980 -0.000010 3.466520 
# 
# 
# High freq. dielectric constant tensor:
#      x y z
#    x 1.775130 0.000000 0.009710 
#    y 0.000000 1.777270 0.000000 
#    z 0.009710 0.000000 1.767580 
# 
# From -- ./inp_files/6581.got.cif
#   From: 2010.03.12/outbox.cif.g09.slc.cpg/sg5_4_cif.got.tgz:6581.got - 2010.03.31 09:47:26.
