data_PCOD8050354
_publ_section_title
;
Structure prediction by ZEFSAII (Michael W. Deem and Ramdas Pophale) SiO2 
 PCOD8050354
Probable space group: C 2
;
_chemical_formula_sum "Si O2"
_cell_formula_units_Z 30
_cell_length_a 11.305984
_cell_length_b 8.510516
_cell_length_c 28.338842
_cell_angle_alpha 90.000000
_cell_angle_beta 150.355411
_cell_angle_gamma 90.000000
_cell_volume 1348.703887
_symmetry_space_group_name_H-M "C 2"
_symmetry_group_IT_number 5
_symmetry_cell_setting 'monoclinic'
loop_
_space_group_symop_operation_xyz
x,y,z
-x,y,-z
1/2+x,1/2+y,z
1/2-x,1/2+y,-z
loop_
_atom_site_type_symbol
_atom_site_label
_atom_site_fract_x
_atom_site_fract_y
_atom_site_fract_z
Si Si1 0.024889 0.871250 0.355706
Si Si2 0.568767 0.517623 0.914351
Si Si3 0.346703 0.203226 0.204032
Si Si4 0.471464 0.206535 0.936763
Si Si5 0.252729 0.641754 0.612890
Si Si6 0.500000 0.702300 0.500000
Si Si7 0.743417 0.963482 0.347134
Si Si8 0.498009 0.520073 0.215588
O O1 0.295721 0.807911 0.453094
O O2 0.883847 0.763468 0.270125
O O3 0.882199 0.867034 0.354849
O O4 0.040282 0.053663 0.345069
O O5 0.426307 0.645403 0.896748
O O6 0.533329 0.343634 0.921853
O O7 0.447239 0.534284 0.820574
O O8 0.847937 0.560894 0.009817
O O9 0.408342 0.340984 0.189473
O O10 0.503069 0.047361 0.246162
O O11 0.204846 0.142069 0.836793
O O12 0.500000 0.270020 0.000000
O O13 0.314217 0.827196 0.634690
O O14 0.268638 0.560164 0.671182
O O15 0.000000 0.612216 0.500000
O O16 0.410022 0.597058 0.426014
#
# Coordination Sequence:
#
# PCOD8050354 Si02
#       8
#     4   4   4   4   4   2   4   4
#     4  10  23  40  59  83 124 166 207 269 319 365
#     4  11  22  42  69  97 133 170 208 265 328 385
#     4  10  23  40  60  94 126 162 214 260 312 388
#     4  10  23  41  66 100 130 167 212 263 323 394
#     4  11  22  41  63  92 125 173 223 265 316 382
#     4  10  22  36  54  84 112 152 218 262 310 372
#     4  11  23  38  59  87 119 164 215 267 316 371
#     4  10  23  42  64  93 135 170 215 268 322 380
#
# _framework density 22.243576999999998
#
# number of rings (size 3 to 8) (size 9 to 14) (size 15 to 20)
#    0.000    1.600    1.333    2.400    1.867    5.333 
#    0.000    2.667    0.000    0.000    0.000    0.000 
#    0.000    0.000    0.000    0.000    0.000    0.000 
#
# Total GULP energy -185965.859555 kJ/mol
# GULP energy per Si atom -12397.723970 kJ/mol
# Density = 2.219295 g / cm^3
# Si number density = 22.243577 Si / 1000 Ang^3
#
#
#
# Elastic Constant Matrix: (Units=GPa)
#
#
# Indices 1 2 3 4 5 6 
#
# 1 81.7770 43.0006 24.3345 0.0000 7.4524 0.0000
# 2 43.0006 131.2276 20.4228 0.0000 2.9677 0.0000
# 3 24.3345 20.4228 74.8962 -0.0001 -2.0410 0.0000
# 4 0.0000 0.0000 -0.0001 26.6559 0.0000 2.3199
# 5 7.4524 2.9677 -2.0410 0.0000 22.7782 0.0000
# 6 0.0000 0.0000 0.0000 2.3199 0.0000 39.5179
#
#
#
# Elastic Compliance Matrix: (Units=1/GPa)
#
#
# Indices 1 2 3 4 5 6 
#
# 1 0.016361 -0.004591 -0.004204 0.000000 -0.005131 0.000000
# 2 -0.004591 0.009281 -0.001034 0.000000 0.000200 0.000000
# 3 -0.004204 -0.001034 0.015078 0.000000 0.002861 0.000000
# 4 0.000000 0.000000 0.000000 0.037708 0.000000 -0.002214
# 5 -0.005131 0.000200 0.002861 0.000000 0.045811 0.000000
# 6 0.000000 0.000000 0.000000 -0.002214 0.000000 0.025435
#
#
# Mechanical properties :
#
#
# Convention : Reuss Voigt Hill
#
# Bulk Modulus (GPa) = 47.47722 51.49072 49.48397
# Shear Modulus (GPa) = 28.35260 31.13325 29.74293
#
# Velocity S-wave (km/s) = 3.57409 3.74525 3.66067
# Velocity P-wave (km/s) = 6.19860 6.47313 6.33735
#
# Compressibility (1/GPa) = 0.02106273
#
# Stress axis : x y z
#
# Youngs Moduli (GPa) = 61.12119 107.74672 66.32396
#
# Poissons Ratio (x) = 0.49465 0.27881
# Poissons Ratio (y) = 0.28060 0.06856
# Poissons Ratio (z) = 0.25694 0.11138
#
# Static dielectric constant tensor:
#      x y z
#    x 3.792260 0.000000 0.029230 
#    y 0.000000 4.081480 0.000000 
#    z 0.029230 0.000000 3.980160 
# 
# 
# High freq. dielectric constant tensor:
#      x y z
#    x 1.857410 0.000000 0.002910 
#    y 0.000000 1.894650 0.000000 
#    z 0.002910 0.000000 1.870860 
# 
# From -- ./inp_files/71711.got.cif
#   From: 2010.03.12/outbox.cif.g09.slc.cpg/sg5_36_cif.got.tgz:71711.got - 2010.03.31 09:47:26.
