data_PCOD8050400
_publ_section_title
;
Structure prediction by ZEFSAII (Michael W. Deem and Ramdas Pophale) SiO2 
 PCOD8050400
Probable space group: C 2
;
_chemical_formula_sum "Si O2"
_cell_formula_units_Z 26
_cell_length_a 14.161505
_cell_length_b 7.236520
_cell_length_c 12.916714
_cell_angle_alpha 90.000000
_cell_angle_beta 116.195191
_cell_angle_gamma 90.000000
_cell_volume 1187.754469
_symmetry_space_group_name_H-M "C 2"
_symmetry_group_IT_number 5
_symmetry_cell_setting 'monoclinic'
loop_
_space_group_symop_operation_xyz
x,y,z
-x,y,-z
1/2+x,1/2+y,z
1/2-x,1/2+y,-z
loop_
_atom_site_type_symbol
_atom_site_label
_atom_site_fract_x
_atom_site_fract_y
_atom_site_fract_z
Si Si1 0.625814 0.517180 0.894680
Si Si2 0.500000 0.339154 0.000000
Si Si3 0.259602 0.672748 0.645874
Si Si4 0.683427 0.902668 0.898573
Si Si5 0.845251 0.553663 0.610836
Si Si6 0.922258 0.709519 0.276087
Si Si7 0.323572 0.316144 0.778648
O O1 0.586951 0.464319 0.989370
O O2 0.603891 0.736262 0.885134
O O3 0.569603 0.415489 0.770088
O O4 0.749090 0.457489 0.966432
O O5 0.435625 0.234350 0.877529
O O6 0.221547 0.566586 0.525382
O O7 0.154555 0.722244 0.661741
O O8 0.333521 0.529295 0.744270
O O9 0.332659 0.846916 0.650730
O O10 0.737937 0.805869 0.826045
O O11 0.624988 0.088413 0.839421
O O12 0.790633 0.686238 0.668443
O O13 0.964302 0.621346 0.641732
#
# Coordination Sequence:
#
# PCOD8050400 Si02
#       7
#     4   2   4   4   4   4   4
#     4  11  20  40  59  92 133 172 217 275 336 401
#     4  10  22  38  64  92 132 164 214 278 324 404
#     4  11  25  44  67  96 132 179 220 283 344 394
#     4  10  22  38  62  89 133 174 212 276 337 401
#     4  12  23  44  71  93 133 176 226 283 340 399
#     4  11  24  41  66  98 129 176 231 270 340 416
#     4  10  22  43  62  95 132 167 217 276 336 400
#
# _framework density 21.890046000000002
#
# number of rings (size 3 to 8) (size 9 to 14) (size 15 to 20)
#    0.000    1.231    4.615    1.385    2.154    0.000 
#    0.000    1.538    0.000    0.000    0.000    0.000 
#    0.000    0.000    0.000    0.000    0.000    0.000 
#
# Total GULP energy -161052.184822 kJ/mol
# GULP energy per Si atom -12388.629602 kJ/mol
# Density = 2.184022 g / cm^3
# Si number density = 21.890046 Si / 1000 Ang^3
#
#
#
# Elastic Constant Matrix: (Units=GPa)
#
#
# Indices 1 2 3 4 5 6 
#
# 1 43.2307 -3.2832 4.8605 0.0000 2.7945 0.0000
# 2 -3.2832 84.6333 6.8651 0.0000 -1.2085 0.0000
# 3 4.8605 6.8651 83.0625 0.0000 0.8590 0.0000
# 4 0.0000 0.0000 0.0000 26.0740 0.0000 -1.1513
# 5 2.7945 -1.2085 0.8590 0.0000 32.6751 0.0000
# 6 0.0000 0.0000 0.0000 -1.1513 0.0000 23.8009
#
#
#
# Elastic Compliance Matrix: (Units=1/GPa)
#
#
# Indices 1 2 3 4 5 6 
#
# 1 0.023494 0.001000 -0.001437 0.000000 -0.001935 0.000000
# 2 0.001000 0.011945 -0.001050 0.000000 0.000384 0.000000
# 3 -0.001437 -0.001050 0.012212 0.000000 -0.000237 0.000000
# 4 0.000000 0.000000 0.000000 0.038435 0.000000 0.001859
# 5 -0.001935 0.000384 -0.000237 0.000000 0.030790 0.000000
# 6 0.000000 0.000000 0.000000 0.001859 0.000000 0.042105
#
#
# Mechanical properties :
#
#
# Convention : Reuss Voigt Hill
#
# Bulk Modulus (GPa) = 22.38229 25.31238 23.84734
# Shear Modulus (GPa) = 28.27284 30.00895 29.14089
#
# Velocity S-wave (km/s) = 3.59776 3.70658 3.65257
# Velocity P-wave (km/s) = 5.24458 5.46871 5.35782
#
# Compressibility (1/GPa) = 0.04467819
#
# Stress axis : x y z
#
# Youngs Moduli (GPa) = 42.56346 83.71621 81.88357
#
# Poissons Ratio (x) = -0.08375 0.11771
# Poissons Ratio (y) = -0.04258 0.08596
# Poissons Ratio (z) = 0.06118 0.08788
#
# Static dielectric constant tensor:
#      x y z
#    x 3.951360 0.000000 -0.071530 
#    y 0.000000 3.797480 0.000000 
#    z -0.071530 0.000000 3.973750 
# 
# 
# High freq. dielectric constant tensor:
#      x y z
#    x 1.853760 0.000000 -0.011620 
#    y 0.000000 1.853420 0.000000 
#    z -0.011620 0.000000 1.867210 
# 
# From -- ./inp_files/55358.got.cif
#   From: 2010.03.12/outbox.cif.g09.slc.cpg/sg5_28_cif.got.tgz:55358.got - 2010.03.31 09:47:26.
