data_PCOD8050102
_publ_section_title
;
Structure prediction by ZEFSAII (Michael W. Deem and Ramdas Pophale) SiO2 
 PCOD8050102
Probable space group: C 2
;
_chemical_formula_sum "Si O2"
_cell_formula_units_Z 24
_cell_length_a 15.615084
_cell_length_b 6.943424
_cell_length_c 14.675983
_cell_angle_alpha 90.000000
_cell_angle_beta 42.490792
_cell_angle_gamma 90.000000
_cell_volume 1074.811678
_symmetry_space_group_name_H-M "C 2"
_symmetry_group_IT_number 5
_symmetry_cell_setting 'monoclinic'
loop_
_space_group_symop_operation_xyz
x,y,z
-x,y,-z
1/2+x,1/2+y,z
1/2-x,1/2+y,-z
loop_
_atom_site_type_symbol
_atom_site_label
_atom_site_fract_x
_atom_site_fract_y
_atom_site_fract_z
Si Si1 0.681078 0.545480 0.704174
Si Si2 0.815497 0.705993 0.768614
Si Si3 0.485638 0.558669 0.612833
Si Si4 0.273370 0.360019 0.496202
Si Si5 0.003128 0.433991 0.718449
Si Si6 0.949636 0.266450 0.945658
O O1 0.785763 0.588990 0.698540
O O2 0.693283 0.340234 0.640588
O O3 0.700373 0.681001 0.599421
O O4 0.539816 0.580554 0.853897
O O5 0.859814 0.924102 0.714293
O O6 0.928746 0.606249 0.731266
O O7 0.694302 0.699730 0.929787
O O8 0.500000 0.642961 0.500000
O O9 0.609936 0.431537 0.535743
O O10 0.468491 0.733314 0.695678
O O11 0.148938 0.505413 0.594506
O O12 0.960673 0.421350 0.857063
O O13 0.000000 0.363464 0.000000
#
# Coordination Sequence:
#
# PCOD8050102 Si02
#       6
#     4   4   4   4   4   4
#     4  10  21  40  66  92 126 172 210 267 320 379
#     4  11  25  41  68  90 133 173 210 262 334 374
#     4  12  25  40  65  98 131 162 216 272 317 388
#     4  11  20  39  60  87 128 161 212 256 319 371
#     4  11  26  40  66  98 127 169 216 269 316 390
#     4   9  21  44  65  88 128 173 215 264 316 380
#
# _framework density 22.329494
#
# number of rings (size 3 to 8) (size 9 to 14) (size 15 to 20)
#    0.000    1.333    5.000    1.000    4.667    0.000 
#    0.000    0.000    0.000    4.000    0.000    0.000 
#    0.000    0.000    0.000    0.000    0.000    0.000 
#
# Total GULP energy -148686.625886 kJ/mol
# GULP energy per Si atom -12390.552157 kJ/mol
# Density = 2.227867 g / cm^3
# Si number density = 22.329494 Si / 1000 Ang^3
#
#
#
# Elastic Constant Matrix: (Units=GPa)
#
#
# Indices 1 2 3 4 5 6 
#
# 1 102.1249 2.7976 52.3162 0.0000 11.9764 0.0000
# 2 2.7976 32.2991 21.3963 -0.0001 6.1067 0.0001
# 3 52.3162 21.3963 140.2204 0.0000 7.2532 0.0000
# 4 0.0000 -0.0001 0.0000 26.8447 0.0000 3.1890
# 5 11.9764 6.1067 7.2532 0.0000 50.0489 0.0000
# 6 0.0000 0.0001 0.0000 3.1890 0.0000 30.6710
#
#
#
# Elastic Compliance Matrix: (Units=1/GPa)
#
#
# Indices 1 2 3 4 5 6 
#
# 1 0.012569 0.002695 -0.004965 0.000000 -0.002617 0.000000
# 2 0.002695 0.035628 -0.006231 0.000000 -0.004089 0.000000
# 3 -0.004965 -0.006231 0.009908 0.000000 0.000512 0.000000
# 4 0.000000 0.000000 0.000000 0.037717 0.000000 -0.003922
# 5 -0.002617 -0.004089 0.000512 0.000000 0.021031 0.000000
# 6 0.000000 0.000000 0.000000 -0.003922 0.000000 0.033012
#
#
# Mechanical properties :
#
#
# Convention : Reuss Voigt Hill
#
# Bulk Modulus (GPa) = 24.32873 47.51829 35.92351
# Shear Modulus (GPa) = 27.69054 34.72187 31.20621
#
# Velocity S-wave (km/s) = 3.52531 3.94760 3.74242
# Velocity P-wave (km/s) = 5.24303 6.48882 5.89890
#
# Compressibility (1/GPa) = 0.04110367
#
# Stress axis : x y z
#
# Youngs Moduli (GPa) = 79.56355 28.06807 100.92461
#
# Poissons Ratio (x) = -0.07565 0.50112
# Poissons Ratio (y) = -0.21445 0.62882
# Poissons Ratio (z) = 0.39505 0.17488
#
# Static dielectric constant tensor:
#      x y z
#    x 4.309110 0.000000 0.102280 
#    y 0.000000 3.973630 0.000000 
#    z 0.102280 0.000000 4.358030 
# 
# 
# High freq. dielectric constant tensor:
#      x y z
#    x 1.901410 0.000000 -0.001280 
#    y 0.000000 1.848990 0.000000 
#    z -0.001280 0.000000 1.892400 
# 
# From -- ./inp_files/43918.got.cif
#   From: 2010.03.12/outbox.cif.g09.slc.cpg/sg5_22_cif.got.tgz:43918.got - 2010.03.31 09:47:26.
