data_PCOD8050967
_publ_section_title
;
Structure prediction by ZEFSAII (Michael W. Deem and Ramdas Pophale) SiO2 
 PCOD8050967
Probable space group: C 2
;
_chemical_formula_sum "Si O2"
_cell_formula_units_Z 22
_cell_length_a 10.078540
_cell_length_b 20.323681
_cell_length_c 9.874790
_cell_angle_alpha 90.000000
_cell_angle_beta 150.432751
_cell_angle_gamma 90.000000
_cell_volume 998.082437
_symmetry_space_group_name_H-M "C 2"
_symmetry_group_IT_number 5
_symmetry_cell_setting 'monoclinic'
loop_
_space_group_symop_operation_xyz
x,y,z
-x,y,-z
1/2+x,1/2+y,z
1/2-x,1/2+y,-z
loop_
_atom_site_type_symbol
_atom_site_label
_atom_site_fract_x
_atom_site_fract_y
_atom_site_fract_z
Si Si1 0.500000 0.209301 0.000000
Si Si2 0.208405 0.380553 0.304736
Si Si3 0.601375 0.029082 0.240678
Si Si4 0.280293 0.051497 0.204199
Si Si5 0.000000 0.926051 0.000000
Si Si6 0.748919 0.318695 0.380652
Si Si7 0.000000 0.123735 0.500000
O O1 0.563122 0.254196 0.189000
O O2 0.771011 0.166390 0.218749
O O3 0.500000 0.372698 0.500000
O O4 0.174075 0.453645 0.338050
O O5 0.162651 0.326618 0.384113
O O6 0.000000 0.366019 0.000000
O O7 0.372088 0.061169 0.131728
O O8 0.862822 0.075764 0.490263
O O9 0.500000 0.035995 0.000000
O O10 0.500000 0.080734 0.500000
O O11 0.000000 0.086114 0.000000
O O12 0.257109 0.972142 0.199330
O O13 0.940680 0.881316 0.816975
O O14 0.000000 0.316449 0.500000
#
# Coordination Sequence:
#
# PCOD8050967 Si02
#       7
#     2   4   4   4   2   4   2
#     4  11  26  44  72 100 130 182 255 292 320 385
#     4  11  26  39  62 107 149 174 210 277 377 420
#     4  11  24  40  67 102 144 185 218 280 344 424
#     4  10  23  37  59  94 142 177 217 266 343 420
#     4   9  20  32  64  92 138 176 223 270 338 413
#     4  11  23  42  70  97 134 181 235 290 329 406
#     4  12  24  44  68 106 134 186 236 292 330 402
#
# _framework density 22.042266000000001
#
# number of rings (size 3 to 8) (size 9 to 14) (size 15 to 20)
#    0.545    0.727    2.727    2.727   12.727    0.000 
#    0.000    0.000    0.000    1.091    9.455    0.000 
#    0.000    0.000    0.000    0.000    0.000    0.000 
#
# Total GULP energy -136284.843286 kJ/mol
# GULP energy per Si atom -12389.531208 kJ/mol
# Density = 2.199210 g / cm^3
# Si number density = 22.042266 Si / 1000 Ang^3
#
#
#
# Elastic Constant Matrix: (Units=GPa)
#
#
# Indices 1 2 3 4 5 6 
#
# 1 174.8297 24.6640 66.8295 -0.0004 6.8148 -0.0003
# 2 24.6640 74.8535 41.0086 0.0001 -4.6884 0.0001
# 3 66.8295 41.0086 155.6117 -0.0012 6.9818 -0.0010
# 4 -0.0004 0.0001 -0.0012 -25.8171 -0.0007 1.3289
# 5 6.8148 -4.6884 6.9818 -0.0007 41.6289 -0.0005
# 6 -0.0003 0.0001 -0.0010 1.3289 -0.0005 3.9650
#
#
#
# Elastic Compliance Matrix: (Units=1/GPa)
#
#
# Indices 1 2 3 4 5 6 
#
# 1 0.006904 -0.000839 -0.002709 0.000000 -0.000770 0.000000
# 2 -0.000839 0.015971 -0.003965 0.000000 0.002601 -0.000001
# 3 -0.002709 -0.003965 0.008700 0.000000 -0.001462 0.000002
# 4 0.000000 0.000000 0.000000 -0.038077 0.000000 0.012762
# 5 -0.000770 0.002601 -0.001462 0.000000 0.024686 0.000003
# 6 0.000000 -0.000001 0.000002 0.012762 0.000003 0.247932
#
#
# Mechanical properties :
#
#
# Convention : Reuss Voigt Hill
#
# Bulk Modulus (GPa) = 60.42853 74.47767 67.45310
# Shear Modulus (GPa) = 17.44232 22.14154 19.79193
#
# Velocity S-wave (km/s) = 2.81608 3.17283 2.99976
# Velocity P-wave (km/s) = 6.16831 6.87636 6.53194
#
# Compressibility (1/GPa) = 0.01654847
#
# Stress axis : x y z
#
# Youngs Moduli (GPa) = 144.84640 62.61292 114.93662
#
# Poissons Ratio (x) = 0.05251 0.31141
# Poissons Ratio (y) = 0.12148 0.45577
# Poissons Ratio (z) = 0.39244 0.24829
#
# Static dielectric constant tensor:
#      x y z
#    x 3.862180 0.000000 0.342590 
#    y 0.000000 4.098540 0.000000 
#    z 0.342590 0.000000 4.725300 
# 
# 
# High freq. dielectric constant tensor:
#      x y z
#    x 1.852490 0.000000 0.016040 
#    y 0.000000 1.838240 0.000000 
#    z 0.016040 0.000000 1.881720 
# 
# From -- ./inp_files/17251.got.cif
#   From: 2010.03.12/outbox.cif.g09.slc.cpg/sg5_9_cif.got.tgz:17251.got - 2010.03.31 09:47:26.
