data_PCOD8050546
_publ_section_title
;
Structure prediction by ZEFSAII (Michael W. Deem and Ramdas Pophale) SiO2 
 PCOD8050546
Probable space group: C 2
;
_chemical_formula_sum "Si O2"
_cell_formula_units_Z 26
_cell_length_a 11.960629
_cell_length_b 7.881073
_cell_length_c 26.673051
_cell_angle_alpha 90.000000
_cell_angle_beta 26.950531
_cell_angle_gamma 90.000000
_cell_volume 1139.520458
_symmetry_space_group_name_H-M "C 2"
_symmetry_group_IT_number 5
_symmetry_cell_setting 'monoclinic'
loop_
_space_group_symop_operation_xyz
x,y,z
-x,y,-z
1/2+x,1/2+y,z
1/2-x,1/2+y,-z
loop_
_atom_site_type_symbol
_atom_site_label
_atom_site_fract_x
_atom_site_fract_y
_atom_site_fract_z
Si Si1 0.000000 0.691581 0.000000
Si Si2 0.402437 0.205156 0.229503
Si Si3 0.413652 0.246948 0.619885
Si Si4 0.760880 0.533615 0.381791
Si Si5 0.359862 0.867592 0.010495
Si Si6 0.928544 0.406277 0.416860
Si Si7 0.963343 0.346712 0.857918
O O1 0.967548 0.561176 0.965673
O O2 0.755470 0.807993 0.095173
O O3 0.573822 0.362457 0.143618
O O4 0.116431 0.250479 0.335688
O O5 0.421650 0.151404 0.280460
O O6 0.483954 0.046829 0.163081
O O7 0.305265 0.349093 0.615956
O O8 0.663730 0.336810 0.539754
O O9 0.210601 0.247227 0.744917
O O10 0.473454 0.049576 0.582935
O O11 0.500000 0.624498 0.500000
O O12 0.920987 0.503048 0.366772
O O13 0.500000 0.765108 0.000000
O O14 0.390110 0.787451 0.943453
#
# Coordination Sequence:
#
# PCOD8050546 Si02
#       7
#     2   4   4   4   4   4   4
#     4  10  24  42  62  90 128 170 214 272 318 376
#     4  11  24  42  67 100 124 172 222 260 328 390
#     4  10  22  40  67  97 129 170 216 258 325 388
#     4   9  21  41  63  98 134 169 212 257 320 388
#     4  10  25  43  62  95 132 165 228 264 320 385
#     4  11  22  43  67  94 137 167 207 274 322 384
#     4  11  23  43  67  94 131 174 219 270 324 384
#
# _framework density 22.816614000000001
#
# number of rings (size 3 to 8) (size 9 to 14) (size 15 to 20)
#    0.462    1.231    0.000    4.615    3.231    4.923 
#    0.000    8.462    0.000    0.000    0.000    0.000 
#    0.000    0.000    0.000    0.000    0.000    0.000 
#
# Total GULP energy -161051.241114 kJ/mol
# GULP energy per Si atom -12388.557009 kJ/mol
# Density = 2.276468 g / cm^3
# Si number density = 22.816614 Si / 1000 Ang^3
#
#
#
# Elastic Constant Matrix: (Units=GPa)
#
#
# Indices 1 2 3 4 5 6 
#
# 1 71.2322 18.0013 51.3230 -0.0033 -7.4522 -0.0064
# 2 18.0013 86.1547 40.9009 0.0391 -14.5337 0.0006
# 3 51.3230 40.9009 161.3045 0.1378 -5.6041 -0.0154
# 4 -0.0033 0.0391 0.1378 39.4224 -0.0073 -8.2599
# 5 -7.4522 -14.5337 -5.6041 -0.0073 41.5966 -0.0067
# 6 -0.0064 0.0006 -0.0154 -8.2599 -0.0067 22.1740
#
#
#
# Elastic Compliance Matrix: (Units=1/GPa)
#
#
# Indices 1 2 3 4 5 6 
#
# 1 0.018524 -0.000826 -0.005606 0.000025 0.002275 0.000011
# 2 -0.000826 0.013997 -0.003136 -0.000003 0.004320 -0.000003
# 3 -0.005606 -0.003136 0.008746 -0.000030 -0.000922 -0.000007
# 4 0.000025 -0.000003 -0.000030 0.027514 0.000006 0.010249
# 5 0.002275 0.004320 -0.000922 0.000006 0.025833 0.000010
# 6 0.000011 -0.000003 -0.000007 0.010249 0.000010 0.048916
#
#
# Mechanical properties :
#
#
# Convention : Reuss Voigt Hill
#
# Bulk Modulus (GPa) = 45.18221 59.90465 52.54343
# Shear Modulus (GPa) = 29.40434 34.53633 31.97034
#
# Velocity S-wave (km/s) = 3.59378 3.89478 3.74730
# Velocity P-wave (km/s) = 6.08815 6.82185 6.46542
#
# Compressibility (1/GPa) = 0.02213261
#
# Stress axis : x y z
#
# Youngs Moduli (GPa) = 53.98391 71.44245 114.33425
#
# Poissons Ratio (x) = 0.05898 0.64091
# Poissons Ratio (y) = 0.04456 0.35860
# Poissons Ratio (z) = 0.30261 0.22408
#
# Static dielectric constant tensor:
#      x y z
#    x 3.909210 -0.000110 -0.129120 
#    y -0.000110 3.995420 -0.000140 
#    z -0.129120 -0.000140 4.239380 
# 
# 
# High freq. dielectric constant tensor:
#      x y z
#    x 1.883220 0.000000 -0.008870 
#    y 0.000000 1.890220 0.000000 
#    z -0.008870 0.000000 1.907460 
# 
# From -- ./inp_files/70356.got.cif
#   From: 2010.03.12/outbox.cif.g09.slc.cpg/sg5_36_cif.got.tgz:70356.got - 2010.03.31 09:47:26.
