data_PCOD8050397
_publ_section_title
;
Structure prediction by ZEFSAII (Michael W. Deem and Ramdas Pophale) SiO2 
 PCOD8050397
Probable space group: C 2
;
_chemical_formula_sum "Si O2"
_cell_formula_units_Z 18
_cell_length_a 28.465368
_cell_length_b 6.094655
_cell_length_c 6.994811
_cell_angle_alpha 90.000000
_cell_angle_beta 134.291832
_cell_angle_gamma 90.000000
_cell_volume 868.618212
_symmetry_space_group_name_H-M "C 2"
_symmetry_group_IT_number 5
_symmetry_cell_setting 'monoclinic'
loop_
_space_group_symop_operation_xyz
x,y,z
-x,y,-z
1/2+x,1/2+y,z
1/2-x,1/2+y,-z
loop_
_atom_site_type_symbol
_atom_site_label
_atom_site_fract_x
_atom_site_fract_y
_atom_site_fract_z
Si Si1 0.104743 0.426220 0.416713
Si Si2 0.609479 0.546521 0.150796
Si Si3 0.659122 0.631400 0.881165
Si Si4 0.000000 0.744041 0.000000
Si Si5 0.701722 0.303944 0.688100
O O1 0.095602 0.287750 0.195803
O O2 0.106986 0.264433 0.603993
O O3 0.172477 0.559874 0.597711
O O4 0.044081 0.593919 0.265492
O O5 0.674399 0.449011 0.436033
O O6 0.620600 0.555504 0.957684
O O7 0.546446 0.392919 0.001369
O O8 0.683959 0.417405 0.838798
O O9 0.720062 0.787053 0.111379
#
# Coordination Sequence:
#
# PCOD8050397 Si02
#       5
#     4   4   4   2   4
#     4  10  22  43  65  90 131 169 207 268 306 373
#     4  10  24  40  67  94 125 174 212 258 317 374
#     4  11  22  40  64 101 129 166 207 259 327 376
#     4  10  22  48  62  90 132 168 222 260 302 376
#     4  10  22  38  60  97 138 157 208 262 314 387
#
# _framework density 20.722569
#
# number of rings (size 3 to 8) (size 9 to 14) (size 15 to 20)
#    0.000    1.778    2.222    0.667    3.111    3.556 
#    0.000   26.667    0.000    0.000    0.000    0.000 
#    0.000    0.000    0.000    0.000    0.000    0.000 
#
# Total GULP energy -111640.791001 kJ/mol
# GULP energy per Si atom -12404.532333 kJ/mol
# Density = 2.067540 g / cm^3
# Si number density = 20.722569 Si / 1000 Ang^3
#
#
#
# Elastic Constant Matrix: (Units=GPa)
#
#
# Indices 1 2 3 4 5 6 
#
# 1 133.4060 54.9242 65.1727 0.0000 -9.4729 0.0000
# 2 54.9242 111.3674 34.2196 0.0000 -3.3845 0.0000
# 3 65.1727 34.2196 83.0570 0.0000 -8.4141 0.0000
# 4 0.0000 0.0000 0.0000 32.6528 0.0000 12.0762
# 5 -9.4729 -3.3845 -8.4141 0.0000 41.1143 0.0000
# 6 0.0000 0.0000 0.0000 12.0762 0.0000 27.8200
#
#
#
# Elastic Compliance Matrix: (Units=1/GPa)
#
#
# Indices 1 2 3 4 5 6 
#
# 1 0.013521 -0.003903 -0.008903 0.000000 0.000972 0.000000
# 2 -0.003903 0.011408 -0.001668 0.000000 -0.000302 0.000000
# 3 -0.008903 -0.001668 0.019904 0.000000 0.001885 0.000000
# 4 0.000000 0.000000 0.000000 0.036482 0.000000 -0.015836
# 5 0.000972 -0.000302 0.001885 0.000000 0.024907 0.000000
# 6 0.000000 0.000000 0.000000 -0.015836 0.000000 0.042820
#
#
# Mechanical properties :
#
#
# Convention : Reuss Voigt Hill
#
# Bulk Modulus (GPa) = 62.95395 70.71817 66.83606
# Shear Modulus (GPa) = 27.27984 31.88502 29.58243
#
# Velocity S-wave (km/s) = 3.63220 3.92683 3.78239
# Velocity P-wave (km/s) = 6.93079 7.40002 7.16925
#
# Compressibility (1/GPa) = 0.01588463
#
# Stress axis : x y z
#
# Youngs Moduli (GPa) = 73.95642 87.66116 50.24078
#
# Poissons Ratio (x) = 0.34217 0.44731
# Poissons Ratio (y) = 0.28867 0.08379
# Poissons Ratio (z) = 0.65846 0.14619
#
# Static dielectric constant tensor:
#      x y z
#    x 3.438190 0.000000 0.229700 
#    y 0.000000 3.954370 0.000000 
#    z 0.229700 0.000000 3.814100 
# 
# 
# High freq. dielectric constant tensor:
#      x y z
#    x 1.786910 0.000000 0.016820 
#    y 0.000000 1.827520 0.000000 
#    z 0.016820 0.000000 1.816150 
# 
# From -- ./inp_files/9049.got.cif
#   From: 2010.03.12/outbox.cif.g09.slc.cpg/sg5_5_cif.got.tgz:9049.got - 2010.03.31 09:47:26.
