data_PCOD8050816
_publ_section_title
;
Structure prediction by ZEFSAII (Michael W. Deem and Ramdas Pophale) SiO2 
 PCOD8050816
Probable space group: C 2
;
_chemical_formula_sum "Si O2"
_cell_formula_units_Z 32
_cell_length_a 11.568165
_cell_length_b 8.938668
_cell_length_c 14.285021
_cell_angle_alpha 90.000000
_cell_angle_beta 95.588807
_cell_angle_gamma 90.000000
_cell_volume 1470.106505
_symmetry_space_group_name_H-M "C 2"
_symmetry_group_IT_number 5
_symmetry_cell_setting 'monoclinic'
loop_
_space_group_symop_operation_xyz
x,y,z
-x,y,-z
1/2+x,1/2+y,z
1/2-x,1/2+y,-z
loop_
_atom_site_type_symbol
_atom_site_label
_atom_site_fract_x
_atom_site_fract_y
_atom_site_fract_z
Si Si1 0.483659 0.428570 0.895216
Si Si2 0.114422 0.013559 0.461238
Si Si3 0.768159 0.768272 0.402691
Si Si4 0.126075 0.510652 0.281464
Si Si5 0.279759 0.644117 0.921650
Si Si6 0.641202 0.042075 0.736560
Si Si7 0.848142 0.835629 0.710695
Si Si8 0.745228 0.477476 0.896908
O O1 0.404054 0.575213 0.903478
O O2 0.420145 0.323935 0.813987
O O3 0.607922 0.473211 0.862863
O O4 0.500000 0.351310 0.000000
O O5 0.158198 0.875964 0.526660
O O6 0.088239 0.950411 0.355105
O O7 0.000000 0.079390 0.500000
O O8 0.202677 0.151444 0.464535
O O9 0.676504 0.866796 0.337466
O O10 0.850840 0.675083 0.339335
O O11 0.154511 0.669230 0.334492
O O12 0.184900 0.534546 0.186034
O O13 0.989002 0.483415 0.264496
O O14 0.181690 0.609638 0.837766
O O15 0.297186 0.819568 0.932122
O O16 0.231226 0.589766 0.016682
O O17 0.718195 0.897795 0.715578
#
# Coordination Sequence:
#
# PCOD8050816 Si02
#       8
#     4   4   4   4   4   4   4   4
#     4   9  21  42  69  89 136 174 216 276 329 385
#     4  11  25  44  73  98 131 176 218 279 332 400
#     4  11  25  46  66 101 133 170 226 272 337 397
#     4  12  25  40  68  99 131 181 218 272 336 394
#     4  10  22  44  61  97 134 176 225 277 326 390
#     4  10  23  46  65  95 143 169 219 282 324 401
#     4  10  23  43  68 101 130 177 221 270 339 395
#     4  11  24  39  66  96 132 179 226 271 331 394
#
# _framework density 21.767129000000001
#
# number of rings (size 3 to 8) (size 9 to 14) (size 15 to 20)
#    0.000    1.500    1.250    2.250    7.000    4.500 
#    4.500    0.625    0.000    0.000    0.000    0.000 
#    0.000    0.000    0.000    0.000    0.000    0.000 
#
# Total GULP energy -198410.067992 kJ/mol
# GULP energy per Si atom -12400.629249 kJ/mol
# Density = 2.171759 g / cm^3
# Si number density = 21.767129 Si / 1000 Ang^3
#
#
#
# Elastic Constant Matrix: (Units=GPa)
#
#
# Indices 1 2 3 4 5 6 
#
# 1 124.8687 18.0216 47.2691 0.0000 -15.6157 0.0000
# 2 18.0216 66.2448 3.4548 0.0000 7.1111 0.0000
# 3 47.2691 3.4548 87.3041 0.0000 -0.1314 0.0000
# 4 0.0000 0.0000 0.0000 31.7398 0.0000 2.2560
# 5 -15.6157 7.1111 -0.1314 0.0000 28.8639 0.0000
# 6 0.0000 0.0000 0.0000 2.2560 0.0000 20.4171
#
#
#
# Elastic Compliance Matrix: (Units=1/GPa)
#
#
# Indices 1 2 3 4 5 6 
#
# 1 0.011807 -0.003666 -0.006236 0.000000 0.007262 0.000000
# 2 -0.003666 0.016678 0.001316 0.000000 -0.006086 0.000000
# 3 -0.006236 0.001316 0.014773 0.000000 -0.003631 0.000000
# 4 0.000000 0.000000 0.000000 0.031756 0.000000 -0.003509
# 5 0.007262 -0.006086 -0.003631 0.000000 0.040057 0.000000
# 6 0.000000 0.000000 0.000000 -0.003509 0.000000 0.049366
#
#
# Mechanical properties :
#
#
# Convention : Reuss Voigt Hill
#
# Bulk Modulus (GPa) = 38.33785 46.21208 42.27496
# Shear Modulus (GPa) = 26.27363 30.18229 28.22796
#
# Velocity S-wave (km/s) = 3.47801 3.72775 3.60504
# Velocity P-wave (km/s) = 5.81203 6.30908 6.06565
#
# Compressibility (1/GPa) = 0.02608388
#
# Stress axis : x y z
#
# Youngs Moduli (GPa) = 84.69876 59.96058 67.68984
#
# Poissons Ratio (x) = 0.21983 0.42214
# Poissons Ratio (y) = 0.31053 -0.08907
# Poissons Ratio (z) = 0.52822 -0.07890
#
# Static dielectric constant tensor:
#      x y z
#    x 3.899230 0.000000 -0.101910 
#    y 0.000000 3.919750 0.000000 
#    z -0.101910 0.000000 4.131280 
# 
# 
# High freq. dielectric constant tensor:
#      x y z
#    x 1.854530 0.000000 -0.008350 
#    y 0.000000 1.857570 0.000000 
#    z -0.008350 0.000000 1.863580 
# 
# From -- ./inp_files/52466.got.cif
#   From: 2010.03.12/outbox.cif.g09.slc.cpg/sg5_27_cif.got.tgz:52466.got - 2010.03.31 09:47:26.
