data_PCOD8050150
_publ_section_title
;
Structure prediction by ZEFSAII (Michael W. Deem and Ramdas Pophale) SiO2 
 PCOD8050150
Probable space group: C 2
;
_chemical_formula_sum "Si O2"
_cell_formula_units_Z 32
_cell_length_a 15.030726
_cell_length_b 9.027327
_cell_length_c 23.733374
_cell_angle_alpha 90.000000
_cell_angle_beta 28.516284
_cell_angle_gamma 90.000000
_cell_volume 1537.406705
_symmetry_space_group_name_H-M "C 2"
_symmetry_group_IT_number 5
_symmetry_cell_setting 'monoclinic'
loop_
_space_group_symop_operation_xyz
x,y,z
-x,y,-z
1/2+x,1/2+y,z
1/2-x,1/2+y,-z
loop_
_atom_site_type_symbol
_atom_site_label
_atom_site_fract_x
_atom_site_fract_y
_atom_site_fract_z
Si Si1 0.380710 0.479130 0.696287
Si Si2 0.907011 0.721974 0.108280
Si Si3 0.652031 0.598421 0.460824
Si Si4 0.022933 0.757458 0.261034
Si Si5 0.661917 0.345558 0.063998
Si Si6 0.302028 0.307899 0.629658
Si Si7 0.502526 0.656517 0.144968
Si Si8 0.321843 0.541068 0.137302
O O1 0.214975 0.594671 0.796682
O O2 0.559316 0.566796 0.572992
O O3 0.429789 0.400495 0.727793
O O4 0.316009 0.359072 0.686759
O O5 0.064325 0.779118 0.063359
O O6 0.782694 0.865209 0.161024
O O7 0.000000 0.656472 0.000000
O O8 0.500000 0.656833 0.500000
O O9 0.741899 0.446883 0.386322
O O10 0.804205 0.723412 0.387382
O O11 0.064037 0.783247 0.173313
O O12 0.137088 0.613471 0.215630
O O13 0.648508 0.523838 0.074908
O O14 0.879450 0.300567 0.939986
O O15 0.500000 0.234404 0.500000
O O16 0.126194 0.194407 0.728066
O O17 0.356110 0.607484 0.179510
O O18 0.500000 0.579457 0.000000
#
# Coordination Sequence:
#
# PCOD8050150 Si02
#       8
#     4   4   4   4   4   4   4   4
#     4  10  22  41  66  95 122 164 224 265 319 385
#     4  10  24  42  64  93 133 170 208 266 327 391
#     4   9  22  43  66  89 127 174 215 270 326 388
#     4  12  23  41  68  96 127 170 216 265 326 389
#     4  11  26  39  63 102 131 174 211 267 335 380
#     4   9  20  42  67  88 124 178 216 267 324 381
#     4  11  23  40  64  96 136 164 222 270 319 396
#     4  10  21  41  62  94 132 164 204 263 328 383
#
# _framework density 20.814271000000002
#
# number of rings (size 3 to 8) (size 9 to 14) (size 15 to 20)
#    0.000    2.000    2.500    1.500    5.250    1.500 
#    4.500    3.125    0.000    0.000    0.000    0.000 
#    0.000    0.000    0.000    0.000    0.000    0.000 
#
# Total GULP energy -198381.548603 kJ/mol
# GULP energy per Si atom -12398.846788 kJ/mol
# Density = 2.076690 g / cm^3
# Si number density = 20.814271 Si / 1000 Ang^3
#
#
#
# Elastic Constant Matrix: (Units=GPa)
#
#
# Indices 1 2 3 4 5 6 
#
# 1 53.3227 12.9795 15.6150 0.0003 7.8726 0.0001
# 2 12.9795 75.8298 52.6059 -0.0013 -8.6100 0.0001
# 3 15.6150 52.6059 129.7355 -0.0047 7.5304 0.0003
# 4 0.0003 -0.0013 -0.0047 27.8646 -0.0005 2.7292
# 5 7.8726 -8.6100 7.5304 -0.0005 32.9815 0.0000
# 6 0.0001 0.0001 0.0003 2.7292 0.0000 26.5654
#
#
#
# Elastic Compliance Matrix: (Units=1/GPa)
#
#
# Indices 1 2 3 4 5 6 
#
# 1 0.020708 -0.003763 -0.000631 -0.000001 -0.005781 0.000000
# 2 -0.003763 0.020557 -0.008357 0.000000 0.008173 0.000000
# 3 -0.000631 -0.008357 0.011442 0.000002 -0.004644 0.000000
# 4 -0.000001 0.000000 0.000002 0.036253 0.000000 -0.003724
# 5 -0.005781 0.008173 -0.004644 0.000000 0.034894 0.000000
# 6 0.000000 0.000000 0.000000 -0.003724 0.000000 0.038026
#
#
# Mechanical properties :
#
#
# Convention : Reuss Voigt Hill
#
# Bulk Modulus (GPa) = 36.75812 46.80987 41.78400
# Shear Modulus (GPa) = 25.45174 29.32814 27.38994
#
# Velocity S-wave (km/s) = 3.50065 3.75779 3.63150
# Velocity P-wave (km/s) = 5.83419 6.43165 6.14019
#
# Compressibility (1/GPa) = 0.02720487
#
# Stress axis : x y z
#
# Youngs Moduli (GPa) = 48.29025 48.64485 87.39628
#
# Poissons Ratio (x) = 0.18306 0.05514
# Poissons Ratio (y) = 0.18173 0.73038
# Poissons Ratio (z) = 0.03047 0.40653
#
# Static dielectric constant tensor:
#      x y z
#    x 3.721390 0.000000 0.126720 
#    y 0.000000 3.761030 0.000000 
#    z 0.126720 0.000000 3.861890 
# 
# 
# High freq. dielectric constant tensor:
#      x y z
#    x 1.809350 0.000000 0.010320 
#    y 0.000000 1.806370 0.000000 
#    z 0.010320 0.000000 1.820560 
# 
# From -- ./inp_files/68747.got.cif
#   From: 2010.03.12/outbox.cif.g09.slc.cpg/sg5_35_cif.got.tgz:68747.got - 2010.03.31 09:47:26.
