data_PCOD8050287
_publ_section_title
;
Structure prediction by ZEFSAII (Michael W. Deem and Ramdas Pophale) SiO2 
 PCOD8050287
Probable space group: C 2
;
_chemical_formula_sum "Si O2"
_cell_formula_units_Z 24
_cell_length_a 8.843009
_cell_length_b 8.576418
_cell_length_c 13.932472
_cell_angle_alpha 90.000000
_cell_angle_beta 83.796877
_cell_angle_gamma 90.000000
_cell_volume 1050.470719
_symmetry_space_group_name_H-M "C 2"
_symmetry_group_IT_number 5
_symmetry_cell_setting 'monoclinic'
loop_
_space_group_symop_operation_xyz
x,y,z
-x,y,-z
1/2+x,1/2+y,z
1/2-x,1/2+y,-z
loop_
_atom_site_type_symbol
_atom_site_label
_atom_site_fract_x
_atom_site_fract_y
_atom_site_fract_z
Si Si1 0.886590 0.790950 0.215630
Si Si2 0.672859 0.448615 0.970967
Si Si3 0.174788 0.798646 0.462280
Si Si4 0.134904 0.127645 0.695424
Si Si5 0.185498 0.139688 0.374644
Si Si6 0.279085 0.239596 0.863603
O O1 0.828045 0.814274 0.110798
O O2 0.792982 0.652442 0.273132
O O3 0.063146 0.746578 0.204575
O O4 0.862647 0.945840 0.280520
O O5 0.780303 0.588352 0.931361
O O6 0.500000 0.506677 0.000000
O O7 0.744052 0.387493 0.065790
O O8 0.220559 0.670257 0.380027
O O9 0.273503 0.772690 0.551293
O O10 0.000000 0.774263 0.500000
O O11 0.206990 0.970651 0.419936
O O12 0.144203 0.226569 0.794395
O O13 0.985538 0.172749 0.646892
#
# Coordination Sequence:
#
# PCOD8050287 Si02
#       6
#     4   4   4   4   4   4
#     4  10  23  45  66  94 134 171 213 265 317 379
#     4   9  21  40  65  98 133 169 215 266 315 373
#     4  12  26  44  67  95 130 168 214 268 322 384
#     4  11  24  44  68  95 130 170 214 267 320 378
#     4  12  25  44  67  96 130 167 214 268 323 382
#     4  10  21  43  69  94 132 173 212 264 319 376
#
# _framework density 22.846900999999999
#
# number of rings (size 3 to 8) (size 9 to 14) (size 15 to 20)
#    0.000    1.333    0.000    5.500    0.000   10.667 
#    0.000   13.333    0.000    0.000    0.000    0.000 
#    0.000    0.000    0.000    0.000    0.000    0.000 
#
# Total GULP energy -148821.415281 kJ/mol
# GULP energy per Si atom -12401.784607 kJ/mol
# Density = 2.279490 g / cm^3
# Si number density = 22.846901 Si / 1000 Ang^3
#
#
#
# Elastic Constant Matrix: (Units=GPa)
#
#
# Indices 1 2 3 4 5 6 
#
# 1 98.7643 65.4107 64.2227 0.0000 -0.9950 0.0000
# 2 65.4107 91.5328 56.4244 0.0000 -16.5073 0.0000
# 3 64.2227 56.4244 134.6734 0.0000 -16.0896 0.0000
# 4 0.0000 0.0000 0.0000 57.9034 0.0000 -11.2012
# 5 -0.9950 -16.5073 -16.0896 0.0000 44.3761 0.0000
# 6 0.0000 0.0000 0.0000 -11.2012 0.0000 30.6740
#
#
#
# Elastic Compliance Matrix: (Units=1/GPa)
#
#
# Indices 1 2 3 4 5 6 
#
# 1 0.023438 -0.014295 -0.006021 0.000000 -0.006975 0.000000
# 2 -0.014295 0.023952 -0.002291 0.000000 0.007759 0.000000
# 3 -0.006021 -0.002291 0.011643 0.000000 0.003234 0.000000
# 4 0.000000 0.000000 0.000000 0.018583 0.000000 0.006786
# 5 -0.006975 0.007759 0.003234 0.000000 0.026437 0.000000
# 6 0.000000 0.000000 0.000000 0.006786 0.000000 0.035079
#
#
# Mechanical properties :
#
#
# Convention : Reuss Voigt Hill
#
# Bulk Modulus (GPa) = 72.36958 77.45402 74.91180
# Shear Modulus (GPa) = 26.46162 35.85153 31.15658
#
# Velocity S-wave (km/s) = 3.40695 3.96562 3.69685
# Velocity P-wave (km/s) = 6.87176 7.41236 7.14717
#
# Compressibility (1/GPa) = 0.01381796
#
# Stress axis : x y z
#
# Youngs Moduli (GPa) = 42.66640 41.74942 85.88871
#
# Poissons Ratio (x) = 0.59682 0.51712
# Poissons Ratio (y) = 0.60993 0.19680
# Poissons Ratio (z) = 0.25689 0.09566
#
# Static dielectric constant tensor:
#      x y z
#    x 3.967970 0.000000 0.011490 
#    y 0.000000 3.945880 0.000000 
#    z 0.011490 0.000000 4.619740 
# 
# 
# High freq. dielectric constant tensor:
#      x y z
#    x 1.889090 0.000000 0.001510 
#    y 0.000000 1.888440 0.000000 
#    z 0.001510 0.000000 1.936890 
# 
# From -- ./inp_files/49875.got.cif
#   From: 2010.03.12/outbox.cif.g09.slc.cpg/sg5_25_cif.got.tgz:49875.got - 2010.03.31 09:47:26.
