data_PCOD8050933
_publ_section_title
;
Structure prediction by ZEFSAII (Michael W. Deem and Ramdas Pophale) SiO2 
 PCOD8050933
Probable space group: C 2
;
_chemical_formula_sum "Si O2"
_cell_formula_units_Z 26
_cell_length_a 12.375537
_cell_length_b 7.492845
_cell_length_c 25.921701
_cell_angle_alpha 90.000000
_cell_angle_beta 29.631037
_cell_angle_gamma 90.000000
_cell_volume 1188.403719
_symmetry_space_group_name_H-M "C 2"
_symmetry_group_IT_number 5
_symmetry_cell_setting 'monoclinic'
loop_
_space_group_symop_operation_xyz
x,y,z
-x,y,-z
1/2+x,1/2+y,z
1/2-x,1/2+y,-z
loop_
_atom_site_type_symbol
_atom_site_label
_atom_site_fract_x
_atom_site_fract_y
_atom_site_fract_z
Si Si1 0.618686 0.855810 0.304178
Si Si2 0.886387 0.242597 0.835903
Si Si3 0.642986 0.497294 0.239268
Si Si4 0.789108 0.323391 0.618394
Si Si5 0.500000 0.517065 0.000000
Si Si6 0.920334 0.154410 0.139480
Si Si7 0.748124 0.413469 0.385903
O O1 0.657523 0.646500 0.277709
O O2 0.674935 0.900317 0.339399
O O3 0.370535 0.904986 0.390618
O O4 0.773677 0.977756 0.204589
O O5 0.722483 0.407098 0.903800
O O6 0.909584 0.166289 0.884025
O O7 0.118117 0.293443 0.711444
O O8 0.777488 0.083147 0.847838
O O9 0.400448 0.424369 0.332587
O O10 0.790137 0.337245 0.197082
O O11 0.000000 0.376987 0.500000
O O12 0.750930 0.112597 0.636501
O O13 0.466066 0.641144 0.963578
O O14 0.500000 0.345613 0.500000
#
# Coordination Sequence:
#
# PCOD8050933 Si02
#       7
#     4   4   4   4   2   4   4
#     4  11  23  44  68  96 142 180 228 287 339 411
#     4  11  25  46  72 103 140 180 232 287 347 412
#     4  11  23  43  70  98 136 180 227 283 343 413
#     4  11  23  39  67 102 138 186 235 276 343 411
#     4  12  26  48  70 106 136 180 240 286 344 418
#     4  12  25  46  72  98 139 180 227 292 347 403
#     4  10  22  46  70 104 146 180 229 288 338 414
#
# _framework density 21.878088000000002
#
# number of rings (size 3 to 8) (size 9 to 14) (size 15 to 20)
#    0.000    0.923    6.154    0.923    0.000    9.231 
#    2.769    0.000    0.000    0.000    0.000    0.000 
#    0.000    0.000    0.000    0.000    0.000    0.000 
#
# Total GULP energy -161172.818448 kJ/mol
# GULP energy per Si atom -12397.909111 kJ/mol
# Density = 2.182829 g / cm^3
# Si number density = 21.878088 Si / 1000 Ang^3
#
#
#
# Elastic Constant Matrix: (Units=GPa)
#
#
# Indices 1 2 3 4 5 6 
#
# 1 87.4021 13.8575 21.5775 0.0064 11.9398 0.0000
# 2 13.8575 67.8051 16.6243 0.0066 2.2031 0.0035
# 3 21.5775 16.6243 75.0709 0.0001 7.6983 -0.0008
# 4 0.0064 0.0066 0.0001 27.8152 0.0009 6.0555
# 5 11.9398 2.2031 7.6983 0.0009 34.2271 -0.0003
# 6 0.0000 0.0035 -0.0008 6.0555 -0.0003 34.3859
#
#
#
# Elastic Compliance Matrix: (Units=1/GPa)
#
#
# Indices 1 2 3 4 5 6 
#
# 1 0.012966 -0.001807 -0.002943 -0.000003 -0.003745 0.000001
# 2 -0.001807 0.015848 -0.003020 -0.000003 0.000289 -0.000001
# 3 -0.002943 -0.003020 0.015057 0.000001 -0.002166 0.000000
# 4 -0.000003 -0.000003 0.000001 0.037385 0.000000 -0.006584
# 5 -0.003745 0.000289 -0.002166 0.000000 0.030991 0.000000
# 6 0.000001 -0.000001 0.000000 -0.006584 0.000000 0.030241
#
#
# Mechanical properties :
#
#
# Convention : Reuss Voigt Hill
#
# Bulk Modulus (GPa) = 35.29448 37.15517 36.22483
# Shear Modulus (GPa) = 29.85570 31.16688 30.51129
#
# Velocity S-wave (km/s) = 3.69811 3.77844 3.73849
# Velocity P-wave (km/s) = 5.86533 6.00460 5.93537
#
# Compressibility (1/GPa) = 0.02833304
#
# Stress axis : x y z
#
# Youngs Moduli (GPa) = 77.12556 63.09777 66.41255
#
# Poissons Ratio (x) = 0.11400 0.19543
# Poissons Ratio (y) = 0.13934 0.20056
# Poissons Ratio (z) = 0.22695 0.19055
#
# Static dielectric constant tensor:
#      x y z
#    x 4.100750 -0.000010 0.056340 
#    y -0.000010 4.081200 0.000000 
#    z 0.056340 0.000000 3.784550 
# 
# 
# High freq. dielectric constant tensor:
#      x y z
#    x 1.876040 0.000000 0.000630 
#    y 0.000000 1.872630 0.000000 
#    z 0.000630 0.000000 1.840700 
# 
# From -- ./inp_files/70313.got.cif
#   From: 2010.03.12/outbox.cif.g09.slc.cpg/sg5_36_cif.got.tgz:70313.got - 2010.03.31 09:47:26.
