data_PCOD8050506
_publ_section_title
;
Structure prediction by ZEFSAII (Michael W. Deem and Ramdas Pophale) SiO2 
 PCOD8050506
Probable space group: C 2
;
_chemical_formula_sum "Si O2"
_cell_formula_units_Z 26
_cell_length_a 10.623507
_cell_length_b 8.489721
_cell_length_c 12.788635
_cell_angle_alpha 90.000000
_cell_angle_beta 101.325913
_cell_angle_gamma 90.000000
_cell_volume 1130.953127
_symmetry_space_group_name_H-M "C 2"
_symmetry_group_IT_number 5
_symmetry_cell_setting 'monoclinic'
loop_
_space_group_symop_operation_xyz
x,y,z
-x,y,-z
1/2+x,1/2+y,z
1/2-x,1/2+y,-z
loop_
_atom_site_type_symbol
_atom_site_label
_atom_site_fract_x
_atom_site_fract_y
_atom_site_fract_z
Si Si1 0.129262 0.686870 0.466658
Si Si2 0.589171 0.516529 0.200691
Si Si3 0.603145 0.549380 0.436578
Si Si4 0.676315 0.137822 0.867550
Si Si5 0.396256 0.151792 0.777721
Si Si6 0.500000 0.705074 0.000000
Si Si7 0.728235 0.946337 0.075261
O O1 0.259690 0.634452 0.543864
O O2 0.134925 0.629664 0.348331
O O3 0.000000 0.616583 0.500000
O O4 0.127531 0.873044 0.477667
O O5 0.541554 0.553223 0.310439
O O6 0.729444 0.599348 0.212836
O O7 0.609633 0.331262 0.185489
O O8 0.487918 0.592199 0.101418
O O9 0.500000 0.628432 0.500000
O O10 0.534703 0.071983 0.824306
O O11 0.653557 0.328087 0.879707
O O12 0.746581 0.057472 0.978624
O O13 0.294867 0.052344 0.827123
O O14 0.620381 0.817033 0.032719
#
# Coordination Sequence:
#
# PCOD8050506 Si02
#       7
#     4   4   4   4   4   2   4
#     4  10  23  44  70  98 131 175 226 280 343 396
#     4  10  24  41  63  95 131 172 218 273 333 396
#     4  10  23  46  67  99 133 173 227 282 337 403
#     4  11  23  40  61  92 131 173 215 273 325 401
#     4  11  23  41  65  94 132 173 220 277 331 402
#     4  10  22  40  62  94 132 172 214 270 328 396
#     4  11  23  39  62  94 131 170 222 263 333 399
#
# _framework density 22.989459
#
# number of rings (size 3 to 8) (size 9 to 14) (size 15 to 20)
#    0.000    1.538    1.538    1.846    6.462    6.769 
#    5.538    0.000    0.000    0.000    0.000    0.000 
#    0.000    0.000    0.000    0.000    0.000    0.000 
#
# Total GULP energy -161191.167755 kJ/mol
# GULP energy per Si atom -12399.320597 kJ/mol
# Density = 2.293713 g / cm^3
# Si number density = 22.989459 Si / 1000 Ang^3
#
#
#
# Elastic Constant Matrix: (Units=GPa)
#
#
# Indices 1 2 3 4 5 6 
#
# 1 63.6155 7.7529 26.2115 0.0000 -2.5117 0.0000
# 2 7.7529 91.9938 54.1350 0.0000 -7.8719 0.0000
# 3 26.2115 54.1350 120.9162 0.0000 -8.8424 0.0000
# 4 0.0000 0.0000 0.0000 36.7823 0.0000 -2.7441
# 5 -2.5117 -7.8719 -8.8424 0.0000 38.3743 0.0000
# 6 0.0000 0.0000 0.0000 -2.7441 0.0000 25.5334
#
#
#
# Elastic Compliance Matrix: (Units=1/GPa)
#
#
# Indices 1 2 3 4 5 6 
#
# 1 0.017337 0.001041 -0.004196 0.000000 0.000381 0.000000
# 2 0.001041 0.014910 -0.006787 0.000000 0.001563 0.000000
# 3 -0.004196 -0.006787 0.012304 0.000000 0.001168 0.000000
# 4 0.000000 0.000000 0.000000 0.027407 0.000000 0.002945
# 5 0.000381 0.001563 0.001168 0.000000 0.026674 0.000000
# 6 0.000000 0.000000 0.000000 0.002945 0.000000 0.039481
#
#
# Mechanical properties :
#
#
# Convention : Reuss Voigt Hill
#
# Bulk Modulus (GPa) = 40.54116 50.30272 45.42194
# Shear Modulus (GPa) = 30.08097 32.69973 31.39035
#
# Velocity S-wave (km/s) = 3.62120 3.77554 3.69917
# Velocity P-wave (km/s) = 5.92934 6.39801 6.16813
#
# Compressibility (1/GPa) = 0.02466629
#
# Stress axis : x y z
#
# Youngs Moduli (GPa) = 57.68135 67.06894 81.27630
#
# Poissons Ratio (x) = -0.06981 0.34106
# Poissons Ratio (y) = -0.06004 0.55160
# Poissons Ratio (z) = 0.24205 0.45518
#
# Static dielectric constant tensor:
#      x y z
#    x 4.346810 0.000000 0.020270 
#    y 0.000000 4.233740 0.000000 
#    z 0.020270 0.000000 4.159500 
# 
# 
# High freq. dielectric constant tensor:
#      x y z
#    x 1.915360 0.000000 -0.001620 
#    y 0.000000 1.911740 0.000000 
#    z -0.001620 0.000000 1.907910 
# 
# From -- ./inp_files/38375.got.cif
#   From: 2010.03.12/outbox.cif.g09.slc.cpg/sg5_20_cif.got.tgz:38375.got - 2010.03.31 09:47:26.
