data_PCOD8050611
_publ_section_title
;
Structure prediction by ZEFSAII (Michael W. Deem and Ramdas Pophale) SiO2 
 PCOD8050611
Probable space group: C 2
;
_chemical_formula_sum "Si O2"
_cell_formula_units_Z 14
_cell_length_a 4.906447
_cell_length_b 17.233367
_cell_length_c 6.169140
_cell_angle_alpha 90.000000
_cell_angle_beta 107.874571
_cell_angle_gamma 90.000000
_cell_volume 496.450512
_symmetry_space_group_name_H-M "C 2"
_symmetry_group_IT_number 5
_symmetry_cell_setting 'monoclinic'
loop_
_space_group_symop_operation_xyz
x,y,z
-x,y,-z
1/2+x,1/2+y,z
1/2-x,1/2+y,-z
loop_
_atom_site_type_symbol
_atom_site_label
_atom_site_fract_x
_atom_site_fract_y
_atom_site_fract_z
Si Si1 0.500000 0.472190 0.500000
Si Si2 0.595322 0.244725 0.269347
Si Si3 0.089374 0.342759 0.269413
Si Si4 0.310385 0.597766 0.152686
O O1 0.216972 0.420201 0.405250
O O2 0.505591 0.527326 0.290160
O O3 0.308595 0.266490 0.340784
O O4 0.748528 0.160977 0.333118
O O5 0.807212 0.319395 0.339253
O O6 0.500000 0.239564 0.000000
O O7 0.000000 0.357827 0.000000
O O8 0.500000 0.633671 0.000000
O O9 0.000000 0.566224 0.000000
#
# Coordination Sequence:
#
# PCOD8050611 Si02
#       4
#     2   4   4   4
#     4  12  28  42  68 102 142 180 212 272 348 406
#     4   9  19  42  69  91 125 172 223 275 319 377
#     4  10  22  41  66  96 129 170 221 273 325 387
#     4  11  25  46  69  98 135 177 225 276 331 397
#
# _framework density 28.200195999999998
#
# number of rings (size 3 to 8) (size 9 to 14) (size 15 to 20)
#    0.000    1.714    0.000    5.143    0.000   12.571 
#    0.000    0.000    0.000    0.000    0.000    0.000 
#    0.000    0.000    0.000    0.000    0.000    0.000 
#
# Total GULP energy -86756.585909 kJ/mol
# GULP energy per Si atom -12393.797987 kJ/mol
# Density = 2.813601 g / cm^3
# Si number density = 28.200196 Si / 1000 Ang^3
#
#
#
# Elastic Constant Matrix: (Units=GPa)
#
#
# Indices 1 2 3 4 5 6 
#
# 1 203.9437 60.0790 34.9986 0.0000 -24.5445 0.0000
# 2 60.0790 190.0209 65.8249 0.0000 -1.1777 0.0000
# 3 34.9986 65.8249 140.6563 0.0000 11.6911 0.0000
# 4 0.0000 0.0000 0.0000 35.2173 0.0000 29.0921
# 5 -24.5445 -1.1777 11.6911 0.0000 45.2351 0.0000
# 6 0.0000 0.0000 0.0000 29.0921 0.0000 22.4615
#
#
#
# Elastic Compliance Matrix: (Units=1/GPa)
#
#
# Indices 1 2 3 4 5 6 
#
# 1 0.005941 -0.001486 -0.001071 0.000000 0.003462 0.000000
# 2 -0.001486 0.006692 -0.002769 0.000000 0.000083 0.000000
# 3 -0.001071 -0.002769 0.008918 0.000000 -0.002958 0.000000
# 4 0.000000 0.000000 0.000000 -0.406044 0.000000 0.525908
# 5 0.003462 0.000083 -0.002958 0.000000 0.024752 0.000000
# 6 0.000000 0.000000 0.000000 0.525908 0.000000 -0.636635
#
#
# Mechanical properties :
#
#
# Convention : Reuss Voigt Hill
#
# Bulk Modulus (GPa) = 91.74553 95.15843 93.45198
# Shear Modulus (GPa) = -5.09118 45.49732 20.20307
#
# Velocity S-wave (km/s) = -1.34510 4.02103 2.67950
# Velocity P-wave (km/s) = 5.49471 7.44147 6.54092
#
# Compressibility (1/GPa) = 0.01089971
#
# Stress axis : x y z
#
# Youngs Moduli (GPa) = 168.30817 149.42806 112.13777
#
# Poissons Ratio (x) = 0.22208 0.12006
# Poissons Ratio (y) = 0.25014 0.31051
# Poissons Ratio (z) = 0.18019 0.41376
#
# Static dielectric constant tensor:
#      x y z
#    x 7.580410 0.000000 -1.549870 
#    y 0.000000 5.384630 0.000000 
#    z -1.549870 0.000000 7.462120 
# 
# 
# High freq. dielectric constant tensor:
#      x y z
#    x 2.142140 0.000000 -0.000940 
#    y 0.000000 2.128060 0.000000 
#    z -0.000940 0.000000 2.212560 
# 
# From -- ./inp_files/11649.got.cif
#   From: 2010.03.12/outbox.cif.g09.slc.cpg/sg5_6_cif.got.tgz:11649.got - 2010.03.31 09:47:26.
