data_PCOD8050724
_publ_section_title
;
Structure prediction by ZEFSAII (Michael W. Deem and Ramdas Pophale) SiO2 
 PCOD8050724
Probable space group: C 2
;
_chemical_formula_sum "Si O2"
_cell_formula_units_Z 32
_cell_length_a 18.234397
_cell_length_b 14.252915
_cell_length_c 12.028331
_cell_angle_alpha 90.000000
_cell_angle_beta 27.141711
_cell_angle_gamma 90.000000
_cell_volume 1426.096625
_symmetry_space_group_name_H-M "C 2"
_symmetry_group_IT_number 5
_symmetry_cell_setting 'monoclinic'
loop_
_space_group_symop_operation_xyz
x,y,z
-x,y,-z
1/2+x,1/2+y,z
1/2-x,1/2+y,-z
loop_
_atom_site_type_symbol
_atom_site_label
_atom_site_fract_x
_atom_site_fract_y
_atom_site_fract_z
Si Si1 0.302143 0.375000 0.488808
Si Si2 0.137416 0.559103 0.726659
Si Si3 0.728596 0.020612 0.138631
Si Si4 0.663445 0.734720 0.826049
Si Si5 0.374042 0.701276 0.875981
Si Si6 0.272079 0.757144 0.619454
Si Si7 0.835167 0.818468 0.997702
Si Si8 0.904023 0.578063 0.467812
O O1 0.287989 0.487110 0.525693
O O2 0.178111 0.334291 0.746125
O O3 0.243416 0.342542 0.445925
O O4 0.480778 0.340864 0.273723
O O5 0.194894 0.664552 0.670076
O O6 0.068915 0.545521 0.694567
O O7 0.000000 0.531809 0.000000
O O8 0.574927 0.073052 0.296224
O O9 0.719916 0.019008 0.286022
O O10 0.739887 0.912455 0.088856
O O11 0.872549 0.088156 0.900089
O O12 0.825765 0.680916 0.571655
O O13 0.500000 0.684798 0.000000
O O14 0.654119 0.752722 0.969278
O O15 0.543830 0.734019 0.596686
O O16 0.231442 0.732782 0.985573
O O17 0.180257 0.788574 0.853642
#
# Coordination Sequence:
#
# PCOD8050724 Si02
#       8
#     4   4   4   4   4   4   4   4
#     4  12  25  44  70 102 142 185 241 287 353 429
#     4  12  26  42  73 105 144 186 240 297 362 413
#     4  10  24  43  71 101 140 190 240 290 355 422
#     4  11  21  43  70 100 135 185 233 292 346 421
#     4  11  25  44  73 100 141 185 240 291 354 417
#     4  12  26  47  72 103 146 191 235 297 358 422
#     4  12  27  45  71 103 147 187 238 292 360 423
#     4  10  22  42  69 100 140 182 240 287 348 428
#
# _framework density 22.438873000000001
#
# number of rings (size 3 to 8) (size 9 to 14) (size 15 to 20)
#    0.000    0.750    2.500    4.125    7.000    2.500 
#    0.000    0.000    0.000    0.000    0.000    0.000 
#    0.000    0.000    0.000    0.000    0.000    0.000 
#
# Total GULP energy -198323.085122 kJ/mol
# GULP energy per Si atom -12395.192820 kJ/mol
# Density = 2.238780 g / cm^3
# Si number density = 22.438873 Si / 1000 Ang^3
#
#
#
# Elastic Constant Matrix: (Units=GPa)
#
#
# Indices 1 2 3 4 5 6 
#
# 1 104.9210 33.7815 31.1663 -0.0001 11.1511 0.0001
# 2 33.7815 104.7865 29.1670 -0.0002 7.6255 0.0001
# 3 31.1663 29.1670 95.5477 -0.0004 0.8705 0.0002
# 4 -0.0001 -0.0002 -0.0004 26.4399 0.0001 2.7632
# 5 11.1511 7.6255 0.8705 0.0001 42.1828 -0.0001
# 6 0.0001 0.0001 0.0002 2.7632 -0.0001 21.3490
#
#
#
# Elastic Compliance Matrix: (Units=1/GPa)
#
#
# Indices 1 2 3 4 5 6 
#
# 1 0.011539 -0.002729 -0.002908 0.000000 -0.002497 0.000000
# 2 -0.002729 0.011216 -0.002522 0.000000 -0.001254 0.000000
# 3 -0.002908 -0.002522 0.012176 0.000000 0.000973 0.000000
# 4 0.000000 0.000000 0.000000 0.038340 0.000000 -0.004962
# 5 -0.002497 -0.001254 0.000973 0.000000 0.024573 0.000000
# 6 0.000000 0.000000 0.000000 -0.004962 0.000000 0.047483
#
#
# Mechanical properties :
#
#
# Convention : Reuss Voigt Hill
#
# Bulk Modulus (GPa) = 53.72784 54.83165 54.27974
# Shear Modulus (GPa) = 29.78858 32.07035 30.92947
#
# Velocity S-wave (km/s) = 3.64750 3.78462 3.71669
# Velocity P-wave (km/s) = 6.46027 6.60203 6.53154
#
# Compressibility (1/GPa) = 0.01861232
#
# Stress axis : x y z
#
# Youngs Moduli (GPa) = 86.66437 89.15604 82.13103
#
# Poissons Ratio (x) = 0.24329 0.23884
# Poissons Ratio (y) = 0.23649 0.20717
# Poissons Ratio (z) = 0.25202 0.22489
#
# Static dielectric constant tensor:
#      x y z
#    x 3.966980 0.000000 0.114950 
#    y 0.000000 4.076620 0.000000 
#    z 0.114950 0.000000 4.150960 
# 
# 
# High freq. dielectric constant tensor:
#      x y z
#    x 1.884130 0.000000 0.004220 
#    y 0.000000 1.881500 0.000000 
#    z 0.004220 0.000000 1.893090 
# 
# From -- ./inp_files/44963.got.cif
#   From: 2010.03.12/outbox.cif.g09.slc.cpg/sg5_23_cif.got.tgz:44963.got - 2010.03.31 09:47:26.
