data_PCOD8050030
_publ_section_title
;
Structure prediction by ZEFSAII (Michael W. Deem and Ramdas Pophale) SiO2 
 PCOD8050030
Probable space group: C 2
;
_chemical_formula_sum "Si O2"
_cell_formula_units_Z 30
_cell_length_a 11.065860
_cell_length_b 16.807108
_cell_length_c 11.692905
_cell_angle_alpha 90.000000
_cell_angle_beta 39.496850
_cell_angle_gamma 90.000000
_cell_volume 1383.190962
_symmetry_space_group_name_H-M "C 2"
_symmetry_group_IT_number 5
_symmetry_cell_setting 'monoclinic'
loop_
_space_group_symop_operation_xyz
x,y,z
-x,y,-z
1/2+x,1/2+y,z
1/2-x,1/2+y,-z
loop_
_atom_site_type_symbol
_atom_site_label
_atom_site_fract_x
_atom_site_fract_y
_atom_site_fract_z
Si Si1 0.092319 0.946760 0.663830
Si Si2 0.640292 0.345500 0.999869
Si Si3 0.140171 0.690023 0.123021
Si Si4 0.500000 0.518980 0.500000
Si Si5 0.070810 0.393686 0.709697
Si Si6 0.406572 0.062346 0.190991
Si Si7 0.522947 0.601152 0.853633
Si Si8 0.686869 0.756062 0.788951
O O1 0.304093 0.908725 0.496787
O O2 0.936670 0.890446 0.833098
O O3 0.020381 0.958908 0.589140
O O4 0.104581 0.030783 0.718303
O O5 0.623283 0.251777 0.031428
O O6 0.500000 0.371629 0.000000
O O7 0.863061 0.365611 0.819059
O O8 0.144330 0.740352 0.240655
O O9 0.966564 0.628376 0.241183
O O10 0.320085 0.634444 0.963592
O O11 0.680960 0.574943 0.347419
O O12 0.042757 0.473886 0.802977
O O13 0.192093 0.330215 0.698450
O O14 0.500000 0.077548 0.000000
O O15 0.673125 0.673202 0.730141
O O16 0.500000 0.569875 0.000000
O O17 0.500000 0.768770 0.000000
#
# Coordination Sequence:
#
# PCOD8050030 Si02
#       8
#     4   4   4   2   4   4   4   4
#     4  11  25  41  68 103 136 180 242 287 351 429
#     4  12  25  43  67  98 146 184 232 294 360 429
#     4  10  21  39  69 105 134 185 232 288 362 414
#     4  10  24  42  64 100 140 176 236 298 336 420
#     4  11  23  44  71 102 138 192 239 294 358 420
#     4  11  22  39  69  99 137 190 238 287 358 428
#     4   9  18  40  71 100 136 178 227 292 352 413
#     4   9  18  39  75 100 133 186 236 291 349 418
#
# _framework density 21.688980000000001
#
# number of rings (size 3 to 8) (size 9 to 14) (size 15 to 20)
#    0.000    1.867    2.667    3.600    3.733    1.600 
#    4.800    2.667    5.867    0.000    0.000    0.000 
#    0.000    0.000    0.000    0.000    0.000    0.000 
#
# Total GULP energy -185869.723670 kJ/mol
# GULP energy per Si atom -12391.314911 kJ/mol
# Density = 2.163961 g / cm^3
# Si number density = 21.688980 Si / 1000 Ang^3
#
#
#
# Elastic Constant Matrix: (Units=GPa)
#
#
# Indices 1 2 3 4 5 6 
#
# 1 115.7862 47.4329 49.5865 0.0038 -12.8618 -0.0108
# 2 47.4329 136.3976 52.6780 0.0082 0.4801 -0.0277
# 3 49.5865 52.6780 103.4744 0.0170 -7.3273 -0.0220
# 4 0.0038 0.0082 0.0170 13.7887 -0.0079 6.2833
# 5 -12.8618 0.4801 -7.3273 -0.0079 36.1431 0.0137
# 6 -0.0108 -0.0277 -0.0220 6.2833 0.0137 25.7520
#
#
#
# Elastic Compliance Matrix: (Units=1/GPa)
#
#
# Indices 1 2 3 4 5 6 
#
# 1 0.011821 -0.002524 -0.004139 0.000008 0.003401 -0.000005
# 2 -0.002524 0.009706 -0.003860 -0.000005 -0.001810 0.000008
# 3 -0.004139 -0.003860 0.013709 -0.000017 0.001358 0.000009
# 4 0.000008 -0.000005 -0.000017 0.081595 0.000025 -0.019909
# 5 0.003401 -0.001810 0.001358 0.000025 0.029177 -0.000021
# 6 -0.000005 0.000008 0.000009 -0.019909 -0.000021 0.043690
#
#
# Mechanical properties :
#
#
# Convention : Reuss Voigt Hill
#
# Bulk Modulus (GPa) = 70.47183 72.78368 71.62776
# Shear Modulus (GPa) = 23.20456 28.86749 26.03602
#
# Velocity S-wave (km/s) = 3.27445 3.65221 3.46848
# Velocity P-wave (km/s) = 6.84533 7.17047 7.00978
#
# Compressibility (1/GPa) = 0.01419007
#
# Stress axis : x y z
#
# Youngs Moduli (GPa) = 84.59500 103.02401 72.94554
#
# Poissons Ratio (x) = 0.26007 0.30191
# Poissons Ratio (y) = 0.21355 0.28157
# Poissons Ratio (z) = 0.35013 0.39767
#
# Static dielectric constant tensor:
#      x y z
#    x 4.081320 0.000010 -0.111670 
#    y 0.000010 4.065890 -0.000010 
#    z -0.111670 -0.000010 3.867150 
# 
# 
# High freq. dielectric constant tensor:
#      x y z
#    x 1.853510 0.000000 -0.003720 
#    y 0.000000 1.862220 0.000000 
#    z -0.003720 0.000000 1.832800 
# 
# From -- ./inp_files/40462.got.cif
#   From: 2010.03.12/outbox.cif.g09.slc.cpg/sg5_21_cif.got.tgz:40462.got - 2010.03.31 09:47:26.
