data_PCOD8050094
_publ_section_title
;
Structure prediction by ZEFSAII (Michael W. Deem and Ramdas Pophale) SiO2 
 PCOD8050094
Probable space group: C 2
;
_chemical_formula_sum "Si O2"
_cell_formula_units_Z 32
_cell_length_a 11.562484
_cell_length_b 8.919298
_cell_length_c 19.428930
_cell_angle_alpha 90.000000
_cell_angle_beta 133.896191
_cell_angle_gamma 90.000000
_cell_volume 1443.853989
_symmetry_space_group_name_H-M "C 2"
_symmetry_group_IT_number 5
_symmetry_cell_setting 'monoclinic'
loop_
_space_group_symop_operation_xyz
x,y,z
-x,y,-z
1/2+x,1/2+y,z
1/2-x,1/2+y,-z
loop_
_atom_site_type_symbol
_atom_site_label
_atom_site_fract_x
_atom_site_fract_y
_atom_site_fract_z
Si Si1 0.869887 0.678250 0.391693
Si Si2 0.363312 0.417081 0.275967
Si Si3 0.512584 0.177145 0.773036
Si Si4 0.344844 0.594722 0.980045
Si Si5 0.094096 0.494481 0.394165
Si Si6 0.865449 0.143200 0.591147
Si Si7 0.704668 0.253619 0.039675
Si Si8 0.620655 0.143960 0.140909
O O1 0.819159 0.816037 0.322850
O O2 0.715147 0.615588 0.367584
O O3 0.000000 0.740102 0.500000
O O4 0.942043 0.542784 0.377206
O O5 0.469382 0.326290 0.264740
O O6 0.463669 0.562212 0.340973
O O7 0.196112 0.477020 0.175056
O O8 0.687298 0.127170 0.870793
O O9 0.437406 0.041161 0.697812
O O10 0.391682 0.211818 0.786725
O O11 0.347851 0.420357 0.002826
O O12 0.500000 0.637576 0.000000
O O13 0.351718 0.694815 0.053226
O O14 0.113260 0.318886 0.411884
O O15 0.254652 0.578619 0.484836
O O16 0.732615 0.242476 0.134209
O O17 0.560090 0.137748 0.962629
#
# Coordination Sequence:
#
# PCOD8050094 Si02
#       8
#     4   4   4   4   4   4   4   4
#     4   9  20  41  61  91 131 168 217 264 312 375
#     4  11  24  40  64  98 126 173 215 264 319 377
#     4  10  24  43  65  97 132 168 216 268 319 383
#     4  11  24  45  69  95 127 169 211 268 323 383
#     4  10  21  40  65  93 131 169 219 260 318 382
#     4  11  22  40  67  91 130 176 210 264 319 373
#     4  10  24  44  67  92 129 168 212 262 327 389
#     4  10  22  42  65  92 132 163 214 264 318 379
#
# _framework density 22.162904000000001
#
# number of rings (size 3 to 8) (size 9 to 14) (size 15 to 20)
#    0.000    1.750    1.250    3.000    5.250    3.000 
#    6.750    6.875    0.000    0.000    0.000    0.000 
#    0.000    0.000    0.000    0.000    0.000    0.000 
#
# Total GULP energy -198360.868238 kJ/mol
# GULP energy per Si atom -12397.554265 kJ/mol
# Density = 2.211246 g / cm^3
# Si number density = 22.162904 Si / 1000 Ang^3
#
#
#
# Elastic Constant Matrix: (Units=GPa)
#
#
# Indices 1 2 3 4 5 6 
#
# 1 139.3397 30.8566 33.9405 0.0000 -22.5377 0.0000
# 2 30.8566 99.7802 35.0908 0.0000 1.9409 0.0000
# 3 33.9405 35.0908 76.8957 0.0000 -11.2886 0.0000
# 4 0.0000 0.0000 0.0000 31.4518 0.0000 -1.2110
# 5 -22.5377 1.9409 -11.2886 0.0000 39.3040 0.0000
# 6 0.0000 0.0000 0.0000 -1.2110 0.0000 23.5481
#
#
#
# Elastic Compliance Matrix: (Units=1/GPa)
#
#
# Indices 1 2 3 4 5 6 
#
# 1 0.008933 -0.002024 -0.002352 0.000000 0.004547 0.000000
# 2 -0.002024 0.012590 -0.005339 0.000000 -0.003316 0.000000
# 3 -0.002352 -0.005339 0.017038 0.000000 0.003809 0.000000
# 4 0.000000 0.000000 0.000000 0.031858 0.000000 0.001638
# 5 0.004547 -0.003316 0.003809 0.000000 0.029308 0.000000
# 6 0.000000 0.000000 0.000000 0.001638 0.000000 0.042551
#
#
# Mechanical properties :
#
#
# Convention : Reuss Voigt Hill
#
# Bulk Modulus (GPa) = 52.26785 57.31016 54.78900
# Shear Modulus (GPa) = 29.74709 33.26930 31.50819
#
# Velocity S-wave (km/s) = 3.66758 3.87864 3.77459
# Velocity P-wave (km/s) = 6.44745 6.78035 6.61599
#
# Compressibility (1/GPa) = 0.01913222
#
# Stress axis : x y z
#
# Youngs Moduli (GPa) = 111.94185 79.42845 58.69187
#
# Poissons Ratio (x) = 0.16075 0.13804
# Poissons Ratio (y) = 0.22656 0.31334
# Poissons Ratio (z) = 0.26327 0.42405
#
# Static dielectric constant tensor:
#      x y z
#    x 4.424600 0.000000 -0.317620 
#    y 0.000000 3.812480 0.000000 
#    z -0.317620 0.000000 4.035060 
# 
# 
# High freq. dielectric constant tensor:
#      x y z
#    x 1.885620 0.000000 -0.014400 
#    y 0.000000 1.862690 0.000000 
#    z -0.014400 0.000000 1.863980 
# 
# From -- ./inp_files/65141.got.cif
#   From: 2010.03.12/outbox.cif.g09.slc.cpg/sg5_33_cif.got.tgz:65141.got - 2010.03.31 09:47:26.
