data_PCOD8050547
_publ_section_title
;
Structure prediction by ZEFSAII (Michael W. Deem and Ramdas Pophale) SiO2 
 PCOD8050547
Probable space group: C 2
;
_chemical_formula_sum "Si O2"
_cell_formula_units_Z 26
_cell_length_a 20.201641
_cell_length_b 10.995871
_cell_length_c 5.027828
_cell_angle_alpha 90.000000
_cell_angle_beta 110.276916
_cell_angle_gamma 90.000000
_cell_volume 1047.641742
_symmetry_space_group_name_H-M "C 2"
_symmetry_group_IT_number 5
_symmetry_cell_setting 'monoclinic'
loop_
_space_group_symop_operation_xyz
x,y,z
-x,y,-z
1/2+x,1/2+y,z
1/2-x,1/2+y,-z
loop_
_atom_site_type_symbol
_atom_site_label
_atom_site_fract_x
_atom_site_fract_y
_atom_site_fract_z
Si Si1 0.364648 0.337410 0.059437
Si Si2 0.926256 0.033456 0.773338
Si Si3 0.000000 0.851837 0.500000
Si Si4 0.155385 0.258604 0.572377
Si Si5 0.644079 0.083014 0.075146
Si Si6 0.074516 0.495513 0.469210
Si Si7 0.769401 0.350883 0.804409
O O1 0.442238 0.278318 0.248426
O O2 0.331570 0.223646 0.849465
O O3 0.312622 0.362423 0.234284
O O4 0.376843 0.464740 0.922530
O O5 0.947000 0.931508 0.596361
O O6 0.881251 0.130533 0.544644
O O7 0.000000 0.087456 0.000000
O O8 0.092486 0.354715 0.446406
O O9 0.219743 0.280002 0.456692
O O10 0.185186 0.275317 0.912643
O O11 0.629261 0.059661 0.743606
O O12 0.578916 0.059047 0.186368
O O13 0.707157 0.989525 0.225371
O O14 0.000000 0.510062 0.500000
#
# Coordination Sequence:
#
# PCOD8050547 Si02
#       7
#     4   4   2   4   4   4   4
#     4  11  26  45  70 101 141 190 232 298 350 428
#     4  10  25  43  69 104 140 188 236 294 354 419
#     4  10  26  44  66 104 136 186 242 274 364 418
#     4  10  24  44  69 104 138 178 238 285 353 415
#     4  10  24  42  65 101 136 177 235 278 349 418
#     4  10  22  40  67  99 134 180 223 287 344 407
#     4  10  25  45  70 105 135 186 233 289 358 414
#
# _framework density 24.817644999999999
#
# number of rings (size 3 to 8) (size 9 to 14) (size 15 to 20)
#    0.000    1.846    0.000    0.462   12.923    4.923 
#    2.769    0.000    0.000    0.000    0.000    0.000 
#    0.000    0.000    0.000    0.000    0.000    0.000 
#
# Total GULP energy -161061.484631 kJ/mol
# GULP energy per Si atom -12389.344972 kJ/mol
# Density = 2.476116 g / cm^3
# Si number density = 24.817645 Si / 1000 Ang^3
#
#
#
# Elastic Constant Matrix: (Units=GPa)
#
#
# Indices 1 2 3 4 5 6 
#
# 1 142.9457 41.4201 4.3799 0.0000 -17.9831 0.0000
# 2 41.4201 93.5738 15.3967 0.0000 5.4600 0.0000
# 3 4.3799 15.3967 72.8022 0.0000 -10.1929 0.0000
# 4 0.0000 0.0000 0.0000 4.5048 0.0000 -2.8163
# 5 -17.9831 5.4600 -10.1929 0.0000 42.0028 0.0000
# 6 0.0000 0.0000 0.0000 -2.8163 0.0000 -0.9539
#
#
#
# Elastic Compliance Matrix: (Units=1/GPa)
#
#
# Indices 1 2 3 4 5 6 
#
# 1 0.008794 -0.004329 0.001027 0.000000 0.004577 0.000000
# 2 -0.004329 0.013381 -0.003181 0.000000 -0.004365 0.000000
# 3 0.001027 -0.003181 0.014975 0.000000 0.004487 0.000000
# 4 0.000000 0.000000 0.000000 0.078007 0.000000 -0.230301
# 5 0.004577 -0.004365 0.004487 0.000000 0.027424 0.000000
# 6 0.000000 0.000000 0.000000 -0.230301 0.000000 -0.368378
#
#
# Mechanical properties :
#
#
# Convention : Reuss Voigt Hill
#
# Bulk Modulus (GPa) = 41.34640 47.96835 44.65737
# Shear Modulus (GPa) = -24.41761 25.65240 0.61740
#
# Velocity S-wave (km/s) = -3.14009 3.21851 0.49931
# Velocity P-wave (km/s) = 1.88397 5.76038 4.28552
#
# Compressibility (1/GPa) = 0.02418591
#
# Stress axis : x y z
#
# Youngs Moduli (GPa) = 113.70906 74.73323 66.77824
#
# Poissons Ratio (x) = 0.32351 -0.06860
# Poissons Ratio (y) = 0.49224 0.21239
# Poissons Ratio (z) = -0.11681 0.23769
#
# Static dielectric constant tensor:
#      x y z
#    x 4.562880 0.000000 -0.007900 
#    y 0.000000 4.373800 0.000000 
#    z -0.007900 0.000000 5.366590 
# 
# 
# High freq. dielectric constant tensor:
#      x y z
#    x 1.997320 0.000000 -0.010010 
#    y 0.000000 1.982820 0.000000 
#    z -0.010010 0.000000 1.988530 
# 
# From -- ./inp_files/9483.got.cif
#   From: 2010.03.12/outbox.cif.g09.slc.cpg/sg5_5_cif.got.tgz:9483.got - 2010.03.31 09:47:26.
