data_PCOD8050994
_publ_section_title
;
Structure prediction by ZEFSAII (Michael W. Deem and Ramdas Pophale) SiO2 
 PCOD8050994
Probable space group: C 2
;
_chemical_formula_sum "Si O2"
_cell_formula_units_Z 28
_cell_length_a 12.238052
_cell_length_b 8.091018
_cell_length_c 27.066317
_cell_angle_alpha 90.000000
_cell_angle_beta 153.917955
_cell_angle_gamma 90.000000
_cell_volume 1178.309390
_symmetry_space_group_name_H-M "C 2"
_symmetry_group_IT_number 5
_symmetry_cell_setting 'monoclinic'
loop_
_space_group_symop_operation_xyz
x,y,z
-x,y,-z
1/2+x,1/2+y,z
1/2-x,1/2+y,-z
loop_
_atom_site_type_symbol
_atom_site_label
_atom_site_fract_x
_atom_site_fract_y
_atom_site_fract_z
Si Si1 0.482686 0.345060 0.937312
Si Si2 0.257601 0.853933 0.789888
Si Si3 0.533662 0.014014 0.715327
Si Si4 0.299239 0.706040 0.984886
Si Si5 0.361760 0.115793 0.749263
Si Si6 0.652074 0.782836 0.436697
Si Si7 0.243289 0.458724 0.569477
O O1 0.201577 0.360438 0.803061
O O2 0.631543 0.210916 0.966100
O O3 0.500000 0.280679 0.000000
O O4 0.589289 0.527088 0.976026
O O5 0.193109 0.660592 0.754441
O O6 0.002938 0.944603 0.706001
O O7 0.356312 0.947936 0.780673
O O8 0.482128 0.845955 0.922058
O O9 0.349626 0.943583 0.599005
O O10 0.366995 0.075994 0.693452
O O11 0.109606 0.726357 0.861687
O O12 0.126585 0.227601 0.664728
O O13 0.806944 0.641205 0.471797
O O14 0.790847 0.832672 0.543350
O O15 0.000000 0.402156 0.500000
#
# Coordination Sequence:
#
# PCOD8050994 Si02
#       7
#     4   4   4   4   4   4   4
#     4  11  21  38  61  89 135 173 212 265 324 394
#     4  10  23  40  65  96 132 174 223 269 327 399
#     4  11  22  39  66  95 127 178 219 264 337 392
#     4  11  20  38  64  96 133 175 218 269 327 402
#     4  11  22  42  65  97 137 172 220 279 331 398
#     4  11  25  42  70  97 131 173 224 281 337 396
#     4  11  25  47  68  99 135 174 229 283 333 395
#
# _framework density 23.76286
#
# number of rings (size 3 to 8) (size 9 to 14) (size 15 to 20)
#    0.000    1.143    4.286    1.714    0.000    3.429 
#    0.000    2.857    0.000    0.000    0.000    0.000 
#    0.000    0.000    0.000    0.000    0.000    0.000 
#
# Total GULP energy -173499.911431 kJ/mol
# GULP energy per Si atom -12392.850816 kJ/mol
# Density = 2.370877 g / cm^3
# Si number density = 23.762860 Si / 1000 Ang^3
#
#
#
# Elastic Constant Matrix: (Units=GPa)
#
#
# Indices 1 2 3 4 5 6 
#
# 1 115.2576 15.3808 39.2377 -0.0002 0.8534 0.0000
# 2 15.3808 41.4277 36.6750 0.0001 -4.1736 -0.0001
# 3 39.2377 36.6750 63.4551 -0.0010 3.1188 0.0006
# 4 -0.0002 0.0001 -0.0010 32.5749 -0.0004 3.4120
# 5 0.8534 -4.1736 3.1188 -0.0004 25.5241 0.0001
# 6 0.0000 -0.0001 0.0006 3.4120 0.0001 33.4396
#
#
#
# Elastic Compliance Matrix: (Units=1/GPa)
#
#
# Indices 1 2 3 4 5 6 
#
# 1 0.011374 0.004563 -0.009747 0.000000 0.001557 0.000000
# 2 0.004563 0.054957 -0.035230 -0.000001 0.013138 0.000001
# 3 -0.009747 -0.035230 0.042671 0.000001 -0.010649 -0.000001
# 4 0.000000 -0.000001 0.000001 0.031030 0.000000 -0.003166
# 5 0.001557 0.013138 -0.010649 0.000000 0.042576 0.000000
# 6 0.000000 0.000001 -0.000001 -0.003166 0.000000 0.030228
#
#
# Mechanical properties :
#
#
# Convention : Reuss Voigt Hill
#
# Bulk Modulus (GPa) = 35.49453 44.74746 40.12099
# Shear Modulus (GPa) = 16.49863 26.89750 21.69807
#
# Velocity S-wave (km/s) = 2.63782 3.36804 3.02505
# Velocity P-wave (km/s) = 4.92411 5.83067 5.39646
#
# Compressibility (1/GPa) = 0.02817336
#
# Stress axis : x y z
#
# Youngs Moduli (GPa) = 87.92039 18.19617 23.43495
#
# Poissons Ratio (x) = -0.08302 0.22841
# Poissons Ratio (y) = -0.40114 0.82562
# Poissons Ratio (z) = 0.85693 0.64105
#
# Static dielectric constant tensor:
#      x y z
#    x 4.255190 0.000000 -0.075660 
#    y 0.000000 4.210370 0.000000 
#    z -0.075660 0.000000 4.833440 
# 
# 
# High freq. dielectric constant tensor:
#      x y z
#    x 1.922720 0.000000 0.006800 
#    y 0.000000 1.929850 0.000000 
#    z 0.006800 0.000000 1.956450 
# 
# From -- ./inp_files/70367.got.cif
#   From: 2010.03.12/outbox.cif.g09.slc.cpg/sg5_36_cif.got.tgz:70367.got - 2010.03.31 09:47:26.
