data_PCOD8050504
_publ_section_title
;
Structure prediction by ZEFSAII (Michael W. Deem and Ramdas Pophale) SiO2 
 PCOD8050504
Probable space group: C 2
;
_chemical_formula_sum "Si O2"
_cell_formula_units_Z 28
_cell_length_a 10.498223
_cell_length_b 10.990573
_cell_length_c 11.346359
_cell_angle_alpha 90.000000
_cell_angle_beta 96.861072
_cell_angle_gamma 90.000000
_cell_volume 1299.784527
_symmetry_space_group_name_H-M "C 2"
_symmetry_group_IT_number 5
_symmetry_cell_setting 'monoclinic'
loop_
_space_group_symop_operation_xyz
x,y,z
-x,y,-z
1/2+x,1/2+y,z
1/2-x,1/2+y,-z
loop_
_atom_site_type_symbol
_atom_site_label
_atom_site_fract_x
_atom_site_fract_y
_atom_site_fract_z
Si Si1 0.194613 0.720170 0.338905
Si Si2 0.291975 0.909214 0.172505
Si Si3 0.225347 0.828107 0.594533
Si Si4 0.369716 0.864171 0.933771
Si Si5 0.653405 0.640391 0.224861
Si Si6 0.436985 0.548252 0.369327
Si Si7 0.573460 0.982684 0.281346
O O1 0.202105 0.821107 0.238707
O O2 0.181303 0.791004 0.459687
O O3 0.319012 0.638014 0.343704
O O4 0.072320 0.628067 0.307054
O O5 0.237565 0.043498 0.166257
O O6 0.436083 0.919288 0.242783
O O7 0.275618 0.862181 0.035742
O O8 0.252597 0.707295 0.672392
O O9 0.109512 0.907522 0.638396
O O10 0.356341 0.910382 0.603264
O O11 0.394807 0.731168 0.881750
O O12 0.333081 0.955757 0.822620
O O13 0.500000 0.918278 0.000000
O O14 0.534826 0.574211 0.274663
O O15 0.500000 0.580882 0.500000
#
# Coordination Sequence:
#
# PCOD8050504 Si02
#       7
#     4   4   4   4   4   4   4
#     4  11  22  38  66  92 127 167 215 262 326 378
#     4  11  24  38  66  92 124 170 216 264 324 384
#     4  10  22  40  62  94 126 168 213 264 319 391
#     4   9  20  43  65  85 119 167 221 265 314 382
#     4  11  23  41  63  95 129 169 211 265 334 377
#     4  11  21  38  64  92 131 165 213 262 318 392
#     4   9  22  41  63  88 124 166 214 261 321 380
#
# _framework density 21.542031999999999
#
# number of rings (size 3 to 8) (size 9 to 14) (size 15 to 20)
#    0.000    1.714    1.429    3.429    4.000    2.286 
#    2.571    0.000    0.000    0.000    0.000    0.000 
#    0.000    0.000    0.000    0.000    0.000    0.000 
#
# Total GULP energy -173514.244166 kJ/mol
# GULP energy per Si atom -12393.874583 kJ/mol
# Density = 2.149300 g / cm^3
# Si number density = 21.542032 Si / 1000 Ang^3
#
#
#
# Elastic Constant Matrix: (Units=GPa)
#
#
# Indices 1 2 3 4 5 6 
#
# 1 48.3720 30.1427 22.2154 0.0000 -12.8426 0.0000
# 2 30.1427 126.0498 48.7878 0.0000 -17.1733 0.0000
# 3 22.2154 48.7878 98.2050 0.0000 -21.8226 0.0000
# 4 0.0000 0.0000 0.0000 25.8819 0.0000 -14.5212
# 5 -12.8426 -17.1733 -21.8226 0.0000 28.9238 0.0000
# 6 0.0000 0.0000 0.0000 -14.5212 0.0000 25.8883
#
#
#
# Elastic Compliance Matrix: (Units=1/GPa)
#
#
# Indices 1 2 3 4 5 6 
#
# 1 0.026416 -0.004491 -0.002079 0.000000 0.007494 0.000000
# 2 -0.004491 0.010749 -0.004024 0.000000 0.001352 0.000000
# 3 -0.002079 -0.004024 0.014316 0.000000 0.007489 0.000000
# 4 0.000000 0.000000 0.000000 0.056380 0.000000 0.031625
# 5 0.007494 0.001352 0.007489 0.000000 0.044354 0.000000
# 6 0.000000 0.000000 0.000000 0.031625 0.000000 0.056366
#
#
# Mechanical properties :
#
#
# Convention : Reuss Voigt Hill
#
# Bulk Modulus (GPa) = 33.01060 52.76875 42.88967
# Shear Modulus (GPa) = 20.84478 27.57086 24.20782
#
# Velocity S-wave (km/s) = 3.11405 3.58140 3.35587
# Velocity P-wave (km/s) = 5.31854 6.45374 5.91344
#
# Compressibility (1/GPa) = 0.03029330
#
# Stress axis : x y z
#
# Youngs Moduli (GPa) = 37.85539 93.03252 69.85079
#
# Poissons Ratio (x) = 0.41783 0.14524
# Poissons Ratio (y) = 0.17002 0.28105
# Poissons Ratio (z) = 0.07871 0.37432
#
# Static dielectric constant tensor:
#      x y z
#    x 3.786030 0.000000 0.036730 
#    y 0.000000 4.084060 0.000000 
#    z 0.036730 0.000000 4.112170 
# 
# 
# High freq. dielectric constant tensor:
#      x y z
#    x 1.824620 0.000000 0.002330 
#    y 0.000000 1.855620 0.000000 
#    z 0.002330 0.000000 1.847090 
# 
# From -- ./inp_files/38864.got.cif
#   From: 2010.03.12/outbox.cif.g09.slc.cpg/sg5_20_cif.got.tgz:38864.got - 2010.03.31 09:47:26.
