data_PCOD8050042
_publ_section_title
;
Structure prediction by ZEFSAII (Michael W. Deem and Ramdas Pophale) SiO2 
 PCOD8050042
Probable space group: C 2
;
_chemical_formula_sum "Si O2"
_cell_formula_units_Z 28
_cell_length_a 7.600951
_cell_length_b 11.523631
_cell_length_c 15.101165
_cell_angle_alpha 90.000000
_cell_angle_beta 84.244926
_cell_angle_gamma 90.000000
_cell_volume 1316.052438
_symmetry_space_group_name_H-M "C 2"
_symmetry_group_IT_number 5
_symmetry_cell_setting 'monoclinic'
loop_
_space_group_symop_operation_xyz
x,y,z
-x,y,-z
1/2+x,1/2+y,z
1/2-x,1/2+y,-z
loop_
_atom_site_type_symbol
_atom_site_label
_atom_site_fract_x
_atom_site_fract_y
_atom_site_fract_z
Si Si1 0.850407 0.287000 0.072816
Si Si2 0.163201 0.683390 0.231888
Si Si3 0.203749 0.910569 0.472699
Si Si4 0.113821 0.935623 0.282800
Si Si5 0.500000 0.217152 0.000000
Si Si6 0.839522 0.080930 0.382037
Si Si7 0.500000 0.737277 0.500000
Si Si8 0.611054 0.037268 0.854455
O O1 0.832919 0.198783 0.157535
O O2 0.925216 0.412148 0.099519
O O3 0.650840 0.294949 0.040215
O O4 0.000000 0.235086 0.000000
O O5 0.076072 0.811653 0.238497
O O6 0.208410 0.658429 0.331571
O O7 0.043477 0.577397 0.204595
O O8 0.234537 0.926815 0.366070
O O9 0.320650 0.809124 0.507543
O O10 0.000000 0.878485 0.500000
O O11 0.257139 0.024940 0.527234
O O12 0.208688 0.024557 0.210460
O O13 0.919879 0.983487 0.313751
O O14 0.616940 0.136399 0.928803
O O15 0.002370 0.157966 0.411478
#
# Coordination Sequence:
#
# PCOD8050042 Si02
#       8
#     4   4   4   4   2   4   2   4
#     4  10  22  44  67  95 130 166 215 262 320 397
#     4  10  23  41  63  94 131 165 215 265 320 378
#     4  10  23  41  59  94 129 166 225 266 310 380
#     4  10  21  40  59  91 128 163 217 266 308 385
#     4  10  22  44  64  94 128 164 210 266 318 384
#     4  11  23  42  61  96 128 167 224 263 312 383
#     4  12  22  42  66  88 130 176 216 268 320 370
#     4  10  22  43  64  94 128 165 210 263 325 383
#
# _framework density 21.275749000000001
#
# number of rings (size 3 to 8) (size 9 to 14) (size 15 to 20)
#    0.000    1.714    4.286    0.000    4.000    2.286 
#   10.286    0.000    0.000    0.000    0.000    0.000 
#    0.000    0.000    0.000    0.000    0.000    0.000 
#
# Total GULP energy -173463.921552 kJ/mol
# GULP energy per Si atom -12390.280111 kJ/mol
# Density = 2.122732 g / cm^3
# Si number density = 21.275749 Si / 1000 Ang^3
#
#
#
# Elastic Constant Matrix: (Units=GPa)
#
#
# Indices 1 2 3 4 5 6 
#
# 1 62.1262 38.1493 25.0205 0.0000 5.8631 0.0000
# 2 38.1493 99.8410 32.9687 0.0000 6.5689 0.0000
# 3 25.0205 32.9687 101.6651 0.0000 5.7390 0.0000
# 4 0.0000 0.0000 0.0000 34.5153 0.0000 7.5074
# 5 5.8631 6.5689 5.7390 0.0000 35.9288 0.0000
# 6 0.0000 0.0000 0.0000 7.5074 0.0000 30.9368
#
#
#
# Elastic Compliance Matrix: (Units=1/GPa)
#
#
# Indices 1 2 3 4 5 6 
#
# 1 0.021922 -0.007292 -0.002930 0.000000 -0.001776 0.000000
# 2 -0.007292 0.013721 -0.002604 0.000000 -0.000903 0.000000
# 3 -0.002930 -0.002604 0.011451 0.000000 -0.000875 0.000000
# 4 0.000000 0.000000 0.000000 0.030587 0.000000 -0.007423
# 5 -0.001776 -0.000903 -0.000875 0.000000 0.028427 0.000000
# 6 0.000000 0.000000 0.000000 -0.007423 0.000000 0.034125
#
#
# Mechanical properties :
#
#
# Convention : Reuss Voigt Hill
#
# Bulk Modulus (GPa) = 46.63744 50.65661 48.64703
# Shear Modulus (GPa) = 28.89609 31.44243 30.16926
#
# Velocity S-wave (km/s) = 3.68933 3.84846 3.76973
# Velocity P-wave (km/s) = 6.33374 6.60369 6.47013
#
# Compressibility (1/GPa) = 0.02144200
#
# Stress axis : x y z
#
# Youngs Moduli (GPa) = 45.61705 72.87852 87.32687
#
# Poissons Ratio (x) = 0.53142 0.25588
# Poissons Ratio (y) = 0.33263 0.22741
# Poissons Ratio (z) = 0.13367 0.18979
#
# Static dielectric constant tensor:
#      x y z
#    x 3.421300 0.000000 0.019250 
#    y 0.000000 3.892360 0.000000 
#    z 0.019250 0.000000 4.275120 
# 
# 
# High freq. dielectric constant tensor:
#      x y z
#    x 1.797590 0.000000 0.000960 
#    y 0.000000 1.833320 0.000000 
#    z 0.000960 0.000000 1.857660 
# 
# From -- ./inp_files/50135.got.cif
#   From: 2010.03.12/outbox.cif.g09.slc.cpg/sg5_26_cif.got.tgz:50135.got - 2010.03.31 09:47:26.
