data_PCOD8050773
_publ_section_title
;
Structure prediction by ZEFSAII (Michael W. Deem and Ramdas Pophale) SiO2 
 PCOD8050773
Probable space group: C 2
;
_chemical_formula_sum "Si O2"
_cell_formula_units_Z 28
_cell_length_a 10.823437
_cell_length_b 9.327174
_cell_length_c 13.868421
_cell_angle_alpha 90.000000
_cell_angle_beta 117.643149
_cell_angle_gamma 90.000000
_cell_volume 1240.236897
_symmetry_space_group_name_H-M "C 2"
_symmetry_group_IT_number 5
_symmetry_cell_setting 'monoclinic'
loop_
_space_group_symop_operation_xyz
x,y,z
-x,y,-z
1/2+x,1/2+y,z
1/2-x,1/2+y,-z
loop_
_atom_site_type_symbol
_atom_site_label
_atom_site_fract_x
_atom_site_fract_y
_atom_site_fract_z
Si Si1 0.578741 0.287400 0.276362
Si Si2 0.142015 0.890740 0.090343
Si Si3 0.376947 0.540601 0.225250
Si Si4 0.147763 0.578641 0.735829
Si Si5 0.155216 0.313212 0.170113
Si Si6 0.617976 0.790195 0.618324
Si Si7 0.858688 0.236251 0.054090
O O1 0.609146 0.299297 0.173827
O O2 0.501835 0.428733 0.289478
O O3 0.490772 0.146272 0.268501
O O4 0.731858 0.271867 0.380036
O O5 0.207393 0.786072 0.034999
O O6 0.259328 0.009607 0.146763
O O7 0.000000 0.961964 0.000000
O O8 0.227772 0.468334 0.196130
O O9 0.396766 0.684030 0.295460
O O10 0.379782 0.579459 0.111746
O O11 0.250118 0.704496 0.729439
O O12 0.103172 0.457547 0.643190
O O13 0.993658 0.328044 0.143302
O O14 0.151021 0.237219 0.063662
O O15 0.500000 0.748859 0.500000
#
# Coordination Sequence:
#
# PCOD8050773 Si02
#       7
#     4   4   4   4   4   4   4
#     4  10  23  44  64  97 134 168 221 272 329 396
#     4  11  22  37  60  95 134 182 218 258 314 384
#     4  11  23  44  64  94 131 173 216 275 327 385
#     4  10  22  43  66  90 135 172 212 278 322 388
#     4  10  25  39  63  98 134 174 225 257 326 392
#     4  11  25  45  71  99 126 170 226 280 343 394
#     4  11  22  39  63  94 133 182 217 259 313 388
#
# _framework density 22.576332000000001
#
# number of rings (size 3 to 8) (size 9 to 14) (size 15 to 20)
#    0.000    1.429    2.857    3.429    8.000    1.143 
#    2.571    2.857    0.000    0.000    0.000    0.000 
#    0.000    0.000    0.000    0.000    0.000    0.000 
#
# Total GULP energy -173461.642972 kJ/mol
# GULP energy per Si atom -12390.117355 kJ/mol
# Density = 2.252495 g / cm^3
# Si number density = 22.576332 Si / 1000 Ang^3
#
#
#
# Elastic Constant Matrix: (Units=GPa)
#
#
# Indices 1 2 3 4 5 6 
#
# 1 151.1733 48.7582 33.3228 0.0000 31.8234 0.0000
# 2 48.7582 106.7659 41.7597 0.0000 7.9600 0.0000
# 3 33.3228 41.7597 76.1410 0.0000 24.2258 0.0000
# 4 0.0000 0.0000 0.0000 16.0901 0.0000 3.6044
# 5 31.8234 7.9600 24.2258 0.0000 33.5873 0.0000
# 6 0.0000 0.0000 0.0000 3.6044 0.0000 38.1025
#
#
#
# Elastic Compliance Matrix: (Units=1/GPa)
#
#
# Indices 1 2 3 4 5 6 
#
# 1 0.009568 -0.004029 0.000782 0.000000 -0.008675 0.000000
# 2 -0.004029 0.013779 -0.007747 0.000000 0.006140 0.000000
# 3 0.000782 -0.007747 0.021663 0.000000 -0.014530 0.000000
# 4 0.000000 0.000000 0.000000 0.063496 0.000000 -0.006006
# 5 -0.008675 0.006140 -0.014530 0.000000 0.047018 0.000000
# 6 0.000000 0.000000 0.000000 -0.006006 0.000000 0.026813
#
#
# Mechanical properties :
#
#
# Convention : Reuss Voigt Hill
#
# Bulk Modulus (GPa) = 43.43549 64.64018 54.03783
# Shear Modulus (GPa) = 23.58507 31.57193 27.57850
#
# Velocity S-wave (km/s) = 3.23566 3.74365 3.49888
# Velocity P-wave (km/s) = 5.76546 6.88335 6.34905
#
# Compressibility (1/GPa) = 0.02302265
#
# Stress axis : x y z
#
# Youngs Moduli (GPa) = 104.51421 72.57627 46.16107
#
# Poissons Ratio (x) = 0.29240 -0.03611
# Poissons Ratio (y) = 0.42107 0.35762
# Poissons Ratio (z) = -0.08176 0.56226
#
# Static dielectric constant tensor:
#      x y z
#    x 4.485100 0.000000 0.482500 
#    y 0.000000 4.097740 0.000000 
#    z 0.482500 0.000000 3.724530 
# 
# 
# High freq. dielectric constant tensor:
#      x y z
#    x 1.909640 0.000000 0.026920 
#    y 0.000000 1.899780 0.000000 
#    z 0.026920 0.000000 1.838250 
# 
# From -- ./inp_files/52513.got.cif
#   From: 2010.03.12/outbox.cif.g09.slc.cpg/sg5_27_cif.got.tgz:52513.got - 2010.03.31 09:47:26.
