data_PCOD8050576
_publ_section_title
;
Structure prediction by ZEFSAII (Michael W. Deem and Ramdas Pophale) SiO2 
 PCOD8050576
Probable space group: C 2
;
_chemical_formula_sum "Si O2"
_cell_formula_units_Z 30
_cell_length_a 18.389745
_cell_length_b 5.332265
_cell_length_c 16.176176
_cell_angle_alpha 90.000000
_cell_angle_beta 122.430684
_cell_angle_gamma 90.000000
_cell_volume 1338.834087
_symmetry_space_group_name_H-M "C 2"
_symmetry_group_IT_number 5
_symmetry_cell_setting 'monoclinic'
loop_
_space_group_symop_operation_xyz
x,y,z
-x,y,-z
1/2+x,1/2+y,z
1/2-x,1/2+y,-z
loop_
_atom_site_type_symbol
_atom_site_label
_atom_site_fract_x
_atom_site_fract_y
_atom_site_fract_z
Si Si1 0.200259 0.346220 0.485326
Si Si2 0.500000 0.344996 0.000000
Si Si3 0.347667 0.039065 0.980118
Si Si4 0.093824 0.540868 0.280358
Si Si5 0.679088 0.616412 0.794469
Si Si6 0.631990 0.689134 0.154760
Si Si7 0.250904 0.332481 0.685376
Si Si8 0.100737 0.594531 0.808139
O O1 0.269025 0.558433 0.501243
O O2 0.117726 0.370332 0.374881
O O3 0.180011 0.397429 0.571122
O O4 0.433669 0.186478 0.011896
O O5 0.447428 0.498398 0.899198
O O6 0.259676 0.182232 0.903345
O O7 0.348229 0.784011 0.926329
O O8 0.348930 0.005039 0.078916
O O9 0.097332 0.399800 0.194988
O O10 0.162814 0.763376 0.313772
O O11 0.999301 0.648952 0.237254
O O12 0.716054 0.607825 0.722742
O O13 0.637254 0.350577 0.791544
O O14 0.612815 0.851394 0.756561
O O15 0.721733 0.569355 0.241641
#
# Coordination Sequence:
#
# PCOD8050576 Si02
#       8
#     4   2   4   4   4   4   4   4
#     4  10  22  40  74 110 137 173 238 304 364 420
#     4  12  24  36  68 104 132 176 242 292 356 404
#     4  12  25  43  61 101 134 192 228 291 339 432
#     4  11  24  45  71 104 140 183 240 302 358 426
#     4  12  27  46  68  97 145 186 231 284 354 421
#     4  12  21  40  71 103 140 179 238 304 354 416
#     4  11  23  44  75 102 137 185 242 300 364 427
#     4  12  29  44  67 102 141 190 233 285 349 423
#
# _framework density 22.407558000000002
#
# number of rings (size 3 to 8) (size 9 to 14) (size 15 to 20)
#    0.000    0.533    4.000    4.400    5.600    0.000 
#    0.000    0.667    0.000    3.200    0.000    0.000 
#    0.000    0.000    0.000    0.000    0.000    0.000 
#
# Total GULP energy -185919.407851 kJ/mol
# GULP energy per Si atom -12394.627190 kJ/mol
# Density = 2.235656 g / cm^3
# Si number density = 22.407558 Si / 1000 Ang^3
#
#
#
# Elastic Constant Matrix: (Units=GPa)
#
#
# Indices 1 2 3 4 5 6 
#
# 1 107.6610 41.1284 25.2988 0.0001 -13.6162 -0.0001
# 2 41.1284 110.1075 16.2945 0.0006 -14.6896 -0.0009
# 3 25.2988 16.2945 117.5581 -0.0001 -19.0641 0.0000
# 4 0.0001 0.0006 -0.0001 4.7783 -0.0003 28.6827
# 5 -13.6162 -14.6896 -19.0641 -0.0003 12.1026 0.0005
# 6 -0.0001 -0.0009 0.0000 28.6827 0.0005 -2.5216
#
#
#
# Elastic Compliance Matrix: (Units=1/GPa)
#
#
# Indices 1 2 3 4 5 6 
#
# 1 0.011708 -0.003178 -0.000764 0.000000 0.008112 0.000000
# 2 -0.003178 0.011763 0.001060 0.000000 0.012371 0.000000
# 3 -0.000764 0.001060 0.011541 0.000000 0.018607 0.000000
# 4 0.000000 0.000000 0.000000 0.003021 -0.000002 0.034361
# 5 0.008112 0.012371 0.018607 -0.000002 0.136078 0.000002
# 6 0.000000 0.000000 0.000000 0.034361 0.000002 -0.005724
#
#
# Mechanical properties :
#
#
# Convention : Reuss Voigt Hill
#
# Bulk Modulus (GPa) = 34.19034 55.64110 44.91572
# Shear Modulus (GPa) = 27.18870 19.71218 23.45044
#
# Velocity S-wave (km/s) = 3.48713 2.96921 3.23854
# Velocity P-wave (km/s) = 5.61293 6.05312 5.83717
#
# Compressibility (1/GPa) = 0.02924803
#
# Stress axis : x y z
#
# Youngs Moduli (GPa) = 85.41296 85.01454 86.64499
#
# Poissons Ratio (x) = 0.27018 0.06616
# Poissons Ratio (y) = 0.27144 -0.09181
# Poissons Ratio (z) = 0.06522 -0.09008
#
# Static dielectric constant tensor:
#      x y z
#    x 4.422020 0.000000 -0.283190 
#    y 0.000000 4.000780 0.000000 
#    z -0.283190 0.000000 4.742070 
# 
# 
# High freq. dielectric constant tensor:
#      x y z
#    x 1.862520 0.000000 -0.006980 
#    y 0.000000 1.884610 0.000000 
#    z -0.006980 0.000000 1.890970 
# 
# From -- ./inp_files/55475.got.cif
#   From: 2010.03.12/outbox.cif.g09.slc.cpg/sg5_28_cif.got.tgz:55475.got - 2010.03.31 09:47:26.
