data_PCOD8050897
_publ_section_title
;
Structure prediction by ZEFSAII (Michael W. Deem and Ramdas Pophale) SiO2 
 PCOD8050897
Probable space group: C 2
;
_chemical_formula_sum "Si O2"
_cell_formula_units_Z 26
_cell_length_a 13.986465
_cell_length_b 15.156666
_cell_length_c 7.780316
_cell_angle_alpha 90.000000
_cell_angle_beta 133.287270
_cell_angle_gamma 90.000000
_cell_volume 1200.592382
_symmetry_space_group_name_H-M "C 2"
_symmetry_group_IT_number 5
_symmetry_cell_setting 'monoclinic'
loop_
_space_group_symop_operation_xyz
x,y,z
-x,y,-z
1/2+x,1/2+y,z
1/2-x,1/2+y,-z
loop_
_atom_site_type_symbol
_atom_site_label
_atom_site_fract_x
_atom_site_fract_y
_atom_site_fract_z
Si Si1 0.000000 0.777220 0.500000
Si Si2 0.267595 0.640060 0.514724
Si Si3 0.967690 0.076735 0.275120
Si Si4 0.609271 0.960413 0.279039
Si Si5 0.171731 0.830196 0.414034
Si Si6 0.500000 0.994872 0.500000
Si Si7 0.709650 0.135398 0.826992
Si Si8 0.000000 0.948676 0.000000
O O1 0.940345 0.835790 0.578063
O O2 0.883124 0.720452 0.267545
O O3 0.412694 0.643787 0.613981
O O4 0.185597 0.553761 0.357568
O O5 0.192658 0.730287 0.373441
O O6 0.285694 0.637290 0.740767
O O7 0.000000 0.032993 0.500000
O O8 0.827363 0.128750 0.112383
O O9 0.960409 0.004047 0.117975
O O10 0.700039 0.876429 0.348299
O O11 0.553654 0.940541 0.402792
O O12 0.500000 0.962226 0.000000
O O13 0.125783 0.888171 0.195318
O O14 0.615620 0.051793 0.727417
#
# Coordination Sequence:
#
# PCOD8050897 Si02
#       8
#     2   4   4   4   4   2   4   2
#     4   9  22  42  72 101 138 184 236 279 364 413
#     4  10  22  45  68  99 141 180 233 281 355 411
#     4  12  24  40  74 100 137 187 235 280 357 413
#     4  11  24  44  69  99 134 180 232 289 339 410
#     4  11  25  44  69 104 140 186 231 289 349 412
#     4   9  20  40  66  93 132 176 222 273 354 395
#     4   9  18  40  70 100 130 177 227 294 334 417
#     4  12  24  44  64 100 142 176 230 294 334 410
#
# _framework density 21.655978000000001
#
# number of rings (size 3 to 8) (size 9 to 14) (size 15 to 20)
#    0.000    1.538    3.077    1.846    4.308    3.692 
#    4.154    0.000    0.000    0.000    0.000    0.000 
#    0.000    0.000    0.000    0.000    0.000    0.000 
#
# Total GULP energy -161148.096263 kJ/mol
# GULP energy per Si atom -12396.007405 kJ/mol
# Density = 2.160669 g / cm^3
# Si number density = 21.655978 Si / 1000 Ang^3
#
#
#
# Elastic Constant Matrix: (Units=GPa)
#
#
# Indices 1 2 3 4 5 6 
#
# 1 123.8943 40.9628 55.3685 0.0000 10.2525 0.0000
# 2 40.9628 98.0373 40.8537 0.0000 -0.0280 0.0000
# 3 55.3685 40.8537 149.5868 0.0000 7.8146 0.0000
# 4 0.0000 0.0000 0.0000 24.3088 0.0000 -3.5149
# 5 10.2525 -0.0280 7.8146 0.0000 34.9172 0.0000
# 6 0.0000 0.0000 0.0000 -3.5149 0.0000 11.1495
#
#
#
# Elastic Compliance Matrix: (Units=1/GPa)
#
#
# Indices 1 2 3 4 5 6 
#
# 1 0.010655 -0.003231 -0.002932 0.000000 -0.002475 0.000000
# 2 -0.003231 0.012508 -0.002297 0.000000 0.001473 0.000000
# 3 -0.002932 -0.002297 0.008452 0.000000 -0.001032 0.000000
# 4 0.000000 0.000000 0.000000 0.043102 0.000000 0.013588
# 5 -0.002475 0.001473 -0.001032 0.000000 0.029598 0.000000
# 6 0.000000 0.000000 0.000000 0.013588 0.000000 0.093974
#
#
# Mechanical properties :
#
#
# Convention : Reuss Voigt Hill
#
# Bulk Modulus (GPa) = 68.05376 71.76537 69.90956
# Shear Modulus (GPa) = 22.71633 29.69733 26.20683
#
# Velocity S-wave (km/s) = 3.24228 3.70715 3.48248
# Velocity P-wave (km/s) = 6.74609 7.17877 6.96579
#
# Compressibility (1/GPa) = 0.01469426
#
# Stress axis : x y z
#
# Youngs Moduli (GPa) = 93.85499 79.95048 118.31944
#
# Poissons Ratio (x) = 0.25830 0.34693
# Poissons Ratio (y) = 0.30322 0.27179
# Poissons Ratio (z) = 0.27520 0.18366
#
# Static dielectric constant tensor:
#      x y z
#    x 4.039710 0.000000 0.151940 
#    y 0.000000 3.870350 0.000000 
#    z 0.151940 0.000000 3.978960 
# 
# 
# High freq. dielectric constant tensor:
#      x y z
#    x 1.856460 0.000000 0.012960 
#    y 0.000000 1.831310 0.000000 
#    z 0.012960 0.000000 1.852790 
# 
# From -- ./inp_files/24553.got.cif
#   From: 2010.03.12/outbox.cif.g09.slc.cpg/sg5_13_cif.got.tgz:24553.got - 2010.03.31 09:47:26.
