data_PCOD8050464
_publ_section_title
;
Structure prediction by ZEFSAII (Michael W. Deem and Ramdas Pophale) SiO2 
 PCOD8050464
Probable space group: C 2
;
_chemical_formula_sum "Si O2"
_cell_formula_units_Z 26
_cell_length_a 7.882698
_cell_length_b 12.464033
_cell_length_c 13.841128
_cell_angle_alpha 90.000000
_cell_angle_beta 113.593895
_cell_angle_gamma 90.000000
_cell_volume 1246.213911
_symmetry_space_group_name_H-M "C 2"
_symmetry_group_IT_number 5
_symmetry_cell_setting 'monoclinic'
loop_
_space_group_symop_operation_xyz
x,y,z
-x,y,-z
1/2+x,1/2+y,z
1/2-x,1/2+y,-z
loop_
_atom_site_type_symbol
_atom_site_label
_atom_site_fract_x
_atom_site_fract_y
_atom_site_fract_z
Si Si1 0.514726 0.881820 0.888181
Si Si2 0.768013 0.582434 0.117790
Si Si3 0.886803 0.872272 0.573719
Si Si4 0.388455 0.645920 0.108798
Si Si5 0.556981 0.134335 0.338998
Si Si6 0.500000 0.987115 0.500000
Si Si7 0.189676 0.007179 0.731061
O O1 0.561970 0.767090 0.855522
O O2 0.675071 0.960736 0.889744
O O3 0.322388 0.910954 0.793804
O O4 0.500000 0.878964 0.000000
O O5 0.569741 0.577783 0.123277
O O6 0.915923 0.644607 0.217299
O O7 0.756882 0.644795 0.013044
O O8 0.883912 0.752118 0.614171
O O9 0.675484 0.911425 0.516121
O O10 0.000000 0.872208 0.500000
O O11 0.988739 0.955935 0.668313
O O12 0.300733 0.595355 0.183133
O O13 0.739703 0.068185 0.348866
O O14 0.457816 0.065567 0.400429
#
# Coordination Sequence:
#
# PCOD8050464 Si02
#       7
#     4   4   4   4   4   2   4
#     4  11  21  40  65  93 135 181 221 270 333 400
#     4  10  22  39  65  97 134 175 223 274 330 408
#     4  12  26  47  74 100 134 184 229 287 352 394
#     4  11  22  40  64 100 137 177 222 272 336 405
#     4  11  25  45  69 101 137 176 229 287 343 402
#     4  12  26  48  70 102 134 174 240 290 332 422
#     4  11  25  43  69 100 135 177 225 281 337 413
#
# _framework density 20.863192000000002
#
# number of rings (size 3 to 8) (size 9 to 14) (size 15 to 20)
#    0.000    0.923    5.385    1.846    0.000    4.923 
#    2.769    4.615    0.000    0.000    0.000    0.000 
#    0.000    0.000    0.000    0.000    0.000    0.000 
#
# Total GULP energy -161235.687428 kJ/mol
# GULP energy per Si atom -12402.745187 kJ/mol
# Density = 2.081571 g / cm^3
# Si number density = 20.863192 Si / 1000 Ang^3
#
#
#
# Elastic Constant Matrix: (Units=GPa)
#
#
# Indices 1 2 3 4 5 6 
#
# 1 90.8527 56.4410 40.0289 0.0000 7.9850 0.0000
# 2 56.4410 144.6278 61.8403 0.0000 3.3264 0.0000
# 3 40.0289 61.8403 102.3284 0.0000 4.3594 0.0000
# 4 0.0000 0.0000 0.0000 -2.9034 0.0000 42.5090
# 5 7.9850 3.3264 4.3594 0.0000 38.3197 0.0000
# 6 0.0000 0.0000 0.0000 42.5090 0.0000 -32.8650
#
#
#
# Elastic Compliance Matrix: (Units=1/GPa)
#
#
# Indices 1 2 3 4 5 6 
#
# 1 0.015497 -0.004644 -0.003151 0.000000 -0.002468 0.000000
# 2 -0.004644 0.010716 -0.004684 0.000000 0.000570 0.000000
# 3 -0.003151 -0.004684 0.013857 0.000000 -0.000513 0.000000
# 4 0.000000 0.000000 0.000000 0.019201 0.000000 0.024836
# 5 -0.002468 0.000570 -0.000513 0.000000 0.026619 0.000000
# 6 0.000000 0.000000 0.000000 0.024836 0.000000 0.001696
#
#
# Mechanical properties :
#
#
# Convention : Reuss Voigt Hill
#
# Bulk Modulus (GPa) = 66.16404 72.71436 69.43920
# Shear Modulus (GPa) = 42.52378 12.47686 27.50032
#
# Velocity S-wave (km/s) = 4.51956 2.44812 3.63454
# Velocity P-wave (km/s) = 7.68228 6.55131 7.13923
#
# Compressibility (1/GPa) = 0.01511395
#
# Stress axis : x y z
#
# Youngs Moduli (GPa) = 64.53017 93.31731 72.16386
#
# Poissons Ratio (x) = 0.43334 0.22735
# Poissons Ratio (y) = 0.29966 0.33801
# Poissons Ratio (z) = 0.20330 0.43709
#
# Static dielectric constant tensor:
#      x y z
#    x 3.828560 0.000000 -0.045980 
#    y 0.000000 3.770370 0.000000 
#    z -0.045980 0.000000 3.927320 
# 
# 
# High freq. dielectric constant tensor:
#      x y z
#    x 1.816390 0.000000 -0.003800 
#    y 0.000000 1.821990 0.000000 
#    z -0.003800 0.000000 1.827750 
# 
# From -- ./inp_files/50368.got.cif
#   From: 2010.03.12/outbox.cif.g09.slc.cpg/sg5_26_cif.got.tgz:50368.got - 2010.03.31 09:47:26.
