data_PCOD8050740
_publ_section_title
;
Structure prediction by ZEFSAII (Michael W. Deem and Ramdas Pophale) SiO2 
 PCOD8050740
Probable space group: C 2
;
_chemical_formula_sum "Si O2"
_cell_formula_units_Z 20
_cell_length_a 16.947459
_cell_length_b 5.871827
_cell_length_c 11.894185
_cell_angle_alpha 90.000000
_cell_angle_beta 45.426658
_cell_angle_gamma 90.000000
_cell_volume 843.155316
_symmetry_space_group_name_H-M "C 2"
_symmetry_group_IT_number 5
_symmetry_cell_setting 'monoclinic'
loop_
_space_group_symop_operation_xyz
x,y,z
-x,y,-z
1/2+x,1/2+y,z
1/2-x,1/2+y,-z
loop_
_atom_site_type_symbol
_atom_site_label
_atom_site_fract_x
_atom_site_fract_y
_atom_site_fract_z
Si Si1 0.402042 0.812990 0.910587
Si Si2 0.703763 0.612590 0.186264
Si Si3 0.796243 0.870189 0.593783
Si Si4 0.902034 0.669763 0.285341
Si Si5 0.348435 0.491388 0.151571
O O1 0.395413 0.674593 0.800023
O O2 0.500014 0.991354 0.806088
O O3 0.425281 0.645109 0.992639
O O4 0.284832 0.934673 0.044786
O O5 0.651586 0.491376 0.348409
O O6 0.770732 0.838233 0.151090
O O7 0.895421 0.808159 0.409149
O O8 0.729253 0.644564 0.692555
O O9 0.715190 0.048135 0.614422
O O10 0.925279 0.837643 0.156806
#
# Coordination Sequence:
#
# PCOD8050740 Si02
#       5
#     4   4   4   4   4
#     4  11  23  42  74 104 138 186 236 290 357 416
#     4  10  22  42  71 100 141 182 232 300 349 411
#     4  10  22  42  71 100 141 182 232 300 349 411
#     4  11  23  42  74 104 138 186 236 290 357 416
#     4  10  22  43  69 100 142 176 241 294 341 414
#
# _framework density 23.720423
#
# number of rings (size 3 to 8) (size 9 to 14) (size 15 to 20)
#    0.000    1.600    4.000    0.000    0.000   10.400 
#    0.000    1.000    8.800    2.400    0.000    0.000 
#    0.000    0.000    0.000    0.000    0.000    0.000 
#
# Total GULP energy -124041.128544 kJ/mol
# GULP energy per Si atom -12404.112854 kJ/mol
# Density = 2.366643 g / cm^3
# Si number density = 23.720423 Si / 1000 Ang^3
#
#
#
# Elastic Constant Matrix: (Units=GPa)
#
#
# Indices 1 2 3 4 5 6 
#
# 1 128.4495 66.8235 88.3403 0.0023 35.5214 -0.0027
# 2 66.8235 136.3323 72.5048 0.0115 19.8443 -0.0123
# 3 88.3403 72.5048 149.3475 0.0018 37.7121 -0.0014
# 4 0.0023 0.0115 0.0018 54.5153 -0.0020 3.4875
# 5 35.5214 19.8443 37.7121 -0.0020 32.7870 0.0020
# 6 -0.0027 -0.0123 -0.0014 3.4875 0.0020 53.5267
#
#
#
# Elastic Compliance Matrix: (Units=1/GPa)
#
#
# Indices 1 2 3 4 5 6 
#
# 1 0.015767 -0.003599 -0.005377 0.000000 -0.008718 0.000000
# 2 -0.003599 0.010720 -0.003413 -0.000002 0.001337 0.000002
# 3 -0.005377 -0.003413 0.013446 0.000000 -0.007574 0.000000
# 4 0.000000 -0.000002 0.000000 0.018420 0.000002 -0.001200
# 5 -0.008718 0.001337 -0.007574 0.000002 0.047848 -0.000002
# 6 0.000000 0.000002 0.000000 -0.001200 -0.000002 0.018760
#
#
# Mechanical properties :
#
#
# Convention : Reuss Voigt Hill
#
# Bulk Modulus (GPa) = 65.99062 96.60739 81.29900
# Shear Modulus (GPa) = 32.30162 40.59652 36.44907
#
# Velocity S-wave (km/s) = 3.69421 4.14147 3.92422
# Velocity P-wave (km/s) = 6.78799 7.98028 7.40816
#
# Compressibility (1/GPa) = 0.01515367
#
# Stress axis : x y z
#
# Youngs Moduli (GPa) = 63.42443 93.28738 74.37193
#
# Poissons Ratio (x) = 0.33577 0.39993
# Poissons Ratio (y) = 0.22828 0.25380
# Poissons Ratio (z) = 0.34106 0.31835
#
# Static dielectric constant tensor:
#      x y z
#    x 4.004820 -0.000010 0.479050 
#    y -0.000010 4.660660 0.000000 
#    z 0.479050 0.000000 4.141120 
# 
# 
# High freq. dielectric constant tensor:
#      x y z
#    x 1.926080 0.000000 0.030320 
#    y 0.000000 1.964170 0.000000 
#    z 0.030320 0.000000 1.934720 
# 
# From -- ./inp_files/43689.got.cif
#   From: 2010.03.12/outbox.cif.g09.slc.cpg/sg5_22_cif.got.tgz:43689.got - 2010.03.31 09:47:26.
