data_PCOD8050224
_publ_section_title
;
Structure prediction by ZEFSAII (Michael W. Deem and Ramdas Pophale) SiO2 
 PCOD8050224
Probable space group: C 2
;
_chemical_formula_sum "Si O2"
_cell_formula_units_Z 24
_cell_length_a 15.813037
_cell_length_b 12.120698
_cell_length_c 11.593181
_cell_angle_alpha 90.000000
_cell_angle_beta 147.069338
_cell_angle_gamma 90.000000
_cell_volume 1207.935970
_symmetry_space_group_name_H-M "C 2"
_symmetry_group_IT_number 5
_symmetry_cell_setting 'monoclinic'
loop_
_space_group_symop_operation_xyz
x,y,z
-x,y,-z
1/2+x,1/2+y,z
1/2-x,1/2+y,-z
loop_
_atom_site_type_symbol
_atom_site_label
_atom_site_fract_x
_atom_site_fract_y
_atom_site_fract_z
Si Si1 0.183442 0.506260 0.704248
Si Si2 0.347395 0.162575 0.531525
Si Si3 0.704348 0.206176 0.877708
Si Si4 0.324586 0.765023 0.257857
Si Si5 0.671717 0.080938 0.233569
Si Si6 0.813989 0.339632 0.786104
O O1 0.217287 0.560378 0.618916
O O2 0.251615 0.585126 0.883324
O O3 0.254427 0.383638 0.801745
O O4 0.000000 0.495658 0.500000
O O5 0.523862 0.199349 0.706903
O O6 0.319818 0.127908 0.629566
O O7 0.239830 0.267619 0.384418
O O8 0.733116 0.295656 0.810493
O O9 0.813406 0.241162 0.108715
O O10 0.500000 0.762693 0.500000
O O11 0.235225 0.669324 0.218572
O O12 0.754892 0.962388 0.314855
O O13 0.500000 0.053896 0.000000
O O14 0.000000 0.333014 0.000000
#
# Coordination Sequence:
#
# PCOD8050224 Si02
#       6
#     4   4   4   4   4   4
#     4   8  19  38  63  83 113 165 198 242 308 368
#     4  10  21  43  65  85 125 165 206 246 313 378
#     4  10  21  42  65  88 124 164 206 247 316 373
#     4  11  24  37  62  92 124 158 211 256 303 361
#     4  11  24  41  61  92 126 165 204 256 313 364
#     4  10  24  40  66  91 122 164 205 257 310 362
#
# _framework density 19.868603
#
# number of rings (size 3 to 8) (size 9 to 14) (size 15 to 20)
#    0.000    2.000    1.667    1.500    7.000    4.000 
#    0.000    3.333    0.000    0.000    0.000    0.000 
#    0.000    0.000    0.000    0.000    0.000    0.000 
#
# Total GULP energy -148738.870009 kJ/mol
# GULP energy per Si atom -12394.905834 kJ/mol
# Density = 1.982338 g / cm^3
# Si number density = 19.868603 Si / 1000 Ang^3
#
#
#
# Elastic Constant Matrix: (Units=GPa)
#
#
# Indices 1 2 3 4 5 6 
#
# 1 79.4230 48.2700 21.2055 0.0000 -25.1089 0.0000
# 2 48.2700 176.2303 44.0733 0.0000 -21.0732 0.0000
# 3 21.2055 44.0733 92.4395 0.0000 -28.4882 0.0000
# 4 0.0000 0.0000 0.0000 26.9891 0.0000 4.2071
# 5 -25.1089 -21.0732 -28.4882 0.0000 38.3795 0.0000
# 6 0.0000 0.0000 0.0000 4.2071 0.0000 22.0209
#
#
#
# Elastic Compliance Matrix: (Units=1/GPa)
#
#
# Indices 1 2 3 4 5 6 
#
# 1 0.017985 -0.003925 0.000917 0.000000 0.010292 0.000000
# 2 -0.003925 0.007379 -0.002801 0.000000 -0.000596 0.000000
# 3 0.000917 -0.002801 0.015111 0.000000 0.010278 0.000000
# 4 0.000000 0.000000 0.000000 0.038189 0.000000 -0.007296
# 5 0.010292 -0.000596 0.010278 0.000000 0.040092 0.000000
# 6 0.000000 0.000000 0.000000 -0.007296 0.000000 0.046805
#
#
# Mechanical properties :
#
#
# Convention : Reuss Voigt Hill
#
# Bulk Modulus (GPa) = 34.65345 63.91004 49.28174
# Shear Modulus (GPa) = 26.76702 33.11416 29.94059
#
# Velocity S-wave (km/s) = 3.67441 4.08690 3.88613
# Velocity P-wave (km/s) = 5.95658 7.38285 6.70773
#
# Compressibility (1/GPa) = 0.02885715
#
# Stress axis : x y z
#
# Youngs Moduli (GPa) = 55.60174 135.52399 66.17857
#
# Poissons Ratio (x) = 0.53191 -0.06072
# Poissons Ratio (y) = 0.21823 0.18538
# Poissons Ratio (z) = -0.05101 0.37963
#
# Static dielectric constant tensor:
#      x y z
#    x 3.542140 0.000000 -0.154580 
#    y 0.000000 4.299890 0.000000 
#    z -0.154580 0.000000 3.645070 
# 
# 
# High freq. dielectric constant tensor:
#      x y z
#    x 1.765250 0.000000 -0.017130 
#    y 0.000000 1.794720 0.000000 
#    z -0.017130 0.000000 1.769800 
# 
# From -- ./inp_files/39081.got.cif
#   From: 2010.03.12/outbox.cif.g09.slc.cpg/sg5_20_cif.got.tgz:39081.got - 2010.03.31 09:47:26.
