data_PCOD8050844
_publ_section_title
;
Structure prediction by ZEFSAII (Michael W. Deem and Ramdas Pophale) SiO2 
 PCOD8050844
Probable space group: C 2
;
_chemical_formula_sum "Si O2"
_cell_formula_units_Z 26
_cell_length_a 13.246186
_cell_length_b 6.316033
_cell_length_c 27.768834
_cell_angle_alpha 90.000000
_cell_angle_beta 149.113667
_cell_angle_gamma 90.000000
_cell_volume 1192.600754
_symmetry_space_group_name_H-M "C 2"
_symmetry_group_IT_number 5
_symmetry_cell_setting 'monoclinic'
loop_
_space_group_symop_operation_xyz
x,y,z
-x,y,-z
1/2+x,1/2+y,z
1/2-x,1/2+y,-z
loop_
_atom_site_type_symbol
_atom_site_label
_atom_site_fract_x
_atom_site_fract_y
_atom_site_fract_z
Si Si1 0.700524 0.076820 0.533302
Si Si2 0.525676 0.703056 0.594528
Si Si3 0.310827 0.286944 0.368621
Si Si4 0.746137 0.870480 0.073174
Si Si5 0.111091 0.128192 0.106125
Si Si6 0.000000 0.749112 0.000000
Si Si7 0.168598 0.011614 0.232919
O O1 0.890301 0.078742 0.577281
O O2 0.528104 0.218829 0.440111
O O3 0.747895 0.177056 0.605015
O O4 0.611958 0.836549 0.498972
O O5 0.669524 0.543348 0.623413
O O6 0.658698 0.855797 0.681250
O O7 0.151779 0.203119 0.264773
O O8 0.741966 0.780134 0.126019
O O9 0.968130 0.877959 0.145587
O O10 0.613444 0.719458 0.984536
O O11 0.660313 0.107112 0.038125
O O12 0.212423 0.121120 0.199622
O O13 0.109763 0.891749 0.084492
#
# Coordination Sequence:
#
# PCOD8050844 Si02
#       7
#     4   4   4   4   4   2   4
#     4  10  22  44  68  95 129 178 216 267 343 395
#     4  11  23  44  69  97 134 174 224 272 332 404
#     4  10  24  41  65 100 131 172 218 274 330 395
#     4   9  21  41  60  90 130 170 219 277 322 388
#     4   9  21  41  62  90 128 173 219 268 330 384
#     4   8  18  38  64  80 114 184 212 266 328 378
#     4  11  25  37  61 105 127 172 226 267 333 388
#
# _framework density 21.801093000000002
#
# number of rings (size 3 to 8) (size 9 to 14) (size 15 to 20)
#    0.000    2.462    1.538    0.000    2.154   13.538 
#    0.000    0.000    0.000    0.000    0.000    0.000 
#    0.000    0.000    0.000    0.000    0.000    0.000 
#
# Total GULP energy -161101.493536 kJ/mol
# GULP energy per Si atom -12392.422580 kJ/mol
# Density = 2.175147 g / cm^3
# Si number density = 21.801093 Si / 1000 Ang^3
#
#
#
# Elastic Constant Matrix: (Units=GPa)
#
#
# Indices 1 2 3 4 5 6 
#
# 1 68.2465 25.2686 13.3993 -0.0001 -19.9318 0.0005
# 2 25.2686 119.7466 22.3860 0.0001 -22.7494 0.0009
# 3 13.3993 22.3860 60.3028 -0.0001 -22.9411 0.0000
# 4 -0.0001 0.0001 -0.0001 28.0199 0.0000 0.3924
# 5 -19.9318 -22.7494 -22.9411 0.0000 43.4968 -0.0002
# 6 0.0005 0.0009 0.0000 0.3924 -0.0002 27.4056
#
#
#
# Elastic Compliance Matrix: (Units=1/GPa)
#
#
# Indices 1 2 3 4 5 6 
#
# 1 0.017536 -0.002361 -0.000541 0.000000 0.006515 0.000000
# 2 -0.002361 0.009787 -0.001968 0.000000 0.002999 0.000000
# 3 -0.000541 -0.001968 0.021202 0.000000 0.009905 0.000000
# 4 0.000000 0.000000 0.000000 0.035696 0.000000 -0.000511
# 5 0.006515 0.002999 0.009905 0.000000 0.032768 0.000000
# 6 0.000000 0.000000 0.000000 -0.000511 0.000000 0.036496
#
#
# Mechanical properties :
#
#
# Convention : Reuss Voigt Hill
#
# Bulk Modulus (GPa) = 25.78376 41.15596 33.46986
# Shear Modulus (GPa) = 28.38420 32.26726 30.32573
#
# Velocity S-wave (km/s) = 3.61219 3.85135 3.73368
# Velocity P-wave (km/s) = 5.40830 6.22062 5.82863
#
# Compressibility (1/GPa) = 0.03878410
#
# Stress axis : x y z
#
# Youngs Moduli (GPa) = 57.02491 102.17824 47.16558
#
# Poissons Ratio (x) = 0.24129 0.02553
# Poissons Ratio (y) = 0.13466 0.09280
# Poissons Ratio (z) = 0.03087 0.20104
#
# Static dielectric constant tensor:
#      x y z
#    x 3.604780 0.000000 -0.061270 
#    y 0.000000 4.131230 0.000000 
#    z -0.061270 0.000000 3.797220 
# 
# 
# High freq. dielectric constant tensor:
#      x y z
#    x 1.840030 0.000000 -0.006400 
#    y 0.000000 1.867350 0.000000 
#    z -0.006400 0.000000 1.840280 
# 
# From -- ./inp_files/71859.got.cif
#   From: 2010.03.12/outbox.cif.g09.slc.cpg/sg5_36_cif.got.tgz:71859.got - 2010.03.31 09:47:26.
