data_PCOD8050889
_publ_section_title
;
Structure prediction by ZEFSAII (Michael W. Deem and Ramdas Pophale) SiO2 
 PCOD8050889
Probable space group: C 2
;
_chemical_formula_sum "Si O2"
_cell_formula_units_Z 28
_cell_length_a 19.428815
_cell_length_b 9.663165
_cell_length_c 13.367944
_cell_angle_alpha 90.000000
_cell_angle_beta 150.133115
_cell_angle_gamma 90.000000
_cell_volume 1249.821525
_symmetry_space_group_name_H-M "C 2"
_symmetry_group_IT_number 5
_symmetry_cell_setting 'monoclinic'
loop_
_space_group_symop_operation_xyz
x,y,z
-x,y,-z
1/2+x,1/2+y,z
1/2-x,1/2+y,-z
loop_
_atom_site_type_symbol
_atom_site_label
_atom_site_fract_x
_atom_site_fract_y
_atom_site_fract_z
Si Si1 0.279152 0.761670 0.093496
Si Si2 0.778508 0.462743 0.917483
Si Si3 0.793566 0.577813 0.367742
Si Si4 0.906469 0.523802 0.712921
Si Si5 0.693738 0.398095 0.596006
Si Si6 0.500000 0.906374 0.500000
Si Si7 0.000000 0.004003 0.000000
Si Si8 0.489552 0.333079 0.800775
O O1 0.269973 0.594601 0.077714
O O2 0.426365 0.810059 0.323907
O O3 0.254695 0.823183 0.951682
O O4 0.154205 0.812475 0.006439
O O5 0.689962 0.462357 0.702589
O O6 0.939561 0.463874 0.093728
O O7 0.824803 0.488833 0.507713
O O8 0.831858 0.735714 0.427214
O O9 0.882218 0.505825 0.393687
O O10 0.632968 0.590399 0.133561
O O11 0.830708 0.453021 0.711959
O O12 0.909765 0.689543 0.719545
O O13 0.560797 0.427982 0.357704
O O14 0.943593 0.914339 0.839216
#
# Coordination Sequence:
#
# PCOD8050889 Si02
#       8
#     4   4   4   4   4   2   2   4
#     4  11  26  46  69 104 138 189 240 291 363 424
#     4  11  26  45  72 101 142 188 238 298 352 433
#     4  11  25  42  73 102 144 190 234 296 358 423
#     4  10  22  45  66 102 135 185 230 292 357 421
#     4  11  25  44  70 102 142 186 238 289 363 430
#     4  12  24  48  70 102 142 190 244 296 360 424
#     4  12  22  42  66 110 136 182 236 298 342 420
#     4  10  24  41  69  99 143 182 234 290 358 417
#
# _framework density 22.403199000000001
#
# number of rings (size 3 to 8) (size 9 to 14) (size 15 to 20)
#    0.000    1.143    4.286    0.429    8.000    1.714 
#    0.000    0.000    0.000    0.000    0.000    0.000 
#    0.000    0.000    0.000    0.000    0.000    0.000 
#
# Total GULP energy -173487.066583 kJ/mol
# GULP energy per Si atom -12391.933327 kJ/mol
# Density = 2.235221 g / cm^3
# Si number density = 22.403199 Si / 1000 Ang^3
#
#
#
# Elastic Constant Matrix: (Units=GPa)
#
#
# Indices 1 2 3 4 5 6 
#
# 1 79.6451 32.5734 26.5853 0.0000 -22.4438 0.0000
# 2 32.5734 68.1443 23.1192 0.0000 -15.4101 0.0000
# 3 26.5853 23.1192 117.4760 0.0000 -7.1405 0.0000
# 4 0.0000 0.0000 0.0000 32.7665 0.0000 8.3479
# 5 -22.4438 -15.4101 -7.1405 0.0000 44.2899 0.0000
# 6 0.0000 0.0000 0.0000 8.3479 0.0000 49.2348
#
#
#
# Elastic Compliance Matrix: (Units=1/GPa)
#
#
# Indices 1 2 3 4 5 6 
#
# 1 0.017700 -0.006194 -0.002396 0.000000 0.006428 0.000000
# 2 -0.006194 0.019082 -0.002162 0.000000 0.003152 0.000000
# 3 -0.002396 -0.002162 0.009453 0.000000 -0.000442 0.000000
# 4 0.000000 0.000000 0.000000 0.031897 0.000000 -0.005408
# 5 0.006428 0.003152 -0.000442 0.000000 0.026861 0.000000
# 6 0.000000 0.000000 0.000000 -0.005408 0.000000 0.021228
#
#
# Mechanical properties :
#
#
# Convention : Reuss Voigt Hill
#
# Bulk Modulus (GPa) = 40.43512 47.75792 44.09652
# Shear Modulus (GPa) = 32.05765 37.45742 34.75753
#
# Velocity S-wave (km/s) = 3.78688 4.09341 3.94312
# Velocity P-wave (km/s) = 6.09989 6.61098 6.36057
#
# Compressibility (1/GPa) = 0.02473098
#
# Stress axis : x y z
#
# Youngs Moduli (GPa) = 56.49653 52.40568 105.78480
#
# Poissons Ratio (x) = 0.32462 0.25345
# Poissons Ratio (y) = 0.34996 0.22870
# Poissons Ratio (z) = 0.13536 0.11330
#
# Static dielectric constant tensor:
#      x y z
#    x 3.926970 0.000000 -0.205570 
#    y 0.000000 3.838670 0.000000 
#    z -0.205570 0.000000 4.352210 
# 
# 
# High freq. dielectric constant tensor:
#      x y z
#    x 1.877490 0.000000 -0.005160 
#    y 0.000000 1.869310 0.000000 
#    z -0.005160 0.000000 1.900070 
# 
# From -- ./inp_files/56802.got.cif
#   From: 2010.03.12/outbox.cif.g09.slc.cpg/sg5_29_cif.got.tgz:56802.got - 2010.03.31 09:47:26.
