data_PCOD8050556
_publ_section_title
;
Structure prediction by ZEFSAII (Michael W. Deem and Ramdas Pophale) SiO2 
 PCOD8050556
Probable space group: C 2
;
_chemical_formula_sum "Si O2"
_cell_formula_units_Z 26
_cell_length_a 11.577905
_cell_length_b 7.695074
_cell_length_c 25.930267
_cell_angle_alpha 90.000000
_cell_angle_beta 151.024202
_cell_angle_gamma 90.000000
_cell_volume 1119.154090
_symmetry_space_group_name_H-M "C 2"
_symmetry_group_IT_number 5
_symmetry_cell_setting 'monoclinic'
loop_
_space_group_symop_operation_xyz
x,y,z
-x,y,-z
1/2+x,1/2+y,z
1/2-x,1/2+y,-z
loop_
_atom_site_type_symbol
_atom_site_label
_atom_site_fract_x
_atom_site_fract_y
_atom_site_fract_z
Si Si1 0.705619 0.075190 0.813961
Si Si2 0.740878 0.639092 0.905593
Si Si3 0.690807 0.707976 0.774541
Si Si4 0.947832 0.766051 0.622308
Si Si5 0.500000 0.809047 0.000000
Si Si6 0.705104 0.104257 0.540413
Si Si7 0.575831 0.933677 0.199591
O O1 0.538710 0.177538 0.709742
O O2 0.800371 0.902862 0.821357
O O3 0.547194 0.020865 0.800262
O O4 0.919388 0.193282 0.919771
O O5 0.611482 0.637211 0.799458
O O6 0.573428 0.759015 0.877328
O O7 0.000000 0.734008 0.000000
O O8 0.787390 0.436653 0.939321
O O9 0.449620 0.709526 0.646763
O O10 0.899901 0.579303 0.835676
O O11 0.861026 0.633706 0.545119
O O12 0.161478 0.877235 0.680626
O O13 0.740694 0.897407 0.559253
O O14 0.500000 0.164967 0.500000
#
# Coordination Sequence:
#
# PCOD8050556 Si02
#       7
#     4   4   4   4   2   4   4
#     4  11  24  43  65  96 143 175 231 287 341 414
#     4   9  21  43  67  94 137 177 232 286 340 406
#     4  10  22  43  68 102 133 179 236 281 349 420
#     4  11  25  43  66 103 130 175 233 273 348 424
#     4  10  22  40  68  96 136 190 226 282 346 406
#     4  11  23  42  71  98 135 177 221 287 346 404
#     4  10  23  44  70  94 139 180 225 298 341 394
#
# _framework density 23.231833000000002
#
# number of rings (size 3 to 8) (size 9 to 14) (size 15 to 20)
#    0.462    1.231    0.000    4.615    4.308    4.923 
#    5.538    0.769    0.000    0.000    0.000    0.000 
#    0.000    0.000    0.000    0.000    0.000    0.000 
#
# Total GULP energy -161079.544239 kJ/mol
# GULP energy per Si atom -12390.734172 kJ/mol
# Density = 2.317896 g / cm^3
# Si number density = 23.231833 Si / 1000 Ang^3
#
#
#
# Elastic Constant Matrix: (Units=GPa)
#
#
# Indices 1 2 3 4 5 6 
#
# 1 65.8218 51.4466 22.5298 0.0000 -0.2730 0.0000
# 2 51.4466 194.1880 74.0709 -0.0002 -14.9485 0.0000
# 3 22.5298 74.0709 102.5765 -0.0004 -10.9896 0.0000
# 4 0.0000 -0.0002 -0.0004 43.6983 0.0000 -2.8135
# 5 -0.2730 -14.9485 -10.9896 0.0000 31.2947 0.0000
# 6 0.0000 0.0000 0.0000 -2.8135 0.0000 32.1573
#
#
#
# Elastic Compliance Matrix: (Units=1/GPa)
#
#
# Indices 1 2 3 4 5 6 
#
# 1 0.019392 -0.004975 -0.000939 0.000000 -0.002537 0.000000
# 2 -0.004975 0.008467 -0.004772 0.000000 0.002325 0.000000
# 3 -0.000939 -0.004772 0.013670 0.000000 0.002513 0.000000
# 4 0.000000 0.000000 0.000000 0.023014 0.000000 0.002013
# 5 -0.002537 0.002325 0.002513 0.000000 0.033925 0.000000
# 6 0.000000 0.000000 0.000000 0.002013 0.000000 0.031273
#
#
# Mechanical properties :
#
#
# Convention : Reuss Voigt Hill
#
# Bulk Modulus (GPa) = 49.60929 73.18675 61.39802
# Shear Modulus (GPa) = 31.67936 35.73264 33.70600
#
# Velocity S-wave (km/s) = 3.69673 3.92610 3.81314
# Velocity P-wave (km/s) = 6.29456 7.21966 6.77292
#
# Compressibility (1/GPa) = 0.02015751
#
# Stress axis : x y z
#
# Youngs Moduli (GPa) = 51.56887 118.10679 73.15145
#
# Poissons Ratio (x) = 0.58754 0.06867
# Poissons Ratio (y) = 0.25654 0.34910
# Poissons Ratio (z) = 0.04841 0.56364
#
# Static dielectric constant tensor:
#      x y z
#    x 3.926620 0.000000 -0.049520 
#    y 0.000000 4.598900 0.000000 
#    z -0.049520 0.000000 4.198900 
# 
# 
# High freq. dielectric constant tensor:
#      x y z
#    x 1.898380 0.000000 -0.010150 
#    y 0.000000 1.929660 0.000000 
#    z -0.010150 0.000000 1.918740 
# 
# From -- ./inp_files/70371.got.cif
#   From: 2010.03.12/outbox.cif.g09.slc.cpg/sg5_36_cif.got.tgz:70371.got - 2010.03.31 09:47:26.
