data_PCOD8050442
_publ_section_title
;
Structure prediction by ZEFSAII (Michael W. Deem and Ramdas Pophale) SiO2 
 PCOD8050442
Probable space group: C 2
;
_chemical_formula_sum "Si O2"
_cell_formula_units_Z 18
_cell_length_a 9.147396
_cell_length_b 9.141846
_cell_length_c 10.935996
_cell_angle_alpha 90.000000
_cell_angle_beta 61.810877
_cell_angle_gamma 90.000000
_cell_volume 806.045194
_symmetry_space_group_name_H-M "C 2"
_symmetry_group_IT_number 5
_symmetry_cell_setting 'monoclinic'
loop_
_space_group_symop_operation_xyz
x,y,z
-x,y,-z
1/2+x,1/2+y,z
1/2-x,1/2+y,-z
loop_
_atom_site_type_symbol
_atom_site_label
_atom_site_fract_x
_atom_site_fract_y
_atom_site_fract_z
Si Si1 0.353755 0.977950 0.309222
Si Si2 0.300317 0.302574 0.421849
Si Si3 0.345241 0.814396 0.767020
Si Si4 0.088665 0.999334 0.221489
Si Si5 0.500000 0.383543 0.000000
O O1 0.278471 0.843011 0.417149
O O2 0.550574 0.946439 0.212406
O O3 0.329681 0.128855 0.393269
O O4 0.272306 0.977107 0.206688
O O5 0.172973 0.355690 0.367885
O O6 0.471721 0.390470 0.342305
O O7 0.455071 0.668440 0.738378
O O8 0.158591 0.788829 0.894252
O O9 0.073544 0.978848 0.081975
#
# Coordination Sequence:
#
# PCOD8050442 Si02
#       5
#     4   4   4   4   2
#     4  11  22  38  64  92 122 159 197 242 301 361
#     4  10  22  39  60  93 127 153 194 247 299 361
#     4  10  23  41  61  87 121 160 201 249 297 350
#     4  10  23  40  61  88 121 158 201 247 297 353
#     4  10  24  42  60  86 122 158 206 254 292 344
#
# _framework density 22.331253
#
# number of rings (size 3 to 8) (size 9 to 14) (size 15 to 20)
#    0.000    1.778    0.000    2.667    0.000   18.667 
#    0.000    0.000    0.000    1.333    0.000    0.000 
#    0.000    0.000    0.000    0.000    0.000    0.000 
#
# Total GULP energy -111520.165057 kJ/mol
# GULP energy per Si atom -12391.129451 kJ/mol
# Density = 2.228043 g / cm^3
# Si number density = 22.331253 Si / 1000 Ang^3
#
#
#
# Elastic Constant Matrix: (Units=GPa)
#
#
# Indices 1 2 3 4 5 6 
#
# 1 145.4763 74.1777 48.9250 0.0000 10.4925 0.0000
# 2 74.1777 103.7261 19.7825 0.0000 -7.3114 0.0000
# 3 48.9250 19.7825 78.4632 0.0000 6.4011 0.0000
# 4 0.0000 0.0000 0.0000 19.7887 0.0000 -1.9415
# 5 10.4925 -7.3114 6.4011 0.0000 40.2289 0.0000
# 6 0.0000 0.0000 0.0000 -1.9415 0.0000 38.2416
#
#
#
# Elastic Compliance Matrix: (Units=1/GPa)
#
#
# Indices 1 2 3 4 5 6 
#
# 1 0.013797 -0.009029 -0.005977 0.000000 -0.004289 0.000000
# 2 -0.009029 0.016247 0.001115 0.000000 0.005130 0.000000
# 3 -0.005977 0.001115 0.016258 0.000000 -0.000825 0.000000
# 4 0.000000 0.000000 0.000000 0.050787 0.000000 0.002578
# 5 -0.004289 0.005130 -0.000825 0.000000 0.027040 0.000000
# 6 0.000000 0.000000 0.000000 0.002578 0.000000 0.026280
#
#
# Mechanical properties :
#
#
# Convention : Reuss Voigt Hill
#
# Bulk Modulus (GPa) = 53.99455 68.15956 61.07705
# Shear Modulus (GPa) = 27.12023 31.97054 29.54539
#
# Velocity S-wave (km/s) = 3.48868 3.78782 3.64132
# Velocity P-wave (km/s) = 6.36076 7.05113 6.71482
#
# Compressibility (1/GPa) = 0.01852039
#
# Stress axis : x y z
#
# Youngs Moduli (GPa) = 72.47768 61.55052 61.50916
#
# Poissons Ratio (x) = 0.55576 0.36763
# Poissons Ratio (y) = 0.65442 -0.06861
# Poissons Ratio (z) = 0.43319 -0.06865
#
# Static dielectric constant tensor:
#      x y z
#    x 4.335510 0.000000 0.071650 
#    y 0.000000 3.925620 0.000000 
#    z 0.071650 0.000000 3.817600 
# 
# 
# High freq. dielectric constant tensor:
#      x y z
#    x 1.900340 0.000000 0.004170 
#    y 0.000000 1.873630 0.000000 
#    z 0.004170 0.000000 1.859530 
# 
# From -- ./inp_files/34608.got.cif
#   From: 2010.03.12/outbox.cif.g09.slc.cpg/sg5_18_cif.got.tgz:34608.got - 2010.03.31 09:47:26.
