data_PCOD8050818
_publ_section_title
;
Structure prediction by ZEFSAII (Michael W. Deem and Ramdas Pophale) SiO2 
 PCOD8050818
Probable space group: C 2
;
_chemical_formula_sum "Si O2"
_cell_formula_units_Z 22
_cell_length_a 9.907084
_cell_length_b 20.916506
_cell_length_c 4.962390
_cell_angle_alpha 90.000000
_cell_angle_beta 74.023462
_cell_angle_gamma 90.000000
_cell_volume 988.595137
_symmetry_space_group_name_H-M "C 2"
_symmetry_group_IT_number 5
_symmetry_cell_setting 'monoclinic'
loop_
_space_group_symop_operation_xyz
x,y,z
-x,y,-z
1/2+x,1/2+y,z
1/2-x,1/2+y,-z
loop_
_atom_site_type_symbol
_atom_site_label
_atom_site_fract_x
_atom_site_fract_y
_atom_site_fract_z
Si Si1 0.841924 0.667480 0.123574
Si Si2 0.352573 0.866042 0.456837
Si Si3 0.000000 0.459321 0.000000
Si Si4 0.654123 0.550570 0.321809
Si Si5 0.157986 0.752513 0.379507
Si Si6 0.259271 0.982996 0.788424
O O1 0.731422 0.610795 0.143937
O O2 0.819537 0.692966 0.436169
O O3 0.812430 0.726285 0.936061
O O4 0.000000 0.641553 0.000000
O O5 0.500000 0.841084 0.500000
O O6 0.382376 0.915706 0.203114
O O7 0.267777 0.807502 0.384014
O O8 0.260132 0.906541 0.724983
O O9 0.086520 0.501533 0.170184
O O10 0.500000 0.570269 0.500000
O O11 0.740809 0.524068 0.527822
O O12 0.643402 0.498709 0.083359
O O13 0.000000 0.779865 0.500000
#
# Coordination Sequence:
#
# PCOD8050818 Si02
#       6
#     4   4   2   4   4   4
#     4  10  24  44  69  95 132 182 234 273 338 407
#     4  10  23  41  70 103 136 177 229 279 343 411
#     4  10  22  44  64 108 128 182 234 274 336 430
#     4  12  26  45  67 104 140 180 231 289 347 407
#     4  10  23  45  67  99 132 175 228 283 335 407
#     4  11  24  43  69  97 142 176 228 278 348 410
#
# _framework density 22.253799999999998
#
# number of rings (size 3 to 8) (size 9 to 14) (size 15 to 20)
#    0.000    1.455    1.818    1.636    6.364    1.455 
#    3.273    0.000    0.000    0.000    0.000    0.000 
#    0.000    0.000    0.000    0.000    0.000    0.000 
#
# Total GULP energy -136374.433158 kJ/mol
# GULP energy per Si atom -12397.675742 kJ/mol
# Density = 2.220315 g / cm^3
# Si number density = 22.253800 Si / 1000 Ang^3
#
#
#
# Elastic Constant Matrix: (Units=GPa)
#
#
# Indices 1 2 3 4 5 6 
#
# 1 132.5166 80.4622 41.4171 0.0000 -2.6302 0.0000
# 2 80.4622 85.2814 31.9370 0.0000 -10.0887 0.0000
# 3 41.4171 31.9370 109.0055 0.0000 -0.5110 0.0000
# 4 0.0000 0.0000 0.0000 16.9830 0.0000 9.0673
# 5 -2.6302 -10.0887 -0.5110 0.0000 42.8606 0.0000
# 6 0.0000 0.0000 0.0000 9.0673 0.0000 40.9932
#
#
#
# Elastic Compliance Matrix: (Units=1/GPa)
#
#
# Indices 1 2 3 4 5 6 
#
# 1 0.018426 -0.016961 -0.002046 0.000000 -0.002886 0.000000
# 2 -0.016961 0.029195 -0.002082 0.000000 0.005806 0.000000
# 3 -0.002046 -0.002082 0.010559 0.000000 -0.000490 0.000000
# 4 0.000000 0.000000 0.000000 0.066767 0.000000 -0.014768
# 5 -0.002886 0.005806 -0.000490 0.000000 0.024515 0.000000
# 6 0.000000 0.000000 0.000000 -0.014768 0.000000 0.027661
#
#
# Mechanical properties :
#
#
# Convention : Reuss Voigt Hill
#
# Bulk Modulus (GPa) = 62.48670 70.49291 66.48980
# Shear Modulus (GPa) = 22.25839 31.69983 26.97911
#
# Velocity S-wave (km/s) = 3.16603 3.77831 3.48564
# Velocity P-wave (km/s) = 6.44245 7.12599 6.79282
#
# Compressibility (1/GPa) = 0.01600341
#
# Stress axis : x y z
#
# Youngs Moduli (GPa) = 54.26967 34.25283 94.70762
#
# Poissons Ratio (x) = 0.58095 0.19373
# Poissons Ratio (y) = 0.92045 0.19720
# Poissons Ratio (z) = 0.11101 0.07132
#
# Static dielectric constant tensor:
#      x y z
#    x 3.977520 0.000000 0.153400 
#    y 0.000000 3.662180 0.000000 
#    z 0.153400 0.000000 4.411090 
# 
# 
# High freq. dielectric constant tensor:
#      x y z
#    x 1.870700 0.000000 0.013170 
#    y 0.000000 1.853640 0.000000 
#    z 0.013170 0.000000 1.899320 
# 
# From -- ./inp_files/2954.got.cif
#   From: 2010.03.12/outbox.cif.g09.slc.cpg/sg5_2_cif.got.tgz:2954.got - 2010.03.31 09:47:26.
