data_PCOD8050855
_publ_section_title
;
Structure prediction by ZEFSAII (Michael W. Deem and Ramdas Pophale) SiO2 
 PCOD8050855
Probable space group: C 2
;
_chemical_formula_sum "Si O2"
_cell_formula_units_Z 26
_cell_length_a 9.263075
_cell_length_b 12.233538
_cell_length_c 10.608348
_cell_angle_alpha 90.000000
_cell_angle_beta 87.088597
_cell_angle_gamma 90.000000
_cell_volume 1200.588265
_symmetry_space_group_name_H-M "C 2"
_symmetry_group_IT_number 5
_symmetry_cell_setting 'monoclinic'
loop_
_space_group_symop_operation_xyz
x,y,z
-x,y,-z
1/2+x,1/2+y,z
1/2-x,1/2+y,-z
loop_
_atom_site_type_symbol
_atom_site_label
_atom_site_fract_x
_atom_site_fract_y
_atom_site_fract_z
Si Si1 0.992674 0.420900 0.247246
Si Si2 0.422104 0.147670 0.686648
Si Si3 0.000000 0.311283 0.500000
Si Si4 0.736047 0.154255 0.562663
Si Si5 0.381477 0.319728 0.901938
Si Si6 0.207327 0.023772 0.210096
Si Si7 0.868155 0.239666 0.924903
O O1 0.945381 0.389324 0.391018
O O2 0.850263 0.452355 0.175239
O O3 0.087967 0.530424 0.245925
O O4 0.077723 0.320588 0.185302
O O5 0.584638 0.184390 0.639000
O O6 0.306158 0.133067 0.579592
O O7 0.368980 0.236536 0.787153
O O8 0.861980 0.244151 0.557315
O O9 0.803242 0.050967 0.638788
O O10 0.413857 0.440722 0.839970
O O11 0.500000 0.288630 0.000000
O O12 0.231419 0.311764 0.981613
O O13 0.213063 0.137865 0.135277
O O14 0.000000 0.191571 0.000000
#
# Coordination Sequence:
#
# PCOD8050855 Si02
#       7
#     4   4   2   4   4   4   4
#     4  11  23  44  74 100 141 187 241 296 367 428
#     4  10  24  45  71 101 140 189 238 299 369 433
#     4  12  22  42  76 104 136 186 240 304 366 428
#     4  10  22  44  70 103 136 178 245 301 358 431
#     4  12  26  44  71 103 149 190 238 299 366 438
#     4  11  23  46  68 102 144 181 244 298 356 424
#     4  12  26  46  71 107 140 194 245 296 359 441
#
# _framework density 21.656051999999999
#
# number of rings (size 3 to 8) (size 9 to 14) (size 15 to 20)
#    0.000    0.923    3.077    5.077    2.154    0.615 
#    2.769    4.615    0.000    0.000    0.000    0.000 
#    0.000    0.000    0.000    0.000    0.000    0.000 
#
# Total GULP energy -161091.532334 kJ/mol
# GULP energy per Si atom -12391.656333 kJ/mol
# Density = 2.160676 g / cm^3
# Si number density = 21.656052 Si / 1000 Ang^3
#
#
#
# Elastic Constant Matrix: (Units=GPa)
#
#
# Indices 1 2 3 4 5 6 
#
# 1 72.6172 24.8280 31.2889 0.0000 10.8415 0.0000
# 2 24.8280 145.3020 63.2245 0.0000 1.4268 0.0000
# 3 31.2889 63.2245 139.0290 0.0000 14.1872 0.0000
# 4 0.0000 0.0000 0.0000 57.0394 0.0000 18.7014
# 5 10.8415 1.4268 14.1872 0.0000 32.1424 0.0000
# 6 0.0000 0.0000 0.0000 18.7014 0.0000 36.5866
#
#
#
# Elastic Compliance Matrix: (Units=1/GPa)
#
#
# Indices 1 2 3 4 5 6 
#
# 1 0.016011 -0.001640 -0.002423 0.000000 -0.004258 0.000000
# 2 -0.001640 0.008809 -0.003826 0.000000 0.001851 0.000000
# 3 -0.002423 -0.003826 0.009819 0.000000 -0.003347 0.000000
# 4 0.000000 0.000000 0.000000 0.021061 0.000000 -0.010766
# 5 -0.004258 0.001851 -0.003347 0.000000 0.033943 0.000000
# 6 0.000000 0.000000 0.000000 -0.010766 0.000000 0.032835
#
#
# Mechanical properties :
#
#
# Convention : Reuss Voigt Hill
#
# Bulk Modulus (GPa) = 53.01565 66.18121 59.59843
# Shear Modulus (GPa) = 34.59153 40.99414 37.79283
#
# Velocity S-wave (km/s) = 4.00098 4.35554 4.18202
# Velocity P-wave (km/s) = 6.77331 7.47802 7.13437
#
# Compressibility (1/GPa) = 0.01886235
#
# Stress axis : x y z
#
# Youngs Moduli (GPa) = 62.45597 113.52162 101.83894
#
# Poissons Ratio (x) = 0.18614 0.24678
# Poissons Ratio (y) = 0.10241 0.38961
# Poissons Ratio (z) = 0.15134 0.43431
#
# Static dielectric constant tensor:
#      x y z
#    x 3.850620 0.000000 0.295550 
#    y 0.000000 3.892310 0.000000 
#    z 0.295550 0.000000 4.108190 
# 
# 
# High freq. dielectric constant tensor:
#      x y z
#    x 1.839970 0.000000 0.025870 
#    y 0.000000 1.853410 0.000000 
#    z 0.025870 0.000000 1.868280 
# 
# From -- ./inp_files/35451.got.cif
#   From: 2010.03.12/outbox.cif.g09.slc.cpg/sg5_18_cif.got.tgz:35451.got - 2010.03.31 09:47:26.
