data_PCOD8050909
_publ_section_title
;
Structure prediction by ZEFSAII (Michael W. Deem and Ramdas Pophale) SiO2 
 PCOD8050909
Probable space group: C 2
;
_chemical_formula_sum "Si O2"
_cell_formula_units_Z 24
_cell_length_a 17.558179
_cell_length_b 5.016744
_cell_length_c 22.946126
_cell_angle_alpha 90.000000
_cell_angle_beta 148.316137
_cell_angle_gamma 90.000000
_cell_volume 1061.602586
_symmetry_space_group_name_H-M "C 2"
_symmetry_group_IT_number 5
_symmetry_cell_setting 'monoclinic'
loop_
_space_group_symop_operation_xyz
x,y,z
-x,y,-z
1/2+x,1/2+y,z
1/2-x,1/2+y,-z
loop_
_atom_site_type_symbol
_atom_site_label
_atom_site_fract_x
_atom_site_fract_y
_atom_site_fract_z
Si Si1 0.959332 0.567540 0.152523
Si Si2 0.936178 0.836899 0.607335
Si Si3 0.752679 0.422548 0.788187
Si Si4 0.320947 0.730257 0.959966
Si Si5 0.412758 0.432144 0.849024
Si Si6 0.372603 0.833716 0.638443
O O1 0.826555 0.629062 0.108190
O O2 0.046788 0.833949 0.190214
O O3 0.070381 0.378076 0.259189
O O4 0.903073 0.429196 0.057151
O O5 0.801582 0.867110 0.475383
O O6 0.944865 0.541907 0.640151
O O7 0.080500 0.907490 0.665269
O O8 0.918398 0.038281 0.649802
O O9 0.786478 0.371565 0.877475
O O10 0.814172 0.715023 0.816733
O O11 0.824859 0.209879 0.791351
O O12 0.430953 0.485533 0.017942
#
# Coordination Sequence:
#
# PCOD8050909 Si02
#       6
#     4   4   4   4   4   4
#     4  12  26  44  69 104 136 178 226 285 330 395
#     4  10  22  45  72 103 124 180 222 289 323 407
#     4  12  27  45  70  98 141 179 228 265 345 409
#     4  12  27  42  71  99 140 182 225 272 335 404
#     4  12  28  44  65 101 143 182 215 278 335 405
#     4  10  23  43  74  99 134 164 238 279 336 378
#
# _framework density 22.607330999999999
#
# number of rings (size 3 to 8) (size 9 to 14) (size 15 to 20)
#    0.000    0.667    5.000    1.500    9.333    0.000 
#    0.000    0.833    3.667    0.000    0.000    0.000 
#    0.000    0.000    0.000    0.000    0.000    0.000 
#
# Total GULP energy -148806.732483 kJ/mol
# GULP energy per Si atom -12400.561040 kJ/mol
# Density = 2.255588 g / cm^3
# Si number density = 22.607331 Si / 1000 Ang^3
#
#
#
# Elastic Constant Matrix: (Units=GPa)
#
#
# Indices 1 2 3 4 5 6 
#
# 1 68.8044 -9.1844 23.1999 0.0099 25.4810 0.0124
# 2 -9.1844 43.2249 -13.0801 0.0261 -7.7647 -0.0154
# 3 23.1999 -13.0801 82.1748 0.0097 11.3499 -0.0098
# 4 0.0099 0.0261 0.0097 27.7038 0.0062 2.8545
# 5 25.4810 -7.7647 11.3499 0.0062 28.9102 -0.0148
# 6 0.0124 -0.0154 -0.0098 2.8545 -0.0148 18.9121
#
#
#
# Elastic Compliance Matrix: (Units=1/GPa)
#
#
# Indices 1 2 3 4 5 6 
#
# 1 0.022678 0.000363 -0.003804 0.000000 -0.018398 -0.000031
# 2 0.000363 0.025103 0.003179 -0.000029 0.005175 0.000030
# 3 -0.003804 0.003179 0.013923 -0.000007 -0.001260 0.000012
# 4 0.000000 -0.000029 -0.000007 0.036666 -0.000016 -0.005534
# 5 -0.018398 0.005175 -0.001260 -0.000016 0.052690 0.000059
# 6 -0.000031 0.000030 0.000012 -0.005534 0.000059 0.053712
#
#
# Mechanical properties :
#
#
# Convention : Reuss Voigt Hill
#
# Bulk Modulus (GPa) = 16.34523 21.78610 19.06566
# Shear Modulus (GPa) = 22.15424 27.98980 25.07202
#
# Velocity S-wave (km/s) = 3.13382 3.52246 3.33381
# Velocity P-wave (km/s) = 4.51001 5.11872 4.82398
#
# Compressibility (1/GPa) = 0.06117993
#
# Stress axis : x y z
#
# Youngs Moduli (GPa) = 44.09492 39.83533 71.82335
#
# Poissons Ratio (x) = -0.01445 0.27320
# Poissons Ratio (y) = -0.01600 -0.22830
# Poissons Ratio (z) = 0.16773 -0.12662
#
# Static dielectric constant tensor:
#      x y z
#    x 4.337060 -0.000010 0.451920 
#    y -0.000010 4.244090 0.000010 
#    z 0.451920 0.000010 4.260280 
# 
# 
# High freq. dielectric constant tensor:
#      x y z
#    x 1.886500 0.000000 0.022220 
#    y 0.000000 1.906120 0.000000 
#    z 0.022220 0.000000 1.887910 
# 
# From -- ./inp_files/69017.got.cif
#   From: 2010.03.12/outbox.cif.g09.slc.cpg/sg5_35_cif.got.tgz:69017.got - 2010.03.31 09:47:26.
