data_PCOD8050467
_publ_section_title
;
Structure prediction by ZEFSAII (Michael W. Deem and Ramdas Pophale) SiO2 
 PCOD8050467
Probable space group: C 2
;
_chemical_formula_sum "Si O2"
_cell_formula_units_Z 32
_cell_length_a 22.968014
_cell_length_b 6.267522
_cell_length_c 22.443040
_cell_angle_alpha 90.000000
_cell_angle_beta 27.739412
_cell_angle_gamma 90.000000
_cell_volume 1503.747558
_symmetry_space_group_name_H-M "C 2"
_symmetry_group_IT_number 5
_symmetry_cell_setting 'monoclinic'
loop_
_space_group_symop_operation_xyz
x,y,z
-x,y,-z
1/2+x,1/2+y,z
1/2-x,1/2+y,-z
loop_
_atom_site_type_symbol
_atom_site_label
_atom_site_fract_x
_atom_site_fract_y
_atom_site_fract_z
Si Si1 0.984798 0.092890 0.226711
Si Si2 0.459112 0.980898 0.171340
Si Si3 0.384580 0.645101 0.142075
Si Si4 0.996639 0.333596 0.433411
Si Si5 0.665751 0.322171 0.986085
Si Si6 0.198799 0.653443 0.214455
Si Si7 0.104874 0.054542 0.235693
Si Si8 0.789200 0.858335 0.329491
O O1 0.994964 0.340825 0.197400
O O2 0.989073 0.059192 0.294258
O O3 0.852033 0.002335 0.324147
O O4 0.102823 0.956703 0.095714
O O5 0.333011 0.114201 0.298307
O O6 0.438426 0.826866 0.135216
O O7 0.568931 0.141574 0.052501
O O8 0.273474 0.750602 0.203138
O O9 0.331747 0.444886 0.226621
O O10 0.500000 0.554282 0.000000
O O11 0.070776 0.551063 0.354055
O O12 0.061006 0.140553 0.339459
O O13 0.000000 0.272992 0.500000
O O14 0.859159 0.370708 0.531771
O O15 0.702135 0.480486 0.899805
O O16 0.793140 0.204116 0.889962
O O17 0.164297 0.822975 0.194509
#
# Coordination Sequence:
#
# PCOD8050467 Si02
#       8
#     4   4   4   4   4   4   4   4
#     4  10  23  43  65 101 133 170 221 272 336 402
#     4  10  22  39  67  96 133 179 214 265 343 393
#     4  11  21  36  64  99 135 171 223 270 336 404
#     4  11  25  47  67  96 134 174 232 285 326 392
#     4  10  22  39  65  99 140 169 216 269 337 402
#     4  11  24  42  65 101 135 178 223 275 338 395
#     4  11  26  41  69 102 131 182 223 270 343 400
#     4  10  23  44  65  91 133 180 216 283 329 388
#
# _framework density 21.280168
#
# number of rings (size 3 to 8) (size 9 to 14) (size 15 to 20)
#    0.000    1.500    1.250    3.750    5.250    7.000 
#    4.500    1.250    0.000    0.000    0.000    0.000 
#    0.000    0.000    0.000    0.000    0.000    0.000 
#
# Total GULP energy -198390.491040 kJ/mol
# GULP energy per Si atom -12399.405690 kJ/mol
# Density = 2.123173 g / cm^3
# Si number density = 21.280168 Si / 1000 Ang^3
#
#
#
# Elastic Constant Matrix: (Units=GPa)
#
#
# Indices 1 2 3 4 5 6 
#
# 1 144.0899 44.2029 36.7084 0.0084 -7.9823 -0.0153
# 2 44.2029 112.3547 36.4254 0.0021 0.8915 -0.0339
# 3 36.7084 36.4254 100.5496 0.0306 -14.9475 -0.0184
# 4 0.0084 0.0021 0.0306 17.7995 -0.0142 -0.2193
# 5 -7.9823 0.8915 -14.9475 -0.0142 30.6237 0.0363
# 6 -0.0153 -0.0339 -0.0184 -0.2193 0.0363 24.3947
#
#
#
# Elastic Compliance Matrix: (Units=1/GPa)
#
#
# Indices 1 2 3 4 5 6 
#
# 1 0.008310 -0.002675 -0.001867 0.000001 0.001333 -0.000002
# 2 -0.002675 0.011090 -0.003442 0.000004 -0.002700 0.000015
# 3 -0.001867 -0.003442 0.012741 -0.000016 0.005833 -0.000005
# 4 0.000001 0.000004 -0.000016 0.056188 0.000018 0.000505
# 5 0.001333 -0.002700 0.005833 0.000018 0.035927 -0.000052
# 6 -0.000002 0.000015 -0.000005 0.000505 -0.000052 0.040997
#
#
# Mechanical properties :
#
#
# Convention : Reuss Voigt Hill
#
# Bulk Modulus (GPa) = 61.83035 65.74084 63.78560
# Shear Modulus (GPa) = 26.79348 30.54074 28.66711
#
# Velocity S-wave (km/s) = 3.55220 3.79248 3.67431
# Velocity P-wave (km/s) = 6.77810 7.08077 6.93109
#
# Compressibility (1/GPa) = 0.01617329
#
# Stress axis : x y z
#
# Youngs Moduli (GPa) = 120.33615 90.16988 78.48692
#
# Poissons Ratio (x) = 0.24118 0.14651
# Poissons Ratio (y) = 0.32187 0.27019
# Poissons Ratio (z) = 0.22463 0.31041
#
# Static dielectric constant tensor:
#      x y z
#    x 3.850140 0.000020 -0.193810 
#    y 0.000020 3.949630 0.000060 
#    z -0.193810 0.000060 3.786740 
# 
# 
# High freq. dielectric constant tensor:
#      x y z
#    x 1.838050 -0.000010 -0.015130 
#    y -0.000010 1.835000 0.000010 
#    z -0.015130 0.000010 1.826940 
# 
# From -- ./inp_files/47035.got.cif
#   From: 2010.03.12/outbox.cif.g09.slc.cpg/sg5_24_cif.got.tgz:47035.got - 2010.03.31 09:47:26.
