data_PCOD8050474
_publ_section_title
;
Structure prediction by ZEFSAII (Michael W. Deem and Ramdas Pophale) SiO2 
 PCOD8050474
Probable space group: C 2
;
_chemical_formula_sum "Si O2"
_cell_formula_units_Z 32
_cell_length_a 18.010149
_cell_length_b 13.708328
_cell_length_c 11.810206
_cell_angle_alpha 90.000000
_cell_angle_beta 32.010547
_cell_angle_gamma 90.000000
_cell_volume 1545.599206
_symmetry_space_group_name_H-M "C 2"
_symmetry_group_IT_number 5
_symmetry_cell_setting 'monoclinic'
loop_
_space_group_symop_operation_xyz
x,y,z
-x,y,-z
1/2+x,1/2+y,z
1/2-x,1/2+y,-z
loop_
_atom_site_type_symbol
_atom_site_label
_atom_site_fract_x
_atom_site_fract_y
_atom_site_fract_z
Si Si1 0.056003 0.275910 0.050249
Si Si2 0.349739 0.227841 0.710958
Si Si3 0.104863 0.687234 0.096628
Si Si4 0.953342 0.870108 0.189016
Si Si5 0.084566 0.084645 0.699193
Si Si6 0.648867 0.858158 0.512756
Si Si7 0.150488 0.578809 0.488075
Si Si8 0.861907 0.168791 0.607937
O O1 0.034884 0.162700 0.113873
O O2 0.981027 0.346887 0.235026
O O3 0.222553 0.297659 0.837618
O O4 0.000000 0.301061 0.000000
O O5 0.500000 0.282719 0.500000
O O6 0.323126 0.196860 0.874325
O O7 0.355126 0.133048 0.624002
O O8 0.045208 0.792508 0.137750
O O9 0.978453 0.609860 0.264492
O O10 0.221672 0.646574 0.860140
O O11 0.789933 0.840108 0.403747
O O12 0.977842 0.976038 0.213510
O O13 0.000000 0.875072 0.000000
O O14 0.207514 0.103177 0.629927
O O15 0.142763 0.102486 0.497992
O O16 0.637671 0.783071 0.423867
O O17 0.644150 0.965109 0.465991
O O18 0.000000 0.142560 0.500000
#
# Coordination Sequence:
#
# PCOD8050474 Si02
#       8
#     4   4   4   4   4   4   4   4
#     4  11  20  39  67  94 127 169 213 262 319 373
#     4  10  23  40  63  94 128 169 209 261 318 379
#     4  11  22  40  65  92 128 168 205 261 331 375
#     4  11  22  40  67  97 122 167 218 263 313 380
#     4  10  22  39  67  95 125 163 218 264 310 381
#     4  10  23  40  64  97 124 163 216 264 308 381
#     4  10  22  42  64  96 126 164 216 264 313 377
#     4  11  23  42  61  90 130 166 208 263 322 378
#
# _framework density 20.703945000000001
#
# number of rings (size 3 to 8) (size 9 to 14) (size 15 to 20)
#    0.000    1.500    2.500    3.375    3.500    1.500 
#    4.500    6.875    0.000    0.000    0.000    0.000 
#    0.000    0.000    0.000    0.000    0.000    0.000 
#
# Total GULP energy -198437.237115 kJ/mol
# GULP energy per Si atom -12402.327320 kJ/mol
# Density = 2.065682 g / cm^3
# Si number density = 20.703945 Si / 1000 Ang^3
#
#
#
# Elastic Constant Matrix: (Units=GPa)
#
#
# Indices 1 2 3 4 5 6 
#
# 1 106.5703 33.6250 47.4125 0.0000 3.5334 0.0000
# 2 33.6250 71.0665 20.2732 0.0000 2.3431 0.0000
# 3 47.4125 20.2732 127.8768 0.0000 -3.0060 0.0000
# 4 0.0000 0.0000 0.0000 20.2977 0.0000 6.1593
# 5 3.5334 2.3431 -3.0060 0.0000 44.3304 0.0000
# 6 0.0000 0.0000 0.0000 6.1593 0.0000 14.5601
#
#
#
# Elastic Compliance Matrix: (Units=1/GPa)
#
#
# Indices 1 2 3 4 5 6 
#
# 1 0.012713 -0.004849 -0.003969 0.000000 -0.001026 0.000000
# 2 -0.004849 0.016627 -0.000851 0.000000 -0.000550 0.000000
# 3 -0.003969 -0.000851 0.009450 0.000000 0.001002 0.000000
# 4 0.000000 0.000000 0.000000 0.056522 0.000000 -0.023910
# 5 -0.001026 -0.000550 0.001002 0.000000 0.022737 0.000000
# 6 0.000000 0.000000 0.000000 -0.023910 0.000000 0.078795
#
#
# Mechanical properties :
#
#
# Convention : Reuss Voigt Hill
#
# Bulk Modulus (GPa) = 51.40948 56.45944 53.93446
# Shear Modulus (GPa) = 22.45512 29.45119 25.95315
#
# Velocity S-wave (km/s) = 3.29687 3.77568 3.54437
# Velocity P-wave (km/s) = 6.27512 6.80712 6.54652
#
# Compressibility (1/GPa) = 0.01945166
#
# Stress axis : x y z
#
# Youngs Moduli (GPa) = 78.65771 60.14460 105.81930
#
# Poissons Ratio (x) = 0.29165 0.42000
# Poissons Ratio (y) = 0.38143 0.09004
# Poissons Ratio (z) = 0.31219 0.05118
#
# Static dielectric constant tensor:
#      x y z
#    x 3.803040 0.000000 -0.093590 
#    y 0.000000 3.521480 0.000000 
#    z -0.093590 0.000000 4.059620 
# 
# 
# High freq. dielectric constant tensor:
#      x y z
#    x 1.814990 0.000000 -0.001110 
#    y 0.000000 1.784650 0.000000 
#    z -0.001110 0.000000 1.829250 
# 
# From -- ./inp_files/44975.got.cif
#   From: 2010.03.12/outbox.cif.g09.slc.cpg/sg5_23_cif.got.tgz:44975.got - 2010.03.31 09:47:26.
