data_PCOD8050582
_publ_section_title
;
Structure prediction by ZEFSAII (Michael W. Deem and Ramdas Pophale) SiO2 
 PCOD8050582
Probable space group: C 2
;
_chemical_formula_sum "Si O2"
_cell_formula_units_Z 20
_cell_length_a 26.479352
_cell_length_b 5.115040
_cell_length_c 13.322660
_cell_angle_alpha 90.000000
_cell_angle_beta 32.916235
_cell_angle_gamma 90.000000
_cell_volume 980.565991
_symmetry_space_group_name_H-M "C 2"
_symmetry_group_IT_number 5
_symmetry_cell_setting 'monoclinic'
loop_
_space_group_symop_operation_xyz
x,y,z
-x,y,-z
1/2+x,1/2+y,z
1/2-x,1/2+y,-z
loop_
_atom_site_type_symbol
_atom_site_label
_atom_site_fract_x
_atom_site_fract_y
_atom_site_fract_z
Si Si1 0.896122 0.876860 0.189595
Si Si2 0.830924 0.387037 0.191284
Si Si3 0.378149 0.341009 0.446331
Si Si4 0.553959 0.052219 0.192450
Si Si5 0.982533 0.049287 0.644948
O O1 0.829359 0.634923 0.269782
O O2 0.876061 0.955651 0.337385
O O3 0.886095 0.137273 0.140059
O O4 0.000000 0.771334 0.000000
O O5 0.726799 0.283821 0.344364
O O6 0.877944 0.488877 0.011625
O O7 0.420226 0.549586 0.455211
O O8 0.446064 0.084545 0.334700
O O9 0.564374 0.828438 0.259067
O O10 0.584037 0.321681 0.197861
O O11 0.000000 0.994828 0.500000
#
# Coordination Sequence:
#
# PCOD8050582 Si02
#       5
#     4   4   4   4   4
#     4  12  23  39  62  93 133 171 210 253 319 382
#     4  12  24  39  63  94 133 169 207 263 312 389
#     4  10  25  39  64  95 127 168 220 256 317 389
#     4  10  22  41  62  91 125 164 212 260 324 371
#     4  10  22  43  67  88 123 165 214 268 328 369
#
# _framework density 20.396386
#
# number of rings (size 3 to 8) (size 9 to 14) (size 15 to 20)
#    1.200    0.000    2.000    4.800    5.600    0.000 
#    0.000    2.000    0.000    0.000    0.000    0.000 
#    0.000    0.000    0.000    0.000    0.000    0.000 
#
# Total GULP energy -123931.268487 kJ/mol
# GULP energy per Si atom -12393.126849 kJ/mol
# Density = 2.034996 g / cm^3
# Si number density = 20.396386 Si / 1000 Ang^3
#
#
#
# Elastic Constant Matrix: (Units=GPa)
#
#
# Indices 1 2 3 4 5 6 
#
# 1 54.2792 13.8472 45.2715 0.0413 22.2838 -0.0052
# 2 13.8472 114.0540 27.2537 0.0599 10.4052 -0.0033
# 3 45.2715 27.2537 133.0945 0.0713 2.9957 -0.0118
# 4 0.0413 0.0599 0.0713 21.0548 0.0057 4.8844
# 5 22.2838 10.4052 2.9957 0.0057 35.3256 -0.0069
# 6 -0.0052 -0.0033 -0.0118 4.8844 -0.0069 24.4516
#
#
#
# Elastic Compliance Matrix: (Units=1/GPa)
#
#
# Indices 1 2 3 4 5 6 
#
# 1 0.038405 0.000483 -0.012638 -0.000028 -0.023296 0.000001
# 2 0.000483 0.009462 -0.002036 -0.000021 -0.002919 0.000004
# 3 -0.012638 -0.002036 0.012059 -0.000014 0.007549 0.000008
# 4 -0.000028 -0.000021 -0.000014 0.049803 0.000015 -0.009949
# 5 -0.023296 -0.002919 0.007549 0.000015 0.043223 0.000008
# 6 0.000001 0.000004 0.000008 -0.009949 0.000008 0.042884
#
#
# Mechanical properties :
#
#
# Convention : Reuss Voigt Hill
#
# Bulk Modulus (GPa) = 31.70209 52.68583 42.19396
# Shear Modulus (GPa) = 21.30078 30.50343 25.90211
#
# Velocity S-wave (km/s) = 3.23513 3.87141 3.56748
# Velocity P-wave (km/s) = 5.43429 6.77279 6.14012
#
# Compressibility (1/GPa) = 0.03154366
#
# Stress axis : x y z
#
# Youngs Moduli (GPa) = 26.03849 105.68613 82.92507
#
# Poissons Ratio (x) = -0.05099 1.04797
# Poissons Ratio (y) = -0.01256 0.16883
# Poissons Ratio (z) = 0.32906 0.21517
#
# Static dielectric constant tensor:
#      x y z
#    x 3.496660 0.000000 0.040940 
#    y 0.000000 3.696750 0.000020 
#    z 0.040940 0.000020 3.510020 
# 
# 
# High freq. dielectric constant tensor:
#      x y z
#    x 1.774930 0.000000 0.015130 
#    y 0.000000 1.802900 0.000000 
#    z 0.015130 0.000000 1.791250 
# 
# From -- ./inp_files/46883.got.cif
#   From: 2010.03.12/outbox.cif.g09.slc.cpg/sg5_24_cif.got.tgz:46883.got - 2010.03.31 09:47:26.
