data_PCOD8050110
_publ_section_title
;
Structure prediction by ZEFSAII (Michael W. Deem and Ramdas Pophale) SiO2 
 PCOD8050110
Probable space group: C 2
;
_chemical_formula_sum "Si O2"
_cell_formula_units_Z 32
_cell_length_a 23.404883
_cell_length_b 11.526272
_cell_length_c 8.143953
_cell_angle_alpha 90.000000
_cell_angle_beta 135.934958
_cell_angle_gamma 90.000000
_cell_volume 1527.959410
_symmetry_space_group_name_H-M "C 2"
_symmetry_group_IT_number 5
_symmetry_cell_setting 'monoclinic'
loop_
_space_group_symop_operation_xyz
x,y,z
-x,y,-z
1/2+x,1/2+y,z
1/2-x,1/2+y,-z
loop_
_atom_site_type_symbol
_atom_site_label
_atom_site_fract_x
_atom_site_fract_y
_atom_site_fract_z
Si Si1 0.754947 0.675870 0.773654
Si Si2 0.019826 0.247954 0.854934
Si Si3 0.813377 0.959819 0.477180
Si Si4 0.312437 0.786212 0.920094
Si Si5 0.869083 0.357096 0.389534
Si Si6 0.512809 0.496094 0.336733
Si Si7 0.247295 0.553659 0.880332
Si Si8 0.142257 0.878439 0.075499
O O1 0.731730 0.583742 0.584266
O O2 0.689818 0.780049 0.617427
O O3 0.842870 0.741021 0.933883
O O4 0.748380 0.600601 0.925699
O O5 0.961601 0.344790 0.648901
O O6 0.014190 0.128802 0.742625
O O7 0.000000 0.220518 0.000000
O O8 0.113139 0.293890 0.054737
O O9 0.753977 0.884957 0.240206
O O10 0.896477 0.976340 0.545145
O O11 0.822215 0.902173 0.671207
O O12 0.263945 0.664562 0.800251
O O13 0.358556 0.802282 0.188328
O O14 0.841356 0.492746 0.336428
O O15 0.500000 0.464796 0.500000
O O16 0.454056 0.407254 0.117000
O O17 0.316677 0.457050 0.983665
#
# Coordination Sequence:
#
# PCOD8050110 Si02
#       8
#     4   4   4   4   4   4   4   4
#     4  10  22  41  66 101 133 174 221 280 330 410
#     4  12  25  40  64  99 137 172 223 283 338 387
#     4  12  25  42  69 101 136 176 221 282 340 400
#     4  11  24  40  67  97 130 175 221 272 332 403
#     4  10  21  40  67  95 131 173 220 275 333 395
#     4  12  25  43  66  98 132 176 229 279 331 405
#     4  10  21  40  68  96 132 169 228 268 334 399
#     4  11  25  40  69 101 138 172 228 282 343 391
#
# _framework density 20.942962999999999
#
# number of rings (size 3 to 8) (size 9 to 14) (size 15 to 20)
#    0.000    1.000    3.750    3.000    8.750    0.000 
#    0.000    1.250    0.000    0.000    0.000    0.000 
#    0.000    0.000    0.000    0.000    0.000    0.000 
#
# Total GULP energy -198330.016117 kJ/mol
# GULP energy per Si atom -12395.626007 kJ/mol
# Density = 2.089530 g / cm^3
# Si number density = 20.942963 Si / 1000 Ang^3
#
#
#
# Elastic Constant Matrix: (Units=GPa)
#
#
# Indices 1 2 3 4 5 6 
#
# 1 73.9032 46.3895 34.5430 0.0000 10.9857 0.0000
# 2 46.3895 125.5227 50.1650 0.0000 22.4663 0.0000
# 3 34.5430 50.1650 92.7840 0.0000 12.2282 0.0000
# 4 0.0000 0.0000 0.0000 28.6435 0.0000 10.3350
# 5 10.9857 22.4663 12.2282 0.0000 40.6339 0.0000
# 6 0.0000 0.0000 0.0000 10.3350 0.0000 32.1410
#
#
#
# Elastic Compliance Matrix: (Units=1/GPa)
#
#
# Indices 1 2 3 4 5 6 
#
# 1 0.018821 -0.005137 -0.004096 0.000000 -0.001016 0.000000
# 2 -0.005137 0.012277 -0.004179 0.000000 -0.004141 0.000000
# 3 -0.004096 -0.004179 0.014694 0.000000 -0.001004 0.000000
# 4 0.000000 0.000000 0.000000 0.039494 0.000000 -0.012699
# 5 -0.001016 -0.004141 -0.001004 0.000000 0.027476 0.000000
# 6 0.000000 0.000000 0.000000 -0.012699 0.000000 0.035197
#
#
# Mechanical properties :
#
#
# Convention : Reuss Voigt Hill
#
# Bulk Modulus (GPa) = 52.72017 61.60053 57.16035
# Shear Modulus (GPa) = 27.60813 31.02450 29.31632
#
# Velocity S-wave (km/s) = 3.63471 3.85305 3.74547
# Velocity P-wave (km/s) = 6.54544 7.01940 6.78656
#
# Compressibility (1/GPa) = 0.01896807
#
# Stress axis : x y z
#
# Youngs Moduli (GPa) = 53.13168 81.45556 68.05297
#
# Poissons Ratio (x) = 0.41845 0.27873
# Poissons Ratio (y) = 0.27294 0.28441
# Poissons Ratio (z) = 0.21761 0.34042
#
# Static dielectric constant tensor:
#      x y z
#    x 3.840220 0.000000 0.120040 
#    y 0.000000 3.961090 0.000000 
#    z 0.120040 0.000000 3.772410 
# 
# 
# High freq. dielectric constant tensor:
#      x y z
#    x 1.822450 0.000000 -0.005510 
#    y 0.000000 1.813020 0.000000 
#    z -0.005510 0.000000 1.812920 
# 
# From -- ./inp_files/30935.got.cif
#   From: 2010.03.12/outbox.cif.g09.slc.cpg/sg5_16_cif.got.tgz:30935.got - 2010.03.31 09:47:26.
