data_PCOD8050911
_publ_section_title
;
Structure prediction by ZEFSAII (Michael W. Deem and Ramdas Pophale) SiO2 
 PCOD8050911
Probable space group: C 2
;
_chemical_formula_sum "Si O2"
_cell_formula_units_Z 20
_cell_length_a 10.869816
_cell_length_b 9.656667
_cell_length_c 7.591031
_cell_angle_alpha 90.000000
_cell_angle_beta 105.700240
_cell_angle_gamma 90.000000
_cell_volume 767.073448
_symmetry_space_group_name_H-M "C 2"
_symmetry_group_IT_number 5
_symmetry_cell_setting 'monoclinic'
loop_
_space_group_symop_operation_xyz
x,y,z
-x,y,-z
1/2+x,1/2+y,z
1/2-x,1/2+y,-z
loop_
_atom_site_type_symbol
_atom_site_label
_atom_site_fract_x
_atom_site_fract_y
_atom_site_fract_z
Si Si1 0.302527 0.439470 0.626227
Si Si2 0.518275 0.636891 0.802535
Si Si3 0.496510 0.216840 0.293672
Si Si4 0.592089 0.936880 0.835075
Si Si5 0.723150 0.429938 0.782324
O O1 0.403336 0.565866 0.650012
O O2 0.377107 0.300633 0.714367
O O3 0.198094 0.474535 0.731042
O O4 0.239454 0.422299 0.409252
O O5 0.515476 0.799139 0.752119
O O6 0.654808 0.575414 0.797282
O O7 0.500000 0.605790 0.000000
O O8 0.500000 0.185135 0.500000
O O9 0.371171 0.305457 0.198200
O O10 0.499889 0.071009 0.191665
O O11 0.649437 0.910884 0.052201
#
# Coordination Sequence:
#
# PCOD8050911 Si02
#       5
#     4   4   4   4   4
#     4  10  24  49  71  95 140 184 221 282 348 402
#     4  11  23  46  69 102 141 182 227 281 341 413
#     4   9  22  45  66 101 138 170 229 282 332 408
#     4  12  24  45  71 101 138 179 228 284 337 401
#     4  10  22  45  72  99 136 181 226 280 344 404
#
# _framework density 26.073124
#
# number of rings (size 3 to 8) (size 9 to 14) (size 15 to 20)
#    0.000    1.600    2.000    3.000    0.000    4.800 
#   14.400    2.000    0.000    0.000    0.000    0.000 
#    0.000    0.000    0.000    0.000    0.000    0.000 
#
# Total GULP energy -124074.863331 kJ/mol
# GULP energy per Si atom -12407.486333 kJ/mol
# Density = 2.601378 g / cm^3
# Si number density = 26.073124 Si / 1000 Ang^3
#
#
#
# Elastic Constant Matrix: (Units=GPa)
#
#
# Indices 1 2 3 4 5 6 
#
# 1 42.7459 35.7894 22.0830 0.0000 1.2043 0.0000
# 2 35.7894 201.0278 45.1803 0.0000 19.2956 0.0000
# 3 22.0830 45.1803 99.5728 0.0000 10.7159 0.0000
# 4 0.0000 0.0000 0.0000 32.9546 0.0000 0.0764
# 5 1.2043 19.2956 10.7159 0.0000 37.0838 0.0000
# 6 0.0000 0.0000 0.0000 0.0764 0.0000 26.2312
#
#
#
# Elastic Compliance Matrix: (Units=1/GPa)
#
#
# Indices 1 2 3 4 5 6 
#
# 1 0.029525 -0.004434 -0.004831 0.000000 0.002744 0.000000
# 2 -0.004434 0.006389 -0.001624 0.000000 -0.002711 0.000000
# 3 -0.004831 -0.001624 0.012120 0.000000 -0.002501 0.000000
# 4 0.000000 0.000000 0.000000 0.030345 0.000000 -0.000088
# 5 0.002744 -0.002711 -0.002501 0.000000 0.029010 0.000000
# 6 0.000000 0.000000 0.000000 -0.000088 0.000000 0.038123
#
#
# Mechanical properties :
#
#
# Convention : Reuss Voigt Hill
#
# Bulk Modulus (GPa) = 38.08672 61.05021 49.56847
# Shear Modulus (GPa) = 28.40215 35.27349 31.83782
#
# Velocity S-wave (km/s) = 3.30408 3.68213 3.49821
# Velocity P-wave (km/s) = 5.40326 6.44540 5.94720
#
# Compressibility (1/GPa) = 0.02625587
#
# Stress axis : x y z
#
# Youngs Moduli (GPa) = 33.86941 156.51891 82.50606
#
# Poissons Ratio (x) = 0.69400 0.39863
# Poissons Ratio (y) = 0.15018 0.13398
# Poissons Ratio (z) = 0.16364 0.25416
#
# Static dielectric constant tensor:
#      x y z
#    x 4.509490 0.000000 0.054920 
#    y 0.000000 4.896660 0.000000 
#    z 0.054920 0.000000 4.639460 
# 
# 
# High freq. dielectric constant tensor:
#      x y z
#    x 2.041920 0.000000 -0.004310 
#    y 0.000000 2.053530 0.000000 
#    z -0.004310 0.000000 2.045370 
# 
# From -- ./inp_files/18352.got.cif
#   From: 2010.03.12/outbox.cif.g09.slc.cpg/sg5_10_cif.got.tgz:18352.got - 2010.03.31 09:47:26.
