data_PCOD8050583
_publ_section_title
;
Structure prediction by ZEFSAII (Michael W. Deem and Ramdas Pophale) SiO2 
 PCOD8050583
Probable space group: C 2
;
_chemical_formula_sum "Si O2"
_cell_formula_units_Z 24
_cell_length_a 16.947331
_cell_length_b 9.385108
_cell_length_c 13.764412
_cell_angle_alpha 90.000000
_cell_angle_beta 147.437256
_cell_angle_gamma 90.000000
_cell_volume 1178.312275
_symmetry_space_group_name_H-M "C 2"
_symmetry_group_IT_number 5
_symmetry_cell_setting 'monoclinic'
loop_
_space_group_symop_operation_xyz
x,y,z
-x,y,-z
1/2+x,1/2+y,z
1/2-x,1/2+y,-z
loop_
_atom_site_type_symbol
_atom_site_label
_atom_site_fract_x
_atom_site_fract_y
_atom_site_fract_z
Si Si1 0.334845 0.034050 0.587485
Si Si2 0.155414 0.523448 0.630951
Si Si3 0.608377 0.330760 0.026414
Si Si4 0.576508 0.341557 0.339570
Si Si5 0.375243 0.327490 0.308820
Si Si6 0.910350 0.514126 0.006557
O O1 0.323073 0.997886 0.461192
O O2 0.330595 0.204057 0.600445
O O3 0.482196 0.974056 0.791931
O O4 0.193194 0.962400 0.493203
O O5 0.169848 0.688990 0.675159
O O6 0.000000 0.461125 0.500000
O O7 0.264825 0.434353 0.809932
O O8 0.521321 0.406573 0.848521
O O9 0.658851 0.171336 0.049062
O O10 0.500000 0.302488 0.000000
O O11 0.461074 0.286263 0.299817
O O12 0.500000 0.414061 0.500000
O O13 0.228736 0.411557 0.134528
O O14 0.000000 0.494713 0.000000
#
# Coordination Sequence:
#
# PCOD8050583 Si02
#       6
#     4   4   4   4   4   4
#     4  11  23  44  66  93 128 172 212 264 321 379
#     4  11  23  42  66  92 129 166 214 267 315 378
#     4  10  22  41  62  91 128 167 209 261 317 380
#     4  11  23  42  66  94 129 166 216 264 319 378
#     4  11  23  42  66  93 129 167 215 266 314 378
#     4  10  24  42  64  93 133 167 212 264 324 380
#
# _framework density 20.368116000000001
#
# number of rings (size 3 to 8) (size 9 to 14) (size 15 to 20)
#    0.000    1.333    5.000    1.000    2.333    2.667 
#    3.000    0.000    0.000    0.000    0.000    0.000 
#    0.000    0.000    0.000    0.000    0.000    0.000 
#
# Total GULP energy -148721.403468 kJ/mol
# GULP energy per Si atom -12393.450289 kJ/mol
# Density = 2.032176 g / cm^3
# Si number density = 20.368116 Si / 1000 Ang^3
#
#
#
# Elastic Constant Matrix: (Units=GPa)
#
#
# Indices 1 2 3 4 5 6 
#
# 1 65.9358 26.4502 37.8067 0.0000 -1.4487 0.0000
# 2 26.4502 81.5079 77.3036 0.0000 16.2231 0.0000
# 3 37.8067 77.3036 190.9267 0.0000 -5.5716 0.0000
# 4 0.0000 0.0000 0.0000 44.9217 0.0000 4.1593
# 5 -1.4487 16.2231 -5.5716 0.0000 37.9083 0.0000
# 6 0.0000 0.0000 0.0000 4.1593 0.0000 29.0759
#
#
#
# Elastic Compliance Matrix: (Units=1/GPa)
#
#
# Indices 1 2 3 4 5 6 
#
# 1 0.018071 -0.004966 -0.001492 0.000000 0.002597 0.000000
# 2 -0.004966 0.025659 -0.009774 0.000000 -0.012607 0.000000
# 3 -0.001492 -0.009774 0.009652 0.000000 0.005544 0.000000
# 4 0.000000 0.000000 0.000000 0.022560 0.000000 -0.003227
# 5 0.002597 -0.012607 0.005544 0.000000 0.032689 0.000000
# 6 0.000000 0.000000 0.000000 -0.003227 0.000000 0.034854
#
#
# Mechanical properties :
#
#
# Convention : Reuss Voigt Hill
#
# Bulk Modulus (GPa) = 47.80367 69.05459 58.42913
# Shear Modulus (GPa) = 27.33421 35.50184 31.41802
#
# Velocity S-wave (km/s) = 3.66732 4.17947 3.93174
# Velocity P-wave (km/s) = 6.43841 7.56753 7.02569
#
# Compressibility (1/GPa) = 0.02091890
#
# Stress axis : x y z
#
# Youngs Moduli (GPa) = 55.33764 38.97263 103.60566
#
# Poissons Ratio (x) = 0.19354 0.15456
# Poissons Ratio (y) = 0.27481 1.01259
# Poissons Ratio (z) = 0.08255 0.38090
#
# Static dielectric constant tensor:
#      x y z
#    x 3.684100 0.000000 -0.173960 
#    y 0.000000 3.562550 0.000000 
#    z -0.173960 0.000000 3.905310 
# 
# 
# High freq. dielectric constant tensor:
#      x y z
#    x 1.794920 0.000000 -0.014750 
#    y 0.000000 1.778000 0.000000 
#    z -0.014750 0.000000 1.816060 
# 
# From -- ./inp_files/55695.got.cif
#   From: 2010.03.12/outbox.cif.g09.slc.cpg/sg5_28_cif.got.tgz:55695.got - 2010.03.31 09:47:26.
