data_PCOD8050256
_publ_section_title
;
Structure prediction by ZEFSAII (Michael W. Deem and Ramdas Pophale) SiO2 
 PCOD8050256
Probable space group: C 2
;
_chemical_formula_sum "Si O2"
_cell_formula_units_Z 24
_cell_length_a 14.559140
_cell_length_b 13.518938
_cell_length_c 7.981387
_cell_angle_alpha 90.000000
_cell_angle_beta 136.759886
_cell_angle_gamma 90.000000
_cell_volume 1076.176661
_symmetry_space_group_name_H-M "C 2"
_symmetry_group_IT_number 5
_symmetry_cell_setting 'monoclinic'
loop_
_space_group_symop_operation_xyz
x,y,z
-x,y,-z
1/2+x,1/2+y,z
1/2-x,1/2+y,-z
loop_
_atom_site_type_symbol
_atom_site_label
_atom_site_fract_x
_atom_site_fract_y
_atom_site_fract_z
Si Si1 0.346992 0.106210 0.519611
Si Si2 0.679362 0.433992 0.791973
Si Si3 0.500000 0.252359 0.500000
Si Si4 0.091049 0.050495 0.977620
Si Si5 0.484446 0.914484 0.172339
Si Si6 0.856235 0.118124 0.472132
Si Si7 0.000000 0.270252 0.500000
O O1 0.460796 0.182630 0.606364
O O2 0.279962 0.139608 0.606350
O O3 0.228878 0.099403 0.225634
O O4 0.413030 0.000778 0.644022
O O5 0.630432 0.321670 0.699374
O O6 0.627544 0.506597 0.576750
O O7 0.627484 0.461813 0.904670
O O8 0.836004 0.452250 0.998801
O O9 0.000000 0.999643 0.000000
O O10 0.991746 0.133125 0.764377
O O11 0.505815 0.829225 0.335485
O O12 0.500000 0.877716 0.000000
O O13 0.867591 0.198604 0.336960
#
# Coordination Sequence:
#
# PCOD8050256 Si02
#       7
#     4   4   2   4   4   4   2
#     4  11  26  48  70 102 145 191 243 292 375 426
#     4  12  23  47  70 102 147 184 238 299 370 424
#     4  12  26  42  72 110 134 184 246 308 348 436
#     4  10  21  42  75  97 138 194 237 289 359 434
#     4  12  28  48  74 104 151 196 239 303 365 438
#     4  11  23  45  74 104 145 189 234 299 363 432
#     4  12  26  44  72 120 136 192 248 294 362 430
#
# _framework density 22.301172000000001
#
# number of rings (size 3 to 8) (size 9 to 14) (size 15 to 20)
#    0.000    0.667    5.000    2.500    4.667    2.000 
#    3.000    0.000    0.000    0.000    0.000    0.000 
#    0.000    0.000    0.000    0.000    0.000    0.000 
#
# Total GULP energy -148683.981025 kJ/mol
# GULP energy per Si atom -12390.331752 kJ/mol
# Density = 2.225041 g / cm^3
# Si number density = 22.301172 Si / 1000 Ang^3
#
#
#
# Elastic Constant Matrix: (Units=GPa)
#
#
# Indices 1 2 3 4 5 6 
#
# 1 205.8418 77.0978 27.8020 0.0000 -3.2452 0.0000
# 2 77.0978 125.6410 26.4791 0.0000 -8.9616 0.0000
# 3 27.8020 26.4791 71.5865 0.0000 18.6201 0.0000
# 4 0.0000 0.0000 0.0000 14.3447 0.0000 4.7046
# 5 -3.2452 -8.9616 18.6201 0.0000 35.0378 0.0000
# 6 0.0000 0.0000 0.0000 4.7046 0.0000 42.6337
#
#
#
# Elastic Compliance Matrix: (Units=1/GPa)
#
#
# Indices 1 2 3 4 5 6 
#
# 1 0.006392 -0.003645 -0.001213 0.000000 0.000305 0.000000
# 2 -0.003645 0.011378 -0.004018 0.000000 0.004708 0.000000
# 3 -0.001213 -0.004018 0.018825 0.000000 -0.011144 0.000000
# 4 0.000000 0.000000 0.000000 0.072330 0.000000 -0.007982
# 5 0.000305 0.004708 -0.011144 0.000000 0.035695 0.000000
# 6 0.000000 0.000000 0.000000 -0.007982 0.000000 0.024336
#
#
# Mechanical properties :
#
#
# Convention : Reuss Voigt Hill
#
# Bulk Modulus (GPa) = 53.06899 73.98078 63.52489
# Shear Modulus (GPa) = 25.90804 36.51594 31.21199
#
# Velocity S-wave (km/s) = 3.41212 4.05087 3.74514
# Velocity P-wave (km/s) = 6.27468 7.42461 6.87374
#
# Compressibility (1/GPa) = 0.01884340
#
# Stress axis : x y z
#
# Youngs Moduli (GPa) = 156.44589 87.88635 53.12033
#
# Poissons Ratio (x) = 0.32033 0.06446
# Poissons Ratio (y) = 0.57023 0.21342
# Poissons Ratio (z) = 0.18985 0.35310
#
# Static dielectric constant tensor:
#      x y z
#    x 4.482540 0.000000 0.038630 
#    y 0.000000 3.845380 0.000000 
#    z 0.038630 0.000000 3.900330 
# 
# 
# High freq. dielectric constant tensor:
#      x y z
#    x 1.912970 0.000000 0.003440 
#    y 0.000000 1.862300 0.000000 
#    z 0.003440 0.000000 1.869110 
# 
# From -- ./inp_files/24769.got.cif
#   From: 2010.03.12/outbox.cif.g09.slc.cpg/sg5_13_cif.got.tgz:24769.got - 2010.03.31 09:47:26.
