data_PCOD8050625
_publ_section_title
;
Structure prediction by ZEFSAII (Michael W. Deem and Ramdas Pophale) SiO2 
 PCOD8050625
Probable space group: C 2
;
_chemical_formula_sum "Si O2"
_cell_formula_units_Z 16
_cell_length_a 7.083378
_cell_length_b 20.493506
_cell_length_c 5.289204
_cell_angle_alpha 90.000000
_cell_angle_beta 120.326380
_cell_angle_gamma 90.000000
_cell_volume 662.734987
_symmetry_space_group_name_H-M "C 2"
_symmetry_group_IT_number 5
_symmetry_cell_setting 'monoclinic'
loop_
_space_group_symop_operation_xyz
x,y,z
-x,y,-z
1/2+x,1/2+y,z
1/2-x,1/2+y,-z
loop_
_atom_site_type_symbol
_atom_site_label
_atom_site_fract_x
_atom_site_fract_y
_atom_site_fract_z
Si Si1 0.247980 0.141470 0.555052
Si Si2 0.500000 0.436004 0.000000
Si Si3 0.635449 0.834605 0.840159
Si Si4 0.500000 0.519634 0.500000
Si Si5 0.765441 0.696393 0.062275
O O1 0.206276 0.063561 0.541010
O O2 0.142859 0.178557 0.240096
O O3 0.501074 0.160817 0.751609
O O4 0.133235 0.166278 0.735804
O O5 0.715314 0.392096 0.168590
O O6 0.451841 0.476612 0.221425
O O7 0.500000 0.812908 0.500000
O O8 0.500000 0.856857 0.000000
O O9 0.785030 0.774059 0.037648
#
# Coordination Sequence:
#
# PCOD8050625 Si02
#       5
#     4   2   4   2   4
#     4  10  22  41  68 107 142 189 227 300 371 435
#     4  12  28  54  70 108 152 202 256 304 338 448
#     4  12  27  49  79 110 144 196 250 311 377 432
#     4  12  26  46  74 104 156 202 244 290 366 446
#     4  10  22  43  69 108 142 175 241 314 372 426
#
# _framework density 24.142378000000001
#
# number of rings (size 3 to 8) (size 9 to 14) (size 15 to 20)
#    0.000    1.000    0.000    6.000    5.250    4.000 
#   27.000    0.000    0.000    0.000    0.000    0.000 
#    0.000    0.000    0.000    0.000    0.000    0.000 
#
# Total GULP energy -99109.191545 kJ/mol
# GULP energy per Si atom -12388.648943 kJ/mol
# Density = 2.408743 g / cm^3
# Si number density = 24.142378 Si / 1000 Ang^3
#
#
#
# Elastic Constant Matrix: (Units=GPa)
#
#
# Indices 1 2 3 4 5 6 
#
# 1 126.7299 46.8170 66.9245 0.0000 -18.4592 0.0000
# 2 46.8170 158.2261 64.7526 0.0000 -7.0133 0.0000
# 3 66.9245 64.7526 197.3821 0.0000 -46.1742 0.0000
# 4 0.0000 0.0000 0.0000 37.3552 0.0000 -13.8034
# 5 -18.4592 -7.0133 -46.1742 0.0000 52.6050 0.0000
# 6 0.0000 0.0000 0.0000 -13.8034 0.0000 49.9662
#
#
#
# Elastic Compliance Matrix: (Units=1/GPa)
#
#
# Indices 1 2 3 4 5 6 
#
# 1 0.010093 -0.001894 -0.002556 0.000000 0.001045 0.000000
# 2 -0.001894 0.007741 -0.002279 0.000000 -0.001633 0.000000
# 3 -0.002556 -0.002279 0.008054 0.000000 0.005868 0.000000
# 4 0.000000 0.000000 0.000000 0.029813 0.000000 0.008236
# 5 0.001045 -0.001633 0.005868 0.000000 0.024309 0.000000
# 6 0.000000 0.000000 0.000000 0.008236 0.000000 0.022289
#
#
# Mechanical properties :
#
#
# Convention : Reuss Voigt Hill
#
# Bulk Modulus (GPa) = 80.46239 93.25849 86.86044
# Shear Modulus (GPa) = 41.70136 48.24154 44.97145
#
# Velocity S-wave (km/s) = 4.16060 4.47498 4.32065
# Velocity P-wave (km/s) = 7.51541 8.08783 7.80687
#
# Compressibility (1/GPa) = 0.01242817
#
# Stress axis : x y z
#
# Youngs Moduli (GPa) = 99.08288 129.18462 124.16889
#
# Poissons Ratio (x) = 0.24465 0.31740
# Poissons Ratio (y) = 0.18765 0.28303
# Poissons Ratio (z) = 0.25327 0.29446
#
# Static dielectric constant tensor:
#      x y z
#    x 4.485000 0.000000 -0.417240 
#    y 0.000000 4.208090 0.000000 
#    z -0.417240 0.000000 4.781960 
# 
# 
# High freq. dielectric constant tensor:
#      x y z
#    x 2.007790 0.000000 -0.014460 
#    y 0.000000 1.941940 0.000000 
#    z -0.014460 0.000000 1.996020 
# 
# From -- ./inp_files/2520.got.cif
#   From: 2010.03.12/outbox.cif.g09.slc.cpg/sg5_2_cif.got.tgz:2520.got - 2010.03.31 09:47:26.
