data_PCOD8050028
_publ_section_title
;
Structure prediction by ZEFSAII (Michael W. Deem and Ramdas Pophale) SiO2 
 PCOD8050028
Probable space group: C 2
;
_chemical_formula_sum "Si O2"
_cell_formula_units_Z 26
_cell_length_a 8.873953
_cell_length_b 21.446251
_cell_length_c 9.521441
_cell_angle_alpha 90.000000
_cell_angle_beta 135.323127
_cell_angle_gamma 90.000000
_cell_volume 1274.069344
_symmetry_space_group_name_H-M "C 2"
_symmetry_group_IT_number 5
_symmetry_cell_setting 'monoclinic'
loop_
_space_group_symop_operation_xyz
x,y,z
-x,y,-z
1/2+x,1/2+y,z
1/2-x,1/2+y,-z
loop_
_atom_site_type_symbol
_atom_site_label
_atom_site_fract_x
_atom_site_fract_y
_atom_site_fract_z
Si Si1 0.064072 0.195640 0.381870
Si Si2 0.137705 0.334620 0.396160
Si Si3 0.500000 0.405641 0.500000
Si Si4 0.416856 0.096270 0.600021
Si Si5 0.355717 0.606287 0.036977
Si Si6 0.783914 0.884639 0.774322
Si Si7 0.098063 0.995455 0.326379
O O1 0.086702 0.263230 0.325833
O O2 0.289842 0.160787 0.521539
O O3 0.000000 0.202353 0.500000
O O4 0.882762 0.157725 0.176537
O O5 0.288123 0.362870 0.373967
O O6 0.260800 0.337247 0.627755
O O7 0.919682 0.375608 0.258028
O O8 0.471829 0.448423 0.344048
O O9 0.500000 0.085756 0.500000
O O10 0.262920 0.036994 0.528443
O O11 0.606501 0.100451 0.836995
O O12 0.426284 0.538739 0.136755
O O13 0.500000 0.626897 0.000000
O O14 0.781936 0.955673 0.715321
O O15 0.000000 0.868128 0.000000
#
# Coordination Sequence:
#
# PCOD8050028 Si02
#       7
#     4   4   2   4   4   4   4
#     4  11  24  45  67  98 134 168 229 284 326 394
#     4  10  23  44  65  91 137 173 220 276 337 384
#     4  10  24  40  66  98 134 180 206 284 326 394
#     4  11  24  41  70  95 130 182 214 274 339 394
#     4  11  23  41  68 100 127 177 221 268 337 399
#     4  10  21  39  68  96 123 179 224 265 330 406
#     4  10  23  40  65  95 138 162 228 267 334 397
#
# _framework density 20.407053999999999
#
# number of rings (size 3 to 8) (size 9 to 14) (size 15 to 20)
#    0.000    1.538    4.615    0.462    9.692    1.846 
#    0.000    7.692    0.000    0.000    0.000    0.000 
#    0.000    0.000    0.000    0.000    0.000    0.000 
#
# Total GULP energy -161217.667186 kJ/mol
# GULP energy per Si atom -12401.359014 kJ/mol
# Density = 2.036061 g / cm^3
# Si number density = 20.407054 Si / 1000 Ang^3
#
#
#
# Elastic Constant Matrix: (Units=GPa)
#
#
# Indices 1 2 3 4 5 6 
#
# 1 120.1036 53.8053 40.4920 0.0000 8.4831 0.0000
# 2 53.8053 151.7788 53.4683 0.0000 5.8022 0.0000
# 3 40.4920 53.4683 143.1364 0.0000 34.7799 0.0000
# 4 0.0000 0.0000 0.0000 14.4952 0.0000 -5.0816
# 5 8.4831 5.8022 34.7799 0.0000 32.9128 0.0000
# 6 0.0000 0.0000 0.0000 -5.0816 0.0000 35.5316
#
#
#
# Elastic Compliance Matrix: (Units=1/GPa)
#
#
# Indices 1 2 3 4 5 6 
#
# 1 0.010280 -0.003034 -0.001696 0.000000 -0.000322 0.000000
# 2 -0.003034 0.008606 -0.002930 0.000000 0.002361 0.000000
# 3 -0.001696 -0.002930 0.011207 0.000000 -0.010888 0.000000
# 4 0.000000 0.000000 0.000000 0.072630 0.000000 0.010387
# 5 -0.000322 0.002361 -0.010888 0.000000 0.041556 0.000000
# 6 0.000000 0.000000 0.000000 0.010387 0.000000 0.029630
#
#
# Mechanical properties :
#
#
# Convention : Reuss Voigt Hill
#
# Bulk Modulus (GPa) = 67.70052 78.94998 73.32525
# Shear Modulus (GPa) = 25.75272 34.40480 30.07876
#
# Velocity S-wave (km/s) = 3.55625 4.11046 3.84336
# Velocity P-wave (km/s) = 7.07882 7.82939 7.46355
#
# Compressibility (1/GPa) = 0.01477093
#
# Stress axis : x y z
#
# Youngs Moduli (GPa) = 97.27422 116.19537 89.23356
#
# Poissons Ratio (x) = 0.35258 0.15138
# Poissons Ratio (y) = 0.29517 0.26147
# Poissons Ratio (z) = 0.16502 0.34047
#
# Static dielectric constant tensor:
#      x y z
#    x 3.615250 0.000000 -0.067810 
#    y 0.000000 3.834160 0.000000 
#    z -0.067810 0.000000 3.574230 
# 
# 
# High freq. dielectric constant tensor:
#      x y z
#    x 1.793910 0.000000 0.004920 
#    y 0.000000 1.806040 0.000000 
#    z 0.004920 0.000000 1.787250 
# 
# From -- ./inp_files/17086.got.cif
#   From: 2010.03.12/outbox.cif.g09.slc.cpg/sg5_9_cif.got.tgz:17086.got - 2010.03.31 09:47:26.
