data_PCOD8050296
_publ_section_title
;
Structure prediction by ZEFSAII (Michael W. Deem and Ramdas Pophale) SiO2 
 PCOD8050296
Probable space group: C 2
;
_chemical_formula_sum "Si O2"
_cell_formula_units_Z 28
_cell_length_a 9.055863
_cell_length_b 8.993437
_cell_length_c 25.842377
_cell_angle_alpha 90.000000
_cell_angle_beta 35.654787
_cell_angle_gamma 90.000000
_cell_volume 1226.823832
_symmetry_space_group_name_H-M "C 2"
_symmetry_group_IT_number 5
_symmetry_cell_setting 'monoclinic'
loop_
_space_group_symop_operation_xyz
x,y,z
-x,y,-z
1/2+x,1/2+y,z
1/2-x,1/2+y,-z
loop_
_atom_site_type_symbol
_atom_site_label
_atom_site_fract_x
_atom_site_fract_y
_atom_site_fract_z
Si Si1 0.566632 0.750000 0.669471
Si Si2 0.912863 0.563732 0.185612
Si Si3 0.199931 0.558980 0.587103
Si Si4 0.099572 0.695954 0.029100
Si Si5 0.146171 0.812005 0.314643
Si Si6 0.276819 0.015367 0.534380
Si Si7 0.558420 0.528795 0.924244
O O1 0.276463 0.697605 0.746387
O O2 0.652046 0.730380 0.705204
O O3 0.740560 0.662682 0.579423
O O4 0.589561 0.921568 0.649505
O O5 0.775432 0.403652 0.231147
O O6 0.995326 0.579943 0.102004
O O7 0.139709 0.560347 0.164033
O O8 0.500000 0.577781 0.500000
O O9 0.112420 0.557754 0.552565
O O10 0.051085 0.697361 0.655302
O O11 0.029307 0.862417 0.068469
O O12 0.401396 0.657836 0.938831
O O13 0.000000 0.663549 0.000000
O O14 0.982585 0.924282 0.397412
O O15 0.500000 0.922105 0.500000
O O16 0.500000 0.545638 0.000000
#
# Coordination Sequence:
#
# PCOD8050296 Si02
#       7
#     4   4   4   4   4   4   4
#     4  11  23  42  63  96 135 178 218 284 340 376
#     4  10  23  44  67  95 145 175 212 274 334 403
#     4  12  23  41  69  93 129 183 238 282 325 393
#     4  10  21  43  76 102 129 172 219 267 325 399
#     4  11  23  41  63  95 135 178 224 279 342 381
#     4  11  21  40  68  89 127 177 229 285 333 387
#     4   9  20  42  70  99 129 171 214 260 324 398
#
# _framework density 22.823163000000001
#
# number of rings (size 3 to 8) (size 9 to 14) (size 15 to 20)
#    0.000    1.429    2.857    2.571    0.000    1.714 
#    0.000   18.571    0.000    0.000    0.000    0.000 
#    0.000    0.000    0.000    0.000    0.000    0.000 
#
# Total GULP energy -173486.910689 kJ/mol
# GULP energy per Si atom -12391.922192 kJ/mol
# Density = 2.277122 g / cm^3
# Si number density = 22.823163 Si / 1000 Ang^3
#
#
#
# Elastic Constant Matrix: (Units=GPa)
#
#
# Indices 1 2 3 4 5 6 
#
# 1 102.0036 49.8121 49.9767 0.0005 -23.4654 -0.0009
# 2 49.8121 125.0028 46.5397 -0.0001 -30.2945 -0.0004
# 3 49.9767 46.5397 91.9314 0.0044 -30.9721 -0.0011
# 4 0.0005 -0.0001 0.0044 37.1272 0.0005 -6.5556
# 5 -23.4654 -30.2945 -30.9721 0.0005 43.8715 0.0003
# 6 -0.0009 -0.0004 -0.0011 -6.5556 0.0003 34.5678
#
#
#
# Elastic Compliance Matrix: (Units=1/GPa)
#
#
# Indices 1 2 3 4 5 6 
#
# 1 0.014576 -0.003314 -0.005761 0.000001 0.001441 0.000000
# 2 -0.003314 0.011274 -0.002467 0.000000 0.004271 0.000000
# 3 -0.005761 -0.002467 0.017905 -0.000002 0.007856 0.000000
# 4 0.000001 0.000000 -0.000002 0.027868 -0.000001 0.005285
# 5 0.001441 0.004271 0.007856 -0.000001 0.032059 0.000000
# 6 0.000000 0.000000 0.000000 0.005285 0.000000 0.029931
#
#
# Mechanical properties :
#
#
# Convention : Reuss Voigt Hill
#
# Bulk Modulus (GPa) = 48.37685 67.95498 58.16591
# Shear Modulus (GPa) = 30.56479 34.62056 32.59267
#
# Velocity S-wave (km/s) = 3.66348 3.89897 3.78306
# Velocity P-wave (km/s) = 6.25597 7.07874 6.68003
#
# Compressibility (1/GPa) = 0.02067105
#
# Stress axis : x y z
#
# Youngs Moduli (GPa) = 68.60578 88.69969 55.85105
#
# Poissons Ratio (x) = 0.29399 0.32174
# Poissons Ratio (y) = 0.22739 0.13777
# Poissons Ratio (z) = 0.39522 0.21879
#
# Static dielectric constant tensor:
#      x y z
#    x 4.636980 -0.000020 -0.733030 
#    y -0.000020 4.187510 0.000020 
#    z -0.733030 0.000020 4.586050 
# 
# 
# High freq. dielectric constant tensor:
#      x y z
#    x 1.900610 0.000000 -0.017920 
#    y 0.000000 1.892050 0.000000 
#    z -0.017920 0.000000 1.900880 
# 
# From -- ./inp_files/70135.got.cif
#   From: 2010.03.12/outbox.cif.g09.slc.cpg/sg5_36_cif.got.tgz:70135.got - 2010.03.31 09:47:26.
