data_PCOD8050871
_publ_section_title
;
Structure prediction by ZEFSAII (Michael W. Deem and Ramdas Pophale) SiO2 
 PCOD8050871
Probable space group: C 2
;
_chemical_formula_sum "Si O2"
_cell_formula_units_Z 26
_cell_length_a 16.694978
_cell_length_b 8.523015
_cell_length_c 23.361874
_cell_angle_alpha 90.000000
_cell_angle_beta 19.828032
_cell_angle_gamma 90.000000
_cell_volume 1127.561732
_symmetry_space_group_name_H-M "C 2"
_symmetry_group_IT_number 5
_symmetry_cell_setting 'monoclinic'
loop_
_space_group_symop_operation_xyz
x,y,z
-x,y,-z
1/2+x,1/2+y,z
1/2-x,1/2+y,-z
loop_
_atom_site_type_symbol
_atom_site_label
_atom_site_fract_x
_atom_site_fract_y
_atom_site_fract_z
Si Si1 0.500000 0.105981 0.000000
Si Si2 0.134479 0.244747 0.327678
Si Si3 0.994996 0.162344 0.184887
Si Si4 0.195372 0.368505 0.604775
Si Si5 0.770357 0.398827 0.054773
Si Si6 0.000000 0.004007 0.500000
Si Si7 0.624524 0.200994 0.620106
Si Si8 0.000000 0.511492 0.500000
O O1 0.674111 0.227301 0.851058
O O2 0.621181 0.990235 0.964384
O O3 0.189834 0.114381 0.339101
O O4 0.116152 0.413967 0.369369
O O5 0.884692 0.204442 0.469536
O O6 0.020445 0.260258 0.227457
O O7 0.720363 0.114211 0.371345
O O8 0.177622 0.017578 0.067466
O O9 0.047093 0.274230 0.095422
O O10 0.348509 0.403661 0.558151
O O11 0.375844 0.274785 0.442588
O O12 0.068862 0.514382 0.657301
O O13 0.548003 0.297469 0.223922
#
# Coordination Sequence:
#
# PCOD8050871 Si02
#       8
#     2   4   4   4   4   2   4   2
#     4  12  26  46  74 108 152 190 242 300 376 432
#     4  10  22  44  72 106 144 191 239 299 365 434
#     4  12  26  46  75 107 144 191 248 301 364 430
#     4  11  22  41  69 102 140 189 234 295 354 433
#     4  12  27  48  72 109 147 194 241 303 364 435
#     4   9  19  38  70  98 140 188 236 282 360 426
#     4  11  23  45  71 107 144 191 240 296 368 429
#     4  11  25  46  76 108 142 192 252 304 356 440
#
# _framework density 23.058605
#
# number of rings (size 3 to 8) (size 9 to 14) (size 15 to 20)
#    0.000    0.923    1.538    6.000    2.154    2.462 
#    2.769    0.000    0.000    0.000    0.000    0.000 
#    0.000    0.000    0.000    0.000    0.000    0.000 
#
# Total GULP energy -161131.154276 kJ/mol
# GULP energy per Si atom -12394.704175 kJ/mol
# Density = 2.300612 g / cm^3
# Si number density = 23.058605 Si / 1000 Ang^3
#
#
#
# Elastic Constant Matrix: (Units=GPa)
#
#
# Indices 1 2 3 4 5 6 
#
# 1 103.5987 51.5862 45.0061 0.0133 12.7989 0.0144
# 2 51.5862 138.4818 76.5350 0.0126 16.8176 0.0368
# 3 45.0061 76.5350 139.4762 -0.1072 27.9597 0.0715
# 4 0.0133 0.0126 -0.1072 37.3344 0.0100 9.2994
# 5 12.7989 16.8176 27.9597 0.0100 44.7511 -0.0299
# 6 0.0144 0.0368 0.0715 9.2994 -0.0299 21.2380
#
#
#
# Elastic Compliance Matrix: (Units=1/GPa)
#
#
# Indices 1 2 3 4 5 6 
#
# 1 0.012301 -0.003412 -0.001885 -0.000010 -0.001058 0.000007
# 2 -0.003412 0.011317 -0.005089 -0.000019 -0.000097 0.000008
# 3 -0.001885 -0.005089 0.011522 0.000051 -0.004747 -0.000058
# 4 -0.000010 -0.000019 0.000051 0.030064 -0.000037 -0.013164
# 5 -0.001058 -0.000097 -0.004747 -0.000037 0.025651 0.000069
# 6 0.000007 0.000008 -0.000058 -0.013164 0.000069 0.052850
#
#
# Mechanical properties :
#
#
# Convention : Reuss Voigt Hill
#
# Bulk Modulus (GPa) = 69.60120 80.86792 75.23456
# Shear Modulus (GPa) = 29.53903 34.55998 32.04951
#
# Velocity S-wave (km/s) = 3.58305 3.87562 3.73220
# Velocity P-wave (km/s) = 6.88242 7.42792 7.16036
#
# Compressibility (1/GPa) = 0.01436757
#
# Stress axis : x y z
#
# Youngs Moduli (GPa) = 81.29245 88.36426 86.78801
#
# Poissons Ratio (x) = 0.30151 0.16359
# Poissons Ratio (y) = 0.27738 0.44170
# Poissons Ratio (z) = 0.15323 0.44972
#
# Static dielectric constant tensor:
#      x y z
#    x 4.008230 -0.000090 0.123750 
#    y -0.000090 4.897420 0.000030 
#    z 0.123750 0.000030 3.931950 
# 
# 
# High freq. dielectric constant tensor:
#      x y z
#    x 1.907310 0.000000 0.017490 
#    y 0.000000 1.932970 0.000010 
#    z 0.017490 0.000010 1.906940 
# 
# From -- ./inp_files/69154.got.cif
#   From: 2010.03.12/outbox.cif.g09.slc.cpg/sg5_35_cif.got.tgz:69154.got - 2010.03.31 09:47:26.
