data_PCOD8050137
_publ_section_title
;
Structure prediction by ZEFSAII (Michael W. Deem and Ramdas Pophale) SiO2 
 PCOD8050137
Probable space group: C 2
;
_chemical_formula_sum "Si O2"
_cell_formula_units_Z 28
_cell_length_a 32.246727
_cell_length_b 5.059481
_cell_length_c 10.217331
_cell_angle_alpha 90.000000
_cell_angle_beta 53.161989
_cell_angle_gamma 90.000000
_cell_volume 1334.136382
_symmetry_space_group_name_H-M "C 2"
_symmetry_group_IT_number 5
_symmetry_cell_setting 'monoclinic'
loop_
_space_group_symop_operation_xyz
x,y,z
-x,y,-z
1/2+x,1/2+y,z
1/2-x,1/2+y,-z
loop_
_atom_site_type_symbol
_atom_site_label
_atom_site_fract_x
_atom_site_fract_y
_atom_site_fract_z
Si Si1 0.480277 0.259810 0.181769
Si Si2 0.953813 0.757062 0.691862
Si Si3 0.219240 0.175858 0.016254
Si Si4 0.304671 0.754381 0.498934
Si Si5 0.102346 0.255139 0.294444
Si Si6 0.080586 0.261619 0.634393
Si Si7 0.244109 0.254675 0.682634
O O1 0.525919 0.212024 0.199838
O O2 0.460515 0.559636 0.226626
O O3 0.433474 0.060348 0.301469
O O4 0.500000 0.199186 0.000000
O O5 0.910878 0.537882 0.741304
O O6 0.000000 0.742660 0.500000
O O7 0.924450 0.035536 0.744742
O O8 0.211823 0.205076 0.874778
O O9 0.261529 0.381834 0.988841
O O10 0.164087 0.223555 0.188385
O O11 0.363915 0.692130 0.412428
O O12 0.269360 0.543666 0.642197
O O13 0.296111 0.728516 0.359931
O O14 0.290289 0.042987 0.579750
O O15 0.078599 0.225892 0.482988
#
# Coordination Sequence:
#
# PCOD8050137 Si02
#       7
#     4   4   4   4   4   4   4
#     4  12  27  42  64  92 128 161 203 272 323 364
#     4  12  23  45  66  93 129 163 219 269 307 386
#     4  12  25  41  63  96 136 161 210 268 310 372
#     4  10  22  38  67  87 122 167 208 249 313 381
#     4  12  24  40  72  95 120 179 212 256 324 379
#     4  12  22  42  65  92 121 161 216 252 315 387
#     4  10  21  41  59  92 126 165 201 259 312 364
#
# _framework density 20.987359000000001
#
# number of rings (size 3 to 8) (size 9 to 14) (size 15 to 20)
#    0.000    0.571    2.857    6.000    0.000    2.286 
#    0.000    0.000    0.000    0.000    0.000    0.000 
#    0.000    0.000    0.000    0.000    0.000    0.000 
#
# Total GULP energy -173732.046404 kJ/mol
# GULP energy per Si atom -12409.431886 kJ/mol
# Density = 2.093959 g / cm^3
# Si number density = 20.987359 Si / 1000 Ang^3
#
#
#
# Elastic Constant Matrix: (Units=GPa)
#
#
# Indices 1 2 3 4 5 6 
#
# 1 98.5760 14.3095 25.7774 0.0000 6.2568 0.0000
# 2 14.3095 88.3339 13.9154 0.0000 3.1058 0.0000
# 3 25.7774 13.9154 101.0850 0.0000 17.4214 0.0000
# 4 0.0000 0.0000 0.0000 23.0282 0.0000 -1.3507
# 5 6.2568 3.1058 17.4214 0.0000 31.8062 0.0000
# 6 0.0000 0.0000 0.0000 -1.3507 0.0000 40.4377
#
#
#
# Elastic Compliance Matrix: (Units=1/GPa)
#
#
# Indices 1 2 3 4 5 6 
#
# 1 0.011043 -0.001370 -0.002513 0.000000 -0.000662 0.000000
# 2 -0.001370 0.011744 -0.001233 0.000000 -0.000202 0.000000
# 3 -0.002513 -0.001233 0.011702 0.000000 -0.005795 0.000000
# 4 0.000000 0.000000 0.000000 0.043510 0.000000 0.001453
# 5 -0.000662 -0.000202 -0.005795 0.000000 0.034764 0.000000
# 6 0.000000 0.000000 0.000000 0.001453 0.000000 0.024778
#
#
# Mechanical properties :
#
#
# Convention : Reuss Voigt Hill
#
# Bulk Modulus (GPa) = 41.22464 43.99997 42.61230
# Shear Modulus (GPa) = 32.08055 34.65392 33.36723
#
# Velocity S-wave (km/s) = 3.91393 4.06788 3.99165
# Velocity P-wave (km/s) = 6.33327 6.56308 6.44920
#
# Compressibility (1/GPa) = 0.02425734
#
# Stress axis : x y z
#
# Youngs Moduli (GPa) = 90.55914 85.15111 85.45581
#
# Poissons Ratio (x) = 0.11662 0.21478
# Poissons Ratio (y) = 0.12403 0.10533
# Poissons Ratio (z) = 0.22760 0.10495
#
# Static dielectric constant tensor:
#      x y z
#    x 3.764210 0.000000 0.178240 
#    y 0.000000 3.945110 0.000000 
#    z 0.178240 0.000000 3.710190 
# 
# 
# High freq. dielectric constant tensor:
#      x y z
#    x 1.828710 0.000000 0.011620 
#    y 0.000000 1.841320 0.000000 
#    z 0.011620 0.000000 1.815110 
# 
# From -- ./inp_files/32224.got.cif
#   From: 2010.03.12/outbox.cif.g09.slc.cpg/sg5_17_cif.got.tgz:32224.got - 2010.03.31 09:47:26.
