data_PCOD8050936
_publ_section_title
;
Structure prediction by ZEFSAII (Michael W. Deem and Ramdas Pophale) SiO2 
 PCOD8050936
Probable space group: C 2
;
_chemical_formula_sum "Si O2"
_cell_formula_units_Z 24
_cell_length_a 13.584349
_cell_length_b 7.841569
_cell_length_c 17.665301
_cell_angle_alpha 90.000000
_cell_angle_beta 31.771056
_cell_angle_gamma 90.000000
_cell_volume 990.793123
_symmetry_space_group_name_H-M "C 2"
_symmetry_group_IT_number 5
_symmetry_cell_setting 'monoclinic'
loop_
_space_group_symop_operation_xyz
x,y,z
-x,y,-z
1/2+x,1/2+y,z
1/2-x,1/2+y,-z
loop_
_atom_site_type_symbol
_atom_site_label
_atom_site_fract_x
_atom_site_fract_y
_atom_site_fract_z
Si Si1 0.500000 0.110191 0.000000
Si Si2 0.820631 0.948943 0.353256
Si Si3 0.000000 0.212528 0.500000
Si Si4 0.879676 0.811392 0.936870
Si Si5 0.432126 0.193219 0.406397
Si Si6 0.789250 0.941135 0.716065
Si Si7 0.013749 0.488952 0.214367
O O1 0.480651 0.236169 0.943315
O O2 0.671708 0.983279 0.868895
O O3 0.674040 0.828785 0.406818
O O4 0.874187 0.857402 0.396499
O O5 0.000221 0.967917 0.178997
O O6 0.734722 0.136024 0.427032
O O7 0.054532 0.088999 0.394293
O O8 0.883913 0.666374 0.870993
O O9 0.667797 0.846409 0.098628
O O10 0.613011 0.255322 0.336984
O O11 0.467304 0.019845 0.333592
O O12 0.665778 0.944618 0.719615
#
# Coordination Sequence:
#
# PCOD8050936 Si02
#       7
#     2   4   2   4   4   4   4
#     4  10  22  46  72 100 138 190 236 296 378 416
#     4  11  25  46  68 110 140 195 242 299 371 436
#     4  12  22  50  68  98 154 176 254 306 362 430
#     4  10  23  46  71  99 145 185 233 312 354 437
#     4  11  25  46  74 104 146 194 243 299 372 439
#     4  11  25  46  73 102 140 197 236 308 367 430
#     4  10  24  47  68 107 142 185 248 297 368 432
#
# _framework density 24.223016999999999
#
# number of rings (size 3 to 8) (size 9 to 14) (size 15 to 20)
#    0.000    1.333    5.000    1.000   11.667    2.000 
#    6.000    0.000    0.000    0.000    0.000    0.000 
#    0.000    0.000    0.000    0.000    0.000    0.000 
#
# Total GULP energy -148723.137049 kJ/mol
# GULP energy per Si atom -12393.594754 kJ/mol
# Density = 2.416788 g / cm^3
# Si number density = 24.223017 Si / 1000 Ang^3
#
#
#
# Elastic Constant Matrix: (Units=GPa)
#
#
# Indices 1 2 3 4 5 6 
#
# 1 77.6461 31.6523 10.8598 -0.0001 -9.4270 0.0000
# 2 31.6523 59.7446 18.2028 -0.0001 -3.3102 0.0000
# 3 10.8598 18.2028 71.4468 -0.0003 -0.5482 0.0001
# 4 -0.0001 -0.0001 -0.0003 50.9692 0.0002 -5.4506
# 5 -9.4270 -3.3102 -0.5482 0.0002 31.1064 -0.0001
# 6 0.0000 0.0000 0.0001 -5.4506 -0.0001 18.5929
#
#
#
# Elastic Compliance Matrix: (Units=1/GPa)
#
#
# Indices 1 2 3 4 5 6 
#
# 1 0.016965 -0.008650 -0.000342 0.000000 0.004215 0.000000
# 2 -0.008650 0.022664 -0.004462 0.000000 -0.000288 0.000000
# 3 -0.000342 -0.004462 0.015183 0.000000 -0.000311 0.000000
# 4 0.000000 0.000000 0.000000 0.020255 0.000000 0.005938
# 5 0.004215 -0.000288 -0.000311 0.000000 0.033389 0.000000
# 6 0.000000 0.000000 0.000000 0.005938 0.000000 0.055525
#
#
# Mechanical properties :
#
#
# Convention : Reuss Voigt Hill
#
# Bulk Modulus (GPa) = 35.83794 36.69636 36.26715
# Shear Modulus (GPa) = 24.97643 30.00854 27.49249
#
# Velocity S-wave (km/s) = 3.21456 3.52354 3.37259
# Velocity P-wave (km/s) = 5.34836 5.63348 5.49277
#
# Compressibility (1/GPa) = 0.02790339
#
# Stress axis : x y z
#
# Youngs Moduli (GPa) = 58.94595 44.12291 65.86398
#
# Poissons Ratio (x) = 0.38166 0.02256
# Poissons Ratio (y) = 0.50988 0.29386
# Poissons Ratio (z) = 0.02019 0.19686
#
# Static dielectric constant tensor:
#      x y z
#    x 4.546000 0.000000 -0.381700 
#    y 0.000000 4.382590 0.000000 
#    z -0.381700 0.000000 6.272920 
# 
# 
# High freq. dielectric constant tensor:
#      x y z
#    x 1.950820 0.000000 0.003310 
#    y 0.000000 1.946490 0.000000 
#    z 0.003310 0.000000 1.984380 
# 
# From -- ./inp_files/61419.got.cif
#   From: 2010.03.12/outbox.cif.g09.slc.cpg/sg5_31_cif.got.tgz:61419.got - 2010.03.31 09:47:26.
