data_PCOD8050439
_publ_section_title
;
Structure prediction by ZEFSAII (Michael W. Deem and Ramdas Pophale) SiO2 
 PCOD8050439
Probable space group: C 2
;
_chemical_formula_sum "Si O2"
_cell_formula_units_Z 32
_cell_length_a 10.860504
_cell_length_b 9.324886
_cell_length_c 15.503092
_cell_angle_alpha 90.000000
_cell_angle_beta 91.740822
_cell_angle_gamma 90.000000
_cell_volume 1569.319420
_symmetry_space_group_name_H-M "C 2"
_symmetry_group_IT_number 5
_symmetry_cell_setting 'monoclinic'
loop_
_space_group_symop_operation_xyz
x,y,z
-x,y,-z
1/2+x,1/2+y,z
1/2-x,1/2+y,-z
loop_
_atom_site_type_symbol
_atom_site_label
_atom_site_fract_x
_atom_site_fract_y
_atom_site_fract_z
Si Si1 0.403561 0.813800 0.335663
Si Si2 0.265892 0.407408 0.812905
Si Si3 0.572375 0.148946 0.227874
Si Si4 0.883317 0.563294 0.454631
Si Si5 0.256365 0.052911 0.625359
Si Si6 0.031302 0.416390 0.902053
Si Si7 0.839740 0.775716 0.307529
Si Si8 0.399845 0.695797 0.785430
O O1 0.337758 0.918960 0.264578
O O2 0.302853 0.708532 0.372555
O O3 0.516219 0.722193 0.298000
O O4 0.442731 0.920012 0.413059
O O5 0.324422 0.249985 0.812021
O O6 0.181187 0.418326 0.897113
O O7 0.372261 0.528322 0.806502
O O8 0.624772 0.052528 0.308022
O O9 0.467675 0.251765 0.262838
O O10 0.525518 0.047385 0.152010
O O11 0.788359 0.519360 0.527174
O O12 0.815161 0.663395 0.384168
O O13 0.000000 0.646164 0.500000
O O14 0.158240 0.935064 0.653801
O O15 0.969715 0.267391 0.867982
O O16 0.000000 0.439286 0.000000
O O17 0.732385 0.766609 0.234161
#
# Coordination Sequence:
#
# PCOD8050439 Si02
#       8
#     4   4   4   4   4   4   4   4
#     4  10  22  39  59  90 122 168 212 259 309 366
#     4  10  22  41  66  91 126 160 208 253 308 379
#     4  11  22  42  65  92 124 168 207 255 315 376
#     4  12  22  38  57  88 129 166 215 264 306 360
#     4  11  23  38  60  89 126 167 215 258 311 365
#     4  11  24  43  67  97 127 160 204 258 320 380
#     4  12  21  39  66  89 124 173 211 256 312 366
#     4  11  20  41  68  90 124 168 208 256 316 374
#
# _framework density 20.391003999999999
#
# number of rings (size 3 to 8) (size 9 to 14) (size 15 to 20)
#    0.000    1.000    5.000    3.000    0.000    1.000 
#    0.000    1.250    0.000    0.000    0.000    0.000 
#    0.000    0.000    0.000    0.000    0.000    0.000 
#
# Total GULP energy -198395.198036 kJ/mol
# GULP energy per Si atom -12399.699877 kJ/mol
# Density = 2.034459 g / cm^3
# Si number density = 20.391004 Si / 1000 Ang^3
#
#
#
# Elastic Constant Matrix: (Units=GPa)
#
#
# Indices 1 2 3 4 5 6 
#
# 1 97.7930 29.3399 45.1343 0.0000 -15.9630 0.0000
# 2 29.3399 92.0165 42.7882 0.0000 -8.5186 0.0000
# 3 45.1343 42.7882 113.6808 0.0000 -24.4422 0.0000
# 4 0.0000 0.0000 0.0000 16.5879 0.0000 -2.6869
# 5 -15.9630 -8.5186 -24.4422 0.0000 31.3174 0.0000
# 6 0.0000 0.0000 0.0000 -2.6869 0.0000 39.6754
#
#
#
# Elastic Compliance Matrix: (Units=1/GPa)
#
#
# Indices 1 2 3 4 5 6 
#
# 1 0.013105 -0.002161 -0.003701 0.000000 0.003204 0.000000
# 2 -0.002161 0.013533 -0.004423 0.000000 -0.000873 0.000000
# 3 -0.003701 -0.004423 0.013538 0.000000 0.007477 0.000000
# 4 0.000000 0.000000 0.000000 0.060953 0.000000 0.004128
# 5 0.003204 -0.000873 0.007477 0.000000 0.039162 0.000000
# 6 0.000000 0.000000 0.000000 0.004128 0.000000 0.025484
#
#
# Mechanical properties :
#
#
# Convention : Reuss Voigt Hill
#
# Bulk Modulus (GPa) = 51.00541 59.77947 55.39244
# Shear Modulus (GPa) = 25.92272 29.93134 27.92703
#
# Velocity S-wave (km/s) = 3.56937 3.83544 3.70479
# Velocity P-wave (km/s) = 6.48500 6.99959 6.74720
#
# Compressibility (1/GPa) = 0.01960576
#
# Stress axis : x y z
#
# Youngs Moduli (GPa) = 76.30665 73.89503 73.86483
#
# Poissons Ratio (x) = 0.15970 0.27336
# Poissons Ratio (y) = 0.16491 0.32672
# Poissons Ratio (z) = 0.28240 0.32685
#
# Static dielectric constant tensor:
#      x y z
#    x 3.751100 0.000000 -0.089980 
#    y 0.000000 3.674240 0.000000 
#    z -0.089980 0.000000 3.554180 
# 
# 
# High freq. dielectric constant tensor:
#      x y z
#    x 1.803560 0.000000 -0.011480 
#    y 0.000000 1.801030 0.000000 
#    z -0.011480 0.000000 1.775200 
# 
# From -- ./inp_files/52447.got.cif
#   From: 2010.03.12/outbox.cif.g09.slc.cpg/sg5_27_cif.got.tgz:52447.got - 2010.03.31 09:47:26.
