data_PCOD8050888
_publ_section_title
;
Structure prediction by ZEFSAII (Michael W. Deem and Ramdas Pophale) SiO2 
 PCOD8050888
Probable space group: C 2
;
_chemical_formula_sum "Si O2"
_cell_formula_units_Z 20
_cell_length_a 11.311352
_cell_length_b 13.881275
_cell_length_c 8.365042
_cell_angle_alpha 90.000000
_cell_angle_beta 48.316980
_cell_angle_gamma 90.000000
_cell_volume 980.927332
_symmetry_space_group_name_H-M "C 2"
_symmetry_group_IT_number 5
_symmetry_cell_setting 'monoclinic'
loop_
_space_group_symop_operation_xyz
x,y,z
-x,y,-z
1/2+x,1/2+y,z
1/2-x,1/2+y,-z
loop_
_atom_site_type_symbol
_atom_site_label
_atom_site_fract_x
_atom_site_fract_y
_atom_site_fract_z
Si Si1 0.989522 0.553290 0.195917
Si Si2 0.000000 0.982684 0.500000
Si Si3 0.675277 0.622000 0.111809
Si Si4 0.841307 0.738860 0.227525
Si Si5 0.289289 0.877059 0.398527
Si Si6 0.500000 0.738508 0.000000
O O1 0.884765 0.650517 0.308785
O O2 0.903492 0.463517 0.357011
O O3 0.000000 0.527795 0.000000
O O4 0.167551 0.569053 0.099630
O O5 0.859391 0.915914 0.565402
O O6 0.942138 0.046271 0.700818
O O7 0.719792 0.702998 0.201969
O O8 0.590323 0.670213 0.040529
O O9 0.762782 0.825147 0.393128
O O10 0.000000 0.777692 0.000000
O O11 0.376147 0.803942 0.203949
#
# Coordination Sequence:
#
# PCOD8050888 Si02
#       6
#     4   2   4   4   4   2
#     4   9  18  44  66  89 131 179 214 272 336 381
#     4  12  22  40  68  94 140 182 212 280 338 396
#     4  10  22  45  65  91 138 182 221 276 340 387
#     4   9  21  43  69  91 132 179 219 273 335 389
#     4  12  23  40  70 103 130 178 231 267 337 402
#     4  12  26  40  68 104 132 178 230 274 328 404
#
# _framework density 20.388869
#
# number of rings (size 3 to 8) (size 9 to 14) (size 15 to 20)
#    0.000    2.000    5.000    1.200    5.600    0.000 
#    1.800    2.000    0.000    0.000    0.000    0.000 
#    0.000    0.000    0.000    0.000    0.000    0.000 
#
# Total GULP energy -124001.976440 kJ/mol
# GULP energy per Si atom -12400.197644 kJ/mol
# Density = 2.034246 g / cm^3
# Si number density = 20.388869 Si / 1000 Ang^3
#
#
#
# Elastic Constant Matrix: (Units=GPa)
#
#
# Indices 1 2 3 4 5 6 
#
# 1 148.2381 74.6426 63.2847 -0.0001 -20.3720 0.0002
# 2 74.6426 142.8270 91.9108 0.0000 -12.2981 0.0000
# 3 63.2847 91.9108 115.8356 0.0000 -13.0044 0.0001
# 4 -0.0001 0.0000 0.0000 56.6128 0.0001 -6.3426
# 5 -20.3720 -12.2981 -13.0044 0.0001 24.8743 -0.0002
# 6 0.0002 0.0000 0.0001 -6.3426 -0.0002 22.0987
#
#
#
# Elastic Compliance Matrix: (Units=1/GPa)
#
#
# Indices 1 2 3 4 5 6 
#
# 1 0.010167 -0.003398 -0.002244 0.000000 0.005474 0.000000
# 2 -0.003398 0.015476 -0.010493 0.000000 -0.000617 0.000000
# 3 -0.002244 -0.010493 0.018480 0.000000 0.002636 0.000000
# 4 0.000000 0.000000 0.000000 0.018251 0.000000 0.005238
# 5 0.005474 -0.000617 0.002636 0.000000 0.045758 0.000000
# 6 0.000000 0.000000 0.000000 0.005238 0.000000 0.046755
#
#
# Mechanical properties :
#
#
# Convention : Reuss Voigt Hill
#
# Bulk Modulus (GPa) = 84.35599 96.28631 90.32115
# Shear Modulus (GPa) = 26.16315 32.52133 29.34224
#
# Velocity S-wave (km/s) = 3.58607 3.99814 3.79770
# Velocity P-wave (km/s) = 7.65571 8.28499 7.97656
#
# Compressibility (1/GPa) = 0.01185452
#
# Stress axis : x y z
#
# Youngs Moduli (GPa) = 98.35594 64.61449 54.11201
#
# Poissons Ratio (x) = 0.21957 0.12142
# Poissons Ratio (y) = 0.33424 0.56778
# Poissons Ratio (z) = 0.22069 0.67797
#
# Static dielectric constant tensor:
#      x y z
#    x 3.589540 0.000000 -0.352390 
#    y 0.000000 3.868480 0.000000 
#    z -0.352390 0.000000 3.837010 
# 
# 
# High freq. dielectric constant tensor:
#      x y z
#    x 1.790060 0.000000 -0.026690 
#    y 0.000000 1.801310 0.000000 
#    z -0.026690 0.000000 1.796020 
# 
# From -- ./inp_files/19234.got.cif
#   From: 2010.03.12/outbox.cif.g09.slc.cpg/sg5_10_cif.got.tgz:19234.got - 2010.03.31 09:47:26.
