data_PCOD8050589
_publ_section_title
;
Structure prediction by ZEFSAII (Michael W. Deem and Ramdas Pophale) SiO2 
 PCOD8050589
Probable space group: C 2
;
_chemical_formula_sum "Si O2"
_cell_formula_units_Z 28
_cell_length_a 29.188114
_cell_length_b 8.769153
_cell_length_c 9.533283
_cell_angle_alpha 90.000000
_cell_angle_beta 35.046514
_cell_angle_gamma 90.000000
_cell_volume 1401.201378
_symmetry_space_group_name_H-M "C 2"
_symmetry_group_IT_number 5
_symmetry_cell_setting 'monoclinic'
loop_
_space_group_symop_operation_xyz
x,y,z
-x,y,-z
1/2+x,1/2+y,z
1/2-x,1/2+y,-z
loop_
_atom_site_type_symbol
_atom_site_label
_atom_site_fract_x
_atom_site_fract_y
_atom_site_fract_z
Si Si1 0.973593 0.392250 0.219265
Si Si2 0.565691 0.135604 0.452678
Si Si3 0.704494 0.057429 0.901661
Si Si4 0.776487 0.086920 0.111718
Si Si5 0.806214 0.325512 0.549832
Si Si6 0.816341 0.858639 0.777739
Si Si7 0.362754 0.799430 0.104416
O O1 0.967588 0.530512 0.342297
O O2 0.891227 0.296609 0.414824
O O3 0.000000 0.456291 0.000000
O O4 0.042796 0.281604 0.104023
O O5 0.500000 0.168560 0.500000
O O6 0.592898 0.295460 0.458083
O O7 0.644548 0.061196 0.184314
O O8 0.787466 0.967147 0.724743
O O9 0.657685 0.970168 0.896483
O O10 0.732211 0.226324 0.792025
O O11 0.712373 0.005782 0.376961
O O12 0.740640 0.208327 0.091269
O O13 0.842107 0.169944 0.043204
O O14 0.812324 0.946972 0.934525
O O15 0.812703 0.279982 0.371580
#
# Coordination Sequence:
#
# PCOD8050589 Si02
#       7
#     4   4   4   4   4   4   4
#     4  10  22  41  64  90 125 166 206 251 321 385
#     4  12  22  39  63  91 124 161 211 260 308 372
#     4  11  22  39  63  91 125 161 216 257 309 374
#     4  11  20  36  63  90 122 157 211 260 307 372
#     4  11  20  40  64  89 126 166 209 259 312 378
#     4  11  21  38  61  89 119 164 205 260 313 359
#     4  10  23  38  62  93 123 167 211 255 315 375
#
# _framework density 19.982851
#
# number of rings (size 3 to 8) (size 9 to 14) (size 15 to 20)
#    0.000    1.143    5.714    0.857    0.000    0.000 
#    2.571    0.000    0.000    0.000    0.000    0.000 
#    0.000    0.000    0.000    0.000    0.000    0.000 
#
# Total GULP energy -173461.388070 kJ/mol
# GULP energy per Si atom -12390.099148 kJ/mol
# Density = 1.993737 g / cm^3
# Si number density = 19.982851 Si / 1000 Ang^3
#
#
#
# Elastic Constant Matrix: (Units=GPa)
#
#
# Indices 1 2 3 4 5 6 
#
# 1 129.1757 39.1909 36.2510 0.0000 -7.9556 0.0000
# 2 39.1909 90.2289 34.0290 0.0000 -1.5306 0.0000
# 3 36.2510 34.0290 79.1654 0.0000 -0.4102 0.0000
# 4 0.0000 0.0000 0.0000 21.9694 0.0000 -0.2062
# 5 -7.9556 -1.5306 -0.4102 0.0000 28.6756 0.0000
# 6 0.0000 0.0000 0.0000 -0.2062 0.0000 36.0725
#
#
#
# Elastic Compliance Matrix: (Units=1/GPa)
#
#
# Indices 1 2 3 4 5 6 
#
# 1 0.009679 -0.002978 -0.003139 0.000000 0.002481 0.000000
# 2 -0.002978 0.014155 -0.004721 0.000000 -0.000138 0.000000
# 3 -0.003139 -0.004721 0.016094 0.000000 -0.000893 0.000000
# 4 0.000000 0.000000 0.000000 0.045520 0.000000 0.000260
# 5 0.002481 -0.000138 -0.000893 0.000000 0.035541 0.000000
# 6 0.000000 0.000000 0.000000 0.000260 0.000000 0.027723
#
#
# Mechanical properties :
#
#
# Convention : Reuss Voigt Hill
#
# Bulk Modulus (GPa) = 54.79296 57.50131 56.14714
# Shear Modulus (GPa) = 28.33301 29.95011 29.14156
#
# Velocity S-wave (km/s) = 3.76954 3.87562 3.82295
# Velocity P-wave (km/s) = 6.81362 6.99035 6.90255
#
# Compressibility (1/GPa) = 0.01825052
#
# Stress axis : x y z
#
# Youngs Moduli (GPa) = 103.32042 70.64790 62.13464
#
# Poissons Ratio (x) = 0.21039 0.19504
# Poissons Ratio (y) = 0.30768 0.29336
# Poissons Ratio (z) = 0.32433 0.33356
#
# Static dielectric constant tensor:
#      x y z
#    x 3.937730 0.000000 -0.037640 
#    y 0.000000 3.635630 0.000000 
#    z -0.037640 0.000000 3.497410 
# 
# 
# High freq. dielectric constant tensor:
#      x y z
#    x 1.802590 0.000000 0.002060 
#    y 0.000000 1.767570 0.000000 
#    z 0.002060 0.000000 1.758920 
# 
# From -- ./inp_files/31739.got.cif
#   From: 2010.03.12/outbox.cif.g09.slc.cpg/sg5_16_cif.got.tgz:31739.got - 2010.03.31 09:47:26.
