data_PCOD8050756
_publ_section_title
;
Structure prediction by ZEFSAII (Michael W. Deem and Ramdas Pophale) SiO2 
 PCOD8050756
Probable space group: C 2
;
_chemical_formula_sum "Si O2"
_cell_formula_units_Z 18
_cell_length_a 16.530565
_cell_length_b 4.996356
_cell_length_c 10.911884
_cell_angle_alpha 90.000000
_cell_angle_beta 126.838168
_cell_angle_gamma 90.000000
_cell_volume 721.291935
_symmetry_space_group_name_H-M "C 2"
_symmetry_group_IT_number 5
_symmetry_cell_setting 'monoclinic'
loop_
_space_group_symop_operation_xyz
x,y,z
-x,y,-z
1/2+x,1/2+y,z
1/2-x,1/2+y,-z
loop_
_atom_site_type_symbol
_atom_site_label
_atom_site_fract_x
_atom_site_fract_y
_atom_site_fract_z
Si Si1 0.704079 0.535090 0.022691
Si Si2 0.478931 0.572687 0.749033
Si Si3 0.000000 0.916770 0.500000
Si Si4 0.709333 0.186461 0.655250
Si Si5 0.349114 0.063168 0.659459
O O1 0.584513 0.489920 0.904761
O O2 0.766751 0.327239 0.999204
O O3 0.731482 0.509945 0.191047
O O4 0.487387 0.593782 0.609669
O O5 0.443976 0.862568 0.761784
O O6 0.393224 0.360895 0.714241
O O7 0.097793 0.731756 0.607401
O O8 0.765144 0.474501 0.683073
O O9 0.703359 0.022041 0.522127
#
# Coordination Sequence:
#
# PCOD8050756 Si02
#       5
#     4   4   2   4   4
#     4  12  27  46  73 113 148 191 241 311 366 432
#     4  11  25  46  72 108 144 190 245 294 373 426
#     4  10  22  42  74 104 136 196 236 298 342 440
#     4  11  25  48  75 107 148 192 246 300 362 433
#     4  11  26  46  73 106 144 195 241 301 359 437
#
# _framework density 24.955223
#
# number of rings (size 3 to 8) (size 9 to 14) (size 15 to 20)
#    0.000    0.889    2.222    4.000    6.222    5.333 
#    0.000    4.444    0.000    0.000    0.000    0.000 
#    0.000    0.000    0.000    0.000    0.000    0.000 
#
# Total GULP energy -111638.902964 kJ/mol
# GULP energy per Si atom -12404.322552 kJ/mol
# Density = 2.489842 g / cm^3
# Si number density = 24.955223 Si / 1000 Ang^3
#
#
#
# Elastic Constant Matrix: (Units=GPa)
#
#
# Indices 1 2 3 4 5 6 
#
# 1 117.8556 17.4642 27.2779 0.0001 23.6846 0.0001
# 2 17.4642 70.4642 6.7601 -0.0004 3.0107 -0.0003
# 3 27.2779 6.7601 131.9943 0.0002 22.1185 0.0001
# 4 0.0001 -0.0004 0.0002 31.3616 0.0000 0.3566
# 5 23.6846 3.0107 22.1185 0.0000 40.4860 0.0000
# 6 0.0001 -0.0003 0.0001 0.3566 0.0000 42.6910
#
#
#
# Elastic Compliance Matrix: (Units=1/GPa)
#
#
# Indices 1 2 3 4 5 6 
#
# 1 0.010098 -0.002176 -0.001115 0.000000 -0.005136 0.000000
# 2 -0.002176 0.014750 -0.000369 0.000000 0.000378 0.000000
# 3 -0.001115 -0.000369 0.008489 0.000000 -0.003958 0.000000
# 4 0.000000 0.000000 0.000000 0.031889 0.000000 -0.000266
# 5 -0.005136 0.000378 -0.003958 0.000000 0.029839 0.000000
# 6 0.000000 0.000000 0.000000 -0.000266 0.000000 0.023426
#
#
# Mechanical properties :
#
#
# Convention : Reuss Voigt Hill
#
# Bulk Modulus (GPa) = 38.43678 47.03538 42.73608
# Shear Modulus (GPa) = 37.17943 40.82851 39.00397
#
# Velocity S-wave (km/s) = 3.86404 4.04923 3.95772
# Velocity P-wave (km/s) = 5.94504 6.38361 6.16822
#
# Compressibility (1/GPa) = 0.02601675
#
# Stress axis : x y z
#
# Youngs Moduli (GPa) = 99.03298 67.79550 117.80535
#
# Poissons Ratio (x) = 0.14754 0.13131
# Poissons Ratio (y) = 0.21552 0.04347
# Poissons Ratio (z) = 0.11038 0.02502
#
# Static dielectric constant tensor:
#      x y z
#    x 4.599960 0.000000 0.119950 
#    y 0.000000 4.119940 0.000000 
#    z 0.119950 0.000000 4.594300 
# 
# 
# High freq. dielectric constant tensor:
#      x y z
#    x 2.010780 0.000000 0.016400 
#    y 0.000000 1.982220 0.000000 
#    z 0.016400 0.000000 1.995080 
# 
# From -- ./inp_files/43537.got.cif
#   From: 2010.03.12/outbox.cif.g09.slc.cpg/sg5_22_cif.got.tgz:43537.got - 2010.03.31 09:47:26.
