data_PCOD8050021
_publ_section_title
;
Structure prediction by ZEFSAII (Michael W. Deem and Ramdas Pophale) SiO2 
 PCOD8050021
Probable space group: C 2
;
_chemical_formula_sum "Si O2"
_cell_formula_units_Z 26
_cell_length_a 14.993886
_cell_length_b 11.365282
_cell_length_c 8.482551
_cell_angle_alpha 90.000000
_cell_angle_beta 57.485276
_cell_angle_gamma 90.000000
_cell_volume 1218.930575
_symmetry_space_group_name_H-M "C 2"
_symmetry_group_IT_number 5
_symmetry_cell_setting 'monoclinic'
loop_
_space_group_symop_operation_xyz
x,y,z
-x,y,-z
1/2+x,1/2+y,z
1/2-x,1/2+y,-z
loop_
_atom_site_type_symbol
_atom_site_label
_atom_site_fract_x
_atom_site_fract_y
_atom_site_fract_z
Si Si1 0.143763 0.545880 0.702575
Si Si2 0.595709 0.425640 0.025708
Si Si3 0.546643 0.662110 0.214366
Si Si4 0.500000 0.853069 0.000000
Si Si5 0.342300 0.673150 0.578449
Si Si6 0.777077 0.885195 0.387893
Si Si7 0.970194 0.760664 0.346442
O O1 0.090579 0.438496 0.845405
O O2 0.234463 0.603216 0.726538
O O3 0.217690 0.504988 0.487281
O O4 0.057735 0.639012 0.718363
O O5 0.614460 0.549709 0.093989
O O6 0.573505 0.318116 0.166837
O O7 0.500000 0.448875 0.000000
O O8 0.694531 0.390548 0.824058
O O9 0.429977 0.613147 0.378746
O O10 0.604723 0.714808 0.310417
O O11 0.546765 0.767983 0.089239
O O12 0.310424 0.785576 0.506154
O O13 0.874546 0.854010 0.413683
O O14 0.000000 0.737454 0.500000
#
# Coordination Sequence:
#
# PCOD8050021 Si02
#       7
#     4   4   4   2   4   4   4
#     4  11  25  43  67  95 136 172 216 273 327 388
#     4  10  21  39  67  91 127 169 216 265 316 390
#     4  11  23  42  68  96 130 171 221 266 325 387
#     4  12  26  44  68  96 130 178 216 274 332 382
#     4  10  23  42  64  96 132 172 213 268 327 386
#     4  10  22  43  63  93 135 169 215 268 327 383
#     4  10  24  42  71  97 129 173 222 267 327 386
#
# _framework density 21.330172000000001
#
# number of rings (size 3 to 8) (size 9 to 14) (size 15 to 20)
#    0.000    1.538    2.308    1.846    9.692    2.462 
#    2.769    0.000    0.000    0.000    0.000    0.000 
#    0.000    0.000    0.000    0.000    0.000    0.000 
#
# Total GULP energy -161088.554668 kJ/mol
# GULP energy per Si atom -12391.427282 kJ/mol
# Density = 2.128162 g / cm^3
# Si number density = 21.330172 Si / 1000 Ang^3
#
#
#
# Elastic Constant Matrix: (Units=GPa)
#
#
# Indices 1 2 3 4 5 6 
#
# 1 81.3677 37.7295 50.4062 0.0000 8.1467 0.0000
# 2 37.7295 123.8672 52.1260 0.0000 -0.3212 0.0000
# 3 50.4062 52.1260 113.7564 0.0000 6.9094 0.0000
# 4 0.0000 0.0000 0.0000 45.2353 0.0000 -2.4687
# 5 8.1467 -0.3212 6.9094 0.0000 28.1337 0.0000
# 6 0.0000 0.0000 0.0000 -2.4687 0.0000 6.6152
#
#
#
# Elastic Compliance Matrix: (Units=1/GPa)
#
#
# Indices 1 2 3 4 5 6 
#
# 1 0.017935 -0.002752 -0.006465 0.000000 -0.003637 0.000000
# 2 -0.002752 0.010468 -0.003688 0.000000 0.001822 0.000000
# 3 -0.006465 -0.003688 0.013435 0.000000 -0.001469 0.000000
# 4 0.000000 0.000000 0.000000 0.022566 0.000000 0.008421
# 5 -0.003637 0.001822 -0.001469 0.000000 0.036979 0.000000
# 6 0.000000 0.000000 0.000000 0.008421 0.000000 0.154309
#
#
# Mechanical properties :
#
#
# Convention : Reuss Voigt Hill
#
# Bulk Modulus (GPa) = 62.39194 66.61274 64.50234
# Shear Modulus (GPa) = 17.43099 27.91216 22.67157
#
# Velocity S-wave (km/s) = 2.86177 3.62135 3.26373
# Velocity P-wave (km/s) = 6.34300 6.98446 6.67145
#
# Compressibility (1/GPa) = 0.01602771
#
# Stress axis : x y z
#
# Youngs Moduli (GPa) = 55.75630 95.52865 74.43341
#
# Poissons Ratio (x) = 0.26286 0.48124
# Poissons Ratio (y) = 0.15342 0.27452
# Poissons Ratio (z) = 0.36049 0.35232
#
# Static dielectric constant tensor:
#      x y z
#    x 3.657100 0.000000 -0.135760 
#    y 0.000000 3.899530 0.000000 
#    z -0.135760 0.000000 4.089990 
# 
# 
# High freq. dielectric constant tensor:
#      x y z
#    x 1.819540 0.000000 -0.004350 
#    y 0.000000 1.842300 0.000000 
#    z -0.004350 0.000000 1.840830 
# 
# From -- ./inp_files/23518.got.cif
#   From: 2010.03.12/outbox.cif.g09.slc.cpg/sg5_12_cif.got.tgz:23518.got - 2010.03.31 09:47:26.
