data_PCOD8050446
_publ_section_title
;
Structure prediction by ZEFSAII (Michael W. Deem and Ramdas Pophale) SiO2 
 PCOD8050446
Probable space group: C 2
;
_chemical_formula_sum "Si O2"
_cell_formula_units_Z 32
_cell_length_a 24.544810
_cell_length_b 13.111729
_cell_length_c 9.336672
_cell_angle_alpha 90.000000
_cell_angle_beta 148.643308
_cell_angle_gamma 90.000000
_cell_volume 1563.576898
_symmetry_space_group_name_H-M "C 2"
_symmetry_group_IT_number 5
_symmetry_cell_setting 'monoclinic'
loop_
_space_group_symop_operation_xyz
x,y,z
-x,y,-z
1/2+x,1/2+y,z
1/2-x,1/2+y,-z
loop_
_atom_site_type_symbol
_atom_site_label
_atom_site_fract_x
_atom_site_fract_y
_atom_site_fract_z
Si Si1 0.250287 0.271020 0.655872
Si Si2 0.898460 0.462333 0.695983
Si Si3 0.939225 0.904675 0.997464
Si Si4 0.194677 0.091723 0.978887
Si Si5 0.786258 0.291822 0.109931
Si Si6 0.093806 0.496762 0.601209
Si Si7 0.083687 0.905182 0.587202
Si Si8 0.283993 0.584483 0.633385
O O1 0.174913 0.366709 0.487572
O O2 0.366251 0.311538 0.883408
O O3 0.247243 0.238557 0.814877
O O4 0.209267 0.184562 0.452649
O O5 0.938270 0.512058 0.636368
O O6 0.834224 0.542270 0.650768
O O7 0.000000 0.421487 0.000000
O O8 0.874181 0.003387 0.795020
O O9 0.000000 0.858894 0.000000
O O10 0.027861 0.934040 0.313081
O O11 0.201814 0.098314 0.165324
O O12 0.305995 0.069434 0.150206
O O13 0.156771 0.203151 0.849561
O O14 0.113596 0.006413 0.745394
O O15 0.872684 0.379360 0.309016
O O16 0.684430 0.333031 0.794649
O O17 0.000000 0.524559 0.500000
O O18 0.000000 0.846753 0.500000
#
# Coordination Sequence:
#
# PCOD8050446 Si02
#       8
#     4   4   4   4   4   4   4   4
#     4  10  22  41  59  87 123 154 196 245 294 353
#     4   9  20  40  59  78 116 160 189 233 291 345
#     4  11  24  41  63  90 122 160 200 248 303 358
#     4  10  22  39  62  88 118 155 197 246 294 350
#     4  10  22  39  62  88 118 155 197 246 294 350
#     4   9  20  40  57  83 118 150 193 239 288 345
#     4  11  20  43  65  84 122 162 200 248 301 355
#     4  10  22  41  59  87 123 154 196 245 294 353
#
# _framework density 20.465893999999999
#
# number of rings (size 3 to 8) (size 9 to 14) (size 15 to 20)
#    0.000    2.000    2.500    1.500    3.500    4.000 
#    9.000    0.000    0.000    0.000    0.000    0.000 
#    0.000    0.000    0.000    0.000    0.000    0.000 
#
# Total GULP energy -198227.197214 kJ/mol
# GULP energy per Si atom -12389.199826 kJ/mol
# Density = 2.041931 g / cm^3
# Si number density = 20.465894 Si / 1000 Ang^3
#
#
#
# Elastic Constant Matrix: (Units=GPa)
#
#
# Indices 1 2 3 4 5 6 
#
# 1 72.1285 -5.1206 22.3483 0.0000 7.9036 0.0000
# 2 -5.1206 49.6118 -5.7637 0.0000 -17.8333 0.0000
# 3 22.3483 -5.7637 89.3918 0.0000 -11.9838 0.0000
# 4 0.0000 0.0000 0.0000 17.8178 0.0000 -13.1807
# 5 7.9036 -17.8333 -11.9838 0.0000 20.5649 0.0000
# 6 0.0000 0.0000 0.0000 -13.1807 0.0000 24.6776
#
#
#
# Elastic Compliance Matrix: (Units=1/GPa)
#
#
# Indices 1 2 3 4 5 6 
#
# 1 0.017040 -0.003860 -0.006330 0.000000 -0.013585 0.000000
# 2 -0.003860 0.033153 0.007762 0.000000 0.034756 0.000000
# 3 -0.006330 0.007762 0.015727 0.000000 0.018328 0.000000
# 4 0.000000 0.000000 0.000000 0.092784 0.000000 0.049557
# 5 -0.013585 0.034756 0.018328 0.000000 0.094667 0.000000
# 6 0.000000 0.000000 0.000000 0.049557 0.000000 0.066992
#
#
# Mechanical properties :
#
#
# Convention : Reuss Voigt Hill
#
# Bulk Modulus (GPa) = 16.37622 26.00669 21.19145
# Shear Modulus (GPa) = 14.46871 25.92327 20.19599
#
# Velocity S-wave (km/s) = 2.66177 3.56287 3.14476
# Velocity P-wave (km/s) = 4.17921 5.44613 4.85418
#
# Compressibility (1/GPa) = 0.06106415
#
# Stress axis : x y z
#
# Youngs Moduli (GPa) = 58.68540 30.16303 63.58569
#
# Poissons Ratio (x) = 0.11642 0.40250
# Poissons Ratio (y) = 0.22651 -0.49355
# Poissons Ratio (z) = 0.37148 -0.23412
#
# Static dielectric constant tensor:
#      x y z
#    x 3.791400 0.000000 -0.001230 
#    y 0.000000 3.543720 0.000000 
#    z -0.001230 0.000000 3.736060 
# 
# 
# High freq. dielectric constant tensor:
#      x y z
#    x 1.803000 0.000000 0.000960 
#    y 0.000000 1.786270 0.000000 
#    z 0.000960 0.000000 1.803490 
# 
# From -- ./inp_files/31086.got.cif
#   From: 2010.03.12/outbox.cif.g09.slc.cpg/sg5_16_cif.got.tgz:31086.got - 2010.03.31 09:47:26.
