data_PCOD8050039
_publ_section_title
;
Structure prediction by ZEFSAII (Michael W. Deem and Ramdas Pophale) SiO2 
 PCOD8050039
Probable space group: C 2
;
_chemical_formula_sum "Si O2"
_cell_formula_units_Z 32
_cell_length_a 9.003589
_cell_length_b 23.353722
_cell_length_c 15.562286
_cell_angle_alpha 90.000000
_cell_angle_beta 28.440186
_cell_angle_gamma 90.000000
_cell_volume 1558.375081
_symmetry_space_group_name_H-M "C 2"
_symmetry_group_IT_number 5
_symmetry_cell_setting 'monoclinic'
loop_
_space_group_symop_operation_xyz
x,y,z
-x,y,-z
1/2+x,1/2+y,z
1/2-x,1/2+y,-z
loop_
_atom_site_type_symbol
_atom_site_label
_atom_site_fract_x
_atom_site_fract_y
_atom_site_fract_z
Si Si1 0.131336 0.910100 0.686642
Si Si2 0.415150 0.612800 0.949626
Si Si3 0.774869 0.725511 0.303556
Si Si4 0.658932 0.332344 0.827754
Si Si5 0.708425 0.123239 0.811202
Si Si6 0.402648 0.331457 0.454858
Si Si7 0.367385 0.538356 0.311378
Si Si8 0.765660 0.228922 0.186234
O O1 0.500000 0.911997 0.500000
O O2 0.037126 0.881804 0.825572
O O3 0.003648 0.875944 0.668168
O O4 0.994019 0.974269 0.752041
O O5 0.562008 0.565475 0.815034
O O6 0.550564 0.677047 0.858384
O O7 0.500000 0.592648 0.000000
O O8 0.042624 0.605576 0.132311
O O9 0.500000 0.754945 0.500000
O O10 0.957661 0.773211 0.155279
O O11 0.626047 0.679214 0.313539
O O12 0.015025 0.698221 0.250111
O O13 0.031033 0.324627 0.646153
O O14 0.500000 0.343291 0.000000
O O15 0.970221 0.075573 0.695640
O O16 0.500000 0.139285 0.000000
O O17 0.500000 0.353892 0.500000
O O18 0.592917 0.272333 0.339316
O O19 0.000000 0.538279 0.500000
O O20 0.000000 0.261212 0.000000
#
# Coordination Sequence:
#
# PCOD8050039 Si02
#       8
#     4   4   4   4   4   4   4   4
#     4   9  20  46  64  87 130 166 215 265 322 379
#     4  10  21  40  59  87 127 167 206 260 317 381
#     4  12  21  38  62  93 130 169 207 264 325 389
#     4  11  23  40  65  94 129 172 211 261 332 387
#     4  10  22  39  58  89 129 166 211 261 318 384
#     4  11  24  40  64  96 126 167 216 269 318 388
#     4  10  23  40  66  90 122 171 214 269 316 376
#     4  11  22  39  63  93 135 170 207 266 327 379
#
# _framework density 20.534209000000001
#
# number of rings (size 3 to 8) (size 9 to 14) (size 15 to 20)
#    0.000    1.500    5.000    0.750    3.500    3.000 
#    0.000   10.000    0.000    0.000    0.000    0.000 
#    0.000    0.000    0.000    0.000    0.000    0.000 
#
# Total GULP energy -198216.691491 kJ/mol
# GULP energy per Si atom -12388.543218 kJ/mol
# Density = 2.048747 g / cm^3
# Si number density = 20.534209 Si / 1000 Ang^3
#
#
#
# Elastic Constant Matrix: (Units=GPa)
#
#
# Indices 1 2 3 4 5 6 
#
# 1 139.1756 62.8853 33.8694 0.0186 11.2609 0.0051
# 2 62.8853 148.9971 41.8520 0.0182 14.3400 0.0046
# 3 33.8694 41.8520 88.2474 0.0039 14.4722 0.0739
# 4 0.0186 0.0182 0.0039 48.5104 -0.0177 13.2624
# 5 11.2609 14.3400 14.4722 -0.0177 37.4983 -0.0185
# 6 0.0051 0.0046 0.0739 13.2624 -0.0185 30.9564
#
#
#
# Elastic Compliance Matrix: (Units=1/GPa)
#
#
# Indices 1 2 3 4 5 6 
#
# 1 0.009179 -0.003282 -0.001836 -0.000004 -0.000793 0.000004
# 2 -0.003282 0.009013 -0.002788 -0.000004 -0.001385 0.000007
# 3 -0.001836 -0.002788 0.013978 0.000010 -0.003777 -0.000039
# 4 -0.000004 -0.000004 0.000010 0.023349 0.000005 -0.010003
# 5 -0.000793 -0.001385 -0.003777 0.000005 0.028894 0.000024
# 6 0.000004 0.000007 -0.000039 -0.010003 0.000024 0.036589
#
#
# Mechanical properties :
#
#
# Convention : Reuss Voigt Hill
#
# Bulk Modulus (GPa) = 61.13185 72.62595 66.87890
# Shear Modulus (GPa) = 35.14511 39.24723 37.19617
#
# Velocity S-wave (km/s) = 4.14156 4.37660 4.26070
# Velocity P-wave (km/s) = 7.25985 7.80926 7.53956
#
# Compressibility (1/GPa) = 0.01635809
#
# Stress axis : x y z
#
# Youngs Moduli (GPa) = 108.94234 110.94962 71.53999
#
# Poissons Ratio (x) = 0.36414 0.13138
# Poissons Ratio (y) = 0.35755 0.19943
# Poissons Ratio (z) = 0.20007 0.30930
#
# Static dielectric constant tensor:
#      x y z
#    x 3.731700 0.000030 -0.241810 
#    y 0.000030 3.788220 -0.000100 
#    z -0.241810 -0.000100 3.628170 
# 
# 
# High freq. dielectric constant tensor:
#      x y z
#    x 1.814830 0.000000 -0.001080 
#    y 0.000000 1.783890 0.000000 
#    z -0.001080 0.000000 1.798210 
# 
# From -- ./inp_files/51683.got.cif
#   From: 2010.03.12/outbox.cif.g09.slc.cpg/sg5_26_cif.got.tgz:51683.got - 2010.03.31 09:47:26.
