data_PCOD8050140
_publ_section_title
;
Structure prediction by ZEFSAII (Michael W. Deem and Ramdas Pophale) SiO2 
 PCOD8050140
Probable space group: C 2
;
_chemical_formula_sum "Si O2"
_cell_formula_units_Z 24
_cell_length_a 9.918029
_cell_length_b 9.430319
_cell_length_c 19.526980
_cell_angle_alpha 90.000000
_cell_angle_beta 42.389253
_cell_angle_gamma 90.000000
_cell_volume 1231.267196
_symmetry_space_group_name_H-M "C 2"
_symmetry_group_IT_number 5
_symmetry_cell_setting 'monoclinic'
loop_
_space_group_symop_operation_xyz
x,y,z
-x,y,-z
1/2+x,1/2+y,z
1/2-x,1/2+y,-z
loop_
_atom_site_type_symbol
_atom_site_label
_atom_site_fract_x
_atom_site_fract_y
_atom_site_fract_z
Si Si1 0.367091 0.442050 0.742921
Si Si2 0.710515 0.594602 0.942041
Si Si3 0.706651 0.442094 0.383615
Si Si4 0.563334 0.850557 0.081369
Si Si5 0.940005 0.633188 0.717480
Si Si6 0.606529 0.672332 0.737894
O O1 0.317951 0.499174 0.685104
O O2 0.499965 0.298983 0.687089
O O3 0.483537 0.558470 0.741725
O O4 0.160166 0.396420 0.858352
O O5 0.805077 0.491707 0.962998
O O6 0.858786 0.602254 0.823186
O O7 0.500000 0.524767 0.000000
O O8 0.670166 0.751284 0.986160
O O9 0.500000 0.452458 0.500000
O O10 0.781956 0.279204 0.355906
O O11 0.863300 0.538849 0.366889
O O12 0.547548 0.764754 0.158875
O O13 0.769646 0.594357 0.725241
#
# Coordination Sequence:
#
# PCOD8050140 Si02
#       6
#     4   4   4   4   4   4
#     4  10  22  40  61  90 123 159 202 255 305 358
#     4  12  21  39  59  88 127 164 204 245 298 359
#     4  10  22  44  66  87 122 161 203 256 309 361
#     4  10  24  37  58  89 123 168 206 243 296 357
#     4  10  21  41  60  90 128 159 201 252 302 357
#     4  10  22  41  62  91 123 158 205 256 300 360
#
# _framework density 19.492111999999999
#
# number of rings (size 3 to 8) (size 9 to 14) (size 15 to 20)
#    0.000    2.000    6.667    0.000    2.333    5.333 
#    0.000    0.833    0.000    0.000    0.000    0.000 
#    0.000    0.000    0.000    0.000    0.000    0.000 
#
# Total GULP energy -148770.348408 kJ/mol
# GULP energy per Si atom -12397.529034 kJ/mol
# Density = 1.944775 g / cm^3
# Si number density = 19.492112 Si / 1000 Ang^3
#
#
#
# Elastic Constant Matrix: (Units=GPa)
#
#
# Indices 1 2 3 4 5 6 
#
# 1 113.9460 85.0026 24.7878 0.0000 -15.4390 0.0000
# 2 85.0026 116.7151 39.7839 0.0000 -21.9069 0.0000
# 3 24.7878 39.7839 77.8884 0.0000 -16.4285 0.0000
# 4 0.0000 0.0000 0.0000 23.2054 0.0000 -9.9818
# 5 -15.4390 -21.9069 -16.4285 0.0000 16.2064 0.0000
# 6 0.0000 0.0000 0.0000 -9.9818 0.0000 55.7640
#
#
#
# Elastic Compliance Matrix: (Units=1/GPa)
#
#
# Indices 1 2 3 4 5 6 
#
# 1 0.019318 -0.014480 0.001274 0.000000 0.000120 0.000000
# 2 -0.014480 0.023041 -0.004453 0.000000 0.012837 0.000000
# 3 0.001274 -0.004453 0.017419 0.000000 0.012852 0.000000
# 4 0.000000 0.000000 0.000000 0.046688 0.000000 0.008357
# 5 0.000120 0.012837 0.012852 0.000000 0.092199 0.000000
# 6 0.000000 0.000000 0.000000 0.008357 0.000000 0.019429
#
#
# Mechanical properties :
#
#
# Convention : Reuss Voigt Hill
#
# Bulk Modulus (GPa) = 40.88577 67.52203 54.20390
# Shear Modulus (GPa) = 19.11573 29.63350 24.37462
#
# Velocity S-wave (km/s) = 3.13500 3.90331 3.54006
# Velocity P-wave (km/s) = 5.84169 7.41824 6.67666
#
# Compressibility (1/GPa) = 0.02445839
#
# Stress axis : x y z
#
# Youngs Moduli (GPa) = 51.76639 43.40058 57.40958
#
# Poissons Ratio (x) = 0.62846 -0.07314
# Poissons Ratio (y) = 0.74960 0.25565
# Poissons Ratio (z) = -0.06595 0.19326
#
# Static dielectric constant tensor:
#      x y z
#    x 3.582850 0.000000 -0.064680 
#    y 0.000000 3.609170 0.000000 
#    z -0.064680 0.000000 3.416480 
# 
# 
# High freq. dielectric constant tensor:
#      x y z
#    x 1.757920 0.000000 -0.002920 
#    y 0.000000 1.754590 0.000000 
#    z -0.002920 0.000000 1.747400 
# 
# From -- ./inp_files/52148.got.cif
#   From: 2010.03.12/outbox.cif.g09.slc.cpg/sg5_27_cif.got.tgz:52148.got - 2010.03.31 09:47:26.
