data_PCOD8050637
_publ_section_title
;
Structure prediction by ZEFSAII (Michael W. Deem and Ramdas Pophale) SiO2 
 PCOD8050637
Probable space group: C 2
;
_chemical_formula_sum "Si O2"
_cell_formula_units_Z 22
_cell_length_a 12.958204
_cell_length_b 11.133108
_cell_length_c 7.420193
_cell_angle_alpha 90.000000
_cell_angle_beta 79.263379
_cell_angle_gamma 90.000000
_cell_volume 1051.734960
_symmetry_space_group_name_H-M "C 2"
_symmetry_group_IT_number 5
_symmetry_cell_setting 'monoclinic'
loop_
_space_group_symop_operation_xyz
x,y,z
-x,y,-z
1/2+x,1/2+y,z
1/2-x,1/2+y,-z
loop_
_atom_site_type_symbol
_atom_site_label
_atom_site_fract_x
_atom_site_fract_y
_atom_site_fract_z
Si Si1 0.000000 0.666170 0.500000
Si Si2 0.673046 0.826213 0.702383
Si Si3 0.745436 0.896374 0.046749
Si Si4 0.603495 0.568793 0.844744
Si Si5 0.524917 0.990547 0.186026
Si Si6 0.843015 0.840734 0.355184
O O1 0.054880 0.587921 0.327106
O O2 0.913122 0.742419 0.426725
O O3 0.630113 0.691490 0.734531
O O4 0.575672 0.915534 0.720324
O O5 0.736459 0.853891 0.501776
O O6 0.754312 0.852154 0.839429
O O7 0.622381 0.900762 0.134740
O O8 0.804049 0.803242 0.165090
O O9 0.800972 0.027360 0.053482
O O10 0.593010 0.466885 0.689989
O O11 0.500000 0.581890 0.000000
O O12 0.500000 0.052078 0.000000
#
# Coordination Sequence:
#
# PCOD8050637 Si02
#       6
#     2   4   4   4   4   4
#     4  12  24  40  66  90 142 166 228 270 332 402
#     4  11  22  43  72  95 134 175 228 273 335 400
#     4   9  22  42  65  94 133 171 223 267 337 397
#     4  10  23  45  64  97 140 171 222 278 335 397
#     4  10  22  41  69  98 125 176 222 276 331 399
#     4  10  26  40  65  99 132 178 221 275 336 394
#
# _framework density 20.917816999999999
#
# number of rings (size 3 to 8) (size 9 to 14) (size 15 to 20)
#    1.091    0.727    0.000    3.818    5.091    5.091 
#    0.000    2.727    0.000    0.000    0.000    0.000 
#    0.000    0.000    0.000    0.000    0.000    0.000 
#
# Total GULP energy -136295.419629 kJ/mol
# GULP energy per Si atom -12390.492694 kJ/mol
# Density = 2.087021 g / cm^3
# Si number density = 20.917817 Si / 1000 Ang^3
#
#
#
# Elastic Constant Matrix: (Units=GPa)
#
#
# Indices 1 2 3 4 5 6 
#
# 1 82.3677 11.1679 15.4448 0.0000 11.3980 0.0000
# 2 11.1679 91.8714 33.2749 0.0000 7.1107 0.0000
# 3 15.4448 33.2749 75.8722 0.0000 -1.1648 0.0000
# 4 0.0000 0.0000 0.0000 9.7850 0.0000 13.6905
# 5 11.3980 7.1107 -1.1648 0.0000 46.6917 0.0000
# 6 0.0000 0.0000 0.0000 13.6905 0.0000 26.8431
#
#
#
# Elastic Compliance Matrix: (Units=1/GPa)
#
#
# Indices 1 2 3 4 5 6 
#
# 1 0.013116 -0.000430 -0.002530 0.000000 -0.003199 0.000000
# 2 -0.000430 0.013166 -0.005718 0.000000 -0.002043 0.000000
# 3 -0.002530 -0.005718 0.016232 0.000000 0.001893 0.000000
# 4 0.000000 0.000000 0.000000 0.356812 0.000000 -0.181981
# 5 -0.003199 -0.002043 0.001893 0.000000 0.022556 0.000000
# 6 0.000000 0.000000 0.000000 -0.181981 0.000000 0.130067
#
#
# Mechanical properties :
#
#
# Convention : Reuss Voigt Hill
#
# Bulk Modulus (GPa) = 39.75038 41.09849 40.42443
# Shear Modulus (GPa) = 8.65511 29.34554 19.00033
#
# Velocity S-wave (km/s) = 2.03633 3.74959 3.01712
# Velocity P-wave (km/s) = 4.95714 6.19969 5.61290
#
# Compressibility (1/GPa) = 0.02515699
#
# Stress axis : x y z
#
# Youngs Moduli (GPa) = 76.24142 75.95206 61.60692
#
# Poissons Ratio (x) = 0.03268 0.15589
# Poissons Ratio (y) = 0.03281 0.35227
# Poissons Ratio (z) = 0.19292 0.43429
#
# Static dielectric constant tensor:
#      x y z
#    x 3.773900 0.000000 0.106420 
#    y 0.000000 3.571200 0.000000 
#    z 0.106420 0.000000 4.072450 
# 
# 
# High freq. dielectric constant tensor:
#      x y z
#    x 1.824610 0.000000 -0.000950 
#    y 0.000000 1.799860 0.000000 
#    z -0.000950 0.000000 1.829310 
# 
# From -- ./inp_files/19281.got.cif
#   From: 2010.03.12/outbox.cif.g09.slc.cpg/sg5_10_cif.got.tgz:19281.got - 2010.03.31 09:47:26.
