data_PCOD8050548
_publ_section_title
;
Structure prediction by ZEFSAII (Michael W. Deem and Ramdas Pophale) SiO2 
 PCOD8050548
Probable space group: C 2
;
_chemical_formula_sum "Si O2"
_cell_formula_units_Z 28
_cell_length_a 8.355564
_cell_length_b 16.622315
_cell_length_c 18.097508
_cell_angle_alpha 90.000000
_cell_angle_beta 149.578603
_cell_angle_gamma 90.000000
_cell_volume 1272.746386
_symmetry_space_group_name_H-M "C 2"
_symmetry_group_IT_number 5
_symmetry_cell_setting 'monoclinic'
loop_
_space_group_symop_operation_xyz
x,y,z
-x,y,-z
1/2+x,1/2+y,z
1/2-x,1/2+y,-z
loop_
_atom_site_type_symbol
_atom_site_label
_atom_site_fract_x
_atom_site_fract_y
_atom_site_fract_z
Si Si1 0.170272 0.081030 0.252448
Si Si2 0.318031 0.159612 0.850683
Si Si3 0.285839 0.902699 0.714506
Si Si4 0.019199 0.741255 0.667430
Si Si5 0.649123 0.773576 0.661532
Si Si6 0.399680 0.938443 0.589135
Si Si7 0.738803 0.028881 0.958105
O O1 0.285481 0.159089 0.253928
O O2 0.007235 0.111289 0.262857
O O3 0.469160 0.024353 0.383504
O O4 0.916459 0.026537 0.107103
O O5 0.245566 0.244124 0.781825
O O6 0.511838 0.106530 0.868901
O O7 0.500000 0.177035 0.000000
O O8 0.395043 0.918049 0.674214
O O9 0.252567 0.809090 0.725005
O O10 0.940366 0.940762 0.584605
O O11 0.535987 0.947359 0.867208
O O12 0.930351 0.754758 0.717096
O O13 0.691782 0.733319 0.491582
O O14 0.616556 0.869158 0.641324
O O15 0.000000 0.039944 0.000000
#
# Coordination Sequence:
#
# PCOD8050548 Si02
#       7
#     4   4   4   4   4   4   4
#     4  11  23  42  64  98 133 176 221 277 329 408
#     4  10  24  42  67  94 141 173 227 274 341 406
#     4  10  22  41  67  97 135 177 220 280 335 403
#     4  10  23  42  70  99 136 173 227 277 342 393
#     4  10  22  43  66 102 134 176 221 279 336 407
#     4  10  22  40  67  99 135 170 227 273 337 399
#     4  11  22  42  64  93 131 174 226 272 332 390
#
# _framework density 21.999669000000001
#
# number of rings (size 3 to 8) (size 9 to 14) (size 15 to 20)
#    0.000    1.714    1.429    1.714    4.000    2.857 
#    7.714    0.000    0.000    0.000    0.000    0.000 
#    0.000    0.000    0.000    0.000    0.000    0.000 
#
# Total GULP energy -173549.622456 kJ/mol
# GULP energy per Si atom -12396.401604 kJ/mol
# Density = 2.194960 g / cm^3
# Si number density = 21.999669 Si / 1000 Ang^3
#
#
#
# Elastic Constant Matrix: (Units=GPa)
#
#
# Indices 1 2 3 4 5 6 
#
# 1 113.8711 56.3821 36.5984 0.0091 17.9018 0.0070
# 2 56.3821 118.8199 66.1110 0.0122 13.1042 0.0050
# 3 36.5984 66.1110 71.8451 0.0253 8.5852 0.0204
# 4 0.0091 0.0122 0.0253 38.0121 0.0103 1.7311
# 5 17.9018 13.1042 8.5852 0.0103 34.1773 0.0098
# 6 0.0070 0.0050 0.0204 1.7311 0.0098 29.6090
#
#
#
# Elastic Compliance Matrix: (Units=1/GPa)
#
#
# Indices 1 2 3 4 5 6 
#
# 1 0.012151 -0.004374 -0.001654 0.000001 -0.004272 0.000000
# 2 -0.004374 0.019067 -0.015173 0.000005 -0.001208 0.000008
# 3 -0.001654 -0.015173 0.028788 -0.000013 -0.000548 -0.000016
# 4 0.000001 0.000005 -0.000013 0.026378 -0.000007 -0.001542
# 5 -0.004272 -0.001208 -0.000548 -0.000007 0.032098 -0.000009
# 6 0.000000 0.000008 -0.000016 -0.001542 -0.000009 0.033864
#
#
# Mechanical properties :
#
#
# Convention : Reuss Voigt Hill
#
# Bulk Modulus (GPa) = 56.80368 69.19102 62.99735
# Shear Modulus (GPa) = 24.92329 30.05598 27.48963
#
# Velocity S-wave (km/s) = 3.36950 3.70023 3.53873
# Velocity P-wave (km/s) = 6.40424 7.05512 6.73755
#
# Compressibility (1/GPa) = 0.01760449
#
# Stress axis : x y z
#
# Youngs Moduli (GPa) = 82.29757 52.44656 34.73618
#
# Poissons Ratio (x) = 0.22942 0.05745
# Poissons Ratio (y) = 0.36001 0.52704
# Poissons Ratio (z) = 0.13612 0.79575
#
# Static dielectric constant tensor:
#      x y z
#    x 4.023350 -0.000020 0.189380 
#    y -0.000020 3.837290 -0.000020 
#    z 0.189380 -0.000020 4.004040 
# 
# 
# High freq. dielectric constant tensor:
#      x y z
#    x 1.872850 0.000000 0.015300 
#    y 0.000000 1.860560 0.000000 
#    z 0.015300 0.000000 1.859380 
# 
# From -- ./inp_files/64714.got.cif
#   From: 2010.03.12/outbox.cif.g09.slc.cpg/sg5_33_cif.got.tgz:64714.got - 2010.03.31 09:47:26.
