data_PCOD8050721
_publ_section_title
;
Structure prediction by ZEFSAII (Michael W. Deem and Ramdas Pophale) SiO2 
 PCOD8050721
Probable space group: C 2
;
_chemical_formula_sum "Si O2"
_cell_formula_units_Z 20
_cell_length_a 10.142735
_cell_length_b 8.916312
_cell_length_c 16.607500
_cell_angle_alpha 90.000000
_cell_angle_beta 146.183682
_cell_angle_gamma 90.000000
_cell_volume 835.862690
_symmetry_space_group_name_H-M "C 2"
_symmetry_group_IT_number 5
_symmetry_cell_setting 'monoclinic'
loop_
_space_group_symop_operation_xyz
x,y,z
-x,y,-z
1/2+x,1/2+y,z
1/2-x,1/2+y,-z
loop_
_atom_site_type_symbol
_atom_site_label
_atom_site_fract_x
_atom_site_fract_y
_atom_site_fract_z
Si Si1 0.233909 0.897950 0.393279
Si Si2 0.500000 0.616716 0.000000
Si Si3 0.707511 0.360865 0.939614
Si Si4 0.202023 0.358946 0.827508
Si Si5 0.207453 0.743455 0.542868
Si Si6 0.000000 0.603306 0.000000
O O1 0.500000 0.856052 0.500000
O O2 0.142270 0.789485 0.418598
O O3 0.059674 0.867988 0.230467
O O4 0.222208 0.069662 0.416929
O O5 0.347372 0.713398 0.983744
O O6 0.315746 0.514750 0.852029
O O7 0.704933 0.360424 0.033446
O O8 0.849739 0.506751 0.985211
O O9 0.922667 0.354256 0.675633
O O10 0.322333 0.206063 0.854593
O O11 0.000000 0.781855 0.500000
#
# Coordination Sequence:
#
# PCOD8050721 Si02
#       6
#     4   2   4   4   4   2
#     4  11  28  48  71 103 146 186 232 288 351 417
#     4  10  26  38  72 102 136 170 240 278 352 400
#     4  11  24  43  71 100 134 180 232 288 341 410
#     4  11  24  43  71 100 134 180 232 288 341 410
#     4  11  28  48  71 103 146 186 232 288 351 417
#     4  10  22  42  68  98 136 174 236 282 352 392
#
# _framework density 23.927374
#
# number of rings (size 3 to 8) (size 9 to 14) (size 15 to 20)
#    0.000    1.200    2.000    1.200   14.000    0.800 
#    0.000    0.000    0.000    0.000    0.000    0.000 
#    0.000    0.000    0.000    0.000    0.000    0.000 
#
# Total GULP energy -123957.651775 kJ/mol
# GULP energy per Si atom -12395.765177 kJ/mol
# Density = 2.387291 g / cm^3
# Si number density = 23.927374 Si / 1000 Ang^3
#
#
#
# Elastic Constant Matrix: (Units=GPa)
#
#
# Indices 1 2 3 4 5 6 
#
# 1 79.9176 23.8856 29.6537 0.0002 12.5740 0.0000
# 2 23.8856 122.8792 21.5264 0.0004 14.4471 0.0002
# 3 29.6537 21.5264 129.6301 0.0016 8.1296 0.0006
# 4 0.0002 0.0004 0.0016 31.7210 0.0004 -3.5994
# 5 12.5740 14.4471 8.1296 0.0004 50.4346 0.0000
# 6 0.0000 0.0002 0.0006 -3.5994 0.0000 -89.9603
#
#
#
# Elastic Compliance Matrix: (Units=1/GPa)
#
#
# Indices 1 2 3 4 5 6 
#
# 1 0.014581 -0.002032 -0.002835 0.000000 -0.002596 0.000000
# 2 -0.002032 0.008914 -0.000896 0.000000 -0.001902 0.000000
# 3 -0.002835 -0.000896 0.008537 0.000000 -0.000413 0.000000
# 4 0.000000 0.000000 0.000000 0.031382 0.000000 -0.001256
# 5 -0.002596 -0.001902 -0.000413 0.000000 0.021086 0.000000
# 6 0.000000 0.000000 0.000000 -0.001256 0.000000 -0.011066
#
#
# Mechanical properties :
#
#
# Convention : Reuss Voigt Hill
#
# Bulk Modulus (GPa) = 48.76866 53.61757 51.19312
# Shear Modulus (GPa) = 54.46806 15.59646 35.03226
#
# Velocity S-wave (km/s) = 4.77633 2.55586 3.83052
# Velocity P-wave (km/s) = 7.13050 5.58274 6.40355
#
# Compressibility (1/GPa) = 0.02050497
#
# Stress axis : x y z
#
# Youngs Moduli (GPa) = 68.58357 112.18627 117.13053
#
# Poissons Ratio (x) = 0.22800 0.33208
# Poissons Ratio (y) = 0.13939 0.10495
# Poissons Ratio (z) = 0.19444 0.10052
#
# Static dielectric constant tensor:
#      x y z
#    x 4.397470 0.000000 0.233470 
#    y 0.000000 4.908040 0.000000 
#    z 0.233470 0.000000 4.358320 
# 
# 
# High freq. dielectric constant tensor:
#      x y z
#    x 1.965330 0.000000 0.020410 
#    y 0.000000 1.967950 0.000000 
#    z 0.020410 0.000000 1.939960 
# 
# From -- ./inp_files/44060.got.cif
#   From: 2010.03.12/outbox.cif.g09.slc.cpg/sg5_23_cif.got.tgz:44060.got - 2010.03.31 09:47:26.
