data_PCOD8050720
_publ_section_title
;
Structure prediction by ZEFSAII (Michael W. Deem and Ramdas Pophale) SiO2 
 PCOD8050720
Probable space group: C 2
;
_chemical_formula_sum "Si O2"
_cell_formula_units_Z 30
_cell_length_a 8.815989
_cell_length_b 32.305881
_cell_length_c 5.193682
_cell_angle_alpha 90.000000
_cell_angle_beta 108.793431
_cell_angle_gamma 90.000000
_cell_volume 1400.341730
_symmetry_space_group_name_H-M "C 2"
_symmetry_group_IT_number 5
_symmetry_cell_setting 'monoclinic'
loop_
_space_group_symop_operation_xyz
x,y,z
-x,y,-z
1/2+x,1/2+y,z
1/2-x,1/2+y,-z
loop_
_atom_site_type_symbol
_atom_site_label
_atom_site_fract_x
_atom_site_fract_y
_atom_site_fract_z
Si Si1 0.894949 0.617130 0.688354
Si Si2 0.187899 0.038072 0.598105
Si Si3 0.500000 0.274876 0.500000
Si Si4 0.848635 0.705131 0.760044
Si Si5 0.395225 0.761469 0.196522
Si Si6 0.105382 0.407637 0.812851
Si Si7 0.328203 0.331132 0.022085
Si Si8 0.310669 0.487902 0.898703
O O1 0.757020 0.583746 0.652103
O O2 0.808491 0.662235 0.589544
O O3 0.000000 0.605309 0.500000
O O4 0.000000 0.615817 0.000000
O O5 0.243567 0.017009 0.364424
O O6 0.000000 0.043452 0.500000
O O7 0.244749 0.009521 0.867273
O O8 0.392141 0.245247 0.616005
O O9 0.367692 0.305095 0.300924
O O10 0.710560 0.719477 0.884850
O O11 0.000000 0.690825 0.000000
O O12 0.500000 0.753419 0.500000
O O13 0.500000 0.769064 0.000000
O O14 0.280540 0.800096 0.203535
O O15 0.218683 0.445315 0.799915
O O16 0.000000 0.395124 0.500000
O O17 0.220804 0.371759 0.989488
O O18 0.000000 0.420393 0.000000
O O19 0.500000 0.343061 0.000000
O O20 0.500000 0.478614 0.000000
#
# Coordination Sequence:
#
# PCOD8050720 Si02
#       8
#     4   4   2   4   4   4   4   4
#     4  11  24  39  66  98 134 172 224 283 327 402
#     4  10  22  42  68  98 136 173 222 271 336 405
#     4  12  20  44  74  90 130 182 242 278 320 402
#     4  11  23  43  65  95 132 181 236 275 335 408
#     4  12  25  41  64  95 131 169 219 287 343 391
#     4  12  28  46  67 103 141 169 218 291 341 395
#     4  12  26  43  69  95 126 185 228 270 333 412
#     4  10  22  45  70  96 130 182 223 263 329 421
#
# _framework density 21.423344
#
# number of rings (size 3 to 8) (size 9 to 14) (size 15 to 20)
#    0.000    0.800    3.333    3.600    1.867    3.733 
#    3.600    2.000    0.000    0.000    0.000    0.000 
#    0.000    0.000    0.000    0.000    0.000    0.000 
#
# Total GULP energy -185887.408779 kJ/mol
# GULP energy per Si atom -12392.493919 kJ/mol
# Density = 2.137458 g / cm^3
# Si number density = 21.423344 Si / 1000 Ang^3
#
#
#
# Elastic Constant Matrix: (Units=GPa)
#
#
# Indices 1 2 3 4 5 6 
#
# 1 71.5899 49.9155 31.1100 0.0000 0.6672 0.0000
# 2 49.9155 158.1040 48.2445 0.0000 17.5480 0.0000
# 3 31.1100 48.2445 112.4751 0.0000 -9.6977 0.0000
# 4 0.0000 0.0000 0.0000 41.2842 0.0000 -8.9948
# 5 0.6672 17.5480 -9.6977 0.0000 26.3358 0.0000
# 6 0.0000 0.0000 0.0000 -8.9948 0.0000 53.2867
#
#
#
# Elastic Compliance Matrix: (Units=1/GPa)
#
#
# Indices 1 2 3 4 5 6 
#
# 1 0.018873 -0.005351 -0.002746 0.000000 0.002076 0.000000
# 2 -0.005351 0.009925 -0.003445 0.000000 -0.007747 0.000000
# 3 -0.002746 -0.003445 0.011704 0.000000 0.006675 0.000000
# 4 0.000000 0.000000 0.000000 0.025147 0.000000 0.004245
# 5 0.002076 -0.007747 0.006675 0.000000 0.045538 0.000000
# 6 0.000000 0.000000 0.000000 0.004245 0.000000 0.019483
#
#
# Mechanical properties :
#
#
# Convention : Reuss Voigt Hill
#
# Bulk Modulus (GPa) = 57.41211 66.74544 62.07877
# Shear Modulus (GPa) = 31.33592 38.37460 34.85526
#
# Velocity S-wave (km/s) = 3.82867 4.23691 4.03795
# Velocity P-wave (km/s) = 6.81190 7.42686 7.12602
#
# Compressibility (1/GPa) = 0.01741793
#
# Stress axis : x y z
#
# Youngs Moduli (GPa) = 52.98462 100.75124 85.44335
#
# Poissons Ratio (x) = 0.53913 0.23463
# Poissons Ratio (y) = 0.28353 0.29437
# Poissons Ratio (z) = 0.14550 0.34711
#
# Static dielectric constant tensor:
#      x y z
#    x 3.713440 0.000000 0.295950 
#    y 0.000000 4.013930 0.000000 
#    z 0.295950 0.000000 3.903360 
# 
# 
# High freq. dielectric constant tensor:
#      x y z
#    x 1.846300 0.000000 0.001330 
#    y 0.000000 1.850310 0.000000 
#    z 0.001330 0.000000 1.844190 
# 
# From -- ./inp_files/3973.got.cif
#   From: 2010.03.12/outbox.cif.g09.slc.cpg/sg5_2_cif.got.tgz:3973.got - 2010.03.31 09:47:26.
