data_PCOD8050486
_publ_section_title
;
Structure prediction by ZEFSAII (Michael W. Deem and Ramdas Pophale) SiO2 
 PCOD8050486
Probable space group: C 2
;
_chemical_formula_sum "Si O2"
_cell_formula_units_Z 26
_cell_length_a 13.196265
_cell_length_b 4.949710
_cell_length_c 20.765122
_cell_angle_alpha 90.000000
_cell_angle_beta 125.630790
_cell_angle_gamma 90.000000
_cell_volume 1102.408253
_symmetry_space_group_name_H-M "C 2"
_symmetry_group_IT_number 5
_symmetry_cell_setting 'monoclinic'
loop_
_space_group_symop_operation_xyz
x,y,z
-x,y,-z
1/2+x,1/2+y,z
1/2-x,1/2+y,-z
loop_
_atom_site_type_symbol
_atom_site_label
_atom_site_fract_x
_atom_site_fract_y
_atom_site_fract_z
Si Si1 0.404270 0.481790 0.359469
Si Si2 0.802217 0.889395 0.191848
Si Si3 0.000000 0.149551 0.000000
Si Si4 0.819616 0.883377 0.549304
Si Si5 0.649596 0.390470 0.162912
Si Si6 0.760427 0.442804 0.962959
Si Si7 0.743466 0.478769 0.330953
O O1 0.408400 0.458878 0.282779
O O2 0.545935 0.433122 0.434271
O O3 0.359671 0.775913 0.364617
O O4 0.305116 0.274323 0.352937
O O5 0.766562 0.574386 0.183784
O O6 0.843320 0.947737 0.132816
O O7 0.680850 0.076788 0.162740
O O8 0.029701 0.969467 0.074948
O O9 0.114017 0.338941 0.023390
O O10 0.780957 0.575643 0.522142
O O11 0.826214 0.936138 0.627793
O O12 0.638077 0.442334 0.235907
O O13 0.783333 0.746658 0.995957
#
# Coordination Sequence:
#
# PCOD8050486 Si02
#       7
#     4   4   2   4   4   4   4
#     4  10  22  42  65  85 121 161 190 249 302 343
#     4   9  19  38  58  84 117 154 203 243 288 358
#     4  10  22  40  60  88 126 156 198 260 296 332
#     4  12  26  41  63  96 122 151 202 247 294 366
#     4   9  19  36  62  86 117 160 199 243 295 350
#     4  11  23  37  57  87 119 158 203 246 299 355
#     4  10  22  42  63  89 121 161 202 237 298 362
#
# _framework density 23.584728999999999
#
# number of rings (size 3 to 8) (size 9 to 14) (size 15 to 20)
#    0.000    1.846    0.000    3.692    0.000   10.462 
#    0.000    6.154    0.000    0.000    0.000    0.000 
#    0.000    0.000    0.000    0.000    0.000    0.000 
#
# Total GULP energy -161165.779823 kJ/mol
# GULP energy per Si atom -12397.367679 kJ/mol
# Density = 2.353105 g / cm^3
# Si number density = 23.584729 Si / 1000 Ang^3
#
#
#
# Elastic Constant Matrix: (Units=GPa)
#
#
# Indices 1 2 3 4 5 6 
#
# 1 49.5384 -1.3460 20.0510 0.0000 -6.0723 0.0000
# 2 -1.3460 78.5844 7.4615 0.0000 1.0650 0.0000
# 3 20.0510 7.4615 81.2497 0.0000 -13.6089 0.0000
# 4 0.0000 0.0000 0.0000 37.1621 0.0000 -5.8030
# 5 -6.0723 1.0650 -13.6089 0.0000 45.2309 0.0000
# 6 0.0000 0.0000 0.0000 -5.8030 0.0000 22.7524
#
#
#
# Elastic Compliance Matrix: (Units=1/GPa)
#
#
# Indices 1 2 3 4 5 6 
#
# 1 0.022573 0.000883 -0.005421 0.000000 0.001379 0.000000
# 2 0.000883 0.012892 -0.001509 0.000000 -0.000639 0.000000
# 3 -0.005421 -0.001509 0.014394 0.000000 0.003638 0.000000
# 4 0.000000 0.000000 0.000000 0.028025 0.000000 0.007148
# 5 0.001379 -0.000639 0.003638 0.000000 0.023404 0.000000
# 6 0.000000 0.000000 0.000000 0.007148 0.000000 0.045774
#
#
# Mechanical properties :
#
#
# Convention : Reuss Voigt Hill
#
# Bulk Modulus (GPa) = 26.47943 29.07839 27.77891
# Shear Modulus (GPa) = 29.11294 33.24284 31.17789
#
# Velocity S-wave (km/s) = 3.51721 3.75841 3.63981
# Velocity P-wave (km/s) = 5.26746 5.58483 5.42846
#
# Compressibility (1/GPa) = 0.03776517
#
# Stress axis : x y z
#
# Youngs Moduli (GPa) = 44.29975 77.56620 69.47579
#
# Poissons Ratio (x) = -0.06847 0.37662
# Poissons Ratio (y) = -0.03910 0.10483
# Poissons Ratio (z) = 0.24014 0.11703
#
# Static dielectric constant tensor:
#      x y z
#    x 3.642040 0.000000 -0.322550 
#    y 0.000000 4.188580 0.000000 
#    z -0.322550 0.000000 4.664860 
# 
# 
# High freq. dielectric constant tensor:
#      x y z
#    x 1.893100 0.000000 -0.020610 
#    y 0.000000 1.944200 0.000000 
#    z -0.020610 0.000000 1.951250 
# 
# From -- ./inp_files/64999.got.cif
#   From: 2010.03.12/outbox.cif.g09.slc.cpg/sg5_33_cif.got.tgz:64999.got - 2010.03.31 09:47:26.
