data_PCOD8050450
_publ_section_title
;
Structure prediction by ZEFSAII (Michael W. Deem and Ramdas Pophale) SiO2 
 PCOD8050450
Probable space group: C 2
;
_chemical_formula_sum "Si O2"
_cell_formula_units_Z 28
_cell_length_a 9.747017
_cell_length_b 26.034529
_cell_length_c 9.663114
_cell_angle_alpha 90.000000
_cell_angle_beta 32.487739
_cell_angle_gamma 90.000000
_cell_volume 1317.070917
_symmetry_space_group_name_H-M "C 2"
_symmetry_group_IT_number 5
_symmetry_cell_setting 'monoclinic'
loop_
_space_group_symop_operation_xyz
x,y,z
-x,y,-z
1/2+x,1/2+y,z
1/2-x,1/2+y,-z
loop_
_atom_site_type_symbol
_atom_site_label
_atom_site_fract_x
_atom_site_fract_y
_atom_site_fract_z
Si Si1 0.909239 0.242160 0.232592
Si Si2 0.015963 0.085659 0.338914
Si Si3 0.209156 0.686059 0.930469
Si Si4 0.084925 0.437792 0.580732
Si Si5 0.916702 0.643481 0.425380
Si Si6 0.712940 0.856013 0.698421
Si Si7 0.086676 0.999705 0.078100
O O1 0.716680 0.197383 0.432218
O O2 0.777500 0.297197 0.361211
O O3 0.133176 0.236483 0.157591
O O4 0.000000 0.233949 0.000000
O O5 0.144345 0.140152 0.270246
O O6 0.000000 0.056100 0.500000
O O7 0.742083 0.097927 0.507845
O O8 0.160888 0.049291 0.106741
O O9 0.000000 0.706364 0.000000
O O10 0.140618 0.657684 0.131508
O O11 0.133241 0.388428 0.633424
O O12 0.349165 0.469856 0.351259
O O13 0.000000 0.419719 0.500000
O O14 0.848731 0.467922 0.850450
O O15 0.000000 0.619156 0.500000
O O16 0.000000 0.871706 0.500000
O O17 0.500000 0.863429 0.000000
O O18 0.000000 0.017695 0.000000
#
# Coordination Sequence:
#
# PCOD8050450 Si02
#       7
#     4   4   4   4   4   4   4
#     4  10  22  39  62  94 125 170 218 264 317 386
#     4  11  25  39  59  94 127 167 217 274 322 380
#     4  11  23  41  59  91 133 169 214 270 323 375
#     4  10  23  47  67  98 131 166 214 271 328 392
#     4  11  22  38  64  86 127 174 215 260 319 387
#     4  11  24  43  71 100 131 168 217 270 326 391
#     4  10  24  42  69  95 129 170 218 267 324 394
#
# _framework density 21.259295999999999
#
# number of rings (size 3 to 8) (size 9 to 14) (size 15 to 20)
#    0.000    1.429    2.857    1.286    6.000    2.286 
#    2.571    0.714    0.000    0.000    0.000    0.000 
#    0.000    0.000    0.000    0.000    0.000    0.000 
#
# Total GULP energy -173510.667260 kJ/mol
# GULP energy per Si atom -12393.619090 kJ/mol
# Density = 2.121091 g / cm^3
# Si number density = 21.259296 Si / 1000 Ang^3
#
#
#
# Elastic Constant Matrix: (Units=GPa)
#
#
# Indices 1 2 3 4 5 6 
#
# 1 152.1290 49.1201 37.6277 0.0000 3.5870 0.0000
# 2 49.1201 91.4968 30.3621 0.0000 9.6562 0.0000
# 3 37.6277 30.3621 107.6650 0.0000 -3.7828 0.0000
# 4 0.0000 0.0000 0.0000 23.6170 0.0000 12.5892
# 5 3.5870 9.6562 -3.7828 0.0000 38.3805 0.0000
# 6 0.0000 0.0000 0.0000 12.5892 0.0000 28.5247
#
#
#
# Elastic Compliance Matrix: (Units=1/GPa)
#
#
# Indices 1 2 3 4 5 6 
#
# 1 0.008258 -0.003836 -0.001804 0.000000 0.000016 0.000000
# 2 -0.003836 0.014293 -0.002814 0.000000 -0.003515 0.000000
# 3 -0.001804 -0.002814 0.010780 0.000000 0.001939 0.000000
# 4 0.000000 0.000000 0.000000 0.055368 0.000000 -0.024437
# 5 0.000016 -0.003515 0.001939 0.000000 0.027129 0.000000
# 6 0.000000 0.000000 0.000000 -0.024437 0.000000 0.045842
#
#
# Mechanical properties :
#
#
# Convention : Reuss Voigt Hill
#
# Bulk Modulus (GPa) = 60.88565 65.05673 62.97119
# Shear Modulus (GPa) = 27.16613 33.71651 30.44132
#
# Velocity S-wave (km/s) = 3.57858 3.98674 3.78816
# Velocity P-wave (km/s) = 6.76585 7.20139 6.98701
#
# Compressibility (1/GPa) = 0.01642423
#
# Stress axis : x y z
#
# Youngs Moduli (GPa) = 121.09759 69.96194 92.76469
#
# Poissons Ratio (x) = 0.26840 0.16731
# Poissons Ratio (y) = 0.46457 0.26100
# Poissons Ratio (z) = 0.21841 0.19684
#
# Static dielectric constant tensor:
#      x y z
#    x 3.897170 0.000000 -0.066920 
#    y 0.000000 3.771630 0.000000 
#    z -0.066920 0.000000 4.067480 
# 
# 
# High freq. dielectric constant tensor:
#      x y z
#    x 1.848680 0.000000 0.004020 
#    y 0.000000 1.814180 0.000000 
#    z 0.004020 0.000000 1.845820 
# 
# From -- ./inp_files/3884.got.cif
#   From: 2010.03.12/outbox.cif.g09.slc.cpg/sg5_2_cif.got.tgz:3884.got - 2010.03.31 09:47:26.
