data_PCOD8050835
_publ_section_title
;
Structure prediction by ZEFSAII (Michael W. Deem and Ramdas Pophale) SiO2 
 PCOD8050835
Probable space group: C 2
;
_chemical_formula_sum "Si O2"
_cell_formula_units_Z 24
_cell_length_a 10.507170
_cell_length_b 7.832281
_cell_length_c 21.082167
_cell_angle_alpha 90.000000
_cell_angle_beta 140.642762
_cell_angle_gamma 90.000000
_cell_volume 1100.230657
_symmetry_space_group_name_H-M "C 2"
_symmetry_group_IT_number 5
_symmetry_cell_setting 'monoclinic'
loop_
_space_group_symop_operation_xyz
x,y,z
-x,y,-z
1/2+x,1/2+y,z
1/2-x,1/2+y,-z
loop_
_atom_site_type_symbol
_atom_site_label
_atom_site_fract_x
_atom_site_fract_y
_atom_site_fract_z
Si Si1 0.323010 0.439040 0.713274
Si Si2 0.379105 0.280365 0.260434
Si Si3 0.829884 0.776472 0.385988
Si Si4 0.692407 0.661894 0.900051
Si Si5 0.615986 0.885597 0.754271
Si Si6 0.522674 0.874956 0.944162
O O1 0.414254 0.313469 0.696294
O O2 0.187005 0.571162 0.621202
O O3 0.494345 0.547425 0.815803
O O4 0.193564 0.326824 0.714006
O O5 0.398673 0.328334 0.341763
O O6 0.204229 0.407318 0.167869
O O7 0.322404 0.085300 0.222877
O O8 0.622015 0.863147 0.328059
O O9 0.000000 0.837141 0.500000
O O10 0.733302 0.777769 0.853161
O O11 0.661155 0.792597 0.945356
O O12 0.882294 0.552385 0.994394
O O13 0.500000 0.760451 0.000000
#
# Coordination Sequence:
#
# PCOD8050835 Si02
#       6
#     4   4   4   4   4   4
#     4  10  22  44  67  95 135 173 221 281 336 397
#     4  11  23  44  66  97 141 172 228 280 329 401
#     4  10  23  45  71  98 133 174 223 282 344 402
#     4  11  25  41  64  94 134 184 227 272 330 389
#     4  10  22  44  67  94 135 176 221 286 335 395
#     4  12  25  41  62  97 132 180 231 274 322 400
#
# _framework density 21.813607999999999
#
# number of rings (size 3 to 8) (size 9 to 14) (size 15 to 20)
#    0.000    1.333    6.667    0.000    2.333    8.000 
#    0.000    0.833    0.000    0.000    0.000    0.000 
#    0.000    0.000    0.000    0.000    0.000    0.000 
#
# Total GULP energy -148688.803059 kJ/mol
# GULP energy per Si atom -12390.733588 kJ/mol
# Density = 2.176396 g / cm^3
# Si number density = 21.813608 Si / 1000 Ang^3
#
#
#
# Elastic Constant Matrix: (Units=GPa)
#
#
# Indices 1 2 3 4 5 6 
#
# 1 206.4468 47.9187 55.9417 0.0000 -22.1649 0.0000
# 2 47.9187 52.8924 38.8137 0.0000 -5.1022 0.0000
# 3 55.9417 38.8137 128.9204 0.0000 -14.3279 0.0000
# 4 0.0000 0.0000 0.0000 24.5136 0.0000 3.6596
# 5 -22.1649 -5.1022 -14.3279 0.0000 28.5941 0.0000
# 6 0.0000 0.0000 0.0000 3.6596 0.0000 22.9507
#
#
#
# Elastic Compliance Matrix: (Units=1/GPa)
#
#
# Indices 1 2 3 4 5 6 
#
# 1 0.006667 -0.004955 -0.000979 0.000000 0.003793 0.000000
# 2 -0.004955 0.027964 -0.006503 0.000000 -0.002110 0.000000
# 3 -0.000979 -0.006503 0.010512 0.000000 0.003348 0.000000
# 4 0.000000 0.000000 0.000000 0.041788 0.000000 -0.006663
# 5 0.003793 -0.002110 0.003348 0.000000 0.039213 0.000000
# 6 0.000000 0.000000 0.000000 -0.006663 0.000000 0.044634
#
#
# Mechanical properties :
#
#
# Convention : Reuss Voigt Hill
#
# Bulk Modulus (GPa) = 49.34231 74.84533 62.09382
# Shear Modulus (GPa) = 24.70232 31.58404 28.14318
#
# Velocity S-wave (km/s) = 3.36881 3.80926 3.59579
# Velocity P-wave (km/s) = 6.14824 7.33029 6.76513
#
# Compressibility (1/GPa) = 0.02026658
#
# Stress axis : x y z
#
# Youngs Moduli (GPa) = 150.00123 35.75981 95.13150
#
# Poissons Ratio (x) = 0.17719 0.09318
# Poissons Ratio (y) = 0.74327 0.61869
# Poissons Ratio (z) = 0.14692 0.23256
#
# Static dielectric constant tensor:
#      x y z
#    x 4.588720 0.000000 -0.139680 
#    y 0.000000 3.736760 0.000000 
#    z -0.139680 0.000000 3.718920 
# 
# 
# High freq. dielectric constant tensor:
#      x y z
#    x 1.892990 0.000000 -0.010940 
#    y 0.000000 1.835980 0.000000 
#    z -0.010940 0.000000 1.834820 
# 
# From -- ./inp_files/65076.got.cif
#   From: 2010.03.12/outbox.cif.g09.slc.cpg/sg5_33_cif.got.tgz:65076.got - 2010.03.31 09:47:26.
