data_PCOD8050860
_publ_section_title
;
Structure prediction by ZEFSAII (Michael W. Deem and Ramdas Pophale) SiO2 
 PCOD8050860
Probable space group: C 2
;
_chemical_formula_sum "Si O2"
_cell_formula_units_Z 28
_cell_length_a 13.181982
_cell_length_b 13.159381
_cell_length_c 7.941377
_cell_angle_alpha 90.000000
_cell_angle_beta 69.298437
_cell_angle_gamma 90.000000
_cell_volume 1288.621343
_symmetry_space_group_name_H-M "C 2"
_symmetry_group_IT_number 5
_symmetry_cell_setting 'monoclinic'
loop_
_space_group_symop_operation_xyz
x,y,z
-x,y,-z
1/2+x,1/2+y,z
1/2-x,1/2+y,-z
loop_
_atom_site_type_symbol
_atom_site_label
_atom_site_fract_x
_atom_site_fract_y
_atom_site_fract_z
Si Si1 0.818522 0.025350 0.293963
Si Si2 0.035451 0.370669 0.790092
Si Si3 0.689548 0.511074 0.089292
Si Si4 0.419317 0.070149 0.910789
Si Si5 0.489495 0.656259 0.698230
Si Si6 0.206803 0.880664 0.387307
Si Si7 0.121936 0.662972 0.387560
O O1 0.911959 0.110092 0.251061
O O2 0.703591 0.076775 0.406262
O O3 0.836665 0.938817 0.422034
O O4 0.820506 0.978828 0.102195
O O5 0.988540 0.278628 0.706010
O O6 0.164047 0.375357 0.691948
O O7 0.979407 0.478128 0.773375
O O8 0.000000 0.345784 0.000000
O O9 0.622259 0.613789 0.159836
O O10 0.654006 0.425056 0.244998
O O11 0.814536 0.527400 0.068392
O O12 0.375337 0.159755 0.817461
O O13 0.500000 0.118356 0.000000
O O14 0.500000 0.621151 0.500000
O O15 0.157164 0.769701 0.440584
O O16 0.000000 0.632849 0.500000
#
# Coordination Sequence:
#
# PCOD8050860 Si02
#       7
#     4   4   4   4   4   4   4
#     4  11  25  48  70 101 139 184 232 293 344 414
#     4  11  22  43  71 100 142 181 235 294 339 415
#     4  11  24  43  73  99 137 185 227 286 353 405
#     4  10  22  44  70  98 135 185 228 287 346 407
#     4  12  25  42  71 106 140 184 236 289 351 416
#     4  12  24  46  70 102 141 179 235 285 350 419
#     4  11  26  44  68 101 139 179 228 288 348 410
#
# _framework density 21.728648
#
# number of rings (size 3 to 8) (size 9 to 14) (size 15 to 20)
#    0.000    0.857    5.714    2.143    4.000    2.857 
#    2.571    0.000    0.000    0.000    0.000    0.000 
#    0.000    0.000    0.000    0.000    0.000    0.000 
#
# Total GULP energy -173545.841825 kJ/mol
# GULP energy per Si atom -12396.131559 kJ/mol
# Density = 2.167919 g / cm^3
# Si number density = 21.728648 Si / 1000 Ang^3
#
#
#
# Elastic Constant Matrix: (Units=GPa)
#
#
# Indices 1 2 3 4 5 6 
#
# 1 101.4069 26.4773 19.7216 0.0000 -1.2304 0.0000
# 2 26.4773 91.8958 30.2296 0.0000 10.9384 0.0000
# 3 19.7216 30.2296 98.2048 0.0000 19.0138 0.0000
# 4 0.0000 0.0000 0.0000 29.0925 0.0000 4.0124
# 5 -1.2304 10.9384 19.0138 0.0000 42.4250 0.0000
# 6 0.0000 0.0000 0.0000 4.0124 0.0000 30.4561
#
#
#
# Elastic Compliance Matrix: (Units=1/GPa)
#
#
# Indices 1 2 3 4 5 6 
#
# 1 0.010945 -0.002815 -0.001679 0.000000 0.001796 0.000000
# 2 -0.002815 0.012931 -0.003015 0.000000 -0.002064 0.000000
# 3 -0.001679 -0.003015 0.012381 0.000000 -0.004820 0.000000
# 4 0.000000 0.000000 0.000000 0.035009 0.000000 -0.004612
# 5 0.001796 -0.002064 -0.004820 0.000000 0.026316 0.000000
# 6 0.000000 0.000000 0.000000 -0.004612 0.000000 0.033442
#
#
# Mechanical properties :
#
#
# Convention : Reuss Voigt Hill
#
# Bulk Modulus (GPa) = 47.08549 49.37386 48.22967
# Shear Modulus (GPa) = 32.65392 34.73333 33.69362
#
# Velocity S-wave (km/s) = 3.88081 4.00247 3.94211
# Velocity P-wave (km/s) = 6.46512 6.64319 6.55476
#
# Compressibility (1/GPa) = 0.02123797
#
# Stress axis : x y z
#
# Youngs Moduli (GPa) = 91.36977 77.33646 80.76577
#
# Poissons Ratio (x) = 0.21768 0.13562
# Poissons Ratio (y) = 0.25718 0.24354
# Poissons Ratio (z) = 0.15342 0.23320
#
# Static dielectric constant tensor:
#      x y z
#    x 4.074010 0.000000 -0.003000 
#    y 0.000000 3.770650 0.000000 
#    z -0.003000 0.000000 4.019050 
# 
# 
# High freq. dielectric constant tensor:
#      x y z
#    x 1.867230 0.000000 -0.005060 
#    y 0.000000 1.835620 0.000000 
#    z -0.005060 0.000000 1.858270 
# 
# From -- ./inp_files/23765.got.cif
#   From: 2010.03.12/outbox.cif.g09.slc.cpg/sg5_12_cif.got.tgz:23765.got - 2010.03.31 09:47:26.
