data_PCOD8050906
_publ_section_title
;
Structure prediction by ZEFSAII (Michael W. Deem and Ramdas Pophale) SiO2 
 PCOD8050906
Probable space group: C 2
;
_chemical_formula_sum "Si O2"
_cell_formula_units_Z 30
_cell_length_a 11.224054
_cell_length_b 8.391867
_cell_length_c 14.712325
_cell_angle_alpha 90.000000
_cell_angle_beta 74.857020
_cell_angle_gamma 90.000000
_cell_volume 1337.647193
_symmetry_space_group_name_H-M "C 2"
_symmetry_group_IT_number 5
_symmetry_cell_setting 'monoclinic'
loop_
_space_group_symop_operation_xyz
x,y,z
-x,y,-z
1/2+x,1/2+y,z
1/2-x,1/2+y,-z
loop_
_atom_site_type_symbol
_atom_site_label
_atom_site_fract_x
_atom_site_fract_y
_atom_site_fract_z
Si Si1 0.860974 0.033360 0.043685
Si Si2 0.669006 0.151686 0.747550
Si Si3 0.359182 0.161576 0.039747
Si Si4 0.385533 0.728266 0.404688
Si Si5 0.000000 0.733806 0.500000
Si Si6 0.017607 0.512018 0.343484
Si Si7 0.186141 0.985139 0.426450
Si Si8 0.699374 0.520092 0.738797
O O1 0.827856 0.072503 0.153649
O O2 0.867074 0.848088 0.020741
O O3 0.748037 0.099339 0.005577
O O4 0.000000 0.106022 0.000000
O O5 0.687418 0.119872 0.850077
O O6 0.546582 0.056793 0.739439
O O7 0.787240 0.079706 0.671439
O O8 0.657024 0.339339 0.729057
O O9 0.500000 0.091102 0.000000
O O10 0.372488 0.604669 0.488393
O O11 0.373399 0.637413 0.312508
O O12 0.515762 0.822224 0.370083
O O13 0.303548 0.887163 0.438629
O O14 0.056651 0.619635 0.566448
O O15 0.908283 0.844245 0.575027
O O16 0.159430 0.555212 0.311875
#
# Coordination Sequence:
#
# PCOD8050906 Si02
#       8
#     4   4   4   4   2   4   4   4
#     4  10  24  44  70 102 136 172 227 284 347 401
#     4  10  24  42  63  96 135 168 228 271 336 402
#     4  10  22  45  71 100 135 179 221 286 342 409
#     4  11  23  41  64  90 135 173 224 267 333 392
#     4  12  24  40  62  94 132 178 226 266 336 392
#     4  11  25  41  63  95 129 175 223 275 324 404
#     4  11  23  40  61  94 130 179 216 276 324 397
#     4  11  23  43  66  95 130 175 218 278 333 404
#
# _framework density 22.427437999999999
#
# number of rings (size 3 to 8) (size 9 to 14) (size 15 to 20)
#    0.000    1.333    1.333    4.000    3.733    4.800 
#    7.200    0.000    0.000    0.000    0.000    0.000 
#    0.000    0.000    0.000    0.000    0.000    0.000 
#
# Total GULP energy -185847.014672 kJ/mol
# GULP energy per Si atom -12389.800978 kJ/mol
# Density = 2.237639 g / cm^3
# Si number density = 22.427438 Si / 1000 Ang^3
#
#
#
# Elastic Constant Matrix: (Units=GPa)
#
#
# Indices 1 2 3 4 5 6 
#
# 1 102.8245 39.7967 53.4403 0.0000 -0.4799 0.0000
# 2 39.7967 118.0895 72.8948 0.0000 3.3189 0.0000
# 3 53.4403 72.8948 139.5363 0.0000 4.2642 0.0000
# 4 0.0000 0.0000 0.0000 35.6624 0.0000 5.0948
# 5 -0.4799 3.3189 4.2642 0.0000 20.1924 0.0000
# 6 0.0000 0.0000 0.0000 5.0948 0.0000 37.6539
#
#
#
# Elastic Compliance Matrix: (Units=1/GPa)
#
#
# Indices 1 2 3 4 5 6 
#
# 1 0.012448 -0.001867 -0.003835 0.000000 0.001413 0.000000
# 2 -0.001867 0.012788 -0.005938 0.000000 -0.000892 0.000000
# 3 -0.003835 -0.005938 0.011786 0.000000 -0.001604 0.000000
# 4 0.000000 0.000000 0.000000 0.028593 0.000000 -0.003869
# 5 0.001413 -0.000892 -0.001604 0.000000 0.050043 0.000000
# 6 0.000000 0.000000 0.000000 -0.003869 0.000000 0.027081
#
#
# Mechanical properties :
#
#
# Convention : Reuss Voigt Hill
#
# Bulk Modulus (GPa) = 72.77299 76.96820 74.87060
# Shear Modulus (GPa) = 29.30818 31.65630 30.48224
#
# Velocity S-wave (km/s) = 3.61889 3.76107 3.69066
# Velocity P-wave (km/s) = 7.06969 7.29754 7.18452
#
# Compressibility (1/GPa) = 0.01374136
#
# Stress axis : x y z
#
# Youngs Moduli (GPa) = 80.33576 78.19789 84.84310
#
# Poissons Ratio (x) = 0.14603 0.32537
# Poissons Ratio (y) = 0.15002 0.50381
# Poissons Ratio (z) = 0.30808 0.46435
#
# Static dielectric constant tensor:
#      x y z
#    x 4.823560 0.000000 -0.502270 
#    y 0.000000 4.279760 0.000000 
#    z -0.502270 0.000000 4.251600 
# 
# 
# High freq. dielectric constant tensor:
#      x y z
#    x 1.886880 0.000000 -0.005540 
#    y 0.000000 1.898600 0.000000 
#    z -0.005540 0.000000 1.882560 
# 
# From -- ./inp_files/52410.got.cif
#   From: 2010.03.12/outbox.cif.g09.slc.cpg/sg5_27_cif.got.tgz:52410.got - 2010.03.31 09:47:26.
