data_PCOD8050767
_publ_section_title
;
Structure prediction by ZEFSAII (Michael W. Deem and Ramdas Pophale) SiO2 
 PCOD8050767
Probable space group: C 2
;
_chemical_formula_sum "Si O2"
_cell_formula_units_Z 26
_cell_length_a 8.996923
_cell_length_b 10.648606
_cell_length_c 20.540002
_cell_angle_alpha 90.000000
_cell_angle_beta 38.218468
_cell_angle_gamma 90.000000
_cell_volume 1217.420052
_symmetry_space_group_name_H-M "C 2"
_symmetry_group_IT_number 5
_symmetry_cell_setting 'monoclinic'
loop_
_space_group_symop_operation_xyz
x,y,z
-x,y,-z
1/2+x,1/2+y,z
1/2-x,1/2+y,-z
loop_
_atom_site_type_symbol
_atom_site_label
_atom_site_fract_x
_atom_site_fract_y
_atom_site_fract_z
Si Si1 0.368783 0.038320 0.770198
Si Si2 0.839619 0.116250 0.932051
Si Si3 0.000000 0.430200 0.000000
Si Si4 0.231048 0.986115 0.465345
Si Si5 0.370388 0.238687 0.876833
Si Si6 0.764403 0.203217 0.435390
Si Si7 0.160264 0.263554 0.200214
O O1 0.443769 0.142202 0.796255
O O2 0.098520 0.052906 0.837325
O O3 0.542303 0.048397 0.648627
O O4 0.410304 0.906277 0.792190
O O5 0.784235 0.196023 0.886456
O O6 0.623120 0.015184 0.013866
O O7 0.831418 0.194355 0.001436
O O8 0.228455 0.354209 0.891282
O O9 0.289888 0.839246 0.464216
O O10 0.000000 0.981114 0.500000
O O11 0.170543 0.080239 0.544840
O O12 0.608752 0.274491 0.833044
O O13 0.500000 0.184061 0.500000
O O14 0.944067 0.196744 0.312431
#
# Coordination Sequence:
#
# PCOD8050767 Si02
#       7
#     4   4   2   4   4   4   4
#     4  11  24  40  64  88 120 161 201 244 301 358
#     4  12  24  40  60  89 122 160 199 245 296 352
#     4  12  24  40  56  88 128 150 206 246 288 352
#     4  10  22  43  64  92 123 157 203 255 306 363
#     4  12  24  40  60  89 122 160 199 245 296 352
#     4  10  22  43  64  92 123 157 203 255 306 363
#     4  11  24  40  64  88 120 161 201 244 301 358
#
# _framework density 21.356639000000001
#
# number of rings (size 3 to 8) (size 9 to 14) (size 15 to 20)
#    0.000    0.923    4.615    1.846    2.154    1.846 
#    2.769    0.000    0.000    0.000    0.000    0.000 
#    0.000    0.000    0.000    0.000    0.000    0.000 
#
# Total GULP energy -161147.970301 kJ/mol
# GULP energy per Si atom -12395.997715 kJ/mol
# Density = 2.130803 g / cm^3
# Si number density = 21.356639 Si / 1000 Ang^3
#
#
#
# Elastic Constant Matrix: (Units=GPa)
#
#
# Indices 1 2 3 4 5 6 
#
# 1 66.2152 17.1213 8.9972 -0.0002 -3.5784 -0.0003
# 2 17.1213 93.2689 10.2159 -0.0006 22.3411 -0.0007
# 3 8.9972 10.2159 68.6212 -0.0019 -13.1228 0.0005
# 4 -0.0002 -0.0006 -0.0019 35.7530 0.0002 -9.6636
# 5 -3.5784 22.3411 -13.1228 0.0002 33.0927 0.0014
# 6 -0.0003 -0.0007 0.0005 -9.6636 0.0014 -32.4697
#
#
#
# Elastic Compliance Matrix: (Units=1/GPa)
#
#
# Indices 1 2 3 4 5 6 
#
# 1 0.016444 -0.003917 -0.000787 0.000000 0.004111 0.000000
# 2 -0.003917 0.014736 -0.003964 0.000000 -0.011944 -0.000001
# 3 -0.000787 -0.003964 0.017055 0.000001 0.009354 0.000000
# 4 0.000000 0.000000 0.000001 0.025887 0.000001 -0.007705
# 5 0.004111 -0.011944 0.009354 0.000001 0.042435 0.000002
# 6 0.000000 -0.000001 0.000000 -0.007705 0.000002 -0.028505
#
#
# Mechanical properties :
#
#
# Convention : Reuss Voigt Hill
#
# Bulk Modulus (GPa) = 32.36384 33.41932 32.89158
# Shear Modulus (GPa) = 43.21940 20.05996 31.63968
#
# Velocity S-wave (km/s) = 4.50343 3.06810 3.85319
# Velocity P-wave (km/s) = 6.49832 5.31349 5.93554
#
# Compressibility (1/GPa) = 0.03089868
#
# Stress axis : x y z
#
# Youngs Moduli (GPa) = 60.81184 67.86129 58.63389
#
# Poissons Ratio (x) = 0.26582 0.04613
# Poissons Ratio (y) = 0.23821 0.23244
# Poissons Ratio (z) = 0.04785 0.26902
#
# Static dielectric constant tensor:
#      x y z
#    x 3.679540 0.000000 -0.138290 
#    y 0.000000 4.186260 0.000010 
#    z -0.138290 0.000010 4.405140 
# 
# 
# High freq. dielectric constant tensor:
#      x y z
#    x 1.833980 0.000000 -0.028640 
#    y 0.000000 1.853010 0.000000 
#    z -0.028640 0.000000 1.833780 
# 
# From -- ./inp_files/64449.got.cif
#   From: 2010.03.12/outbox.cif.g09.slc.cpg/sg5_33_cif.got.tgz:64449.got - 2010.03.31 09:47:26.
