data_PCOD8050187
_publ_section_title
;
Structure prediction by ZEFSAII (Michael W. Deem and Ramdas Pophale) SiO2 
 PCOD8050187
Probable space group: C 2
;
_chemical_formula_sum "Si O2"
_cell_formula_units_Z 32
_cell_length_a 20.143373
_cell_length_b 11.902997
_cell_length_c 8.426658
_cell_angle_alpha 90.000000
_cell_angle_beta 47.594553
_cell_angle_gamma 90.000000
_cell_volume 1491.868068
_symmetry_space_group_name_H-M "C 2"
_symmetry_group_IT_number 5
_symmetry_cell_setting 'monoclinic'
loop_
_space_group_symop_operation_xyz
x,y,z
-x,y,-z
1/2+x,1/2+y,z
1/2-x,1/2+y,-z
loop_
_atom_site_type_symbol
_atom_site_label
_atom_site_fract_x
_atom_site_fract_y
_atom_site_fract_z
Si Si1 0.716734 0.031060 0.763267
Si Si2 0.980101 0.498573 0.856742
Si Si3 0.713081 0.766003 0.249788
Si Si4 0.370578 0.685607 0.121375
Si Si5 0.040415 0.263026 0.695628
Si Si6 0.262458 0.999116 0.638892
Si Si7 0.717307 0.317185 0.211985
Si Si8 0.918665 0.637385 0.514681
O O1 0.734246 0.159391 0.772047
O O2 0.704929 0.014386 0.594408
O O3 0.790757 0.948437 0.725622
O O4 0.625399 0.003790 0.004249
O O5 0.022134 0.394520 0.692687
O O6 0.031533 0.616120 0.734267
O O7 0.000000 0.462669 0.000000
O O8 0.606387 0.734931 0.441008
O O9 0.743381 0.867844 0.314635
O O10 0.741896 0.796225 0.026518
O O11 0.407355 0.731362 0.227594
O O12 0.336362 0.556458 0.184418
O O13 0.284235 0.762562 0.230404
O O14 0.445511 0.695900 0.860064
O O15 0.331177 0.055822 0.655813
O O16 0.617093 0.263173 0.393403
O O17 0.000000 0.600739 0.500000
#
# Coordination Sequence:
#
# PCOD8050187 Si02
#       8
#     4   4   4   4   4   4   4   4
#     4  12  25  44  71 104 138 181 235 284 344 424
#     4  12  20  36  68 104 130 170 232 287 332 402
#     4  12  26  42  69 104 134 183 232 280 349 419
#     4  10  21  41  67  95 140 171 216 288 350 392
#     4  11  20  40  66 104 129 169 234 286 332 409
#     4  11  24  42  70 101 140 181 231 286 354 409
#     4  11  26  44  66  98 144 182 221 285 352 402
#     4  11  25  43  67  97 141 181 227 287 350 398
#
# _framework density 21.449618000000001
#
# number of rings (size 3 to 8) (size 9 to 14) (size 15 to 20)
#    0.000    0.750    6.250    1.500    7.000    0.500 
#    0.000    2.500    2.750    0.000    0.000    0.000 
#    0.000    0.000    0.000    0.000    0.000    0.000 
#
# Total GULP energy -198237.358799 kJ/mol
# GULP energy per Si atom -12389.834925 kJ/mol
# Density = 2.140080 g / cm^3
# Si number density = 21.449618 Si / 1000 Ang^3
#
#
#
# Elastic Constant Matrix: (Units=GPa)
#
#
# Indices 1 2 3 4 5 6 
#
# 1 81.7077 51.3655 33.0503 0.0000 -10.6156 0.0000
# 2 51.3655 135.9783 36.2112 0.0000 -4.2076 0.0000
# 3 33.0503 36.2112 90.2774 0.0000 -14.6024 0.0000
# 4 0.0000 0.0000 0.0000 36.1262 0.0000 -7.6673
# 5 -10.6156 -4.2076 -14.6024 0.0000 27.6026 0.0000
# 6 0.0000 0.0000 0.0000 -7.6673 0.0000 31.1406
#
#
#
# Elastic Compliance Matrix: (Units=1/GPa)
#
#
# Indices 1 2 3 4 5 6 
#
# 1 0.017755 -0.005626 -0.003584 0.000000 0.004075 0.000000
# 2 -0.005626 0.010024 -0.002257 0.000000 -0.001830 0.000000
# 3 -0.003584 -0.002257 0.014234 0.000000 0.005808 0.000000
# 4 0.000000 0.000000 0.000000 0.029207 0.000000 0.007191
# 5 0.004075 -0.001830 0.005808 0.000000 0.040589 0.000000
# 6 0.000000 0.000000 0.000000 0.007191 0.000000 0.033883
#
#
# Mechanical properties :
#
#
# Convention : Reuss Voigt Hill
#
# Bulk Modulus (GPa) = 52.41704 61.02415 56.72060
# Shear Modulus (GPa) = 28.57384 31.46297 30.01841
#
# Velocity S-wave (km/s) = 3.65381 3.83408 3.74503
# Velocity P-wave (km/s) = 6.50313 6.93628 6.72319
#
# Compressibility (1/GPa) = 0.01907776
#
# Stress axis : x y z
#
# Youngs Moduli (GPa) = 56.32254 99.76232 70.25560
#
# Poissons Ratio (x) = 0.56129 0.25181
# Poissons Ratio (y) = 0.31689 0.15856
# Poissons Ratio (z) = 0.20187 0.22515
#
# Static dielectric constant tensor:
#      x y z
#    x 3.869270 0.000000 -0.212360 
#    y 0.000000 3.923790 0.000000 
#    z -0.212360 0.000000 4.349690 
# 
# 
# High freq. dielectric constant tensor:
#      x y z
#    x 1.833480 0.000000 -0.005250 
#    y 0.000000 1.829250 0.000000 
#    z -0.005250 0.000000 1.848250 
# 
# From -- ./inp_files/29593.got.cif
#   From: 2010.03.12/outbox.cif.g09.slc.cpg/sg5_15_cif.got.tgz:29593.got - 2010.03.31 09:47:26.
