data_PCOD8050731
_publ_section_title
;
Structure prediction by ZEFSAII (Michael W. Deem and Ramdas Pophale) SiO2 
 PCOD8050731
Probable space group: C 2
;
_chemical_formula_sum "Si O2"
_cell_formula_units_Z 28
_cell_length_a 13.393269
_cell_length_b 6.413511
_cell_length_c 17.302783
_cell_angle_alpha 90.000000
_cell_angle_beta 57.605925
_cell_angle_gamma 90.000000
_cell_volume 1254.983593
_symmetry_space_group_name_H-M "C 2"
_symmetry_group_IT_number 5
_symmetry_cell_setting 'monoclinic'
loop_
_space_group_symop_operation_xyz
x,y,z
-x,y,-z
1/2+x,1/2+y,z
1/2-x,1/2+y,-z
loop_
_atom_site_type_symbol
_atom_site_label
_atom_site_fract_x
_atom_site_fract_y
_atom_site_fract_z
Si Si1 0.500000 0.422240 0.500000
Si Si2 0.447190 0.977783 0.920634
Si Si3 0.827872 0.629313 0.650499
Si Si4 0.654650 0.214628 0.900236
Si Si5 0.850051 0.384183 0.367198
Si Si6 0.303683 0.741311 0.552495
Si Si7 0.000000 0.096566 0.000000
Si Si8 0.383976 0.912213 0.774983
O O1 0.440557 0.275439 0.588955
O O2 0.402437 0.564526 0.500597
O O3 0.575404 0.090358 0.870931
O O4 0.399291 0.000720 0.854417
O O5 0.460452 0.739432 0.943668
O O6 0.354695 0.098230 0.013661
O O7 0.705585 0.739662 0.676665
O O8 0.842916 0.412568 0.598277
O O9 0.827520 0.586302 0.742236
O O10 0.609475 0.452423 0.928383
O O11 0.791208 0.219028 0.816162
O O12 0.817277 0.628564 0.367212
O O13 0.786804 0.337125 0.474997
O O14 0.989763 0.340198 0.311117
#
# Coordination Sequence:
#
# PCOD8050731 Si02
#       8
#     2   4   4   4   4   4   2   4
#     4  10  22  42  70  92 130 186 226 276 352 410
#     4   9  22  46  68  96 137 174 226 281 343 412
#     4  11  25  43  65 105 138 174 236 286 336 416
#     4   9  22  46  67  99 133 179 227 280 337 420
#     4  11  25  43  70 100 136 186 227 288 341 409
#     4  11  22  46  69  92 142 183 228 279 353 412
#     4   8  18  44  74  88 128 182 222 274 342 416
#     4  12  26  40  72 104 135 180 231 285 346 397
#
# _framework density 22.311050000000002
#
# number of rings (size 3 to 8) (size 9 to 14) (size 15 to 20)
#    0.000    2.000    1.429    2.143    8.000    0.000 
#    0.000    8.571    0.000    0.000    0.000    0.000 
#    0.000    0.000    0.000    0.000    0.000    0.000 
#
# Total GULP energy -173574.528794 kJ/mol
# GULP energy per Si atom -12398.180628 kJ/mol
# Density = 2.226027 g / cm^3
# Si number density = 22.311050 Si / 1000 Ang^3
#
#
#
# Elastic Constant Matrix: (Units=GPa)
#
#
# Indices 1 2 3 4 5 6 
#
# 1 90.4639 22.9929 10.5876 0.0000 1.2647 0.0004
# 2 22.9929 117.0175 10.0344 0.0001 0.7593 0.0013
# 3 10.5876 10.0344 30.3397 -0.0001 7.3539 -0.0001
# 4 0.0000 0.0001 -0.0001 19.3436 0.0000 1.7596
# 5 1.2647 0.7593 7.3539 0.0000 64.8860 0.0001
# 6 0.0004 0.0013 -0.0001 1.7596 0.0001 25.4143
#
#
#
# Elastic Compliance Matrix: (Units=1/GPa)
#
#
# Indices 1 2 3 4 5 6 
#
# 1 0.011989 -0.002052 -0.003552 0.000000 0.000193 0.000000
# 2 -0.002052 0.009150 -0.002359 0.000000 0.000200 0.000000
# 3 -0.003552 -0.002359 0.035943 0.000000 -0.003977 0.000000
# 4 0.000000 0.000000 0.000000 0.052024 0.000000 -0.003602
# 5 0.000193 0.000200 -0.003977 0.000000 0.015856 0.000000
# 6 0.000000 0.000000 0.000000 -0.003602 0.000000 0.039597
#
#
# Mechanical properties :
#
#
# Convention : Reuss Voigt Hill
#
# Bulk Modulus (GPa) = 24.29717 36.11676 30.20697
# Shear Modulus (GPa) = 25.74610 34.87587 30.31099
#
# Velocity S-wave (km/s) = 3.40069 3.95798 3.68987
# Velocity P-wave (km/s) = 5.13161 6.09183 5.63222
#
# Compressibility (1/GPa) = 0.04115706
#
# Stress axis : x y z
#
# Youngs Moduli (GPa) = 83.41148 109.29018 27.82147
#
# Poissons Ratio (x) = 0.22430 0.09881
# Poissons Ratio (y) = 0.17119 0.06562
# Poissons Ratio (z) = 0.29625 0.25776
#
# Static dielectric constant tensor:
#      x y z
#    x 4.053020 0.000000 -0.074910 
#    y 0.000000 4.166040 0.000000 
#    z -0.074910 0.000000 3.851070 
# 
# 
# High freq. dielectric constant tensor:
#      x y z
#    x 1.885420 0.000000 0.000580 
#    y 0.000000 1.878570 0.000000 
#    z 0.000580 0.000000 1.865180 
# 
# From -- ./inp_files/61052.got.cif
#   From: 2010.03.12/outbox.cif.g09.slc.cpg/sg5_31_cif.got.tgz:61052.got - 2010.03.31 09:47:26.
