data_PCOD8050698
_publ_section_title
;
Structure prediction by ZEFSAII (Michael W. Deem and Ramdas Pophale) SiO2 
 PCOD8050698
Probable space group: C 2
;
_chemical_formula_sum "Si O2"
_cell_formula_units_Z 28
_cell_length_a 11.035929
_cell_length_b 8.976324
_cell_length_c 15.219049
_cell_angle_alpha 90.000000
_cell_angle_beta 115.012002
_cell_angle_gamma 90.000000
_cell_volume 1366.243823
_symmetry_space_group_name_H-M "C 2"
_symmetry_group_IT_number 5
_symmetry_cell_setting 'monoclinic'
loop_
_space_group_symop_operation_xyz
x,y,z
-x,y,-z
1/2+x,1/2+y,z
1/2-x,1/2+y,-z
loop_
_atom_site_type_symbol
_atom_site_label
_atom_site_fract_x
_atom_site_fract_y
_atom_site_fract_z
Si Si1 0.478271 0.970820 0.402861
Si Si2 0.621213 0.278532 0.482017
Si Si3 0.000000 0.109424 0.000000
Si Si4 0.321801 0.450291 0.679155
Si Si5 0.181826 0.857663 0.131313
Si Si6 0.500000 0.109556 0.000000
Si Si7 0.955890 0.356630 0.121742
Si Si8 0.380516 0.767617 0.680587
O O1 0.500000 0.880264 0.500000
O O2 0.324780 0.023564 0.351088
O O3 0.504784 0.853702 0.336063
O O4 0.577964 0.113323 0.437420
O O5 0.500000 0.354080 0.500000
O O6 0.663330 0.360286 0.406183
O O7 0.741113 0.288009 0.588457
O O8 0.932890 0.214358 0.052651
O O9 0.117459 0.008510 0.074800
O O10 0.350478 0.349156 0.773588
O O11 0.419167 0.593020 0.701212
O O12 0.122483 0.711495 0.067812
O O13 0.338548 0.861846 0.158059
O O14 0.452233 0.008721 0.066191
O O15 0.100825 0.338767 0.215908
#
# Coordination Sequence:
#
# PCOD8050698 Si02
#       8
#     4   4   2   4   4   2   4   4
#     4  11  22  43  66  88 136 172 206 271 319 372
#     4  11  24  44  64  94 137 174 210 264 318 379
#     4  10  22  42  66  90 130 162 210 268 322 388
#     4  12  24  42  65  98 130 170 216 265 321 381
#     4  11  23  43  67  94 126 167 213 266 325 383
#     4  10  26  46  64  96 128 164 214 270 328 382
#     4  11  23  42  67  95 126 168 213 267 321 381
#     4  12  22  41  66  97 126 170 219 255 321 383
#
# _framework density 20.494147000000002
#
# number of rings (size 3 to 8) (size 9 to 14) (size 15 to 20)
#    0.000    0.857    7.143    0.857    2.000    0.571 
#    5.143    1.429    0.000    0.000    0.000    0.000 
#    0.000    0.000    0.000    0.000    0.000    0.000 
#
# Total GULP energy -173454.057311 kJ/mol
# GULP energy per Si atom -12389.575522 kJ/mol
# Density = 2.044750 g / cm^3
# Si number density = 20.494147 Si / 1000 Ang^3
#
#
#
# Elastic Constant Matrix: (Units=GPa)
#
#
# Indices 1 2 3 4 5 6 
#
# 1 101.8819 52.7613 52.6584 0.0000 -9.0885 0.0000
# 2 52.7613 120.4749 63.8980 0.0000 -5.0859 0.0000
# 3 52.6584 63.8980 157.5350 0.0000 -7.7045 0.0000
# 4 0.0000 0.0000 0.0000 24.7588 0.0000 -1.1287
# 5 -9.0885 -5.0859 -7.7045 0.0000 28.7695 0.0000
# 6 0.0000 0.0000 0.0000 -1.1287 0.0000 16.8725
#
#
#
# Elastic Compliance Matrix: (Units=1/GPa)
#
#
# Indices 1 2 3 4 5 6 
#
# 1 0.013767 -0.004513 -0.002632 0.000000 0.002846 0.000000
# 2 -0.004513 0.012070 -0.003397 0.000000 -0.000202 0.000000
# 3 -0.002632 -0.003397 0.008649 0.000000 0.000884 0.000000
# 4 0.000000 0.000000 0.000000 0.040513 0.000000 0.002710
# 5 0.002846 -0.000202 0.000884 0.000000 0.035859 0.000000
# 6 0.000000 0.000000 0.000000 0.002710 0.000000 0.059449
#
#
# Mechanical properties :
#
#
# Convention : Reuss Voigt Hill
#
# Bulk Modulus (GPa) = 74.61890 79.83637 77.22764
# Shear Modulus (GPa) = 25.52860 28.11843 26.82352
#
# Velocity S-wave (km/s) = 3.53321 3.70810 3.62171
# Velocity P-wave (km/s) = 7.28928 7.57454 7.43328
#
# Compressibility (1/GPa) = 0.01340143
#
# Stress axis : x y z
#
# Youngs Moduli (GPa) = 72.63935 82.84895 115.62352
#
# Poissons Ratio (x) = 0.37389 0.30432
# Poissons Ratio (y) = 0.32781 0.39279
# Poissons Ratio (z) = 0.19119 0.28145
#
# Static dielectric constant tensor:
#      x y z
#    x 3.596870 0.000000 -0.070970 
#    y 0.000000 3.796930 0.000000 
#    z -0.070970 0.000000 4.102000 
# 
# 
# High freq. dielectric constant tensor:
#      x y z
#    x 1.787440 0.000000 -0.003180 
#    y 0.000000 1.796190 0.000000 
#    z -0.003180 0.000000 1.829510 
# 
# From -- ./inp_files/52250.got.cif
#   From: 2010.03.12/outbox.cif.g09.slc.cpg/sg5_27_cif.got.tgz:52250.got - 2010.03.31 09:47:26.
