data_PCOD8050743
_publ_section_title
;
Structure prediction by ZEFSAII (Michael W. Deem and Ramdas Pophale) SiO2 
 PCOD8050743
Probable space group: C 2
;
_chemical_formula_sum "Si O2"
_cell_formula_units_Z 32
_cell_length_a 15.784583
_cell_length_b 10.750125
_cell_length_c 8.679061
_cell_angle_alpha 90.000000
_cell_angle_beta 84.213064
_cell_angle_gamma 90.000000
_cell_volume 1465.211858
_symmetry_space_group_name_H-M "C 2"
_symmetry_group_IT_number 5
_symmetry_cell_setting 'monoclinic'
loop_
_space_group_symop_operation_xyz
x,y,z
-x,y,-z
1/2+x,1/2+y,z
1/2-x,1/2+y,-z
loop_
_atom_site_type_symbol
_atom_site_label
_atom_site_fract_x
_atom_site_fract_y
_atom_site_fract_z
Si Si1 0.022824 0.602310 0.822670
Si Si2 0.020724 0.835378 0.321796
Si Si3 0.986976 0.258727 0.665825
Si Si4 0.287906 0.351210 0.836452
Si Si5 0.855014 0.439862 0.347393
Si Si6 0.629064 0.973666 0.316147
Si Si7 0.044714 0.048881 0.842524
Si Si8 0.230025 0.077174 0.923567
O O1 0.117531 0.549711 0.774758
O O2 0.026590 0.748756 0.794824
O O3 0.952419 0.557206 0.711410
O O4 0.000000 0.564396 0.000000
O O5 0.120582 0.837892 0.261135
O O6 0.000000 0.793484 0.500000
O O7 0.971577 0.964205 0.303278
O O8 0.896208 0.328163 0.694337
O O9 0.000000 0.186180 0.500000
O O10 0.061794 0.357598 0.653261
O O11 0.992566 0.174135 0.815050
O O12 0.223222 0.361735 0.705221
O O13 0.264359 0.222470 0.938524
O O14 0.284005 0.484559 0.927156
O O15 0.836006 0.499873 0.518003
O O16 0.704277 0.000331 0.187661
O O17 0.142448 0.083247 0.846328
O O18 0.000000 0.988138 0.000000
#
# Coordination Sequence:
#
# PCOD8050743 Si02
#       8
#     4   4   4   4   4   4   4   4
#     4  11  22  41  71 103 137 182 235 292 354 422
#     4  12  27  46  69  99 148 191 239 294 367 436
#     4   9  20  41  67  99 134 177 234 282 351 426
#     4  12  27  49  70 109 145 195 239 302 361 435
#     4  10  22  42  71 103 135 180 241 289 352 417
#     4  10  22  42  72 103 133 181 234 297 340 428
#     4  12  25  44  64  99 141 189 228 297 364 433
#     4  12  27  46  72 103 149 184 248 296 365 430
#
# _framework density 21.839846999999999
#
# number of rings (size 3 to 8) (size 9 to 14) (size 15 to 20)
#    0.000    1.000    3.750    3.375    3.500    2.000 
#    0.000    1.250    0.000    0.000    0.000    0.000 
#    0.000    0.000    0.000    0.000    0.000    0.000 
#
# Total GULP energy -198224.675058 kJ/mol
# GULP energy per Si atom -12389.042191 kJ/mol
# Density = 2.179014 g / cm^3
# Si number density = 21.839847 Si / 1000 Ang^3
#
#
#
# Elastic Constant Matrix: (Units=GPa)
#
#
# Indices 1 2 3 4 5 6 
#
# 1 92.2772 42.8706 27.8872 0.0000 -4.9347 0.0000
# 2 42.8706 83.4001 38.8927 0.0000 -0.4684 0.0000
# 3 27.8872 38.8927 92.4111 0.0000 1.6752 0.0000
# 4 0.0000 0.0000 0.0000 33.4258 0.0000 3.2204
# 5 -4.9347 -0.4684 1.6752 0.0000 27.1101 0.0000
# 6 0.0000 0.0000 0.0000 3.2204 0.0000 26.9982
#
#
#
# Elastic Compliance Matrix: (Units=1/GPa)
#
#
# Indices 1 2 3 4 5 6 
#
# 1 0.014595 -0.006733 -0.001619 0.000000 0.002640 0.000000
# 2 -0.006733 0.018036 -0.005548 0.000000 -0.000571 0.000000
# 3 -0.001619 -0.005548 0.013667 0.000000 -0.001235 0.000000
# 4 0.000000 0.000000 0.000000 0.030265 0.000000 -0.003610
# 5 0.002640 -0.000571 -0.001235 0.000000 0.037434 0.000000
# 6 0.000000 0.000000 0.000000 -0.003610 0.000000 0.037470
#
#
# Mechanical properties :
#
#
# Convention : Reuss Voigt Hill
#
# Bulk Modulus (GPa) = 54.05939 54.15437 54.10688
# Shear Modulus (GPa) = 26.96399 28.06934 27.51667
#
# Velocity S-wave (km/s) = 3.51753 3.58891 3.55340
# Velocity P-wave (km/s) = 6.42680 6.48256 6.45474
#
# Compressibility (1/GPa) = 0.01849817
#
# Stress axis : x y z
#
# Youngs Moduli (GPa) = 68.51546 55.44619 73.16775
#
# Poissons Ratio (x) = 0.37331 0.11844
# Poissons Ratio (y) = 0.46130 0.40596
# Poissons Ratio (z) = 0.11091 0.30764
#
# Static dielectric constant tensor:
#      x y z
#    x 3.984940 0.000000 0.022670 
#    y 0.000000 4.188680 0.000000 
#    z 0.022670 0.000000 4.093340 
# 
# 
# High freq. dielectric constant tensor:
#      x y z
#    x 1.856230 0.000000 0.002840 
#    y 0.000000 1.863390 0.000000 
#    z 0.002840 0.000000 1.859130 
# 
# From -- ./inp_files/23900.got.cif
#   From: 2010.03.12/outbox.cif.g09.slc.cpg/sg5_12_cif.got.tgz:23900.got - 2010.03.31 09:47:26.
