data_PCOD8050883
_publ_section_title
;
Structure prediction by ZEFSAII (Michael W. Deem and Ramdas Pophale) SiO2 
 PCOD8050883
Probable space group: C 2
;
_chemical_formula_sum "Si O2"
_cell_formula_units_Z 24
_cell_length_a 10.478721
_cell_length_b 9.987092
_cell_length_c 17.999951
_cell_angle_alpha 90.000000
_cell_angle_beta 143.593568
_cell_angle_gamma 90.000000
_cell_volume 1118.011151
_symmetry_space_group_name_H-M "C 2"
_symmetry_group_IT_number 5
_symmetry_cell_setting 'monoclinic'
loop_
_space_group_symop_operation_xyz
x,y,z
-x,y,-z
1/2+x,1/2+y,z
1/2-x,1/2+y,-z
loop_
_atom_site_type_symbol
_atom_site_label
_atom_site_fract_x
_atom_site_fract_y
_atom_site_fract_z
Si Si1 0.461473 0.017760 0.327460
Si Si2 0.240181 0.759277 0.689661
Si Si3 0.728123 0.575604 0.071018
Si Si4 0.539509 0.514741 0.436559
Si Si5 0.933197 0.233930 0.276045
Si Si6 0.300860 0.788834 0.060029
O O1 0.336879 0.110774 0.326462
O O2 0.415438 0.061601 0.220348
O O3 0.710685 0.023108 0.464076
O O4 0.376337 0.865885 0.297762
O O5 0.322652 0.756172 0.642481
O O6 0.442316 0.799092 0.836642
O O7 0.048634 0.863993 0.611023
O O8 0.699446 0.437401 0.011024
O O9 0.500000 0.612382 0.000000
O O10 0.805898 0.693632 0.051919
O O11 0.500000 0.573405 0.500000
O O12 0.411769 0.604268 0.316991
O O13 0.771037 0.223922 0.129156
#
# Coordination Sequence:
#
# PCOD8050883 Si02
#       6
#     4   4   4   4   4   4
#     4  11  22  40  67  91 128 170 201 263 316 368
#     4  10  22  45  62  90 129 166 205 260 314 368
#     4  11  20  44  62  94 127 160 213 254 312 370
#     4  12  22  41  65  92 129 166 207 262 313 377
#     4   9  22  44  59  94 124 160 214 250 317 366
#     4   9  22  42  67  91 125 168 203 265 309 367
#
# _framework density 21.466691000000001
#
# number of rings (size 3 to 8) (size 9 to 14) (size 15 to 20)
#    1.000    0.667    3.333    1.000    0.000    1.333 
#   18.000    0.000    0.000    0.000    0.000    0.000 
#    0.000    0.000    0.000    0.000    0.000    0.000 
#
# Total GULP energy -148728.710211 kJ/mol
# GULP energy per Si atom -12394.059184 kJ/mol
# Density = 2.141783 g / cm^3
# Si number density = 21.466691 Si / 1000 Ang^3
#
#
#
# Elastic Constant Matrix: (Units=GPa)
#
#
# Indices 1 2 3 4 5 6 
#
# 1 44.7356 44.0401 -3.2820 0.0000 -7.6391 0.0000
# 2 44.0401 124.7252 16.0851 0.0000 -23.9651 0.0000
# 3 -3.2820 16.0851 51.0771 0.0001 -10.2073 0.0000
# 4 0.0000 0.0000 0.0001 35.7081 0.0000 -6.0655
# 5 -7.6391 -23.9651 -10.2073 0.0000 22.6372 0.0000
# 6 0.0000 0.0000 0.0000 -6.0655 0.0000 37.4230
#
#
#
# Elastic Compliance Matrix: (Units=1/GPa)
#
#
# Indices 1 2 3 4 5 6 
#
# 1 0.036320 -0.013504 0.006791 0.000000 0.001023 0.000000
# 2 -0.013504 0.015147 -0.003675 0.000000 0.009821 0.000000
# 3 0.006791 -0.003675 0.022917 0.000000 0.008735 0.000000
# 4 0.000000 0.000000 0.000000 0.028798 0.000000 0.004668
# 5 0.001023 0.009821 0.008735 0.000000 0.058856 0.000000
# 6 0.000000 0.000000 0.000000 0.004668 0.000000 0.027478
#
#
# Mechanical properties :
#
#
# Convention : Reuss Voigt Hill
#
# Bulk Modulus (GPa) = 18.65384 37.13601 27.89493
# Shear Modulus (GPa) = 21.91425 30.06665 25.99045
#
# Velocity S-wave (km/s) = 3.19854 3.74654 3.48333
# Velocity P-wave (km/s) = 4.72752 6.00436 5.40378
#
# Compressibility (1/GPa) = 0.05360827
#
# Stress axis : x y z
#
# Youngs Moduli (GPa) = 27.53277 66.02035 43.63486
#
# Poissons Ratio (x) = 0.89153 -0.29631
# Poissons Ratio (y) = 0.37180 0.16036
# Poissons Ratio (z) = -0.18697 0.24263
#
# Static dielectric constant tensor:
#      x y z
#    x 3.614910 0.000000 -0.063330 
#    y 0.000000 3.778500 0.000000 
#    z -0.063330 0.000000 3.818130 
# 
# 
# High freq. dielectric constant tensor:
#      x y z
#    x 1.817470 0.000000 0.002080 
#    y 0.000000 1.839790 0.000000 
#    z 0.002080 0.000000 1.838700 
# 
# From -- ./inp_files/65081.got.cif
#   From: 2010.03.12/outbox.cif.g09.slc.cpg/sg5_33_cif.got.tgz:65081.got - 2010.03.31 09:47:26.
