data_PCOD8050651
_publ_section_title
;
Structure prediction by ZEFSAII (Michael W. Deem and Ramdas Pophale) SiO2 
 PCOD8050651
Probable space group: C 2
;
_chemical_formula_sum "Si O2"
_cell_formula_units_Z 18
_cell_length_a 5.557131
_cell_length_b 18.396377
_cell_length_c 7.033463
_cell_angle_alpha 90.000000
_cell_angle_beta 74.416231
_cell_angle_gamma 90.000000
_cell_volume 692.605713
_symmetry_space_group_name_H-M "C 2"
_symmetry_group_IT_number 5
_symmetry_cell_setting 'monoclinic'
loop_
_space_group_symop_operation_xyz
x,y,z
-x,y,-z
1/2+x,1/2+y,z
1/2-x,1/2+y,-z
loop_
_atom_site_type_symbol
_atom_site_label
_atom_site_fract_x
_atom_site_fract_y
_atom_site_fract_z
Si Si1 0.475295 0.833590 0.715147
Si Si2 0.000000 0.886108 0.000000
Si Si3 0.287185 0.467333 0.697245
Si Si4 0.190207 0.191369 0.732198
Si Si5 0.192649 0.635544 0.714957
O O1 0.500000 0.800707 0.500000
O O2 0.195120 0.831902 0.855551
O O3 0.552692 0.917282 0.697136
O O4 0.664466 0.778289 0.784902
O O5 0.871569 0.942616 0.885781
O O6 0.500000 0.451867 0.500000
O O7 0.192999 0.548959 0.707938
O O8 0.405979 0.159351 0.827045
O O9 0.255775 0.170225 0.501650
O O10 0.905240 0.160733 0.822913
#
# Coordination Sequence:
#
# PCOD8050651 Si02
#       5
#     4   2   4   4   4
#     4  12  26  47  82 116 161 217 265 341 408 486
#     4  12  30  48  80 124 160 204 296 324 406 502
#     4  12  26  47  82 116 161 217 265 341 408 486
#     4  10  22  41  75 118 150 205 271 318 402 483
#     4  10  22  41  75 118 150 205 271 318 402 483
#
# _framework density 25.988809
#
# number of rings (size 3 to 8) (size 9 to 14) (size 15 to 20)
#    0.000    0.889    6.667    0.667   12.444    0.000 
#    0.000    0.000    9.778    0.000    0.000    0.000 
#    0.000    0.000    0.000    0.000    0.000    0.000 
#
# Total GULP energy -111525.146424 kJ/mol
# GULP energy per Si atom -12391.682936 kJ/mol
# Density = 2.592966 g / cm^3
# Si number density = 25.988809 Si / 1000 Ang^3
#
#
#
# Elastic Constant Matrix: (Units=GPa)
#
#
# Indices 1 2 3 4 5 6 
#
# 1 201.3411 54.0029 39.6390 0.0000 -35.6688 0.0000
# 2 54.0029 185.7285 16.7523 0.0000 -32.5847 0.0000
# 3 39.6390 16.7523 104.6363 0.0000 -37.9752 0.0000
# 4 0.0000 0.0000 0.0000 -6.2596 0.0000 -5.4995
# 5 -35.6688 -32.5847 -37.9752 0.0000 41.4446 0.0000
# 6 0.0000 0.0000 0.0000 -5.4995 0.0000 15.2131
#
#
#
# Elastic Compliance Matrix: (Units=1/GPa)
#
#
# Indices 1 2 3 4 5 6 
#
# 1 0.006052 -0.001047 -0.000799 0.000000 0.003653 0.000000
# 2 -0.001047 0.006524 0.001328 0.000000 0.005446 0.000000
# 3 -0.000799 0.001328 0.014647 0.000000 0.013778 0.000000
# 4 0.000000 0.000000 0.000000 -0.121246 0.000000 -0.043830
# 5 0.003653 0.005446 0.013778 0.000000 0.044179 0.000000
# 6 0.000000 0.000000 0.000000 -0.043830 0.000000 0.049888
#
#
# Mechanical properties :
#
#
# Convention : Reuss Voigt Hill
#
# Bulk Modulus (GPa) = 38.18452 79.16603 58.67527
# Shear Modulus (GPa) = 509.75109 35.50039 272.62574
#
# Velocity S-wave (km/s) = 14.02028 3.69994 10.25324
# Velocity P-wave (km/s) = 16.63778 6.98430 12.75923
#
# Compressibility (1/GPa) = 0.02618862
#
# Stress axis : x y z
#
# Youngs Moduli (GPa) = 165.23509 153.27690 68.27204
#
# Poissons Ratio (x) = 0.16043 0.05456
# Poissons Ratio (y) = 0.17294 -0.09069
# Poissons Ratio (z) = 0.13205 -0.20362
#
# Static dielectric constant tensor:
#      x y z
#    x 5.874280 0.000000 -0.133610 
#    y 0.000000 4.539890 0.000000 
#    z -0.133610 0.000000 4.827370 
# 
# 
# High freq. dielectric constant tensor:
#      x y z
#    x 2.053840 0.000000 -0.010770 
#    y 0.000000 2.045230 0.000000 
#    z -0.010770 0.000000 2.041920 
# 
# From -- ./inp_files/12015.got.cif
#   From: 2010.03.12/outbox.cif.g09.slc.cpg/sg5_7_cif.got.tgz:12015.got - 2010.03.31 09:47:26.
