data_PCOD8050130
_publ_section_title
;
Structure prediction by ZEFSAII (Michael W. Deem and Ramdas Pophale) SiO2 
 PCOD8050130
Probable space group: C 2
;
_chemical_formula_sum "Si O2"
_cell_formula_units_Z 28
_cell_length_a 17.333806
_cell_length_b 15.444361
_cell_length_c 5.133686
_cell_angle_alpha 90.000000
_cell_angle_beta 60.298078
_cell_angle_gamma 90.000000
_cell_volume 1193.769419
_symmetry_space_group_name_H-M "C 2"
_symmetry_group_IT_number 5
_symmetry_cell_setting 'monoclinic'
loop_
_space_group_symop_operation_xyz
x,y,z
-x,y,-z
1/2+x,1/2+y,z
1/2-x,1/2+y,-z
loop_
_atom_site_type_symbol
_atom_site_label
_atom_site_fract_x
_atom_site_fract_y
_atom_site_fract_z
Si Si1 0.412558 0.121270 0.541070
Si Si2 0.323227 0.509027 0.552850
Si Si3 0.619743 0.021061 0.895296
Si Si4 0.302463 0.405221 0.107798
Si Si5 0.737207 0.251248 0.122852
Si Si6 0.351158 0.846918 0.334401
Si Si7 0.595557 0.685099 0.469493
O O1 0.500000 0.172863 0.500000
O O2 0.434805 0.076096 0.228230
O O3 0.327314 0.180879 0.645654
O O4 0.396616 0.047329 0.782408
O O5 0.223141 0.536157 0.651989
O O6 0.354392 0.439519 0.278500
O O7 0.385706 0.593503 0.422513
O O8 0.327762 0.470610 0.834817
O O9 0.592113 0.919230 0.914911
O O10 0.195318 0.397110 0.342725
O O11 0.322379 0.305488 0.988043
O O12 0.768054 0.317272 0.294395
O O13 0.823728 0.203335 0.863244
O O14 0.409815 0.764052 0.314486
O O15 0.500000 0.680002 0.500000
#
# Coordination Sequence:
#
# PCOD8050130 Si02
#       7
#     4   4   4   4   4   4   4
#     4  12  27  44  69 103 137 179 225 279 341 407
#     4  11  21  42  72  99 134 179 227 276 337 410
#     4  11  22  44  70  98 139 175 227 275 341 403
#     4  10  21  40  71 101 127 178 232 272 340 394
#     4  11  23  45  73  97 138 181 228 285 341 405
#     4  10  23  42  70 101 136 180 228 281 341 410
#     4  11  26  43  68 105 144 181 229 281 347 413
#
# _framework density 23.455113999999998
#
# number of rings (size 3 to 8) (size 9 to 14) (size 15 to 20)
#    0.000    1.143    4.286    3.000    6.000    1.143 
#    2.571    0.714    3.143    0.000    0.000    0.000 
#    0.000    0.000    0.000    0.000    0.000    0.000 
#
# Total GULP energy -173480.170360 kJ/mol
# GULP energy per Si atom -12391.440740 kJ/mol
# Density = 2.340173 g / cm^3
# Si number density = 23.455114 Si / 1000 Ang^3
#
#
#
# Elastic Constant Matrix: (Units=GPa)
#
#
# Indices 1 2 3 4 5 6 
#
# 1 95.9264 51.5512 32.0388 0.0000 3.4205 0.0000
# 2 51.5512 130.1548 44.1948 0.0000 5.9160 0.0000
# 3 32.0388 44.1948 83.1818 0.0000 23.5830 0.0000
# 4 0.0000 0.0000 0.0000 20.1636 0.0000 24.3254
# 5 3.4205 5.9160 23.5830 0.0000 35.1091 0.0000
# 6 0.0000 0.0000 0.0000 24.3254 0.0000 31.0412
#
#
#
# Elastic Compliance Matrix: (Units=1/GPa)
#
#
# Indices 1 2 3 4 5 6 
#
# 1 0.013895 -0.004389 -0.003515 0.000000 0.001747 0.000000
# 2 -0.004389 0.010898 -0.004571 0.000000 0.001661 0.000000
# 3 -0.003515 -0.004571 0.019132 0.000000 -0.011739 0.000000
# 4 0.000000 0.000000 0.000000 0.908243 0.000000 -0.711743
# 5 0.001747 0.001661 -0.011739 0.000000 0.035917 0.000000
# 6 0.000000 0.000000 0.000000 -0.711743 0.000000 0.589972
#
#
# Mechanical properties :
#
#
# Convention : Reuss Voigt Hill
#
# Bulk Modulus (GPa) = 52.70024 62.75919 57.72971
# Shear Modulus (GPa) = 3.10688 29.36132 16.23410
#
# Velocity S-wave (km/s) = 1.15216 3.54193 2.63370
# Velocity P-wave (km/s) = 4.92821 6.59866 5.82364
#
# Compressibility (1/GPa) = 0.01897525
#
# Stress axis : x y z
#
# Youngs Moduli (GPa) = 71.96676 91.75872 52.26794
#
# Poissons Ratio (x) = 0.40277 0.18373
# Poissons Ratio (y) = 0.31589 0.23890
# Poissons Ratio (z) = 0.25298 0.41939
#
# Static dielectric constant tensor:
#      x y z
#    x 4.031440 0.000000 0.225680 
#    y 0.000000 4.463850 0.000000 
#    z 0.225680 0.000000 4.262200 
# 
# 
# High freq. dielectric constant tensor:
#      x y z
#    x 1.904330 0.000000 0.023330 
#    y 0.000000 1.934790 0.000000 
#    z 0.023330 0.000000 1.925280 
# 
# From -- ./inp_files/8620.got.cif
#   From: 2010.03.12/outbox.cif.g09.slc.cpg/sg5_5_cif.got.tgz:8620.got - 2010.03.31 09:47:26.
