data_PCOD8050979
_publ_section_title
;
Structure prediction by ZEFSAII (Michael W. Deem and Ramdas Pophale) SiO2 
 PCOD8050979
Probable space group: C 2
;
_chemical_formula_sum "Si O2"
_cell_formula_units_Z 30
_cell_length_a 7.902707
_cell_length_b 15.099607
_cell_length_c 11.425150
_cell_angle_alpha 90.000000
_cell_angle_beta 72.390813
_cell_angle_gamma 90.000000
_cell_volume 1299.454629
_symmetry_space_group_name_H-M "C 2"
_symmetry_group_IT_number 5
_symmetry_cell_setting 'monoclinic'
loop_
_space_group_symop_operation_xyz
x,y,z
-x,y,-z
1/2+x,1/2+y,z
1/2-x,1/2+y,-z
loop_
_atom_site_type_symbol
_atom_site_label
_atom_site_fract_x
_atom_site_fract_y
_atom_site_fract_z
Si Si1 0.000000 0.875000 0.000000
Si Si2 0.226136 0.643703 0.852059
Si Si3 0.794772 0.394700 0.527183
Si Si4 0.771403 0.982007 0.226002
Si Si5 0.387095 0.668174 0.247168
Si Si6 0.356098 0.022994 0.317981
Si Si7 0.365576 0.219907 0.892653
Si Si8 0.185785 0.697069 0.516788
O O1 0.855100 0.926759 0.104447
O O2 0.131322 0.816259 0.051504
O O3 0.408218 0.698738 0.793569
O O4 0.233172 0.544405 0.791474
O O5 0.067598 0.694543 0.815202
O O6 0.194444 0.644763 0.999128
O O7 0.688204 0.439270 0.655802
O O8 0.752511 0.443800 0.410269
O O9 0.760674 0.290548 0.546147
O O10 0.000000 0.416503 0.500000
O O11 0.878782 0.072228 0.192011
O O12 0.561418 0.998741 0.253292
O O13 0.262785 0.729996 0.192066
O O14 0.322641 0.663099 0.392219
O O15 0.334637 0.117020 0.388963
O O16 0.000000 0.721401 0.500000
#
# Coordination Sequence:
#
# PCOD8050979 Si02
#       8
#     2   4   4   4   4   4   4   4
#     4  10  26  40  76 102 140 200 236 302 374 414
#     4  10  23  39  75  97 137 188 235 294 352 421
#     4  10  25  42  69 106 145 184 238 303 365 433
#     4  11  23  43  71 100 146 190 237 300 366 431
#     4  12  24  43  73 102 140 187 249 288 362 438
#     4  11  22  48  69 103 143 185 245 297 365 432
#     4  10  24  47  67 107 141 188 243 296 353 435
#     4  12  24  42  71 102 138 194 230 302 370 427
#
# _framework density 23.086608999999999
#
# number of rings (size 3 to 8) (size 9 to 14) (size 15 to 20)
#    0.000    1.333    4.000    0.800    9.333    3.200 
#    0.000    0.000    2.933    0.000    0.000    0.000 
#    0.000    0.000    0.000    0.000    0.000    0.000 
#
# Total GULP energy -185847.075597 kJ/mol
# GULP energy per Si atom -12389.805040 kJ/mol
# Density = 2.303406 g / cm^3
# Si number density = 23.086609 Si / 1000 Ang^3
#
#
#
# Elastic Constant Matrix: (Units=GPa)
#
#
# Indices 1 2 3 4 5 6 
#
# 1 108.7233 9.6404 40.5664 0.0000 -20.9264 0.0000
# 2 9.6404 117.6007 49.1147 0.0000 -7.0660 0.0000
# 3 40.5664 49.1147 118.9216 0.0000 -26.7973 0.0000
# 4 0.0000 0.0000 0.0000 49.3980 0.0000 1.8806
# 5 -20.9264 -7.0660 -26.7973 0.0000 32.0713 0.0000
# 6 0.0000 0.0000 0.0000 1.8806 0.0000 27.3989
#
#
#
# Elastic Compliance Matrix: (Units=1/GPa)
#
#
# Indices 1 2 3 4 5 6 
#
# 1 0.011203 0.000614 -0.002954 0.000000 0.004977 0.000000
# 2 0.000614 0.010375 -0.004791 0.000000 -0.001317 0.000000
# 3 -0.002954 -0.004791 0.013210 0.000000 0.008055 0.000000
# 4 0.000000 0.000000 0.000000 0.020297 0.000000 -0.001393
# 5 0.004977 -0.001317 0.008055 0.000000 0.040869 0.000000
# 6 0.000000 0.000000 0.000000 -0.001393 0.000000 0.036593
#
#
# Mechanical properties :
#
#
# Convention : Reuss Voigt Hill
#
# Bulk Modulus (GPa) = 48.71539 60.43207 54.57373
# Shear Modulus (GPa) = 32.54135 38.16858 35.35497
#
# Velocity S-wave (km/s) = 3.75845 4.07046 3.91756
# Velocity P-wave (km/s) = 6.32310 6.95159 6.64478
#
# Compressibility (1/GPa) = 0.02052739
#
# Stress axis : x y z
#
# Youngs Moduli (GPa) = 89.25932 96.38735 75.69873
#
# Poissons Ratio (x) = -0.05921 0.22360
# Poissons Ratio (y) = -0.05483 0.36267
# Poissons Ratio (z) = 0.26365 0.46179
#
# Static dielectric constant tensor:
#      x y z
#    x 4.257900 0.000000 0.005810 
#    y 0.000000 4.085710 0.000000 
#    z 0.005810 0.000000 4.376990 
# 
# 
# High freq. dielectric constant tensor:
#      x y z
#    x 1.901990 0.000000 -0.011850 
#    y 0.000000 1.897340 0.000000 
#    z -0.011850 0.000000 1.931340 
# 
# From -- ./inp_files/36370.got.cif
#   From: 2010.03.12/outbox.cif.g09.slc.cpg/sg5_19_cif.got.tgz:36370.got - 2010.03.31 09:47:26.
