data_PCOD8050255
_publ_section_title
;
Structure prediction by ZEFSAII (Michael W. Deem and Ramdas Pophale) SiO2 
 PCOD8050255
Probable space group: C 2
;
_chemical_formula_sum "Si O2"
_cell_formula_units_Z 20
_cell_length_a 13.089445
_cell_length_b 6.891895
_cell_length_c 9.132395
_cell_angle_alpha 90.000000
_cell_angle_beta 97.283913
_cell_angle_gamma 90.000000
_cell_volume 817.194872
_symmetry_space_group_name_H-M "C 2"
_symmetry_group_IT_number 5
_symmetry_cell_setting 'monoclinic'
loop_
_space_group_symop_operation_xyz
x,y,z
-x,y,-z
1/2+x,1/2+y,z
1/2-x,1/2+y,-z
loop_
_atom_site_type_symbol
_atom_site_label
_atom_site_fract_x
_atom_site_fract_y
_atom_site_fract_z
Si Si1 0.818407 0.301300 0.349328
Si Si2 0.854466 0.104515 0.643276
Si Si3 0.595884 0.861508 0.927966
Si Si4 0.963034 0.939139 0.138433
Si Si5 0.749785 0.423575 0.814871
O O1 0.882529 0.200010 0.491822
O O2 0.741101 0.460477 0.400392
O O3 0.899145 0.399346 0.247954
O O4 0.750607 0.136263 0.256743
O O5 0.825921 0.279110 0.745208
O O6 0.950850 0.985592 0.724991
O O7 0.589423 0.629417 0.943221
O O8 0.500000 0.957188 0.000000
O O9 0.702038 0.943194 0.014080
O O10 0.866517 0.831486 0.198890
O O11 0.000000 0.819546 0.000000
#
# Coordination Sequence:
#
# PCOD8050255 Si02
#       5
#     4   4   4   4   4
#     4  11  26  43  73 104 141 192 238 302 357 438
#     4  12  23  48  70 105 149 185 242 298 365 429
#     4  10  21  43  70 101 137 188 237 294 360 412
#     4  10  21  42  73 103 142 195 234 301 358 420
#     4  11  23  45  70 100 144 189 240 291 363 427
#
# _framework density 24.473965
#
# number of rings (size 3 to 8) (size 9 to 14) (size 15 to 20)
#    0.000    1.200    6.000    1.200    2.800    3.200 
#    3.600    0.000    0.000    0.000    0.000    0.000 
#    0.000    0.000    0.000    0.000    0.000    0.000 
#
# Total GULP energy -123916.647983 kJ/mol
# GULP energy per Si atom -12391.664798 kJ/mol
# Density = 2.441826 g / cm^3
# Si number density = 24.473965 Si / 1000 Ang^3
#
#
#
# Elastic Constant Matrix: (Units=GPa)
#
#
# Indices 1 2 3 4 5 6 
#
# 1 141.3945 3.6979 68.5854 0.0000 -7.7414 0.0000
# 2 3.6979 43.6039 11.3473 0.0000 1.1291 0.0000
# 3 68.5854 11.3473 185.9804 0.0000 -6.0084 0.0000
# 4 0.0000 0.0000 0.0000 19.3631 0.0000 13.9768
# 5 -7.7414 1.1291 -6.0084 0.0000 39.1950 0.0000
# 6 0.0000 0.0000 0.0000 13.9768 0.0000 13.4482
#
#
#
# Elastic Compliance Matrix: (Units=1/GPa)
#
#
# Indices 1 2 3 4 5 6 
#
# 1 0.008672 0.000056 -0.003162 0.000000 0.001226 0.000000
# 2 0.000056 0.023335 -0.001473 0.000000 -0.000887 0.000000
# 3 -0.003162 -0.001473 0.006647 0.000000 0.000437 0.000000
# 4 0.000000 0.000000 0.000000 0.206745 0.000000 -0.214872
# 5 0.001226 -0.000887 0.000437 0.000000 0.025848 0.000000
# 6 0.000000 0.000000 0.000000 -0.214872 0.000000 0.297677
#
#
# Mechanical properties :
#
#
# Convention : Reuss Voigt Hill
#
# Bulk Modulus (GPa) = 33.90310 59.80446 46.85378
# Shear Modulus (GPa) = 8.50464 33.55780 21.03122
#
# Velocity S-wave (km/s) = 1.86615 3.70694 2.93461
# Velocity P-wave (km/s) = 4.30420 6.54300 5.53792
#
# Compressibility (1/GPa) = 0.02949582
#
# Stress axis : x y z
#
# Youngs Moduli (GPa) = 115.31711 42.85353 150.44693
#
# Poissons Ratio (x) = -0.00238 0.47567
# Poissons Ratio (y) = -0.00641 0.22160
# Poissons Ratio (z) = 0.36460 0.06312
#
# Static dielectric constant tensor:
#      x y z
#    x 4.767300 0.000000 -0.484850 
#    y 0.000000 4.072280 0.000000 
#    z -0.484850 0.000000 4.599670 
# 
# 
# High freq. dielectric constant tensor:
#      x y z
#    x 1.972970 0.000000 -0.014270 
#    y 0.000000 1.948340 0.000000 
#    z -0.014270 0.000000 1.979880 
# 
# From -- ./inp_files/18369.got.cif
#   From: 2010.03.12/outbox.cif.g09.slc.cpg/sg5_10_cif.got.tgz:18369.got - 2010.03.31 09:47:26.
