data_PCOD8050494
_publ_section_title
;
Structure prediction by ZEFSAII (Michael W. Deem and Ramdas Pophale) SiO2 
 PCOD8050494
Probable space group: C 2
;
_chemical_formula_sum "Si O2"
_cell_formula_units_Z 30
_cell_length_a 9.827942
_cell_length_b 9.673386
_cell_length_c 14.826963
_cell_angle_alpha 90.000000
_cell_angle_beta 118.444110
_cell_angle_gamma 90.000000
_cell_volume 1239.428737
_symmetry_space_group_name_H-M "C 2"
_symmetry_group_IT_number 5
_symmetry_cell_setting 'monoclinic'
loop_
_space_group_symop_operation_xyz
x,y,z
-x,y,-z
1/2+x,1/2+y,z
1/2-x,1/2+y,-z
loop_
_atom_site_type_symbol
_atom_site_label
_atom_site_fract_x
_atom_site_fract_y
_atom_site_fract_z
Si Si1 0.000000 0.802351 0.500000
Si Si2 0.335438 0.373063 0.992117
Si Si3 0.026608 0.160716 0.366091
Si Si4 0.579066 0.924738 0.767022
Si Si5 0.705117 0.100976 0.277559
Si Si6 0.169196 0.573242 0.059101
Si Si7 0.740709 0.314392 0.434854
Si Si8 0.298817 0.071112 0.353460
O O1 0.888707 0.881137 0.537060
O O2 0.887778 0.707814 0.406444
O O3 0.182439 0.405282 0.886579
O O4 0.335308 0.207638 0.009468
O O5 0.500000 0.418532 0.000000
O O6 0.303069 0.463492 0.072599
O O7 0.147321 0.203673 0.481687
O O8 0.114514 0.091140 0.309772
O O9 0.931384 0.291909 0.299400
O O10 0.886111 0.062308 0.358161
O O11 0.404165 0.971005 0.735786
O O12 0.666818 0.043548 0.739315
O O13 0.697366 0.133666 0.168278
O O14 0.658334 0.233426 0.325148
O O15 0.000000 0.501322 0.000000
O O16 0.844264 0.441831 0.432869
#
# Coordination Sequence:
#
# PCOD8050494 Si02
#       8
#     2   4   4   4   4   4   4   4
#     4  10  22  40  62 100 134 184 238 288 340 406
#     4  11  26  46  77 104 142 182 245 301 374 435
#     4  11  26  42  68 102 141 189 241 287 347 421
#     4  12  24  46  70 100 141 186 232 300 355 428
#     4  12  24  45  73 100 144 187 235 291 361 423
#     4  11  24  49  74 107 139 187 234 303 370 437
#     4  11  23  43  70  99 145 192 239 291 347 415
#     4  11  23  42  67  95 138 184 233 287 349 409
#
# _framework density 24.204699000000002
#
# number of rings (size 3 to 8) (size 9 to 14) (size 15 to 20)
#    0.000    0.800    5.333    1.200    3.733    2.667 
#    2.400    0.000    0.000    0.000    0.000    0.000 
#    0.000    0.000    0.000    0.000    0.000    0.000 
#
# Total GULP energy -185889.038792 kJ/mol
# GULP energy per Si atom -12392.602586 kJ/mol
# Density = 2.414961 g / cm^3
# Si number density = 24.204699 Si / 1000 Ang^3
#
#
#
# Elastic Constant Matrix: (Units=GPa)
#
#
# Indices 1 2 3 4 5 6 
#
# 1 152.4130 20.8864 10.2594 0.0000 3.0234 0.0000
# 2 20.8864 36.4211 -2.3382 0.0000 -4.8040 0.0000
# 3 10.2594 -2.3382 64.3178 0.0000 -6.4477 0.0000
# 4 0.0000 0.0000 0.0000 54.0005 0.0000 -46.0510
# 5 3.0234 -4.8040 -6.4477 0.0000 40.0261 0.0000
# 6 0.0000 0.0000 0.0000 -46.0510 0.0000 101.9367
#
#
#
# Elastic Compliance Matrix: (Units=1/GPa)
#
#
# Indices 1 2 3 4 5 6 
#
# 1 0.007295 -0.004451 -0.001458 0.000000 -0.001320 0.000000
# 2 -0.004451 0.030734 0.002267 0.000000 0.004390 0.000000
# 3 -0.001458 0.002267 0.016162 0.000000 0.002986 0.000000
# 4 0.000000 0.000000 0.000000 0.030124 0.000000 0.013609
# 5 -0.001320 0.004390 0.002986 0.000000 0.026091 0.000000
# 6 0.000000 0.000000 0.000000 0.013609 0.000000 0.015958
#
#
# Mechanical properties :
#
#
# Convention : Reuss Voigt Hill
#
# Bulk Modulus (GPa) = 21.31838 34.52968 27.92403
# Shear Modulus (GPa) = 33.49316 54.14895 43.82106
#
# Velocity S-wave (km/s) = 3.72391 4.73496 4.25954
# Velocity P-wave (km/s) = 5.22653 6.64754 5.97940
#
# Compressibility (1/GPa) = 0.04690788
#
# Stress axis : x y z
#
# Youngs Moduli (GPa) = 137.07150 32.53719 61.87316
#
# Poissons Ratio (x) = 0.14484 0.09020
# Poissons Ratio (y) = 0.61017 -0.14030
# Poissons Ratio (z) = 0.19983 -0.07378
#
# Static dielectric constant tensor:
#      x y z
#    x 4.921080 0.000000 -0.116020 
#    y 0.000000 4.215370 0.000000 
#    z -0.116020 0.000000 4.098800 
# 
# 
# High freq. dielectric constant tensor:
#      x y z
#    x 1.988240 0.000000 -0.002860 
#    y 0.000000 1.946420 0.000000 
#    z -0.002860 0.000000 1.941810 
# 
# From -- ./inp_files/50541.got.cif
#   From: 2010.03.12/outbox.cif.g09.slc.cpg/sg5_26_cif.got.tgz:50541.got - 2010.03.31 09:47:26.
