data_PCOD8050621
_publ_section_title
;
Structure prediction by ZEFSAII (Michael W. Deem and Ramdas Pophale) SiO2 
 PCOD8050621
Probable space group: C 2
;
_chemical_formula_sum "Si O2"
_cell_formula_units_Z 26
_cell_length_a 15.635243
_cell_length_b 6.397296
_cell_length_c 22.572922
_cell_angle_alpha 90.000000
_cell_angle_beta 30.505047
_cell_angle_gamma 90.000000
_cell_volume 1146.100429
_symmetry_space_group_name_H-M "C 2"
_symmetry_group_IT_number 5
_symmetry_cell_setting 'monoclinic'
loop_
_space_group_symop_operation_xyz
x,y,z
-x,y,-z
1/2+x,1/2+y,z
1/2-x,1/2+y,-z
loop_
_atom_site_type_symbol
_atom_site_label
_atom_site_fract_x
_atom_site_fract_y
_atom_site_fract_z
Si Si1 0.856333 0.094060 0.247198
Si Si2 0.500000 0.769371 0.500000
Si Si3 0.331621 0.113728 0.528362
Si Si4 0.564622 0.981229 0.089559
Si Si5 0.264415 0.713941 0.734738
Si Si6 0.983597 0.936765 0.350849
Si Si7 0.386375 0.304133 0.844763
O O1 0.736141 0.203316 0.367913
O O2 0.987457 0.253526 0.142936
O O3 0.752558 0.969970 0.257205
O O4 0.950447 0.909153 0.224831
O O5 0.346940 0.639637 0.621440
O O6 0.437480 0.906675 0.480917
O O7 0.444939 0.295281 0.431355
O O8 0.184106 0.051416 0.571128
O O9 0.422746 0.122710 0.143638
O O10 0.631627 0.078609 0.112024
O O11 0.723106 0.951257 0.951667
O O12 0.384679 0.623667 0.713922
O O13 0.073352 0.785083 0.248971
#
# Coordination Sequence:
#
# PCOD8050621 Si02
#       7
#     4   2   4   4   4   4   4
#     4   9  21  41  64  97 122 178 221 271 319 414
#     4  10  22  44  64  98 132 176 230 260 322 434
#     4  10  23  39  66  94 136 168 219 270 343 390
#     4  11  21  41  71  92 127 180 228 273 325 403
#     4  10  24  38  65  93 137 170 221 270 337 397
#     4  11  24  41  63 103 139 169 215 290 339 395
#     4  10  22  41  67  98 127 170 230 272 331 394
#
# _framework density 22.68562
#
# number of rings (size 3 to 8) (size 9 to 14) (size 15 to 20)
#    0.000    1.846    1.538    1.846    8.615    0.615 
#    0.000    0.000    3.385    0.000    0.000    0.000 
#    0.000    0.000    0.000    0.000    0.000    0.000 
#
# Total GULP energy -161060.954084 kJ/mol
# GULP energy per Si atom -12389.304160 kJ/mol
# Density = 2.263399 g / cm^3
# Si number density = 22.685620 Si / 1000 Ang^3
#
#
#
# Elastic Constant Matrix: (Units=GPa)
#
#
# Indices 1 2 3 4 5 6 
#
# 1 103.3569 40.3944 24.3139 -0.0005 -8.3009 0.0054
# 2 40.3944 75.2197 26.5635 -0.0025 7.3605 0.0056
# 3 24.3139 26.5635 114.9133 0.0008 -5.2021 0.0010
# 4 -0.0005 -0.0025 0.0008 42.1268 0.0002 -3.1223
# 5 -8.3009 7.3605 -5.2021 0.0002 26.0998 -0.0015
# 6 0.0054 0.0056 0.0010 -3.1223 -0.0015 41.8495
#
#
#
# Elastic Compliance Matrix: (Units=1/GPa)
#
#
# Indices 1 2 3 4 5 6 
#
# 1 0.013269 -0.007443 -0.000808 0.000000 0.006158 -0.000001
# 2 -0.007443 0.019270 -0.003262 0.000001 -0.008452 -0.000002
# 3 -0.000808 -0.003262 0.009745 0.000000 0.002605 0.000000
# 4 0.000000 0.000001 0.000000 0.023870 -0.000001 0.001781
# 5 0.006158 -0.008452 0.002605 -0.000001 0.043176 0.000002
# 6 -0.000001 -0.000002 0.000000 0.001781 0.000002 0.024028
#
#
# Mechanical properties :
#
#
# Convention : Reuss Voigt Hill
#
# Bulk Modulus (GPa) = 51.92719 52.89261 52.40990
# Shear Modulus (GPa) = 30.71179 35.49642 33.10410
#
# Velocity S-wave (km/s) = 3.68339 3.95993 3.82416
# Velocity P-wave (km/s) = 6.40542 6.65389 6.53084
#
# Compressibility (1/GPa) = 0.01925773
#
# Stress axis : x y z
#
# Youngs Moduli (GPa) = 75.36545 51.89306 102.61347
#
# Poissons Ratio (x) = 0.38622 0.08293
# Poissons Ratio (y) = 0.56092 0.33477
# Poissons Ratio (z) = 0.06091 0.16930
#
# Static dielectric constant tensor:
#      x y z
#    x 3.986490 0.000000 -0.212990 
#    y 0.000000 3.944670 0.000000 
#    z -0.212990 0.000000 4.286320 
# 
# 
# High freq. dielectric constant tensor:
#      x y z
#    x 1.876470 0.000000 -0.025230 
#    y 0.000000 1.877970 0.000000 
#    z -0.025230 0.000000 1.909400 
# 
# From -- ./inp_files/66475.got.cif
#   From: 2010.03.12/outbox.cif.g09.slc.cpg/sg5_34_cif.got.tgz:66475.got - 2010.03.31 09:47:26.
