data_PCOD8050104
_publ_section_title
;
Structure prediction by ZEFSAII (Michael W. Deem and Ramdas Pophale) SiO2 
 PCOD8050104
Probable space group: C 2
;
_chemical_formula_sum "Si O2"
_cell_formula_units_Z 24
_cell_length_a 18.567071
_cell_length_b 5.268831
_cell_length_c 12.230287
_cell_angle_alpha 90.000000
_cell_angle_beta 94.283594
_cell_angle_gamma 90.000000
_cell_volume 1193.107135
_symmetry_space_group_name_H-M "C 2"
_symmetry_group_IT_number 5
_symmetry_cell_setting 'monoclinic'
loop_
_space_group_symop_operation_xyz
x,y,z
-x,y,-z
1/2+x,1/2+y,z
1/2-x,1/2+y,-z
loop_
_atom_site_type_symbol
_atom_site_label
_atom_site_fract_x
_atom_site_fract_y
_atom_site_fract_z
Si Si1 0.564454 0.873650 0.730603
Si Si2 0.334405 0.147747 0.104128
Si Si3 0.070234 0.624233 0.215486
Si Si4 0.020950 0.864271 0.625897
Si Si5 0.310622 0.875753 0.879518
Si Si6 0.076132 0.981699 0.022825
O O1 0.569283 0.601182 0.673142
O O2 0.629553 0.913986 0.825284
O O3 0.486224 0.889361 0.781044
O O4 0.569347 0.108259 0.643596
O O5 0.267249 0.266322 0.163991
O O6 0.394125 0.368222 0.089534
O O7 0.302171 0.056631 0.984220
O O8 0.053470 0.824494 0.311930
O O9 0.153565 0.523274 0.220721
O O10 0.055667 0.744222 0.096157
O O11 0.000000 0.918937 0.500000
O O12 0.364197 0.649268 0.913561
O O13 0.000000 0.131774 0.000000
#
# Coordination Sequence:
#
# PCOD8050104 Si02
#       6
#     4   4   4   4   4   4
#     4  10  22  38  63  95 121 166 206 269 321 378
#     4  11  23  36  55  90 132 177 211 251 305 389
#     4   9  22  35  57  91 119 163 205 258 319 369
#     4  10  21  40  66  99 121 151 217 283 334 369
#     4  11  23  35  56  89 134 180 208 251 304 380
#     4  11  20  35  53  84 126 167 210 250 301 369
#
# _framework density 20.115545000000001
#
# number of rings (size 3 to 8) (size 9 to 14) (size 15 to 20)
#    1.000    0.667    3.333    1.500    7.000    0.000 
#    0.000    0.000    0.000    0.000    8.667    0.000 
#    0.000    0.000    0.000    0.000    0.000    0.000 
#
# Total GULP energy -148668.882857 kJ/mol
# GULP energy per Si atom -12389.073571 kJ/mol
# Density = 2.006976 g / cm^3
# Si number density = 20.115545 Si / 1000 Ang^3
#
#
#
# Elastic Constant Matrix: (Units=GPa)
#
#
# Indices 1 2 3 4 5 6 
#
# 1 138.5745 33.3481 35.3319 0.0000 1.6527 0.0000
# 2 33.3481 95.9578 24.1401 0.0000 -2.7773 0.0000
# 3 35.3319 24.1401 78.9428 0.0000 -6.4002 0.0000
# 4 0.0000 0.0000 0.0000 26.3846 0.0000 6.1037
# 5 1.6527 -2.7773 -6.4002 0.0000 10.8050 0.0000
# 6 0.0000 0.0000 0.0000 6.1037 0.0000 28.4465
#
#
#
# Elastic Compliance Matrix: (Units=1/GPa)
#
#
# Indices 1 2 3 4 5 6 
#
# 1 0.008707 -0.002253 -0.003533 0.000000 -0.004003 0.000000
# 2 -0.002253 0.011881 -0.002468 0.000000 0.001937 0.000000
# 3 -0.003533 -0.002468 0.015752 0.000000 0.009237 0.000000
# 4 0.000000 0.000000 0.000000 0.039880 0.000000 -0.008557
# 5 -0.004003 0.001937 0.009237 0.000000 0.099131 0.000000
# 6 0.000000 0.000000 0.000000 -0.008557 0.000000 0.036990
#
#
# Mechanical properties :
#
#
# Convention : Reuss Voigt Hill
#
# Bulk Modulus (GPa) = 50.42032 55.45726 52.93879
# Shear Modulus (GPa) = 21.23509 27.83755 24.53632
#
# Velocity S-wave (km/s) = 3.25261 3.72409 3.49631
# Velocity P-wave (km/s) = 6.26304 6.79125 6.53249
#
# Compressibility (1/GPa) = 0.01983327
#
# Stress axis : x y z
#
# Youngs Moduli (GPa) = 114.85057 84.16706 63.48451
#
# Poissons Ratio (x) = 0.18964 0.22426
# Poissons Ratio (y) = 0.25877 0.15666
# Poissons Ratio (z) = 0.40571 0.20770
#
# Static dielectric constant tensor:
#      x y z
#    x 3.765420 0.000000 -0.151270 
#    y 0.000000 3.704930 0.000000 
#    z -0.151270 0.000000 3.176080 
# 
# 
# High freq. dielectric constant tensor:
#      x y z
#    x 1.774390 0.000000 -0.006640 
#    y 0.000000 1.798650 0.000000 
#    z -0.006640 0.000000 1.728640 
# 
# From -- ./inp_files/43801.got.cif
#   From: 2010.03.12/outbox.cif.g09.slc.cpg/sg5_22_cif.got.tgz:43801.got - 2010.03.31 09:47:26.
