data_PCOD8050443
_publ_section_title
;
Structure prediction by ZEFSAII (Michael W. Deem and Ramdas Pophale) SiO2 
 PCOD8050443
Probable space group: C 2
;
_chemical_formula_sum "Si O2"
_cell_formula_units_Z 32
_cell_length_a 31.116624
_cell_length_b 7.910837
_cell_length_c 13.439528
_cell_angle_alpha 90.000000
_cell_angle_beta 155.115776
_cell_angle_gamma 90.000000
_cell_volume 1392.067381
_symmetry_space_group_name_H-M "C 2"
_symmetry_group_IT_number 5
_symmetry_cell_setting 'monoclinic'
loop_
_space_group_symop_operation_xyz
x,y,z
-x,y,-z
1/2+x,1/2+y,z
1/2-x,1/2+y,-z
loop_
_atom_site_type_symbol
_atom_site_label
_atom_site_fract_x
_atom_site_fract_y
_atom_site_fract_z
Si Si1 0.711050 0.889070 0.213623
Si Si2 0.568456 0.018013 0.367458
Si Si3 0.760223 0.666134 0.143812
Si Si4 0.337533 0.181325 0.607498
Si Si5 0.120883 0.891379 0.759287
Si Si6 0.628669 0.211594 0.976707
Si Si7 0.972180 0.260659 0.051561
Si Si8 0.143730 0.940010 0.185641
O O1 0.689332 0.771152 0.071372
O O2 0.816249 0.835210 0.485445
O O3 0.630095 0.860068 0.132064
O O4 0.718900 0.083316 0.197102
O O5 0.670693 0.035005 0.647119
O O6 0.571346 0.090432 0.259775
O O7 0.476559 0.108667 0.231472
O O8 0.551419 0.817914 0.305878
O O9 0.835655 0.798085 0.246942
O O10 0.685587 0.563432 0.913349
O O11 0.368068 0.267661 0.775465
O O12 0.243850 0.048544 0.424272
O O13 0.139175 0.757996 0.884732
O O14 0.000000 0.935966 0.500000
O O15 0.642780 0.382578 0.069113
O O16 0.000000 0.324657 0.000000
O O17 0.955916 0.058640 0.013375
#
# Coordination Sequence:
#
# PCOD8050443 Si02
#       8
#     4   4   4   4   4   4   4   4
#     4   9  21  44  66  97 141 185 234 291 365 429
#     4  10  23  41  66  91 143 183 232 295 363 418
#     4  11  24  51  73 109 142 188 238 307 375 442
#     4  10  22  39  60  93 134 185 236 286 349 428
#     4  12  25  48  76 109 142 182 248 305 377 450
#     4  11  22  42  69  96 140 182 231 303 357 434
#     4  10  23  39  62  99 139 188 247 285 346 431
#     4  11  24  39  62  95 140 186 240 292 352 422
#
# _framework density 22.987392
#
# number of rings (size 3 to 8) (size 9 to 14) (size 15 to 20)
#    0.000    1.500    1.250    3.750    8.750    0.000 
#    9.000    0.000    0.000    0.000    0.000    0.000 
#    0.000    0.000    0.000    0.000    0.000    0.000 
#
# Total GULP energy -198264.684665 kJ/mol
# GULP energy per Si atom -12391.542792 kJ/mol
# Density = 2.293507 g / cm^3
# Si number density = 22.987392 Si / 1000 Ang^3
#
#
#
# Elastic Constant Matrix: (Units=GPa)
#
#
# Indices 1 2 3 4 5 6 
#
# 1 106.5411 22.4203 16.0405 0.0000 -1.4808 0.0000
# 2 22.4203 83.3736 37.3894 0.0000 0.9320 0.0000
# 3 16.0405 37.3894 70.2457 0.0000 -2.1849 0.0000
# 4 0.0000 0.0000 0.0000 45.2254 0.0000 -9.9464
# 5 -1.4808 0.9320 -2.1849 0.0000 29.9883 0.0000
# 6 0.0000 0.0000 0.0000 -9.9464 0.0000 19.8535
#
#
#
# Elastic Compliance Matrix: (Units=1/GPa)
#
#
# Indices 1 2 3 4 5 6 
#
# 1 0.010023 -0.002208 -0.001098 0.000000 0.000484 0.000000
# 2 -0.002208 0.016278 -0.008198 0.000000 -0.001212 0.000000
# 3 -0.001098 -0.008198 0.018899 0.000000 0.001578 0.000000
# 4 0.000000 0.000000 0.000000 0.024849 0.000000 0.012449
# 5 0.000484 -0.001212 0.001578 0.000000 0.033523 0.000000
# 6 0.000000 0.000000 0.000000 0.012449 0.000000 0.056606
#
#
# Mechanical properties :
#
#
# Convention : Reuss Voigt Hill
#
# Bulk Modulus (GPa) = 45.06249 45.76230 45.41240
# Shear Modulus (GPa) = 26.23528 31.30078 28.76803
#
# Velocity S-wave (km/s) = 3.38196 3.69406 3.54145
# Velocity P-wave (km/s) = 5.90728 6.17621 6.04324
#
# Compressibility (1/GPa) = 0.02219141
#
# Stress axis : x y z
#
# Youngs Moduli (GPa) = 99.77251 61.43331 52.91303
#
# Poissons Ratio (x) = 0.13565 0.05812
# Poissons Ratio (y) = 0.22031 0.43376
# Poissons Ratio (z) = 0.10958 0.50361
#
# Static dielectric constant tensor:
#      x y z
#    x 4.232670 0.000000 0.043300 
#    y 0.000000 4.312140 0.000000 
#    z 0.043300 0.000000 4.056700 
# 
# 
# High freq. dielectric constant tensor:
#      x y z
#    x 1.916800 0.000000 -0.002860 
#    y 0.000000 1.911730 0.000000 
#    z -0.002860 0.000000 1.888150 
# 
# From -- ./inp_files/48407.got.cif
#   From: 2010.03.12/outbox.cif.g09.slc.cpg/sg5_25_cif.got.tgz:48407.got - 2010.03.31 09:47:26.
