data_PCOD8050024
_publ_section_title
;
Structure prediction by ZEFSAII (Michael W. Deem and Ramdas Pophale) SiO2 
 PCOD8050024
Probable space group: C 2
;
_chemical_formula_sum "Si O2"
_cell_formula_units_Z 24
_cell_length_a 6.701791
_cell_length_b 27.185713
_cell_length_c 5.249905
_cell_angle_alpha 90.000000
_cell_angle_beta 105.651769
_cell_angle_gamma 90.000000
_cell_volume 921.028133
_symmetry_space_group_name_H-M "C 2"
_symmetry_group_IT_number 5
_symmetry_cell_setting 'monoclinic'
loop_
_space_group_symop_operation_xyz
x,y,z
-x,y,-z
1/2+x,1/2+y,z
1/2-x,1/2+y,-z
loop_
_atom_site_type_symbol
_atom_site_label
_atom_site_fract_x
_atom_site_fract_y
_atom_site_fract_z
Si Si1 0.270948 0.361810 0.716412
Si Si2 0.371373 0.718814 0.697712
Si Si3 0.739439 0.616526 0.541666
Si Si4 0.231901 0.821368 0.785168
Si Si5 0.125231 0.463262 0.800250
Si Si6 0.261894 0.569528 0.949789
O O1 0.500754 0.341188 0.750923
O O2 0.155725 0.351699 0.407011
O O3 0.283741 0.419914 0.778185
O O4 0.154176 0.331772 0.905459
O O5 0.500000 0.738882 0.500000
O O6 0.240148 0.673952 0.528394
O O7 0.221879 0.763097 0.729875
O O8 0.500000 0.702317 0.000000
O O9 0.500000 0.602025 0.500000
O O10 0.849492 0.588791 0.344603
O O11 0.842967 0.596648 0.840550
O O12 0.241447 0.510771 0.954708
O O13 0.000000 0.476925 0.500000
O O14 0.000000 0.442576 0.000000
O O15 0.500000 0.585049 0.000000
#
# Coordination Sequence:
#
# PCOD8050024 Si02
#       6
#     4   4   4   4   4   4
#     4  10  23  42  62  88 133 172 227 273 328 402
#     4  11  21  35  64 101 138 175 220 276 335 385
#     4   9  18  36  60  97 127 165 222 270 318 398
#     4  10  22  40  63  91 132 175 225 271 323 399
#     4  12  26  43  66  97 135 176 224 282 344 387
#     4  10  21  39  67  94 127 174 221 268 326 398
#
# _framework density 26.057838
#
# number of rings (size 3 to 8) (size 9 to 14) (size 15 to 20)
#    0.000    1.667    0.000    5.500    2.333    4.000 
#    6.000    0.000   14.667    0.000    0.000    0.000 
#    0.000    0.000    0.000    0.000    0.000    0.000 
#
# Total GULP energy -148669.799022 kJ/mol
# GULP energy per Si atom -12389.149919 kJ/mol
# Density = 2.599853 g / cm^3
# Si number density = 26.057838 Si / 1000 Ang^3
#
#
#
# Elastic Constant Matrix: (Units=GPa)
#
#
# Indices 1 2 3 4 5 6 
#
# 1 41.4019 31.5798 58.6491 0.0000 -15.4718 0.0000
# 2 31.5798 236.8374 100.5859 0.0000 -15.2320 0.0000
# 3 58.6491 100.5859 274.8603 0.0000 -30.5346 0.0000
# 4 0.0000 0.0000 0.0000 56.9486 0.0000 -8.0750
# 5 -15.4718 -15.2320 -30.5346 0.0000 43.2022 0.0000
# 6 0.0000 0.0000 0.0000 -8.0750 0.0000 10.8083
#
#
#
# Elastic Compliance Matrix: (Units=1/GPa)
#
#
# Indices 1 2 3 4 5 6 
#
# 1 0.037810 -0.001743 -0.006505 0.000000 0.008329 0.000000
# 2 -0.001743 0.005090 -0.001477 0.000000 0.000127 0.000000
# 3 -0.006505 -0.001477 0.005697 0.000000 0.001177 0.000000
# 4 0.000000 0.000000 0.000000 0.019640 0.000000 0.014673
# 5 0.008329 0.000127 0.001177 0.000000 0.027006 0.000000
# 6 0.000000 0.000000 0.000000 0.014673 0.000000 0.103484
#
#
# Mechanical properties :
#
#
# Convention : Reuss Voigt Hill
#
# Bulk Modulus (GPa) = 34.30766 103.85879 69.08323
# Shear Modulus (GPa) = 21.94018 46.34416 34.14217
#
# Velocity S-wave (km/s) = 2.90484 4.22182 3.62366
# Velocity P-wave (km/s) = 4.94422 7.98176 6.63904
#
# Compressibility (1/GPa) = 0.02914801
#
# Stress axis : x y z
#
# Youngs Moduli (GPa) = 26.44811 196.46166 175.52368
#
# Poissons Ratio (x) = 0.34251 1.14170
# Poissons Ratio (y) = 0.04611 0.25919
# Poissons Ratio (z) = 0.17203 0.29011
#
# Static dielectric constant tensor:
#      x y z
#    x 4.278220 0.000000 -0.433910 
#    y 0.000000 4.455710 0.000000 
#    z -0.433910 0.000000 5.316010 
# 
# 
# High freq. dielectric constant tensor:
#      x y z
#    x 2.043040 0.000000 -0.011840 
#    y 0.000000 2.036370 0.000000 
#    z -0.011840 0.000000 2.091980 
# 
# From -- ./inp_files/3401.got.cif
#   From: 2010.03.12/outbox.cif.g09.slc.cpg/sg5_2_cif.got.tgz:3401.got - 2010.03.31 09:47:26.
