data_PCOD8050815
_publ_section_title
;
Structure prediction by ZEFSAII (Michael W. Deem and Ramdas Pophale) SiO2 
 PCOD8050815
Probable space group: C 2
;
_chemical_formula_sum "Si O2"
_cell_formula_units_Z 24
_cell_length_a 9.659431
_cell_length_b 9.665837
_cell_length_c 12.895109
_cell_angle_alpha 90.000000
_cell_angle_beta 80.724576
_cell_angle_gamma 90.000000
_cell_volume 1188.229018
_symmetry_space_group_name_H-M "C 2"
_symmetry_group_IT_number 5
_symmetry_cell_setting 'monoclinic'
loop_
_space_group_symop_operation_xyz
x,y,z
-x,y,-z
1/2+x,1/2+y,z
1/2-x,1/2+y,-z
loop_
_atom_site_type_symbol
_atom_site_label
_atom_site_fract_x
_atom_site_fract_y
_atom_site_fract_z
Si Si1 0.290261 0.633150 0.094294
Si Si2 0.908988 0.131023 0.856721
Si Si3 0.075245 0.437141 0.212172
Si Si4 0.644669 0.982132 0.434840
Si Si5 0.742623 0.899250 0.768927
Si Si6 0.661430 0.294845 0.465609
O O1 0.433105 0.585975 0.133570
O O2 0.169321 0.517344 0.116672
O O3 0.240894 0.777994 0.148818
O O4 0.314652 0.652317 0.969571
O O5 0.904224 0.273384 0.794420
O O6 0.852332 0.016102 0.786306
O O7 0.128514 0.496406 0.314302
O O8 0.911630 0.468180 0.211855
O O9 0.500000 0.928131 0.500000
O O10 0.687152 0.131385 0.475225
O O11 0.761339 0.870338 0.449308
O O12 0.778506 0.845613 0.650729
O O13 0.500000 0.332337 0.500000
#
# Coordination Sequence:
#
# PCOD8050815 Si02
#       6
#     4   4   4   4   4   4
#     4  10  22  44  61  90 129 163 206 261 302 363
#     4  10  24  39  65  93 123 164 211 251 311 366
#     4  11  23  40  67  91 126 166 201 257 310 365
#     4  11  24  44  63  93 127 160 206 255 310 367
#     4  11  23  42  64  94 125 162 210 253 308 368
#     4  11  26  40  64  93 126 162 206 258 303 372
#
# _framework density 20.198125000000001
#
# number of rings (size 3 to 8) (size 9 to 14) (size 15 to 20)
#    0.000    1.333    3.333    1.000    4.667    4.000 
#    0.000    0.000    0.000    0.000    0.000    0.000 
#    0.000    0.000    0.000    0.000    0.000    0.000 
#
# Total GULP energy -148868.741798 kJ/mol
# GULP energy per Si atom -12405.728483 kJ/mol
# Density = 2.015215 g / cm^3
# Si number density = 20.198125 Si / 1000 Ang^3
#
#
#
# Elastic Constant Matrix: (Units=GPa)
#
#
# Indices 1 2 3 4 5 6 
#
# 1 101.7257 53.0639 8.7155 0.0000 -9.2458 0.0000
# 2 53.0639 74.7573 -5.6794 0.0000 4.7170 0.0000
# 3 8.7155 -5.6794 42.7128 0.0000 -9.1661 0.0000
# 4 0.0000 0.0000 0.0000 32.4856 0.0000 -1.3935
# 5 -9.2458 4.7170 -9.1661 0.0000 35.4799 0.0000
# 6 0.0000 0.0000 0.0000 -1.3935 0.0000 31.5412
#
#
#
# Elastic Compliance Matrix: (Units=1/GPa)
#
#
# Indices 1 2 3 4 5 6 
#
# 1 0.017466 -0.013043 -0.004181 0.000000 0.005205 0.000000
# 2 -0.013043 0.023321 0.004624 0.000000 -0.005305 0.000000
# 3 -0.004181 0.004624 0.025953 0.000000 0.005001 0.000000
# 4 0.000000 0.000000 0.000000 0.030841 0.000000 0.001363
# 5 0.005205 -0.005305 0.005001 0.000000 0.031539 0.000000
# 6 0.000000 0.000000 0.000000 0.001363 0.000000 0.031765
#
#
# Mechanical properties :
#
#
# Convention : Reuss Voigt Hill
#
# Bulk Modulus (GPa) = 24.07382 36.82173 30.44777
# Shear Modulus (GPa) = 25.00847 30.77440 27.89143
#
# Velocity S-wave (km/s) = 3.52256 3.90760 3.72007
# Velocity P-wave (km/s) = 5.33754 6.21522 5.79303
#
# Compressibility (1/GPa) = 0.04153890
#
# Stress axis : x y z
#
# Youngs Moduli (GPa) = 57.25524 42.87966 38.53069
#
# Poissons Ratio (x) = 0.55930 0.16110
# Poissons Ratio (y) = 0.74681 -0.17817
# Poissons Ratio (z) = 0.23939 -0.19828
#
# Static dielectric constant tensor:
#      x y z
#    x 3.782380 0.000000 -0.160720 
#    y 0.000000 3.598430 0.000000 
#    z -0.160720 0.000000 3.702830 
# 
# 
# High freq. dielectric constant tensor:
#      x y z
#    x 1.793530 0.000000 -0.009230 
#    y 0.000000 1.791080 0.000000 
#    z -0.009230 0.000000 1.797530 
# 
# From -- ./inp_files/49863.got.cif
#   From: 2010.03.12/outbox.cif.g09.slc.cpg/sg5_25_cif.got.tgz:49863.got - 2010.03.31 09:47:26.
