data_PCOD8050829
_publ_section_title
;
Structure prediction by ZEFSAII (Michael W. Deem and Ramdas Pophale) SiO2 
 PCOD8050829
Probable space group: C 2
;
_chemical_formula_sum "Si O2"
_cell_formula_units_Z 28
_cell_length_a 31.704241
_cell_length_b 5.258370
_cell_length_c 8.899035
_cell_angle_alpha 90.000000
_cell_angle_beta 55.035041
_cell_angle_gamma 90.000000
_cell_volume 1215.799037
_symmetry_space_group_name_H-M "C 2"
_symmetry_group_IT_number 5
_symmetry_cell_setting 'monoclinic'
loop_
_space_group_symop_operation_xyz
x,y,z
-x,y,-z
1/2+x,1/2+y,z
1/2-x,1/2+y,-z
loop_
_atom_site_type_symbol
_atom_site_label
_atom_site_fract_x
_atom_site_fract_y
_atom_site_fract_z
Si Si1 0.000000 0.587780 0.000000
Si Si2 0.054109 0.941967 0.117525
Si Si3 0.252121 0.632528 0.894522
Si Si4 0.099857 0.525891 0.378835
Si Si5 0.146246 0.609624 0.965834
Si Si6 0.638167 0.536281 0.455795
Si Si7 0.403750 0.800309 0.181117
Si Si8 0.500000 0.280936 0.500000
O O1 0.019049 0.742093 0.103622
O O2 0.947441 0.461400 0.179776
O O3 0.029504 0.974749 0.330463
O O4 0.114411 0.867333 0.005985
O O5 0.054981 0.202585 0.027395
O O6 0.205985 0.670098 0.870153
O O7 0.302101 0.596534 0.690252
O O8 0.242014 0.386769 0.018685
O O9 0.104525 0.248690 0.441242
O O10 0.040344 0.595476 0.496765
O O11 0.128513 0.749053 0.417523
O O12 0.123378 0.485562 0.164480
O O13 0.140331 0.445321 0.824217
O O14 0.622840 0.579717 0.663046
#
# Coordination Sequence:
#
# PCOD8050829 Si02
#       8
#     2   4   4   4   4   4   4   2
#     4  10  22  44  66  98 140 194 226 286 358 432
#     4  10  23  43  65  98 142 179 235 288 350 425
#     4  12  24  47  76 102 135 188 240 299 360 427
#     4  11  25  45  72 103 142 181 246 286 353 422
#     4  10  24  45  68  98 139 179 238 297 356 413
#     4  12  26  46  72 106 139 188 236 298 353 437
#     4  11  26  42  71 102 149 185 235 299 362 430
#     4  10  24  40  68 102 134 190 228 292 334 426
#
# _framework density 23.03012
#
# number of rings (size 3 to 8) (size 9 to 14) (size 15 to 20)
#    0.000    1.143    2.857    1.286   14.000    0.571 
#    2.571    0.000    0.000    0.000    0.000    0.000 
#    0.000    0.000    0.000    0.000    0.000    0.000 
#
# Total GULP energy -173460.694033 kJ/mol
# GULP energy per Si atom -12390.049574 kJ/mol
# Density = 2.297770 g / cm^3
# Si number density = 23.030120 Si / 1000 Ang^3
#
#
#
# Elastic Constant Matrix: (Units=GPa)
#
#
# Indices 1 2 3 4 5 6 
#
# 1 153.4666 8.0674 33.4025 0.0000 -17.4163 0.0000
# 2 8.0674 60.2232 3.9385 0.0000 4.2042 0.0000
# 3 33.4025 3.9385 79.8271 0.0000 -4.9644 0.0000
# 4 0.0000 0.0000 0.0000 28.7143 0.0000 1.1500
# 5 -17.4163 4.2042 -4.9644 0.0000 33.7450 0.0000
# 6 0.0000 0.0000 0.0000 1.1500 0.0000 -74.4790
#
#
#
# Elastic Compliance Matrix: (Units=1/GPa)
#
#
# Indices 1 2 3 4 5 6 
#
# 1 0.007619 -0.001085 -0.002908 0.000000 0.003640 0.000000
# 2 -0.001085 0.016979 -0.000555 0.000000 -0.002757 0.000000
# 3 -0.002908 -0.000555 0.013809 0.000000 0.000600 0.000000
# 4 0.000000 0.000000 0.000000 0.034804 0.000000 0.000537
# 5 0.003640 -0.002757 0.000600 0.000000 0.031944 0.000000
# 6 0.000000 0.000000 0.000000 0.000537 0.000000 -0.013418
#
#
# Mechanical properties :
#
#
# Convention : Reuss Voigt Hill
#
# Bulk Modulus (GPa) = 34.11747 42.70374 38.41060
# Shear Modulus (GPa) = 45.20664 14.13664 29.67164
#
# Velocity S-wave (km/s) = 4.43531 2.48025 3.59330
# Velocity P-wave (km/s) = 6.40904 5.17542 5.82498
#
# Compressibility (1/GPa) = 0.02931050
#
# Stress axis : x y z
#
# Youngs Moduli (GPa) = 131.24874 58.89651 72.41817
#
# Poissons Ratio (x) = 0.06388 0.21061
# Poissons Ratio (y) = 0.14234 0.04022
# Poissons Ratio (z) = 0.38171 0.03271
#
# Static dielectric constant tensor:
#      x y z
#    x 4.515810 0.000000 0.101170 
#    y 0.000000 4.057510 0.000000 
#    z 0.101170 0.000000 4.254950 
# 
# 
# High freq. dielectric constant tensor:
#      x y z
#    x 1.920430 0.000000 0.002110 
#    y 0.000000 1.902590 0.000000 
#    z 0.002110 0.000000 1.910680 
# 
# From -- ./inp_files/31448.got.cif
#   From: 2010.03.12/outbox.cif.g09.slc.cpg/sg5_16_cif.got.tgz:31448.got - 2010.03.31 09:47:26.
