data_PCOD8050010
_publ_section_title
;
Structure prediction by ZEFSAII (Michael W. Deem and Ramdas Pophale) SiO2 
 PCOD8050010
Probable space group: C 2
;
_chemical_formula_sum "Si O2"
_cell_formula_units_Z 30
_cell_length_a 21.970368
_cell_length_b 15.589633
_cell_length_c 8.594616
_cell_angle_alpha 90.000000
_cell_angle_beta 29.835088
_cell_angle_gamma 90.000000
_cell_volume 1464.527065
_symmetry_space_group_name_H-M "C 2"
_symmetry_group_IT_number 5
_symmetry_cell_setting 'monoclinic'
loop_
_space_group_symop_operation_xyz
x,y,z
-x,y,-z
1/2+x,1/2+y,z
1/2-x,1/2+y,-z
loop_
_atom_site_type_symbol
_atom_site_label
_atom_site_fract_x
_atom_site_fract_y
_atom_site_fract_z
Si Si1 0.278450 0.908720 0.879592
Si Si2 0.002787 0.787268 0.820374
Si Si3 0.859536 0.647054 0.669740
Si Si4 0.500000 0.006831 0.500000
Si Si5 0.812457 0.038919 0.133167
Si Si6 0.729938 0.237575 0.840149
Si Si7 0.360101 0.600440 0.357031
Si Si8 0.075581 0.965234 0.556043
O O1 0.146005 0.928936 0.249615
O O2 0.382495 0.943071 0.769735
O O3 0.299651 0.808303 0.793317
O O4 0.274187 0.958342 0.722760
O O5 0.097377 0.731590 0.512558
O O6 0.044579 0.885471 0.735795
O O7 0.871054 0.787856 0.033672
O O8 0.000000 0.749222 0.000000
O O9 0.731380 0.617293 0.879110
O O10 0.964425 0.571620 0.435418
O O11 0.832921 0.667733 0.909132
O O12 0.786676 0.067974 0.367733
O O13 0.953769 0.018281 0.781908
O O14 0.816225 0.191265 0.523030
O O15 0.338288 0.528497 0.536468
O O16 0.500000 0.611842 0.000000
#
# Coordination Sequence:
#
# PCOD8050010 Si02
#       8
#     4   4   4   2   4   4   4   4
#     4  11  23  40  67  93 127 171 219 272 320 388
#     4  12  23  38  64 102 131 169 215 274 329 385
#     4  11  22  41  65  95 134 168 218 269 320 396
#     4  10  22  42  60  88 128 166 214 260 324 384
#     4  10  21  39  65  95 126 165 212 268 326 383
#     4  12  23  42  66  93 130 171 220 271 321 386
#     4  10  23  43  64  95 132 170 214 270 333 390
#     4  11  22  41  68  96 127 168 221 271 320 389
#
# _framework density 20.484427
#
# number of rings (size 3 to 8) (size 9 to 14) (size 15 to 20)
#    0.000    1.067    4.000    4.000    0.000    1.067 
#    4.800    0.000    2.933    0.000    0.000    0.000 
#    0.000    0.000    0.000    0.000    0.000    0.000 
#
# Total GULP energy -185885.564696 kJ/mol
# GULP energy per Si atom -12392.370980 kJ/mol
# Density = 2.043780 g / cm^3
# Si number density = 20.484427 Si / 1000 Ang^3
#
#
#
# Elastic Constant Matrix: (Units=GPa)
#
#
# Indices 1 2 3 4 5 6 
#
# 1 115.2863 43.9079 33.4602 0.0000 -0.3232 0.0000
# 2 43.9079 120.1189 45.7041 0.0000 -4.4539 0.0000
# 3 33.4602 45.7041 74.1143 0.0000 6.6046 0.0000
# 4 0.0000 0.0000 0.0000 34.2253 0.0000 1.4624
# 5 -0.3232 -4.4539 6.6046 0.0000 30.4015 0.0000
# 6 0.0000 0.0000 0.0000 1.4624 0.0000 35.1252
#
#
#
# Elastic Compliance Matrix: (Units=1/GPa)
#
#
# Indices 1 2 3 4 5 6 
#
# 1 0.010611 -0.002647 -0.003195 0.000000 0.000419 0.000000
# 2 -0.002647 0.011834 -0.006378 0.000000 0.003091 0.000000
# 3 -0.003195 -0.006378 0.019329 0.000000 -0.005167 0.000000
# 4 0.000000 0.000000 0.000000 0.029270 0.000000 -0.001219
# 5 0.000419 0.003091 -0.005167 0.000000 0.034473 0.000000
# 6 0.000000 0.000000 0.000000 -0.001219 0.000000 0.028520
#
#
# Mechanical properties :
#
#
# Convention : Reuss Voigt Hill
#
# Bulk Modulus (GPa) = 57.69485 61.74043 59.71764
# Shear Modulus (GPa) = 30.44019 32.38022 31.41021
#
# Velocity S-wave (km/s) = 3.85907 3.98015 3.92008
# Velocity P-wave (km/s) = 6.93419 7.16433 7.05020
#
# Compressibility (1/GPa) = 0.01733257
#
# Stress axis : x y z
#
# Youngs Moduli (GPa) = 94.24280 84.50076 51.73598
#
# Poissons Ratio (x) = 0.22370 0.16531
# Poissons Ratio (y) = 0.24949 0.32998
# Poissons Ratio (z) = 0.30113 0.53895
#
# Static dielectric constant tensor:
#      x y z
#    x 3.953010 0.000000 -0.020120 
#    y 0.000000 3.791200 0.000000 
#    z -0.020120 0.000000 3.425150 
# 
# 
# High freq. dielectric constant tensor:
#      x y z
#    x 1.809750 0.000000 -0.003370 
#    y 0.000000 1.810690 0.000000 
#    z -0.003370 0.000000 1.768340 
# 
# From -- ./inp_files/20389.got.cif
#   From: 2010.03.12/outbox.cif.g09.slc.cpg/sg5_11_cif.got.tgz:20389.got - 2010.03.31 09:47:26.
