data_PCOD8050398
_publ_section_title
;
Structure prediction by ZEFSAII (Michael W. Deem and Ramdas Pophale) SiO2 
 PCOD8050398
Probable space group: C 2
;
_chemical_formula_sum "Si O2"
_cell_formula_units_Z 24
_cell_length_a 6.880307
_cell_length_b 12.512971
_cell_length_c 14.947454
_cell_angle_alpha 90.000000
_cell_angle_beta 113.723794
_cell_angle_gamma 90.000000
_cell_volume 1178.125994
_symmetry_space_group_name_H-M "C 2"
_symmetry_group_IT_number 5
_symmetry_cell_setting 'monoclinic'
loop_
_space_group_symop_operation_xyz
x,y,z
-x,y,-z
1/2+x,1/2+y,z
1/2-x,1/2+y,-z
loop_
_atom_site_type_symbol
_atom_site_label
_atom_site_fract_x
_atom_site_fract_y
_atom_site_fract_z
Si Si1 0.670922 0.525610 0.598028
Si Si2 0.444117 0.464563 0.087110
Si Si3 0.966174 0.681056 0.336649
Si Si4 0.426208 0.227800 0.842081
Si Si5 0.000000 0.824597 0.500000
Si Si6 0.502389 0.613618 0.255391
Si Si7 0.500000 0.058878 0.000000
O O1 0.500000 0.583541 0.500000
O O2 0.688772 0.400940 0.573120
O O3 0.584337 0.537734 0.682497
O O4 0.908301 0.569794 0.635025
O O5 0.523339 0.343059 0.107779
O O6 0.558429 0.539536 0.180871
O O7 0.192474 0.478113 0.054460
O O8 0.500000 0.509351 0.000000
O O9 0.081749 0.755942 0.431150
O O10 0.723163 0.669015 0.322798
O O11 0.982047 0.729828 0.240938
O O12 0.172342 0.205443 0.797754
O O13 0.540813 0.135520 0.921736
#
# Coordination Sequence:
#
# PCOD8050398 Si02
#       7
#     4   4   4   4   2   4   2
#     4   9  21  40  57  85 126 148 199 257 285 352
#     4  11  22  39  62  89 122 162 199 245 306 349
#     4  11  21  39  63  87 119 163 198 242 307 354
#     4  10  22  40  59  89 126 152 200 255 288 353
#     4  10  22  38  62  90 118 158 200 246 302 352
#     4  10  22  38  61  88 122 157 202 246 293 362
#     4  10  22  42  60  88 126 156 202 254 284 358
#
# _framework density 20.371335999999999
#
# number of rings (size 3 to 8) (size 9 to 14) (size 15 to 20)
#    0.500    1.333    0.833    3.000    0.000    2.667 
#    1.500    5.000    0.000    0.000    0.000    0.000 
#    0.000    0.000    0.000    0.000    0.000    0.000 
#
# Total GULP energy -148754.900060 kJ/mol
# GULP energy per Si atom -12396.241672 kJ/mol
# Density = 2.032497 g / cm^3
# Si number density = 20.371336 Si / 1000 Ang^3
#
#
#
# Elastic Constant Matrix: (Units=GPa)
#
#
# Indices 1 2 3 4 5 6 
#
# 1 93.3823 49.8110 35.0964 0.0000 2.0453 0.0000
# 2 49.8110 104.6349 50.7793 0.0000 -11.1284 0.0000
# 3 35.0964 50.7793 134.5642 0.0000 -21.8135 0.0000
# 4 0.0000 0.0000 0.0000 30.7201 0.0000 4.7230
# 5 2.0453 -11.1284 -21.8135 0.0000 30.9561 0.0000
# 6 0.0000 0.0000 0.0000 4.7230 0.0000 21.8396
#
#
#
# Elastic Compliance Matrix: (Units=1/GPa)
#
#
# Indices 1 2 3 4 5 6 
#
# 1 0.015235 -0.006688 -0.002261 0.000000 -0.005004 0.000000
# 2 -0.006688 0.014677 -0.003237 0.000000 0.003437 0.000000
# 3 -0.002261 -0.003237 0.010249 0.000000 0.006208 0.000000
# 4 0.000000 0.000000 0.000000 0.033672 0.000000 -0.007282
# 5 -0.005004 0.003437 0.006208 0.000000 0.038244 0.000000
# 6 0.000000 0.000000 0.000000 -0.007282 0.000000 0.047363
#
#
# Mechanical properties :
#
#
# Convention : Reuss Voigt Hill
#
# Bulk Modulus (GPa) = 63.33264 67.10608 65.21936
# Shear Modulus (GPa) = 26.44446 29.82948 28.13697
#
# Velocity S-wave (km/s) = 3.60685 3.83075 3.72049
# Velocity P-wave (km/s) = 6.96437 7.25115 7.10920
#
# Compressibility (1/GPa) = 0.01578965
#
# Stress axis : x y z
#
# Youngs Moduli (GPa) = 65.63708 68.13293 97.56996
#
# Poissons Ratio (x) = 0.45564 0.22062
# Poissons Ratio (y) = 0.43895 0.31586
# Poissons Ratio (z) = 0.14842 0.22056
#
# Static dielectric constant tensor:
#      x y z
#    x 3.402470 0.000000 0.023230 
#    y 0.000000 3.449990 0.000000 
#    z 0.023230 0.000000 3.988570 
# 
# 
# High freq. dielectric constant tensor:
#      x y z
#    x 1.777220 0.000000 -0.002480 
#    y 0.000000 1.783030 0.000000 
#    z -0.002480 0.000000 1.823080 
# 
# From -- ./inp_files/48989.got.cif
#   From: 2010.03.12/outbox.cif.g09.slc.cpg/sg5_25_cif.got.tgz:48989.got - 2010.03.31 09:47:26.
