data_PCOD8050276
_publ_section_title
;
Structure prediction by ZEFSAII (Michael W. Deem and Ramdas Pophale) SiO2 
 PCOD8050276
Probable space group: C 2
;
_chemical_formula_sum "Si O2"
_cell_formula_units_Z 20
_cell_length_a 7.936985
_cell_length_b 25.102091
_cell_length_c 8.813727
_cell_angle_alpha 90.000000
_cell_angle_beta 145.950227
_cell_angle_gamma 90.000000
_cell_volume 983.208244
_symmetry_space_group_name_H-M "C 2"
_symmetry_group_IT_number 5
_symmetry_cell_setting 'monoclinic'
loop_
_space_group_symop_operation_xyz
x,y,z
-x,y,-z
1/2+x,1/2+y,z
1/2-x,1/2+y,-z
loop_
_atom_site_type_symbol
_atom_site_label
_atom_site_fract_x
_atom_site_fract_y
_atom_site_fract_z
Si Si1 0.644191 0.930390 0.753125
Si Si2 0.000000 0.531225 0.500000
Si Si3 0.882780 0.250244 0.573681
Si Si4 0.377722 0.179031 0.072168
Si Si5 0.328142 0.851687 0.724316
Si Si6 0.500000 0.601219 0.000000
O O1 0.500000 0.900016 0.500000
O O2 0.551286 0.897416 0.830465
O O3 0.505555 0.991114 0.651338
O O4 0.000000 0.932844 0.000000
O O5 0.700825 0.566905 0.266894
O O6 0.642167 0.202963 0.373331
O O7 0.755522 0.301766 0.562043
O O8 0.000000 0.270503 0.500000
O O9 0.152930 0.227422 0.875062
O O10 0.220922 0.133852 0.055145
O O11 0.500000 0.156728 0.000000
O O12 0.000000 0.878286 0.500000
O O13 0.500000 0.830101 0.000000
#
# Coordination Sequence:
#
# PCOD8050276 Si02
#       6
#     4   2   4   4   4   2
#     4  10  21  43  67  83 127 169 217 260 313 398
#     4  10  22  42  68  92 114 170 230 250 328 384
#     4  10  22  41  60  88 129 176 208 248 314 394
#     4  10  23  40  62  93 131 168 213 262 319 388
#     4  12  25  37  62  99 133 165 216 265 325 377
#     4  12  22  40  70  94 124 172 212 282 320 366
#
# _framework density 20.341571999999999
#
# number of rings (size 3 to 8) (size 9 to 14) (size 15 to 20)
#    0.600    0.800    1.000    4.200    4.200    2.400 
#    0.000    3.000    0.000    0.000    0.000    0.000 
#    0.000    0.000    0.000    0.000    0.000    0.000 
#
# Total GULP energy -123930.368709 kJ/mol
# GULP energy per Si atom -12393.036871 kJ/mol
# Density = 2.029527 g / cm^3
# Si number density = 20.341572 Si / 1000 Ang^3
#
#
#
# Elastic Constant Matrix: (Units=GPa)
#
#
# Indices 1 2 3 4 5 6 
#
# 1 115.2702 71.2143 47.9081 0.0000 12.2725 0.0000
# 2 71.2143 105.5043 32.8911 0.0000 1.2275 0.0000
# 3 47.9081 32.8911 120.9374 0.0000 12.1093 0.0000
# 4 0.0000 0.0000 0.0000 2.1011 0.0000 -3.2416
# 5 12.2725 1.2275 12.1093 0.0000 29.7176 0.0000
# 6 0.0000 0.0000 0.0000 -3.2416 0.0000 1.6677
#
#
#
# Elastic Compliance Matrix: (Units=1/GPa)
#
#
# Indices 1 2 3 4 5 6 
#
# 1 0.017077 -0.010402 -0.003412 0.000000 -0.005232 0.000000
# 2 -0.010402 0.016709 -0.000818 0.000000 0.003939 0.000000
# 3 -0.003412 -0.000818 0.010111 0.000000 -0.002677 0.000000
# 4 0.000000 0.000000 0.000000 -0.238115 0.000000 -0.462828
# 5 -0.005232 0.003939 -0.002677 0.000000 0.036739 0.000000
# 6 0.000000 0.000000 0.000000 -0.462828 0.000000 -0.299986
#
#
# Mechanical properties :
#
#
# Convention : Reuss Voigt Hill
#
# Bulk Modulus (GPa) = 68.34083 71.74876 70.04480
# Shear Modulus (GPa) = -11.81127 19.34384 3.76628
#
# Velocity S-wave (km/s) = -2.41228 3.08709 1.36218
# Velocity P-wave (km/s) = 5.09027 6.93220 6.08137
#
# Compressibility (1/GPa) = 0.01463254
#
# Stress axis : x y z
#
# Youngs Moduli (GPa) = 58.55870 59.84860 98.90394
#
# Poissons Ratio (x) = 0.62256 0.33745
# Poissons Ratio (y) = 0.60914 0.08090
# Poissons Ratio (z) = 0.19979 0.04895
#
# Static dielectric constant tensor:
#      x y z
#    x 4.064340 0.000000 -0.484230 
#    y 0.000000 3.503270 0.000000 
#    z -0.484230 0.000000 4.478790 
# 
# 
# High freq. dielectric constant tensor:
#      x y z
#    x 1.777270 0.000000 0.009070 
#    y 0.000000 1.784160 0.000000 
#    z 0.009070 0.000000 1.821250 
# 
# From -- ./inp_files/2678.got.cif
#   From: 2010.03.12/outbox.cif.g09.slc.cpg/sg5_2_cif.got.tgz:2678.got - 2010.03.31 09:47:26.
