data_PCOD8050122
_publ_section_title
;
Structure prediction by ZEFSAII (Michael W. Deem and Ramdas Pophale) SiO2 
 PCOD8050122
Probable space group: C 2
;
_chemical_formula_sum "Si O2"
_cell_formula_units_Z 30
_cell_length_a 14.545207
_cell_length_b 9.350028
_cell_length_c 11.326894
_cell_angle_alpha 90.000000
_cell_angle_beta 63.136274
_cell_angle_gamma 90.000000
_cell_volume 1374.197964
_symmetry_space_group_name_H-M "C 2"
_symmetry_group_IT_number 5
_symmetry_cell_setting 'monoclinic'
loop_
_space_group_symop_operation_xyz
x,y,z
-x,y,-z
1/2+x,1/2+y,z
1/2-x,1/2+y,-z
loop_
_atom_site_type_symbol
_atom_site_label
_atom_site_fract_x
_atom_site_fract_y
_atom_site_fract_z
Si Si1 0.374168 0.322160 0.325729
Si Si2 0.194485 0.332790 0.798180
Si Si3 0.382349 0.826157 0.899600
Si Si4 0.376172 0.222668 0.577979
Si Si5 0.955528 0.570099 0.145099
Si Si6 0.946947 0.137043 0.286779
Si Si7 0.000000 0.238013 0.500000
Si Si8 0.681838 0.911734 0.299396
O O1 0.334795 0.280885 0.477860
O O2 0.451189 0.195036 0.243096
O O3 0.434617 0.469037 0.273291
O O4 0.273644 0.324526 0.303849
O O5 0.318827 0.327533 0.705332
O O6 0.156928 0.496349 0.804299
O O7 0.139811 0.225024 0.735868
O O8 0.172015 0.286226 0.945921
O O9 0.438839 0.681064 0.823557
O O10 0.301754 0.895195 0.852128
O O11 0.470403 0.944047 0.859209
O O12 0.500000 0.231893 0.500000
O O13 0.329761 0.068734 0.638684
O O14 0.000000 0.639559 0.000000
O O15 0.937521 0.151016 0.435577
O O16 0.926084 0.337703 0.617153
#
# Coordination Sequence:
#
# PCOD8050122 Si02
#       8
#     4   4   4   4   4   4   2   4
#     4  12  26  40  66 103 138 174 221 290 341 398
#     4  10  21  44  73  96 131 184 229 272 336 414
#     4   9  21  46  74  94 128 183 227 271 340 420
#     4  12  26  43  67  96 136 181 229 280 335 403
#     4   9  21  43  71  97 132 177 224 273 340 407
#     4  10  21  40  69 104 133 173 223 280 339 402
#     4  10  22  40  70  94 142 174 232 270 336 416
#     4  11  23  43  66  99 129 184 223 275 344 405
#
# _framework density 21.830915000000001
#
# number of rings (size 3 to 8) (size 9 to 14) (size 15 to 20)
#    0.000    1.600    2.000    2.800    6.533    1.067 
#    9.600    0.000    0.000    0.000    0.000    0.000 
#    0.000    0.000    0.000    0.000    0.000    0.000 
#
# Total GULP energy -185877.218973 kJ/mol
# GULP energy per Si atom -12391.814598 kJ/mol
# Density = 2.178123 g / cm^3
# Si number density = 21.830915 Si / 1000 Ang^3
#
#
#
# Elastic Constant Matrix: (Units=GPa)
#
#
# Indices 1 2 3 4 5 6 
#
# 1 85.8841 12.2537 54.3161 0.0000 11.6519 0.0000
# 2 12.2537 100.8284 55.5160 0.0000 -2.3462 0.0000
# 3 54.3161 55.5160 156.3725 0.0000 9.0278 0.0000
# 4 0.0000 0.0000 0.0000 23.9190 0.0000 3.0351
# 5 11.6519 -2.3462 9.0278 0.0000 39.9747 0.0000
# 6 0.0000 0.0000 0.0000 3.0351 0.0000 15.7565
#
#
#
# Elastic Compliance Matrix: (Units=1/GPa)
#
#
# Indices 1 2 3 4 5 6 
#
# 1 0.015443 0.001121 -0.005579 0.000000 -0.003176 0.000000
# 2 0.001121 0.012529 -0.004925 0.000000 0.001521 0.000000
# 3 -0.005579 -0.004925 0.010136 0.000000 -0.000952 0.000000
# 4 0.000000 0.000000 0.000000 0.042855 0.000000 -0.008255
# 5 -0.003176 0.001521 -0.000952 0.000000 0.026246 0.000000
# 6 0.000000 0.000000 0.000000 -0.008255 0.000000 0.065056
#
#
# Mechanical properties :
#
#
# Convention : Reuss Voigt Hill
#
# Bulk Modulus (GPa) = 51.70117 65.25073 58.47595
# Shear Modulus (GPa) = 25.31930 30.66332 27.99131
#
# Velocity S-wave (km/s) = 3.40927 3.75184 3.58465
# Velocity P-wave (km/s) = 6.26350 6.98015 6.63151
#
# Compressibility (1/GPa) = 0.01934192
#
# Stress axis : x y z
#
# Youngs Moduli (GPa) = 64.75591 79.81603 98.65577
#
# Poissons Ratio (x) = -0.08947 0.55036
# Poissons Ratio (y) = -0.07259 0.48590
# Poissons Ratio (z) = 0.36125 0.39311
#
# Static dielectric constant tensor:
#      x y z
#    x 4.189050 0.000000 0.349070 
#    y 0.000000 3.830420 0.000000 
#    z 0.349070 0.000000 4.392020 
# 
# 
# High freq. dielectric constant tensor:
#      x y z
#    x 1.853010 0.000000 0.010920 
#    y 0.000000 1.849540 0.000000 
#    z 0.010920 0.000000 1.867530 
# 
# From -- ./inp_files/41916.got.cif
#   From: 2010.03.12/outbox.cif.g09.slc.cpg/sg5_21_cif.got.tgz:41916.got - 2010.03.31 09:47:26.
