data_PCOD8050242
_publ_section_title
;
Structure prediction by ZEFSAII (Michael W. Deem and Ramdas Pophale) SiO2 
 PCOD8050242
Probable space group: C 2
;
_chemical_formula_sum "Si O2"
_cell_formula_units_Z 30
_cell_length_a 12.418439
_cell_length_b 14.486265
_cell_length_c 8.266582
_cell_angle_alpha 90.000000
_cell_angle_beta 75.390624
_cell_angle_gamma 90.000000
_cell_volume 1439.049558
_symmetry_space_group_name_H-M "C 2"
_symmetry_group_IT_number 5
_symmetry_cell_setting 'monoclinic'
loop_
_space_group_symop_operation_xyz
x,y,z
-x,y,-z
1/2+x,1/2+y,z
1/2-x,1/2+y,-z
loop_
_atom_site_type_symbol
_atom_site_label
_atom_site_fract_x
_atom_site_fract_y
_atom_site_fract_z
Si Si1 0.431787 0.529000 0.784199
Si Si2 0.666576 0.523552 0.829467
Si Si3 0.000000 0.434402 0.500000
Si Si4 0.826765 0.676354 0.849336
Si Si5 0.028988 0.553268 0.813197
Si Si6 0.250294 0.659126 0.771312
Si Si7 0.610218 0.343891 0.380922
Si Si8 0.263360 0.854586 0.614270
O O1 0.559365 0.556920 0.768546
O O2 0.370202 0.608836 0.703837
O O3 0.435768 0.432490 0.692886
O O4 0.361807 0.514437 0.972611
O O5 0.762103 0.600181 0.765310
O O6 0.712593 0.423231 0.766198
O O7 0.996294 0.492118 0.334589
O O8 0.894186 0.368474 0.545800
O O9 0.828243 0.773233 0.759458
O O10 0.952273 0.644080 0.835373
O O11 0.761858 0.693164 0.040298
O O12 0.156885 0.584415 0.758012
O O13 0.000000 0.504332 0.000000
O O14 0.240958 0.747997 0.662349
O O15 0.500000 0.296232 0.500000
O O16 0.702247 0.377895 0.471286
#
# Coordination Sequence:
#
# PCOD8050242 Si02
#       8
#     4   4   2   4   4   4   4   4
#     4  10  22  42  67  90 122 167 213 256 319 371
#     4  10  21  42  68  90 123 165 210 266 311 378
#     4  12  26  44  66  96 134 176 210 272 322 388
#     4  10  22  40  66  93 124 165 216 266 323 373
#     4  10  22  42  70  94 126 173 222 265 325 375
#     4  10  23  43  64  92 126 168 212 266 315 387
#     4  12  24  38  62  97 126 164 210 262 317 381
#     4  12  25  41  61  97 131 166 211 258 328 379
#
# _framework density 20.847093000000001
#
# number of rings (size 3 to 8) (size 9 to 14) (size 15 to 20)
#    0.000    1.333    2.667    2.400    2.800    2.133 
#    3.600    0.000    0.000    0.000    0.000    0.000 
#    0.000    0.000    0.000    0.000    0.000    0.000 
#
# Total GULP energy -186024.533890 kJ/mol
# GULP energy per Si atom -12401.635593 kJ/mol
# Density = 2.079964 g / cm^3
# Si number density = 20.847093 Si / 1000 Ang^3
#
#
#
# Elastic Constant Matrix: (Units=GPa)
#
#
# Indices 1 2 3 4 5 6 
#
# 1 134.7185 20.8946 26.7526 0.0000 1.4203 0.0000
# 2 20.8946 65.8571 25.9891 0.0000 7.1848 0.0000
# 3 26.7526 25.9891 72.8665 0.0000 10.9411 0.0000
# 4 0.0000 0.0000 0.0000 -28.0831 0.0000 9.5572
# 5 1.4203 7.1848 10.9411 0.0000 33.4171 0.0000
# 6 0.0000 0.0000 0.0000 9.5572 0.0000 27.1040
#
#
#
# Elastic Compliance Matrix: (Units=1/GPa)
#
#
# Indices 1 2 3 4 5 6 
#
# 1 0.008178 -0.001690 -0.002526 0.000000 0.000843 0.000000
# 2 -0.001690 0.018127 -0.005543 0.000000 -0.002011 0.000000
# 3 -0.002526 -0.005543 0.017283 0.000000 -0.004359 0.000000
# 4 0.000000 0.000000 0.000000 -0.031793 0.000000 0.011211
# 5 0.000843 -0.002011 -0.004359 0.000000 0.031749 0.000000
# 6 0.000000 0.000000 0.000000 0.011211 0.000000 0.032942
#
#
# Mechanical properties :
#
#
# Convention : Reuss Voigt Hill
#
# Bulk Modulus (GPa) = 41.54590 46.74609 44.14599
# Shear Modulus (GPa) = 48.06468 19.80800 33.93634
#
# Velocity S-wave (km/s) = 4.80686 3.08581 4.03906
# Velocity P-wave (km/s) = 7.12601 5.93028 6.55546
#
# Compressibility (1/GPa) = 0.02406976
#
# Stress axis : x y z
#
# Youngs Moduli (GPa) = 122.28331 55.16533 57.86055
#
# Poissons Ratio (x) = 0.09320 0.14618
# Poissons Ratio (y) = 0.20660 0.32073
# Poissons Ratio (z) = 0.30893 0.30579
#
# Static dielectric constant tensor:
#      x y z
#    x 4.676210 0.000000 -0.058110 
#    y 0.000000 3.519690 0.000000 
#    z -0.058110 0.000000 3.898990 
# 
# 
# High freq. dielectric constant tensor:
#      x y z
#    x 1.836850 0.000000 0.003800 
#    y 0.000000 1.798180 0.000000 
#    z 0.003800 0.000000 1.819280 
# 
# From -- ./inp_files/20599.got.cif
#   From: 2010.03.12/outbox.cif.g09.slc.cpg/sg5_11_cif.got.tgz:20599.got - 2010.03.31 09:47:26.
