data_PCOD8050406
_publ_section_title
;
Structure prediction by ZEFSAII (Michael W. Deem and Ramdas Pophale) SiO2 
 PCOD8050406
Probable space group: C 2
;
_chemical_formula_sum "Si O2"
_cell_formula_units_Z 26
_cell_length_a 29.736228
_cell_length_b 5.017214
_cell_length_c 22.178060
_cell_angle_alpha 90.000000
_cell_angle_beta 160.360982
_cell_angle_gamma 90.000000
_cell_volume 1112.068549
_symmetry_space_group_name_H-M "C 2"
_symmetry_group_IT_number 5
_symmetry_cell_setting 'monoclinic'
loop_
_space_group_symop_operation_xyz
x,y,z
-x,y,-z
1/2+x,1/2+y,z
1/2-x,1/2+y,-z
loop_
_atom_site_type_symbol
_atom_site_label
_atom_site_fract_x
_atom_site_fract_y
_atom_site_fract_z
Si Si1 0.307577 0.254480 0.542844
Si Si2 0.951437 0.157913 0.562524
Si Si3 0.500000 0.435114 0.500000
Si Si4 0.214898 0.394568 0.925011
Si Si5 0.702314 0.161165 0.605102
Si Si6 0.391970 0.294138 0.036460
Si Si7 0.294500 0.785783 0.846358
O O1 0.256530 0.552728 0.490083
O O2 0.251212 0.166321 0.405757
O O3 0.468037 0.248074 0.752490
O O4 0.826346 0.358424 0.410476
O O5 0.064694 0.295211 0.744864
O O6 0.001796 0.136982 0.557974
O O7 0.923775 0.863849 0.553356
O O8 0.636966 0.257835 0.668255
O O9 0.274624 0.312619 0.936815
O O10 0.213364 0.713108 0.932904
O O11 0.804155 0.272711 0.785142
O O12 0.390330 0.564772 0.996209
O O13 0.357272 0.063289 0.945847
#
# Coordination Sequence:
#
# PCOD8050406 Si02
#       7
#     4   4   2   4   4   4   4
#     4  12  27  51  75  95 129 183 240 299 364 408
#     4  11  22  38  63  97 140 180 218 248 327 415
#     4  10  22  38  64 102 142 202 206 252 328 432
#     4  12  24  37  59  94 136 176 214 266 320 402
#     4  11  25  44  69 100 138 182 222 285 344 409
#     4  12  25  44  68 103 134 179 234 286 339 396
#     4  11  24  41  69 102 146 177 225 273 332 411
#
# _framework density 23.379854999999999
#
# number of rings (size 3 to 8) (size 9 to 14) (size 15 to 20)
#    0.000    0.615    1.538    7.385    4.308    1.231 
#    0.000    4.615    0.000    0.000    0.000    0.000 
#    0.000    0.000    0.000    0.000    0.000    0.000 
#
# Total GULP energy -161133.152919 kJ/mol
# GULP energy per Si atom -12394.857917 kJ/mol
# Density = 2.332664 g / cm^3
# Si number density = 23.379855 Si / 1000 Ang^3
#
#
#
# Elastic Constant Matrix: (Units=GPa)
#
#
# Indices 1 2 3 4 5 6 
#
# 1 98.3733 19.7505 17.2473 -0.0003 -30.1486 0.0000
# 2 19.7505 91.2546 7.4537 0.0054 -5.4461 -0.0047
# 3 17.2473 7.4537 66.0299 0.0014 -14.3090 -0.0020
# 4 -0.0003 0.0054 0.0014 42.3401 -0.0008 -1.8636
# 5 -30.1486 -5.4461 -14.3090 -0.0008 32.3896 -0.0003
# 6 0.0000 -0.0047 -0.0020 -1.8636 -0.0003 33.7812
#
#
#
# Elastic Compliance Matrix: (Units=1/GPa)
#
#
# Indices 1 2 3 4 5 6 
#
# 1 0.014757 -0.002355 -0.000772 0.000001 0.012999 0.000000
# 2 -0.002355 0.011498 -0.000817 -0.000001 -0.000620 0.000001
# 3 -0.000772 -0.000817 0.016868 0.000000 0.006596 0.000001
# 4 0.000001 -0.000001 0.000000 0.023676 0.000001 0.001306
# 5 0.012999 -0.000620 0.006596 0.000001 0.045784 0.000001
# 6 0.000000 0.000001 0.000001 0.001306 0.000001 0.029674
#
#
# Mechanical properties :
#
#
# Convention : Reuss Voigt Hill
#
# Bulk Modulus (GPa) = 28.38076 38.28454 33.33265
# Shear Modulus (GPa) = 30.88510 35.78259 33.33384
#
# Velocity S-wave (km/s) = 3.63852 3.91639 3.78001
# Velocity P-wave (km/s) = 5.46050 6.07136 5.77401
#
# Compressibility (1/GPa) = 0.03523514
#
# Stress axis : x y z
#
# Youngs Moduli (GPa) = 67.76219 86.97295 59.28422
#
# Poissons Ratio (x) = 0.20483 0.04576
# Poissons Ratio (y) = 0.15959 0.04844
# Poissons Ratio (z) = 0.05230 0.07106
#
# Static dielectric constant tensor:
#      x y z
#    x 4.043250 0.000000 -0.257840 
#    y 0.000000 4.373530 -0.000010 
#    z -0.257840 -0.000010 4.220850 
# 
# 
# High freq. dielectric constant tensor:
#      x y z
#    x 1.908350 0.000000 -0.026940 
#    y 0.000000 1.939780 0.000000 
#    z -0.026940 0.000000 1.917410 
# 
# From -- ./inp_files/43776.got.cif
#   From: 2010.03.12/outbox.cif.g09.slc.cpg/sg5_22_cif.got.tgz:43776.got - 2010.03.31 09:47:26.
