data_PCOD8050941
_publ_section_title
;
Structure prediction by ZEFSAII (Michael W. Deem and Ramdas Pophale) SiO2 
 PCOD8050941
Probable space group: C 2
;
_chemical_formula_sum "Si O2"
_cell_formula_units_Z 26
_cell_length_a 6.810487
_cell_length_b 12.613722
_cell_length_c 13.174070
_cell_angle_alpha 90.000000
_cell_angle_beta 111.695066
_cell_angle_gamma 90.000000
_cell_volume 1051.559754
_symmetry_space_group_name_H-M "C 2"
_symmetry_group_IT_number 5
_symmetry_cell_setting 'monoclinic'
loop_
_space_group_symop_operation_xyz
x,y,z
-x,y,-z
1/2+x,1/2+y,z
1/2-x,1/2+y,-z
loop_
_atom_site_type_symbol
_atom_site_label
_atom_site_fract_x
_atom_site_fract_y
_atom_site_fract_z
Si Si1 0.807720 0.554850 0.389350
Si Si2 0.000000 0.129976 0.000000
Si Si3 0.630930 0.773040 0.851411
Si Si4 0.887414 0.956779 0.835052
Si Si5 0.261755 0.426050 0.233046
Si Si6 0.370633 0.632712 0.345571
Si Si7 0.526675 0.254902 0.388295
O O1 0.751465 0.466723 0.295210
O O2 0.604120 0.587481 0.421538
O O3 0.000000 0.517383 0.500000
O O4 0.871687 0.657408 0.336268
O O5 0.143563 0.206243 0.957306
O O6 0.844962 0.054523 0.903950
O O7 0.842209 0.842773 0.877556
O O8 0.448853 0.861589 0.821112
O O9 0.592046 0.692850 0.752869
O O10 0.138453 0.962875 0.855737
O O11 0.221747 0.529086 0.296935
O O12 0.456803 0.355273 0.311580
O O13 0.735249 0.714593 0.594864
O O14 0.500000 0.286635 0.500000
#
# Coordination Sequence:
#
# PCOD8050941 Si02
#       7
#     4   2   4   4   4   4   4
#     4  10  22  46  73 104 148 198 246 304 363 449
#     4  12  26  48  76 112 148 188 254 310 362 452
#     4  12  25  46  75 107 146 192 241 311 371 437
#     4  11  25  49  72 110 148 192 250 307 371 437
#     4  11  23  47  72 102 146 188 246 301 368 443
#     4  11  23  46  70 101 150 195 239 307 370 431
#     4  11  23  43  68 106 142 193 247 299 361 439
#
# _framework density 24.725178
#
# number of rings (size 3 to 8) (size 9 to 14) (size 15 to 20)
#    0.000    0.923    6.154    0.923    2.154    2.462 
#   16.615    1.538    0.000    0.000    0.000    0.000 
#    0.000    0.000    0.000    0.000    0.000    0.000 
#
# Total GULP energy -161097.684726 kJ/mol
# GULP energy per Si atom -12392.129594 kJ/mol
# Density = 2.466890 g / cm^3
# Si number density = 24.725178 Si / 1000 Ang^3
#
#
#
# Elastic Constant Matrix: (Units=GPa)
#
#
# Indices 1 2 3 4 5 6 
#
# 1 85.6657 2.8572 19.2963 0.0000 -5.5319 0.0000
# 2 2.8572 95.7157 16.0980 0.0000 -2.0026 0.0000
# 3 19.2963 16.0980 78.7760 0.0000 -9.6716 0.0000
# 4 0.0000 0.0000 0.0000 32.2768 0.0000 -1.8506
# 5 -5.5319 -2.0026 -9.6716 0.0000 26.6331 0.0000
# 6 0.0000 0.0000 0.0000 -1.8506 0.0000 50.8090
#
#
#
# Elastic Compliance Matrix: (Units=1/GPa)
#
#
# Indices 1 2 3 4 5 6 
#
# 1 0.012417 0.000146 -0.002882 0.000000 0.001544 0.000000
# 2 0.000146 0.010821 -0.002244 0.000000 0.000029 0.000000
# 3 -0.002882 -0.002244 0.014407 0.000000 0.004464 0.000000
# 4 0.000000 0.000000 0.000000 0.031047 0.000000 0.001131
# 5 0.001544 0.000029 0.004464 0.000000 0.039491 0.000000
# 6 0.000000 0.000000 0.000000 0.001131 0.000000 0.019723
#
#
# Mechanical properties :
#
#
# Convention : Reuss Voigt Hill
#
# Bulk Modulus (GPa) = 36.11842 37.40672 36.76257
# Shear Modulus (GPa) = 33.99199 36.73751 35.36475
#
# Velocity S-wave (km/s) = 3.71184 3.85883 3.78605
# Velocity P-wave (km/s) = 5.74543 5.91743 5.83207
#
# Compressibility (1/GPa) = 0.02768670
#
# Stress axis : x y z
#
# Youngs Moduli (GPa) = 80.53307 92.41132 69.41179
#
# Poissons Ratio (x) = -0.01352 0.20005
# Poissons Ratio (y) = -0.01179 0.15573
# Poissons Ratio (z) = 0.23210 0.20733
#
# Static dielectric constant tensor:
#      x y z
#    x 4.554750 0.000000 -0.291940 
#    y 0.000000 4.596800 0.000000 
#    z -0.291940 0.000000 4.094460 
# 
# 
# High freq. dielectric constant tensor:
#      x y z
#    x 1.986640 0.000000 -0.023160 
#    y 0.000000 1.999630 0.000000 
#    z -0.023160 0.000000 1.958450 
# 
# From -- ./inp_files/50363.got.cif
#   From: 2010.03.12/outbox.cif.g09.slc.cpg/sg5_26_cif.got.tgz:50363.got - 2010.03.31 09:47:26.
