data_PCOD8050652
_publ_section_title
;
Structure prediction by ZEFSAII (Michael W. Deem and Ramdas Pophale) SiO2 
 PCOD8050652
Probable space group: C 2
;
_chemical_formula_sum "Si O2"
_cell_formula_units_Z 30
_cell_length_a 9.895816
_cell_length_b 10.267369
_cell_length_c 24.372801
_cell_angle_alpha 90.000000
_cell_angle_beta 33.540840
_cell_angle_gamma 90.000000
_cell_volume 1368.273944
_symmetry_space_group_name_H-M "C 2"
_symmetry_group_IT_number 5
_symmetry_cell_setting 'monoclinic'
loop_
_space_group_symop_operation_xyz
x,y,z
-x,y,-z
1/2+x,1/2+y,z
1/2-x,1/2+y,-z
loop_
_atom_site_type_symbol
_atom_site_label
_atom_site_fract_x
_atom_site_fract_y
_atom_site_fract_z
Si Si1 0.147151 0.786750 0.529421
Si Si2 0.179505 0.161625 0.244272
Si Si3 0.755693 0.358308 0.944634
Si Si4 0.179363 0.566898 0.371349
Si Si5 0.110715 0.580637 0.020151
Si Si6 0.187364 0.447995 0.719663
Si Si7 0.500000 0.840938 0.500000
Si Si8 0.009615 0.429672 0.329072
O O1 0.338453 0.753898 0.513692
O O2 0.267826 0.879683 0.443393
O O3 0.064206 0.650698 0.529665
O O4 0.902513 0.845212 0.638460
O O5 0.389212 0.128682 0.131711
O O6 0.923833 0.146483 0.299169
O O7 0.197769 0.311232 0.255839
O O8 0.194884 0.076084 0.293725
O O9 0.754045 0.459277 0.996489
O O10 0.980306 0.386184 0.828309
O O11 0.500000 0.376384 0.000000
O O12 0.785008 0.207840 0.954523
O O13 0.182122 0.432026 0.403263
O O14 0.156132 0.537379 0.314069
O O15 0.000000 0.531236 0.000000
O O16 0.072386 0.491918 0.700641
#
# Coordination Sequence:
#
# PCOD8050652 Si02
#       8
#     4   4   4   4   4   4   2   4
#     4  11  23  39  64  89 129 170 210 256 310 366
#     4  11  23  43  65  92 131 162 212 267 316 381
#     4  10  23  44  68  96 131 166 211 274 330 389
#     4  11  23  39  62  89 121 169 210 258 310 368
#     4  10  23  42  69  97 127 168 214 270 330 393
#     4  11  23  43  64  93 129 167 211 261 317 376
#     4  10  22  42  56  90 128 164 212 258 300 366
#     4  11  24  39  64  92 126 173 212 259 310 376
#
# _framework density 21.925435
#
# number of rings (size 3 to 8) (size 9 to 14) (size 15 to 20)
#    0.000    1.333    2.667    2.800    1.867    4.800 
#    0.000    2.667    0.000    0.000    0.000    0.000 
#    0.000    0.000    0.000    0.000    0.000    0.000 
#
# Total GULP energy -186012.627940 kJ/mol
# GULP energy per Si atom -12400.841863 kJ/mol
# Density = 2.187553 g / cm^3
# Si number density = 21.925435 Si / 1000 Ang^3
#
#
#
# Elastic Constant Matrix: (Units=GPa)
#
#
# Indices 1 2 3 4 5 6 
#
# 1 132.1153 45.4570 25.8743 -0.0015 19.9759 0.0028
# 2 45.4570 62.6863 1.2376 -0.0027 6.9329 0.0047
# 3 25.8743 1.2376 61.2839 0.0041 9.2677 -0.0110
# 4 -0.0015 -0.0027 0.0041 20.0083 -0.0008 6.3246
# 5 19.9759 6.9329 9.2677 -0.0008 29.6642 0.0001
# 6 0.0028 0.0047 -0.0110 6.3246 0.0001 25.1717
#
#
#
# Elastic Compliance Matrix: (Units=1/GPa)
#
#
# Indices 1 2 3 4 5 6 
#
# 1 0.011849 -0.007977 -0.004111 0.000001 -0.004831 -0.000002
# 2 -0.007977 0.021750 0.003028 0.000002 -0.000657 -0.000002
# 3 -0.004111 0.003028 0.018557 -0.000007 -0.003737 0.000010
# 4 0.000001 0.000002 -0.000007 0.054291 0.000002 -0.013641
# 5 -0.004831 -0.000657 -0.003737 0.000002 0.038285 -0.000002
# 6 -0.000002 -0.000002 0.000010 -0.013641 -0.000002 0.043154
#
#
# Mechanical properties :
#
#
# Convention : Reuss Voigt Hill
#
# Bulk Modulus (GPa) = 29.38050 44.58035 36.98043
# Shear Modulus (GPa) = 23.00407 27.20331 25.10369
#
# Velocity S-wave (km/s) = 3.24264 3.52621 3.38739
# Velocity P-wave (km/s) = 5.23917 6.07912 5.67471
#
# Compressibility (1/GPa) = 0.03403618
#
# Stress axis : x y z
#
# Youngs Moduli (GPa) = 84.39219 45.97694 53.88734
#
# Poissons Ratio (x) = 0.36677 0.22155
# Poissons Ratio (y) = 0.67321 -0.16318
# Poissons Ratio (z) = 0.34696 -0.13923
#
# Static dielectric constant tensor:
#      x y z
#    x 4.592440 0.000040 0.142440 
#    y 0.000040 4.093590 0.000010 
#    z 0.142440 0.000010 3.887520 
# 
# 
# High freq. dielectric constant tensor:
#      x y z
#    x 1.877210 0.000000 0.010960 
#    y 0.000000 1.855690 0.000000 
#    z 0.010960 0.000000 1.859830 
# 
# From -- ./inp_files/67954.got.cif
#   From: 2010.03.12/outbox.cif.g09.slc.cpg/sg5_34_cif.got.tgz:67954.got - 2010.03.31 09:47:26.
