data_PCOD8050213
_publ_section_title
;
Structure prediction by ZEFSAII (Michael W. Deem and Ramdas Pophale) SiO2 
 PCOD8050213
Probable space group: C 2
;
_chemical_formula_sum "Si O2"
_cell_formula_units_Z 26
_cell_length_a 7.886897
_cell_length_b 23.805197
_cell_length_c 8.280001
_cell_angle_alpha 90.000000
_cell_angle_beta 128.821603
_cell_angle_gamma 90.000000
_cell_volume 1211.162634
_symmetry_space_group_name_H-M "C 2"
_symmetry_group_IT_number 5
_symmetry_cell_setting 'monoclinic'
loop_
_space_group_symop_operation_xyz
x,y,z
-x,y,-z
1/2+x,1/2+y,z
1/2-x,1/2+y,-z
loop_
_atom_site_type_symbol
_atom_site_label
_atom_site_fract_x
_atom_site_fract_y
_atom_site_fract_z
Si Si1 0.229137 0.829490 0.561798
Si Si2 0.726419 0.209719 0.062315
Si Si3 0.269736 0.457908 0.440497
Si Si4 0.732028 0.054886 0.669424
Si Si5 0.809126 0.084166 0.069975
Si Si6 0.000000 0.282164 0.000000
Si Si7 0.500000 0.755838 0.500000
Si Si8 0.500000 0.998798 0.000000
O O1 0.215453 0.893527 0.494168
O O2 0.299885 0.793283 0.448207
O O3 0.000000 0.809039 0.500000
O O4 0.413003 0.822445 0.808058
O O5 0.696919 0.144721 0.995558
O O6 0.912269 0.215402 0.308026
O O7 0.801398 0.243817 0.948499
O O8 0.500000 0.232654 0.000000
O O9 0.500000 0.475491 0.500000
O O10 0.226945 0.495013 0.574547
O O11 0.061212 0.461636 0.193044
O O12 0.500000 0.085756 0.500000
O O13 0.936236 0.092414 0.731422
O O14 0.767482 0.048835 0.881127
O O15 0.704931 0.041307 0.132908
#
# Coordination Sequence:
#
# PCOD8050213 Si02
#       8
#     4   4   4   4   4   2   2   2
#     4  10  22  41  63  91 125 161 205 259 310 367
#     4  11  23  42  67  92 123 164 206 258 311 373
#     4  11  23  39  63  90 125 166 206 248 315 366
#     4  11  23  40  60  89 129 164 200 257 305 370
#     4  11  24  39  60  92 124 161 209 249 311 366
#     4  10  21  42  62  92 126 156 209 262 308 360
#     4  10  24  40  66  92 120 160 214 254 314 368
#     4  12  21  38  60  90 124 160 203 254 290 378
#
# _framework density 21.466975000000001
#
# number of rings (size 3 to 8) (size 9 to 14) (size 15 to 20)
#    0.000    1.231    3.846    2.308    1.077    2.462 
#    0.000    3.846    3.385    0.000    0.000    0.000 
#    0.000    0.000    0.000    0.000    0.000    0.000 
#
# Total GULP energy -161110.487047 kJ/mol
# GULP energy per Si atom -12393.114388 kJ/mol
# Density = 2.141812 g / cm^3
# Si number density = 21.466975 Si / 1000 Ang^3
#
#
#
# Elastic Constant Matrix: (Units=GPa)
#
#
# Indices 1 2 3 4 5 6 
#
# 1 126.6088 29.3173 19.6019 0.0000 15.6282 0.0000
# 2 29.3173 72.6153 29.5507 0.0000 -10.2327 0.0000
# 3 19.6019 29.5507 88.0861 0.0000 4.2062 0.0000
# 4 0.0000 0.0000 0.0000 13.7092 0.0000 7.3444
# 5 15.6282 -10.2327 4.2062 0.0000 42.9858 0.0000
# 6 0.0000 0.0000 0.0000 7.3444 0.0000 16.7299
#
#
#
# Elastic Compliance Matrix: (Units=1/GPa)
#
#
# Indices 1 2 3 4 5 6 
#
# 1 0.009507 -0.004270 -0.000472 0.000000 -0.004427 0.000000
# 2 -0.004270 0.018715 -0.005642 0.000000 0.006560 0.000000
# 3 -0.000472 -0.005642 0.013469 0.000000 -0.002489 0.000000
# 4 0.000000 0.000000 0.000000 0.095374 0.000000 -0.041869
# 5 -0.004427 0.006560 -0.002489 0.000000 0.026678 0.000000
# 6 0.000000 0.000000 0.000000 -0.041869 0.000000 0.078154
#
#
# Mechanical properties :
#
#
# Convention : Reuss Voigt Hill
#
# Bulk Modulus (GPa) = 47.79096 49.36113 48.57604
# Shear Modulus (GPa) = 18.54340 28.60766 23.57553
#
# Velocity S-wave (km/s) = 2.94225 3.65449 3.31754
# Velocity P-wave (km/s) = 5.81836 6.39148 6.11164
#
# Compressibility (1/GPa) = 0.02092446
#
# Stress axis : x y z
#
# Youngs Moduli (GPa) = 105.19109 53.43225 74.24474
#
# Poissons Ratio (x) = 0.22815 0.03502
# Poissons Ratio (y) = 0.44916 0.41886
# Poissons Ratio (z) = 0.04962 0.30144
#
# Static dielectric constant tensor:
#      x y z
#    x 4.254060 0.000000 0.177310 
#    y 0.000000 3.518820 0.000000 
#    z 0.177310 0.000000 3.772220 
# 
# 
# High freq. dielectric constant tensor:
#      x y z
#    x 1.859040 0.000000 0.007460 
#    y 0.000000 1.822930 0.000000 
#    z 0.007460 0.000000 1.837630 
# 
# From -- ./inp_files/17105.got.cif
#   From: 2010.03.12/outbox.cif.g09.slc.cpg/sg5_9_cif.got.tgz:17105.got - 2010.03.31 09:47:26.
