data_PCOD8050658
_publ_section_title
;
Structure prediction by ZEFSAII (Michael W. Deem and Ramdas Pophale) SiO2 
 PCOD8050658
Probable space group: C 2
;
_chemical_formula_sum "Si O2"
_cell_formula_units_Z 26
_cell_length_a 15.411537
_cell_length_b 12.592397
_cell_length_c 14.512460
_cell_angle_alpha 90.000000
_cell_angle_beta 151.093762
_cell_angle_gamma 90.000000
_cell_volume 1361.388266
_symmetry_space_group_name_H-M "C 2"
_symmetry_group_IT_number 5
_symmetry_cell_setting 'monoclinic'
loop_
_space_group_symop_operation_xyz
x,y,z
-x,y,-z
1/2+x,1/2+y,z
1/2-x,1/2+y,-z
loop_
_atom_site_type_symbol
_atom_site_label
_atom_site_fract_x
_atom_site_fract_y
_atom_site_fract_z
Si Si1 0.157124 0.981580 0.317075
Si Si2 0.000000 0.969886 0.500000
Si Si3 0.046677 0.611334 0.323360
Si Si4 0.767801 0.949273 0.942377
Si Si5 0.852191 0.606817 0.792885
Si Si6 0.297535 0.827617 0.298558
Si Si7 0.467937 0.351647 0.281917
O O1 0.260358 0.927992 0.328765
O O2 0.141882 0.899367 0.389569
O O3 0.267070 0.084815 0.451433
O O4 0.954727 0.014003 0.097557
O O5 0.831972 0.043379 0.368183
O O6 0.954428 0.894272 0.372469
O O7 0.070624 0.600683 0.237324
O O8 0.897492 0.527872 0.215599
O O9 0.982240 0.725422 0.296913
O O10 0.741263 0.857866 0.842492
O O11 0.787654 0.888524 0.059249
O O12 0.829269 0.730484 0.793896
O O13 0.000000 0.558566 0.000000
O O14 0.500000 0.789526 0.500000
#
# Coordination Sequence:
#
# PCOD8050658 Si02
#       7
#     4   2   4   4   4   4   4
#     4  10  22  42  61  94 129 163 206 274 310 377
#     4  12  24  44  58  94 138 166 210 262 320 400
#     4  12  22  43  66  93 126 177 212 261 327 380
#     4  10  23  42  63  96 131 159 218 270 316 374
#     4  12  23  38  67  93 127 172 221 264 324 370
#     4  12  21  39  69  98 126 168 222 275 317 369
#     4  10  24  42  63  93 135 164 208 269 317 376
#
# _framework density 19.098153
#
# number of rings (size 3 to 8) (size 9 to 14) (size 15 to 20)
#    0.923    0.000    5.385    3.231    0.000    1.231 
#    5.538    0.000    0.000    0.000    0.000    0.000 
#    0.000    0.000    0.000    0.000    0.000    0.000 
#
# Total GULP energy -161184.533926 kJ/mol
# GULP energy per Si atom -12398.810302 kJ/mol
# Density = 1.905468 g / cm^3
# Si number density = 19.098153 Si / 1000 Ang^3
#
#
#
# Elastic Constant Matrix: (Units=GPa)
#
#
# Indices 1 2 3 4 5 6 
#
# 1 81.7795 13.4477 6.6547 0.0000 -17.7659 0.0000
# 2 13.4477 74.1791 14.4894 0.0005 -6.4862 0.0003
# 3 6.6547 14.4894 93.1975 0.0003 -4.8686 0.0002
# 4 0.0000 0.0005 0.0003 16.5820 0.0002 -6.7609
# 5 -17.7659 -6.4862 -4.8686 0.0002 39.4124 0.0000
# 6 0.0000 0.0003 0.0002 -6.7609 0.0000 28.8694
#
#
#
# Elastic Compliance Matrix: (Units=1/GPa)
#
#
# Indices 1 2 3 4 5 6 
#
# 1 0.013853 -0.001922 -0.000383 0.000000 0.005881 0.000000
# 2 -0.001922 0.014334 -0.002026 0.000000 0.001242 0.000000
# 3 -0.000383 -0.002026 0.011118 0.000000 0.000867 0.000000
# 4 0.000000 0.000000 0.000000 0.066673 0.000000 0.015614
# 5 0.005881 0.001242 0.000867 0.000000 0.028335 0.000000
# 6 0.000000 0.000000 0.000000 0.015614 0.000000 0.038295
#
#
# Mechanical properties :
#
#
# Convention : Reuss Voigt Hill
#
# Bulk Modulus (GPa) = 32.63625 35.37109 34.00367
# Shear Modulus (GPa) = 26.11180 31.27705 28.69443
#
# Velocity S-wave (km/s) = 3.70164 4.05124 3.88038
# Velocity P-wave (km/s) = 5.94939 6.35958 6.15790
#
# Compressibility (1/GPa) = 0.03064078
#
# Stress axis : x y z
#
# Youngs Moduli (GPa) = 72.18752 69.76528 89.94759
#
# Poissons Ratio (x) = 0.13411 0.03446
# Poissons Ratio (y) = 0.13877 0.18226
# Poissons Ratio (z) = 0.02765 0.14137
#
# Static dielectric constant tensor:
#      x y z
#    x 3.523410 0.000000 -0.052400 
#    y 0.000000 3.262410 0.000000 
#    z -0.052400 0.000000 3.608600 
# 
# 
# High freq. dielectric constant tensor:
#      x y z
#    x 1.747510 0.000000 -0.004920 
#    y 0.000000 1.726190 0.000000 
#    z -0.004920 0.000000 1.753120 
# 
# From -- ./inp_files/54639.got.cif
#   From: 2010.03.12/outbox.cif.g09.slc.cpg/sg5_28_cif.got.tgz:54639.got - 2010.03.31 09:47:26.
