data_PCOD8050257
_publ_section_title
;
Structure prediction by ZEFSAII (Michael W. Deem and Ramdas Pophale) SiO2 
 PCOD8050257
Probable space group: C 2
;
_chemical_formula_sum "Si O2"
_cell_formula_units_Z 20
_cell_length_a 29.068744
_cell_length_b 7.547676
_cell_length_c 8.885053
_cell_angle_alpha 90.000000
_cell_angle_beta 151.988504
_cell_angle_gamma 90.000000
_cell_volume 915.530197
_symmetry_space_group_name_H-M "C 2"
_symmetry_group_IT_number 5
_symmetry_cell_setting 'monoclinic'
loop_
_space_group_symop_operation_xyz
x,y,z
-x,y,-z
1/2+x,1/2+y,z
1/2-x,1/2+y,-z
loop_
_atom_site_type_symbol
_atom_site_label
_atom_site_fract_x
_atom_site_fract_y
_atom_site_fract_z
Si Si1 0.522620 0.294020 0.897491
Si Si2 0.366977 0.753259 0.234497
Si Si3 0.920813 0.154457 0.061205
Si Si4 0.896479 0.442432 0.766155
Si Si5 0.166797 0.596156 0.717761
O O1 0.583899 0.445521 0.988864
O O2 0.416616 0.248684 0.518160
O O3 0.500000 0.361334 0.000000
O O4 0.590581 0.118682 0.093747
O O5 0.368624 0.687044 0.068664
O O6 0.464746 0.702564 0.605962
O O7 0.357286 0.965888 0.213057
O O8 0.273716 0.676036 0.053325
O O9 0.862285 0.276410 0.770532
O O10 0.827865 0.487699 0.425909
O O11 0.000000 0.384361 0.000000
#
# Coordination Sequence:
#
# PCOD8050257 Si02
#       5
#     4   4   4   4   4
#     4   9  19  37  68  86 116 164 211 241 306 372
#     4  11  23  39  60  92 129 158 206 259 315 363
#     4  11  21  40  63  93 121 161 209 258 309 368
#     4   9  18  40  64  85 120 166 207 247 299 379
#     4  10  21  43  60  91 127 169 206 254 313 376
#
# _framework density 21.845264
#
# number of rings (size 3 to 8) (size 9 to 14) (size 15 to 20)
#    0.000    2.400    4.000    1.800    0.000    0.000 
#   18.000    0.000    0.000    0.000    0.000    0.000 
#    0.000    0.000    0.000    0.000    0.000    0.000 
#
# Total GULP energy -123942.374676 kJ/mol
# GULP energy per Si atom -12394.237468 kJ/mol
# Density = 2.179554 g / cm^3
# Si number density = 21.845264 Si / 1000 Ang^3
#
#
#
# Elastic Constant Matrix: (Units=GPa)
#
#
# Indices 1 2 3 4 5 6 
#
# 1 63.4914 63.2294 10.2612 0.0000 -10.5638 0.0000
# 2 63.2294 136.4577 7.3017 0.0000 -6.1364 0.0000
# 3 10.2612 7.3017 32.2156 0.0000 6.1261 0.0000
# 4 0.0000 0.0000 0.0000 19.9763 0.0000 -5.6310
# 5 -10.5638 -6.1364 6.1261 0.0000 24.7278 0.0000
# 6 0.0000 0.0000 0.0000 -5.6310 0.0000 32.4781
#
#
#
# Elastic Compliance Matrix: (Units=1/GPa)
#
#
# Indices 1 2 3 4 5 6 
#
# 1 0.034345 -0.014762 -0.010166 0.000000 0.013528 0.000000
# 2 -0.014762 0.013898 0.002199 0.000000 -0.003402 0.000000
# 3 -0.010166 0.002199 0.036208 0.000000 -0.012768 0.000000
# 4 0.000000 0.000000 0.000000 0.052631 0.000000 0.009125
# 5 0.013528 -0.003402 -0.012768 0.000000 0.048538 0.000000
# 6 0.000000 0.000000 0.000000 0.009125 0.000000 0.032372
#
#
# Mechanical properties :
#
#
# Convention : Reuss Voigt Hill
#
# Bulk Modulus (GPa) = 25.64553 43.74991 34.69772
# Shear Modulus (GPa) = 18.08658 25.52794 21.80726
#
# Velocity S-wave (km/s) = 2.88052 3.42216 3.16295
# Velocity P-wave (km/s) = 4.77790 5.97374 5.40897
#
# Compressibility (1/GPa) = 0.03899316
#
# Stress axis : x y z
#
# Youngs Moduli (GPa) = 29.11648 71.95438 27.61790
#
# Poissons Ratio (x) = 1.06218 0.28076
# Poissons Ratio (y) = 0.42981 -0.06073
# Poissons Ratio (z) = 0.29600 -0.15822
#
# Static dielectric constant tensor:
#      x y z
#    x 3.615940 0.000000 -0.189500 
#    y 0.000000 3.967690 0.000000 
#    z -0.189500 0.000000 3.826420 
# 
# 
# High freq. dielectric constant tensor:
#      x y z
#    x 1.831790 0.000000 -0.008460 
#    y 0.000000 1.862260 0.000000 
#    z -0.008460 0.000000 1.843760 
# 
# From -- ./inp_files/26592.got.cif
#   From: 2010.03.12/outbox.cif.g09.slc.cpg/sg5_14_cif.got.tgz:26592.got - 2010.03.31 09:47:26.
