data_PCOD8050267
_publ_section_title
;
Structure prediction by ZEFSAII (Michael W. Deem and Ramdas Pophale) SiO2 
 PCOD8050267
Probable space group: C 2
;
_chemical_formula_sum "Si O2"
_cell_formula_units_Z 26
_cell_length_a 15.091670
_cell_length_b 11.415385
_cell_length_c 14.256199
_cell_angle_alpha 90.000000
_cell_angle_beta 30.250643
_cell_angle_gamma 90.000000
_cell_volume 1237.301956
_symmetry_space_group_name_H-M "C 2"
_symmetry_group_IT_number 5
_symmetry_cell_setting 'monoclinic'
loop_
_space_group_symop_operation_xyz
x,y,z
-x,y,-z
1/2+x,1/2+y,z
1/2-x,1/2+y,-z
loop_
_atom_site_type_symbol
_atom_site_label
_atom_site_fract_x
_atom_site_fract_y
_atom_site_fract_z
Si Si1 0.473548 0.641520 0.305744
Si Si2 0.886160 0.232826 0.012587
Si Si3 0.645546 0.027285 0.206202
Si Si4 0.578132 0.171728 0.726218
Si Si5 0.871185 0.302407 0.693810
Si Si6 0.629229 0.397044 0.144539
Si Si7 0.500000 0.222469 0.000000
O O1 0.285864 0.670644 0.521246
O O2 0.619385 0.724064 0.220943
O O3 0.522617 0.507108 0.285389
O O4 0.487234 0.677272 0.183501
O O5 0.739237 0.135275 0.172899
O O6 0.780994 0.349176 0.076059
O O7 0.000000 0.264308 0.000000
O O8 0.503264 0.068762 0.261264
O O9 0.557853 0.936416 0.358802
O O10 0.787912 0.943502 0.026779
O O11 0.509399 0.297093 0.754867
O O12 0.520758 0.144606 0.886380
O O13 0.670243 0.305435 0.844111
O O14 0.000000 0.243138 0.500000
#
# Coordination Sequence:
#
# PCOD8050267 Si02
#       7
#     4   4   4   4   4   4   2
#     4  11  24  43  63 100 142 172 228 280 340 395
#     4  10  22  42  69  95 132 177 225 271 340 403
#     4  10  22  42  64  94 134 171 216 279 341 389
#     4  11  24  41  70  97 133 180 225 280 338 401
#     4  12  24  42  69 102 132 174 232 279 333 410
#     4  10  21  43  65  90 135 179 213 279 340 393
#     4  12  22  42  68  98 134 172 228 272 330 404
#
# _framework density 21.013463000000002
#
# number of rings (size 3 to 8) (size 9 to 14) (size 15 to 20)
#    0.000    1.231    4.615    1.846    3.231    1.231 
#    5.538    3.846    0.000    0.000    0.000    0.000 
#    0.000    0.000    0.000    0.000    0.000    0.000 
#
# Total GULP energy -161154.540104 kJ/mol
# GULP energy per Si atom -12396.503085 kJ/mol
# Density = 2.096564 g / cm^3
# Si number density = 21.013463 Si / 1000 Ang^3
#
#
#
# Elastic Constant Matrix: (Units=GPa)
#
#
# Indices 1 2 3 4 5 6 
#
# 1 131.4466 35.7617 45.4541 0.0001 -12.0772 -0.0001
# 2 35.7617 94.7538 31.9615 0.0001 -15.2632 -0.0001
# 3 45.4541 31.9615 102.3989 0.0004 -10.2126 -0.0004
# 4 0.0001 0.0001 0.0004 29.3478 -0.0002 -2.4316
# 5 -12.0772 -15.2632 -10.2126 -0.0002 30.6673 0.0002
# 6 -0.0001 -0.0001 -0.0004 -2.4316 0.0002 25.2856
#
#
#
# Elastic Compliance Matrix: (Units=1/GPa)
#
#
# Indices 1 2 3 4 5 6 
#
# 1 0.009518 -0.002205 -0.003385 0.000000 0.001524 0.000000
# 2 -0.002205 0.013033 -0.002616 0.000000 0.004747 0.000000
# 3 -0.003385 -0.002616 0.012228 0.000000 0.001437 0.000000
# 4 0.000000 0.000000 0.000000 0.034348 0.000000 0.003303
# 5 0.001524 0.004747 0.001437 0.000000 0.036049 0.000000
# 6 0.000000 0.000000 0.000000 0.003303 0.000000 0.039866
#
#
# Mechanical properties :
#
#
# Convention : Reuss Voigt Hill
#
# Bulk Modulus (GPa) = 54.44300 61.66155 58.05228
# Shear Modulus (GPa) = 29.83733 31.42161 30.62947
#
# Velocity S-wave (km/s) = 3.77226 3.87112 3.82201
# Velocity P-wave (km/s) = 6.70359 7.02768 6.86755
#
# Compressibility (1/GPa) = 0.01836783
#
# Stress axis : x y z
#
# Youngs Moduli (GPa) = 105.06385 76.72911 81.77982
#
# Poissons Ratio (x) = 0.16920 0.27680
# Poissons Ratio (y) = 0.23168 0.21391
# Poissons Ratio (z) = 0.35561 0.20070
#
# Static dielectric constant tensor:
#      x y z
#    x 3.810170 0.000000 0.013490 
#    y 0.000000 3.993430 0.000000 
#    z 0.013490 0.000000 3.720110 
# 
# 
# High freq. dielectric constant tensor:
#      x y z
#    x 1.822400 0.000000 -0.006180 
#    y 0.000000 1.823540 0.000000 
#    z -0.006180 0.000000 1.821950 
# 
# From -- ./inp_files/54551.got.cif
#   From: 2010.03.12/outbox.cif.g09.slc.cpg/sg5_28_cif.got.tgz:54551.got - 2010.03.31 09:47:26.
