data_PCOD8050414
_publ_section_title
;
Structure prediction by ZEFSAII (Michael W. Deem and Ramdas Pophale) SiO2 
 PCOD8050414
Probable space group: C 2
;
_chemical_formula_sum "Si O2"
_cell_formula_units_Z 20
_cell_length_a 8.743113
_cell_length_b 11.129600
_cell_length_c 11.453773
_cell_angle_alpha 90.000000
_cell_angle_beta 56.542403
_cell_angle_gamma 90.000000
_cell_volume 929.851025
_symmetry_space_group_name_H-M "C 2"
_symmetry_group_IT_number 5
_symmetry_cell_setting 'monoclinic'
loop_
_space_group_symop_operation_xyz
x,y,z
-x,y,-z
1/2+x,1/2+y,z
1/2-x,1/2+y,-z
loop_
_atom_site_type_symbol
_atom_site_label
_atom_site_fract_x
_atom_site_fract_y
_atom_site_fract_z
Si Si1 0.073185 0.489010 0.839737
Si Si2 0.774556 0.055707 0.443413
Si Si3 0.794663 0.723613 0.327905
Si Si4 0.095483 0.452682 0.316180
Si Si5 0.064066 0.864936 0.348787
O O1 0.172516 0.616425 0.776351
O O2 0.218436 0.381468 0.756228
O O3 0.898384 0.470210 0.826384
O O4 0.000000 0.483184 0.000000
O O5 0.784150 0.178969 0.512487
O O6 0.714699 0.059538 0.330678
O O7 0.620162 0.965766 0.562104
O O8 0.972377 0.996753 0.375451
O O9 0.661539 0.820575 0.325290
O O10 0.992193 0.781764 0.273822
O O11 0.000000 0.808400 0.500000
#
# Coordination Sequence:
#
# PCOD8050414 Si02
#       5
#     4   4   4   4   4
#     4  11  25  44  59  87 133 166 204 251 300 367
#     4   9  19  37  59  97 124 148 195 265 310 352
#     4  10  22  38  66  91 124 161 203 248 323 357
#     4   9  19  37  61  89 123 158 198 251 303 360
#     4  11  21  38  63  96 120 155 206 260 298 360
#
# _framework density 21.508821999999999
#
# number of rings (size 3 to 8) (size 9 to 14) (size 15 to 20)
#    0.000    2.000    4.000    0.000    5.600    8.000 
#    0.000    3.000    0.000    0.000    0.000    0.000 
#    0.000    0.000    0.000    0.000    0.000    0.000 
#
# Total GULP energy -123898.556500 kJ/mol
# GULP energy per Si atom -12389.855650 kJ/mol
# Density = 2.145987 g / cm^3
# Si number density = 21.508822 Si / 1000 Ang^3
#
#
#
# Elastic Constant Matrix: (Units=GPa)
#
#
# Indices 1 2 3 4 5 6 
#
# 1 95.2161 16.2125 43.6316 0.0000 31.3060 0.0000
# 2 16.2125 61.2923 13.3328 0.0000 12.3258 0.0000
# 3 43.6316 13.3328 105.9116 0.0000 31.0678 0.0000
# 4 0.0000 0.0000 0.0000 12.0300 0.0000 6.9769
# 5 31.3060 12.3258 31.0678 0.0000 35.3262 0.0000
# 6 0.0000 0.0000 0.0000 6.9769 0.0000 36.4837
#
#
#
# Elastic Compliance Matrix: (Units=1/GPa)
#
#
# Indices 1 2 3 4 5 6 
#
# 1 0.015681 -0.001317 -0.003170 0.000000 -0.010648 0.000000
# 2 -0.001317 0.017681 -0.000291 0.000000 -0.004746 0.000000
# 3 -0.003170 -0.000291 0.013383 0.000000 -0.008859 0.000000
# 4 0.000000 0.000000 0.000000 0.093494 0.000000 -0.017879
# 5 -0.010648 -0.004746 -0.008859 0.000000 0.047191 0.000000
# 6 0.000000 0.000000 0.000000 -0.017879 0.000000 0.030829
#
#
# Mechanical properties :
#
#
# Convention : Reuss Voigt Hill
#
# Bulk Modulus (GPa) = 26.88999 45.41932 36.15466
# Shear Modulus (GPa) = 20.81498 29.38418 25.09958
#
# Velocity S-wave (km/s) = 3.11423 3.70015 3.41976
# Velocity P-wave (km/s) = 5.04581 6.27832 5.69550
#
# Compressibility (1/GPa) = 0.03718856
#
# Stress axis : x y z
#
# Youngs Moduli (GPa) = 63.77346 56.55669 74.72066
#
# Poissons Ratio (x) = 0.07446 0.23690
# Poissons Ratio (y) = 0.08397 0.02175
# Poissons Ratio (z) = 0.20219 0.01647
#
# Static dielectric constant tensor:
#      x y z
#    x 4.373470 0.000000 0.515680 
#    y 0.000000 3.766690 0.000000 
#    z 0.515680 0.000000 3.584390 
# 
# 
# High freq. dielectric constant tensor:
#      x y z
#    x 1.871090 0.000000 0.024500 
#    y 0.000000 1.838440 0.000000 
#    z 0.024500 0.000000 1.780060 
# 
# From -- ./inp_files/35015.got.cif
#   From: 2010.03.12/outbox.cif.g09.slc.cpg/sg5_18_cif.got.tgz:35015.got - 2010.03.31 09:47:26.
