data_PCOD8050123
_publ_section_title
;
Structure prediction by ZEFSAII (Michael W. Deem and Ramdas Pophale) SiO2 
 PCOD8050123
Probable space group: C 2
;
_chemical_formula_sum "Si O2"
_cell_formula_units_Z 32
_cell_length_a 25.965842
_cell_length_b 13.179112
_cell_length_c 9.541466
_cell_angle_alpha 90.000000
_cell_angle_beta 151.834222
_cell_angle_gamma 90.000000
_cell_volume 1541.231986
_symmetry_space_group_name_H-M "C 2"
_symmetry_group_IT_number 5
_symmetry_cell_setting 'monoclinic'
loop_
_space_group_symop_operation_xyz
x,y,z
-x,y,-z
1/2+x,1/2+y,z
1/2-x,1/2+y,-z
loop_
_atom_site_type_symbol
_atom_site_label
_atom_site_fract_x
_atom_site_fract_y
_atom_site_fract_z
Si Si1 0.220518 0.326530 0.525570
Si Si2 0.094255 0.515589 0.131069
Si Si3 0.937603 0.944814 0.995546
Si Si4 0.302231 0.155418 0.243448
Si Si5 0.791052 0.302905 0.182351
Si Si6 0.950884 0.473160 0.530327
Si Si7 0.926196 0.836867 0.454877
Si Si8 0.293790 0.635940 0.682347
O O1 0.136854 0.419719 0.322339
O O2 0.340146 0.363158 0.764909
O O3 0.222619 0.281193 0.686142
O O4 0.173798 0.243024 0.306753
O O5 0.191352 0.595598 0.345639
O O6 0.000000 0.566243 0.000000
O O7 0.051611 0.482486 0.877966
O O8 0.894830 0.059080 0.912844
O O9 0.000000 0.933778 0.000000
O O10 0.020976 0.923470 0.322561
O O11 0.349349 0.044849 0.324859
O O12 0.404800 0.234345 0.495632
O O13 0.236786 0.151374 0.230216
O O14 0.217637 0.194527 0.919772
O O15 0.904924 0.358307 0.420796
O O16 0.690817 0.374623 0.887094
O O17 0.000000 0.503306 0.500000
O O18 0.000000 0.807104 0.500000
#
# Coordination Sequence:
#
# PCOD8050123 Si02
#       8
#     4   4   4   4   4   4   4   4
#     4  11  23  43  66  90 134 161 211 263 313 380
#     4  11  23  42  67  92 124 175 210 261 319 367
#     4  11  23  42  63  96 124 166 214 257 313 375
#     4  10  23  41  63  98 125 162 212 263 312 372
#     4  10  24  43  65  95 128 166 209 264 319 367
#     4  12  25  42  68  95 130 165 219 263 313 383
#     4  10  21  40  69  92 126 164 208 256 319 368
#     4  11  25  40  66  95 129 165 212 262 315 379
#
# _framework density 20.762609999999999
#
# number of rings (size 3 to 8) (size 9 to 14) (size 15 to 20)
#    0.750    0.500    3.750    1.875    5.250    2.000 
#    0.000    0.000    0.000    0.000    0.000    0.000 
#    0.000    0.000    0.000    0.000    0.000    0.000 
#
# Total GULP energy -198393.809498 kJ/mol
# GULP energy per Si atom -12399.613094 kJ/mol
# Density = 2.071535 g / cm^3
# Si number density = 20.762610 Si / 1000 Ang^3
#
#
#
# Elastic Constant Matrix: (Units=GPa)
#
#
# Indices 1 2 3 4 5 6 
#
# 1 125.7946 21.9246 32.7919 0.0000 -20.7135 0.0000
# 2 21.9246 62.6349 0.9907 0.0000 -4.9043 0.0000
# 3 32.7919 0.9907 58.4960 0.0000 -13.4088 0.0000
# 4 0.0000 0.0000 0.0000 24.2815 0.0000 -6.4646
# 5 -20.7135 -4.9043 -13.4088 0.0000 29.1658 0.0000
# 6 0.0000 0.0000 0.0000 -6.4646 0.0000 20.6294
#
#
#
# Elastic Compliance Matrix: (Units=1/GPa)
#
#
# Indices 1 2 3 4 5 6 
#
# 1 0.010538 -0.003242 -0.004764 0.000000 0.004749 0.000000
# 2 -0.003242 0.017184 0.001856 0.000000 0.001441 0.000000
# 3 -0.004764 0.001856 0.021272 0.000000 0.006708 0.000000
# 4 0.000000 0.000000 0.000000 0.044932 0.000000 0.014080
# 5 0.004749 0.001441 0.006708 0.000000 0.040986 0.000000
# 6 0.000000 0.000000 0.000000 0.014080 0.000000 0.052887
#
#
# Mechanical properties :
#
#
# Convention : Reuss Voigt Hill
#
# Bulk Modulus (GPa) = 27.25126 39.81555 33.53340
# Shear Modulus (GPa) = 23.54831 27.56325 25.55578
#
# Velocity S-wave (km/s) = 3.37140 3.64750 3.51216
# Velocity P-wave (km/s) = 5.32060 6.07924 5.71253
#
# Compressibility (1/GPa) = 0.03669555
#
# Stress axis : x y z
#
# Youngs Moduli (GPa) = 94.89189 58.19481 47.00974
#
# Poissons Ratio (x) = 0.18864 0.22396
# Poissons Ratio (y) = 0.30760 -0.08727
# Poissons Ratio (z) = 0.45208 -0.10803
#
# Static dielectric constant tensor:
#      x y z
#    x 3.655380 0.000000 -0.043380 
#    y 0.000000 3.596750 0.000000 
#    z -0.043380 0.000000 3.840070 
# 
# 
# High freq. dielectric constant tensor:
#      x y z
#    x 1.821410 0.000000 -0.004750 
#    y 0.000000 1.798050 0.000000 
#    z -0.004750 0.000000 1.810490 
# 
# From -- ./inp_files/31085.got.cif
#   From: 2010.03.12/outbox.cif.g09.slc.cpg/sg5_16_cif.got.tgz:31085.got - 2010.03.31 09:47:26.
