data_PCOD8050118
_publ_section_title
;
Structure prediction by ZEFSAII (Michael W. Deem and Ramdas Pophale) SiO2 
 PCOD8050118
Probable space group: C 2
;
_chemical_formula_sum "Si O2"
_cell_formula_units_Z 20
_cell_length_a 9.064642
_cell_length_b 22.015175
_cell_length_c 7.700720
_cell_angle_alpha 90.000000
_cell_angle_beta 145.119438
_cell_angle_gamma 90.000000
_cell_volume 878.819372
_symmetry_space_group_name_H-M "C 2"
_symmetry_group_IT_number 5
_symmetry_cell_setting 'monoclinic'
loop_
_space_group_symop_operation_xyz
x,y,z
-x,y,-z
1/2+x,1/2+y,z
1/2-x,1/2+y,-z
loop_
_atom_site_type_symbol
_atom_site_label
_atom_site_fract_x
_atom_site_fract_y
_atom_site_fract_z
Si Si1 0.109495 0.608210 0.917372
Si Si2 0.219790 0.308552 0.404888
Si Si3 0.259346 0.984721 0.142643
Si Si4 0.604604 0.667546 0.283934
Si Si5 0.722937 0.361272 0.925849
O O1 0.197915 0.545355 0.922906
O O2 0.872048 0.633862 0.577047
O O3 0.360862 0.653185 0.176070
O O4 0.000000 0.596145 0.000000
O O5 0.183268 0.237421 0.346619
O O6 0.471721 0.326332 0.759780
O O7 0.249265 0.344310 0.250510
O O8 0.970819 0.334090 0.265129
O O9 0.500000 0.969695 0.500000
O O10 0.000000 0.992176 0.000000
O O11 0.213168 0.932709 0.953431
O O12 0.500000 0.643349 0.000000
#
# Coordination Sequence:
#
# PCOD8050118 Si02
#       5
#     4   4   4   4   4
#     4  12  28  46  71 107 143 197 239 301 360 419
#     4  10  21  40  71 103 130 188 227 279 353 420
#     4  12  26  48  70 105 144 187 242 297 356 424
#     4  12  23  45  78 103 144 187 249 286 352 443
#     4  10  21  40  68 104 131 176 239 278 344 421
#
# _framework density 22.757807
#
# number of rings (size 3 to 8) (size 9 to 14) (size 15 to 20)
#    0.000    0.800    2.000    6.600    5.600    0.000 
#    3.600   10.000    0.000    0.000    0.000    0.000 
#    0.000    0.000    0.000    0.000    0.000    0.000 
#
# Total GULP energy -123925.803818 kJ/mol
# GULP energy per Si atom -12392.580382 kJ/mol
# Density = 2.270601 g / cm^3
# Si number density = 22.757807 Si / 1000 Ang^3
#
#
#
# Elastic Constant Matrix: (Units=GPa)
#
#
# Indices 1 2 3 4 5 6 
#
# 1 110.5893 89.6168 68.4010 0.0000 28.8175 0.0000
# 2 89.6168 190.3231 84.9843 0.0000 10.5919 0.0000
# 3 68.4010 84.9843 165.0314 0.0000 55.9769 0.0000
# 4 0.0000 0.0000 0.0000 46.2525 0.0000 0.2681
# 5 28.8175 10.5919 55.9769 0.0000 50.4966 0.0000
# 6 0.0000 0.0000 0.0000 0.2681 0.0000 58.9377
#
#
#
# Elastic Compliance Matrix: (Units=1/GPa)
#
#
# Indices 1 2 3 4 5 6 
#
# 1 0.017603 -0.007461 -0.000925 0.000000 -0.007455 0.000000
# 2 -0.007461 0.010515 -0.004837 0.000000 0.007414 0.000000
# 3 -0.000925 -0.004837 0.013479 0.000000 -0.013399 0.000000
# 4 0.000000 0.000000 0.000000 0.021621 0.000000 -0.000098
# 5 -0.007455 0.007414 -0.013399 0.000000 0.037355 0.000000
# 6 0.000000 0.000000 0.000000 -0.000098 0.000000 0.016968
#
#
# Mechanical properties :
#
#
# Convention : Reuss Voigt Hill
#
# Bulk Modulus (GPa) = 66.00699 105.77200 85.88950
# Shear Modulus (GPa) = 33.54867 46.00013 39.77440
#
# Velocity S-wave (km/s) = 3.84365 4.50075 4.18512
# Velocity P-wave (km/s) = 6.98321 8.57830 7.82152
#
# Compressibility (1/GPa) = 0.01514991
#
# Stress axis : x y z
#
# Youngs Moduli (GPa) = 56.80726 95.10663 74.19135
#
# Poissons Ratio (x) = 0.70956 0.06866
# Poissons Ratio (y) = 0.42382 0.35887
# Poissons Ratio (z) = 0.05257 0.46004
#
# Static dielectric constant tensor:
#      x y z
#    x 3.466350 0.000000 -0.099560 
#    y 0.000000 4.111480 0.000000 
#    z -0.099560 0.000000 4.314130 
# 
# 
# High freq. dielectric constant tensor:
#      x y z
#    x 1.891410 0.000000 0.034830 
#    y 0.000000 1.904160 0.000000 
#    z 0.034830 0.000000 1.923200 
# 
# From -- ./inp_files/16925.got.cif
#   From: 2010.03.12/outbox.cif.g09.slc.cpg/sg5_9_cif.got.tgz:16925.got - 2010.03.31 09:47:26.
