data_PCOD8050081
_publ_section_title
;
Structure prediction by ZEFSAII (Michael W. Deem and Ramdas Pophale) SiO2 
 PCOD8050081
Probable space group: C 2
;
_chemical_formula_sum "Si O2"
_cell_formula_units_Z 20
_cell_length_a 5.002352
_cell_length_b 23.432067
_cell_length_c 9.563534
_cell_angle_alpha 90.000000
_cell_angle_beta 56.650025
_cell_angle_gamma 90.000000
_cell_volume 936.397796
_symmetry_space_group_name_H-M "C 2"
_symmetry_group_IT_number 5
_symmetry_cell_setting 'monoclinic'
loop_
_space_group_symop_operation_xyz
x,y,z
-x,y,-z
1/2+x,1/2+y,z
1/2-x,1/2+y,-z
loop_
_atom_site_type_symbol
_atom_site_label
_atom_site_fract_x
_atom_site_fract_y
_atom_site_fract_z
Si Si1 0.125572 0.460340 0.611396
Si Si2 0.379873 0.088865 0.386804
Si Si3 0.873425 0.683368 0.882837
Si Si4 0.917455 0.356761 0.185650
Si Si5 0.289964 0.295243 0.310491
O O1 0.500000 0.464218 0.500000
O O2 0.992652 0.524146 0.674335
O O3 0.018492 0.419121 0.767592
O O4 0.000000 0.435032 0.500000
O O5 0.500000 0.112580 0.500000
O O6 0.546197 0.124991 0.218615
O O7 0.000000 0.094119 0.500000
O O8 0.039391 0.734728 0.752809
O O9 0.500000 0.695954 0.000000
O O10 0.000000 0.676035 0.000000
O O11 0.544760 0.339227 0.305451
O O12 0.155884 0.313738 0.197291
O O13 0.000000 0.356996 0.000000
O O14 0.000000 0.289515 0.500000
#
# Coordination Sequence:
#
# PCOD8050081 Si02
#       5
#     4   4   4   4   4
#     4  10  21  40  64  90 123 163 206 248 296 362
#     4  10  22  42  66  91 122 163 209 250 297 363
#     4  12  25  42  64  92 127 159 201 258 312 360
#     4  12  24  40  63  94 128 159 201 255 309 359
#     4  12  25  42  64  89 123 166 208 247 301 370
#
# _framework density 21.358443999999999
#
# number of rings (size 3 to 8) (size 9 to 14) (size 15 to 20)
#    0.000    0.800    0.000    9.000    0.000    2.400 
#    0.000    2.000    0.000    0.000    0.000    0.000 
#    0.000    0.000    0.000    0.000    0.000    0.000 
#
# Total GULP energy -124050.589044 kJ/mol
# GULP energy per Si atom -12405.058904 kJ/mol
# Density = 2.130983 g / cm^3
# Si number density = 21.358444 Si / 1000 Ang^3
#
#
#
# Elastic Constant Matrix: (Units=GPa)
#
#
# Indices 1 2 3 4 5 6 
#
# 1 156.9852 41.9110 51.4365 0.0000 10.8777 0.0000
# 2 41.9110 121.4382 69.6443 0.0000 4.6728 0.0000
# 3 51.4365 69.6443 118.9157 0.0000 4.0416 0.0000
# 4 0.0000 0.0000 0.0000 38.2573 0.0000 4.8716
# 5 10.8777 4.6728 4.0416 0.0000 43.5023 0.0000
# 6 0.0000 0.0000 0.0000 4.8716 0.0000 35.7881
#
#
#
# Elastic Compliance Matrix: (Units=1/GPa)
#
#
# Indices 1 2 3 4 5 6 
#
# 1 0.007620 -0.001069 -0.002617 0.000000 -0.001547 0.000000
# 2 -0.001069 0.012568 -0.006883 0.000000 -0.000443 0.000000
# 3 -0.002617 -0.006883 0.013568 0.000000 0.000133 0.000000
# 4 0.000000 0.000000 0.000000 0.026600 0.000000 -0.003621
# 5 -0.001547 -0.000443 0.000133 0.000000 0.023409 0.000000
# 6 0.000000 0.000000 0.000000 -0.003621 0.000000 0.028435
#
#
# Mechanical properties :
#
#
# Convention : Reuss Voigt Hill
#
# Bulk Modulus (GPa) = 79.25768 80.36918 79.81343
# Shear Modulus (GPa) = 36.35147 39.13268 37.74208
#
# Velocity S-wave (km/s) = 4.12997 4.28505 4.20823
# Velocity P-wave (km/s) = 7.74152 7.88623 7.81421
#
# Compressibility (1/GPa) = 0.01261707
#
# Stress axis : x y z
#
# Youngs Moduli (GPa) = 131.22851 79.56602 73.70289
#
# Poissons Ratio (x) = 0.08509 0.19290
# Poissons Ratio (y) = 0.14034 0.50730
# Poissons Ratio (z) = 0.34345 0.54766
#
# Static dielectric constant tensor:
#      x y z
#    x 4.286150 0.000000 0.071910 
#    y 0.000000 4.214330 0.000000 
#    z 0.071910 0.000000 3.637470 
# 
# 
# High freq. dielectric constant tensor:
#      x y z
#    x 1.865840 0.000000 0.007260 
#    y 0.000000 1.848030 0.000000 
#    z 0.007260 0.000000 1.830640 
# 
# From -- ./inp_files/12747.got.cif
#   From: 2010.03.12/outbox.cif.g09.slc.cpg/sg5_7_cif.got.tgz:12747.got - 2010.03.31 09:47:26.
