data_PCOD8050232
_publ_section_title
;
Structure prediction by ZEFSAII (Michael W. Deem and Ramdas Pophale) SiO2 
 PCOD8050232
Probable space group: C 2
;
_chemical_formula_sum "Si O2"
_cell_formula_units_Z 32
_cell_length_a 12.163184
_cell_length_b 15.998490
_cell_length_c 14.059760
_cell_angle_alpha 90.000000
_cell_angle_beta 147.777267
_cell_angle_gamma 90.000000
_cell_volume 1458.827939
_symmetry_space_group_name_H-M "C 2"
_symmetry_group_IT_number 5
_symmetry_cell_setting 'monoclinic'
loop_
_space_group_symop_operation_xyz
x,y,z
-x,y,-z
1/2+x,1/2+y,z
1/2-x,1/2+y,-z
loop_
_atom_site_type_symbol
_atom_site_label
_atom_site_fract_x
_atom_site_fract_y
_atom_site_fract_z
Si Si1 0.170543 0.011050 0.056091
Si Si2 0.882130 0.549948 0.589003
Si Si3 0.852011 0.714867 0.672165
Si Si4 0.505341 0.608494 0.774246
Si Si5 0.229964 0.942306 0.643048
Si Si6 0.925651 0.287772 0.692097
Si Si7 0.617476 0.324081 0.994503
Si Si8 0.784197 0.603649 0.796519
O O1 0.179330 0.067485 0.967710
O O2 0.079979 0.922629 0.955319
O O3 0.396815 0.006585 0.271568
O O4 0.000000 0.052141 0.000000
O O5 0.943077 0.640759 0.674358
O O6 0.717974 0.560990 0.382840
O O7 0.747107 0.492013 0.558125
O O8 0.714027 0.775152 0.504494
O O9 0.733400 0.667899 0.672691
O O10 0.038287 0.773464 0.844781
O O11 0.454413 0.701985 0.771292
O O12 0.595277 0.612023 0.732420
O O13 0.352693 0.855636 0.717404
O O14 0.000000 0.915656 0.500000
O O15 0.310602 0.006467 0.783115
O O16 0.143681 0.314156 0.810105
O O17 0.500000 0.288479 0.000000
O O18 0.000000 0.631477 0.000000
#
# Coordination Sequence:
#
# PCOD8050232 Si02
#       8
#     4   4   4   4   4   4   4   4
#     4  11  25  43  65  91 131 177 226 278 335 416
#     4  10  21  42  66  92 129 173 223 275 330 413
#     4  10  23  40  66 101 136 168 221 280 346 404
#     4  11  23  42  70  93 130 184 224 280 344 407
#     4  11  22  42  65 101 139 172 226 282 345 410
#     4  11  24  42  65  96 142 171 216 287 342 406
#     4  11  23  38  62  96 130 169 217 274 341 405
#     4  11  22  40  73 104 133 180 234 291 343 412
#
# _framework density 21.935417000000001
#
# number of rings (size 3 to 8) (size 9 to 14) (size 15 to 20)
#    0.000    1.250    2.500    4.125    1.750    3.000 
#    4.500    3.125    0.000    0.000    0.000    0.000 
#    0.000    0.000    0.000    0.000    0.000    0.000 
#
# Total GULP energy -198246.321600 kJ/mol
# GULP energy per Si atom -12390.395100 kJ/mol
# Density = 2.188549 g / cm^3
# Si number density = 21.935417 Si / 1000 Ang^3
#
#
#
# Elastic Constant Matrix: (Units=GPa)
#
#
# Indices 1 2 3 4 5 6 
#
# 1 63.5403 24.7624 28.7757 0.0130 19.8896 0.0184
# 2 24.7624 118.3419 27.9643 0.0055 -0.8375 -0.0057
# 3 28.7757 27.9643 104.0716 0.0155 19.2349 0.0016
# 4 0.0130 0.0055 0.0155 34.5187 -0.0003 -2.9138
# 5 19.8896 -0.8375 19.2349 -0.0003 36.8229 -0.0101
# 6 0.0184 -0.0057 0.0016 -2.9138 -0.0101 17.9189
#
#
#
# Elastic Compliance Matrix: (Units=1/GPa)
#
#
# Indices 1 2 3 4 5 6 
#
# 1 0.021892 -0.003922 -0.003096 -0.000009 -0.010297 -0.000031
# 2 -0.003922 0.009815 -0.002198 0.000002 0.003490 0.000010
# 3 -0.003096 -0.002198 0.011905 -0.000004 -0.004596 -0.000002
# 4 -0.000009 0.000002 -0.000004 0.029373 0.000008 0.004776
# 5 -0.010297 0.003490 -0.004596 0.000008 0.035199 0.000033
# 6 -0.000031 0.000010 -0.000002 0.004776 0.000033 0.056584
#
#
# Mechanical properties :
#
#
# Convention : Reuss Voigt Hill
#
# Bulk Modulus (GPa) = 39.71477 49.88428 44.79953
# Shear Modulus (GPa) = 26.09710 31.48219 28.78965
#
# Velocity S-wave (km/s) = 3.45298 3.79254 3.62674
# Velocity P-wave (km/s) = 5.83456 6.47832 6.16485
#
# Compressibility (1/GPa) = 0.02517955
#
# Stress axis : x y z
#
# Youngs Moduli (GPa) = 45.67937 101.88702 83.99886
#
# Poissons Ratio (x) = 0.39960 0.26007
# Poissons Ratio (y) = 0.17915 0.18461
# Poissons Ratio (z) = 0.14143 0.22393
#
# Static dielectric constant tensor:
#      x y z
#    x 3.738540 -0.000020 0.081060 
#    y -0.000020 4.293570 -0.000010 
#    z 0.081060 -0.000010 3.919390 
# 
# 
# High freq. dielectric constant tensor:
#      x y z
#    x 1.829380 0.000000 0.013390 
#    y 0.000000 1.876650 0.000000 
#    z 0.013390 0.000000 1.866020 
# 
# From -- ./inp_files/53473.got.cif
#   From: 2010.03.12/outbox.cif.g09.slc.cpg/sg5_27_cif.got.tgz:53473.got - 2010.03.31 09:47:26.
