data_PCOD8050734
_publ_section_title
;
Structure prediction by ZEFSAII (Michael W. Deem and Ramdas Pophale) SiO2 
 PCOD8050734
Probable space group: C 2
;
_chemical_formula_sum "Si O2"
_cell_formula_units_Z 26
_cell_length_a 14.535847
_cell_length_b 14.663675
_cell_length_c 11.169524
_cell_angle_alpha 90.000000
_cell_angle_beta 150.203658
_cell_angle_gamma 90.000000
_cell_volume 1183.049869
_symmetry_space_group_name_H-M "C 2"
_symmetry_group_IT_number 5
_symmetry_cell_setting 'monoclinic'
loop_
_space_group_symop_operation_xyz
x,y,z
-x,y,-z
1/2+x,1/2+y,z
1/2-x,1/2+y,-z
loop_
_atom_site_type_symbol
_atom_site_label
_atom_site_fract_x
_atom_site_fract_y
_atom_site_fract_z
Si Si1 0.855990 0.341350 0.173968
Si Si2 0.171808 0.137427 0.771526
Si Si3 0.147727 0.084697 0.013223
Si Si4 0.000000 0.550131 0.000000
Si Si5 0.000000 0.487136 0.500000
Si Si6 0.023586 0.905193 0.160793
Si Si7 0.000000 0.241021 0.000000
Si Si8 0.374764 0.884320 0.708857
O O1 0.868199 0.244052 0.252316
O O2 0.000163 0.417117 0.389237
O O3 0.927458 0.345686 0.118672
O O4 0.645116 0.374020 0.945344
O O5 0.358354 0.117313 0.907896
O O6 0.000000 0.097851 0.500000
O O7 0.195139 0.088232 0.925846
O O8 0.084507 0.182072 0.987911
O O9 0.320122 0.050689 0.288872
O O10 0.978229 0.015163 0.843081
O O11 0.891796 0.486085 0.782254
O O12 0.214677 0.872319 0.431047
O O13 0.000000 0.865084 0.000000
O O14 0.163846 0.308550 0.232334
#
# Coordination Sequence:
#
# PCOD8050734 Si02
#       8
#     4   4   4   2   2   4   2   4
#     4  11  23  41  65 100 136 181 227 285 341 415
#     4  12  26  45  71 104 143 177 236 292 347 410
#     4  11  23  45  70 104 135 177 238 287 343 418
#     4  11  26  44  71 102 138 192 233 284 356 425
#     4  10  22  42  70  94 138 180 222 280 354 402
#     4  11  24  40  70  99 133 182 234 278 347 418
#     4  11  24  44  69 102 134 184 233 286 346 417
#     4  11  24  47  67  95 145 186 227 285 359 413
#
# _framework density 21.977094999999998
#
# number of rings (size 3 to 8) (size 9 to 14) (size 15 to 20)
#    0.000    0.923    3.077    4.615    1.077    1.231 
#    5.538    1.538    0.000    0.000    0.000    0.000 
#    0.000    0.000    0.000    0.000    0.000    0.000 
#
# Total GULP energy -161108.428862 kJ/mol
# GULP energy per Si atom -12392.956066 kJ/mol
# Density = 2.192707 g / cm^3
# Si number density = 21.977095 Si / 1000 Ang^3
#
#
#
# Elastic Constant Matrix: (Units=GPa)
#
#
# Indices 1 2 3 4 5 6 
#
# 1 125.8407 25.4912 50.3389 0.0000 4.4271 0.0000
# 2 25.4912 99.7180 38.2079 0.0000 -5.7786 0.0000
# 3 50.3389 38.2079 133.2338 0.0000 -8.6233 0.0000
# 4 0.0000 0.0000 0.0000 16.5509 0.0000 -5.4398
# 5 4.4271 -5.7786 -8.6233 0.0000 23.3690 0.0000
# 6 0.0000 0.0000 0.0000 -5.4398 0.0000 37.1192
#
#
#
# Elastic Compliance Matrix: (Units=1/GPa)
#
#
# Indices 1 2 3 4 5 6 
#
# 1 0.009751 -0.001344 -0.003524 0.000000 -0.003480 0.000000
# 2 -0.001344 0.011513 -0.002656 0.000000 0.002121 0.000000
# 3 -0.003524 -0.002656 0.009834 0.000000 0.003640 0.000000
# 4 0.000000 0.000000 0.000000 0.063477 0.000000 0.009303
# 5 -0.003480 0.002121 0.003640 0.000000 0.045318 0.000000
# 6 0.000000 0.000000 0.000000 0.009303 0.000000 0.028304
#
#
# Mechanical properties :
#
#
# Convention : Reuss Voigt Hill
#
# Bulk Modulus (GPa) = 62.30876 65.20761 63.75818
# Shear Modulus (GPa) = 26.51177 31.72481 29.11829
#
# Velocity S-wave (km/s) = 3.47700 3.80352 3.64392
# Velocity P-wave (km/s) = 6.67328 7.00172 6.83947
#
# Compressibility (1/GPa) = 0.01604911
#
# Stress axis : x y z
#
# Youngs Moduli (GPa) = 102.55489 86.86125 101.68426
#
# Poissons Ratio (x) = 0.11675 0.35832
# Poissons Ratio (y) = 0.13784 0.27011
# Poissons Ratio (z) = 0.36139 0.23074
#
# Static dielectric constant tensor:
#      x y z
#    x 4.022850 0.000000 -0.147840 
#    y 0.000000 4.007700 0.000000 
#    z -0.147840 0.000000 3.835300 
# 
# 
# High freq. dielectric constant tensor:
#      x y z
#    x 1.877100 0.000000 -0.011700 
#    y 0.000000 1.872130 0.000000 
#    z -0.011700 0.000000 1.851380 
# 
# From -- ./inp_files/43147.got.cif
#   From: 2010.03.12/outbox.cif.g09.slc.cpg/sg5_22_cif.got.tgz:43147.got - 2010.03.31 09:47:26.
