data_PCOD8050172
_publ_section_title
;
Structure prediction by ZEFSAII (Michael W. Deem and Ramdas Pophale) SiO2 
 PCOD8050172
Probable space group: C 2
;
_chemical_formula_sum "Si O2"
_cell_formula_units_Z 32
_cell_length_a 14.061645
_cell_length_b 22.565810
_cell_length_c 9.438583
_cell_angle_alpha 90.000000
_cell_angle_beta 150.712084
_cell_angle_gamma 90.000000
_cell_volume 1465.139535
_symmetry_space_group_name_H-M "C 2"
_symmetry_group_IT_number 5
_symmetry_cell_setting 'monoclinic'
loop_
_space_group_symop_operation_xyz
x,y,z
-x,y,-z
1/2+x,1/2+y,z
1/2-x,1/2+y,-z
loop_
_atom_site_type_symbol
_atom_site_label
_atom_site_fract_x
_atom_site_fract_y
_atom_site_fract_z
Si Si1 0.447660 0.628600 0.275948
Si Si2 0.973928 0.653722 0.299128
Si Si3 0.517239 0.520510 0.855684
Si Si4 0.988595 0.413562 0.824998
Si Si5 0.310991 0.916998 0.184081
Si Si6 0.190670 0.707954 0.342440
Si Si7 0.224214 0.837116 0.309861
Si Si8 0.417649 0.045097 0.748156
O O1 0.500000 0.604900 0.500000
O O2 0.373490 0.575304 0.077558
O O3 0.637781 0.660470 0.458883
O O4 0.252342 0.668641 0.032363
O O5 0.113583 0.702146 0.404254
O O6 0.043639 0.589549 0.330523
O O7 0.000000 0.657443 0.500000
O O8 0.303096 0.524520 0.511535
O O9 0.500000 0.529911 0.000000
O O10 0.622726 0.458745 0.955894
O O11 0.785585 0.387590 0.502859
O O12 0.024052 0.483557 0.856478
O O13 0.159413 0.393255 0.938908
O O14 0.000000 0.390280 0.000000
O O15 0.500000 0.950791 0.500000
O O16 0.301368 0.855006 0.256171
O O17 0.289713 0.771730 0.444077
O O18 0.000000 0.695566 0.000000
O O19 0.000000 0.838033 0.000000
O O20 0.500000 0.074386 0.000000
#
# Coordination Sequence:
#
# PCOD8050172 Si02
#       8
#     4   4   4   4   4   4   4   4
#     4  12  25  41  68  99 137 187 234 264 358 423
#     4  12  25  44  68 104 140 180 230 291 350 408
#     4  12  23  38  66 100 136 178 221 287 346 410
#     4  10  22  41  63 101 136 176 218 291 349 395
#     4  10  21  41  66 101 135 176 237 275 343 421
#     4  11  24  49  69  97 139 183 237 295 328 420
#     4  10  22  44  71  91 127 181 236 285 340 400
#     4  11  22  41  67  93 147 184 220 278 350 417
#
# _framework density 21.840924999999999
#
# number of rings (size 3 to 8) (size 9 to 14) (size 15 to 20)
#    0.000    1.000    2.500    5.250    0.000    4.500 
#    2.250    3.125    0.000    0.000    0.000    0.000 
#    0.000    0.000    0.000    0.000    0.000    0.000 
#
# Total GULP energy -198245.139790 kJ/mol
# GULP energy per Si atom -12390.321237 kJ/mol
# Density = 2.179121 g / cm^3
# Si number density = 21.840925 Si / 1000 Ang^3
#
#
#
# Elastic Constant Matrix: (Units=GPa)
#
#
# Indices 1 2 3 4 5 6 
#
# 1 168.2134 55.5291 47.9452 0.0000 -25.6373 0.0000
# 2 55.5291 103.7089 23.7672 0.0000 -14.8168 0.0000
# 3 47.9452 23.7672 78.6230 0.0000 -4.9950 0.0000
# 4 0.0000 0.0000 0.0000 28.1700 0.0000 -0.7105
# 5 -25.6373 -14.8168 -4.9950 0.0000 50.6613 0.0000
# 6 0.0000 0.0000 0.0000 -0.7105 0.0000 27.0436
#
#
#
# Elastic Compliance Matrix: (Units=1/GPa)
#
#
# Indices 1 2 3 4 5 6 
#
# 1 0.008649 -0.003261 -0.004097 0.000000 0.003019 0.000000
# 2 -0.003261 0.011981 -0.001525 0.000000 0.001704 0.000000
# 3 -0.004097 -0.001525 0.015616 0.000000 -0.000980 0.000000
# 4 0.000000 0.000000 0.000000 0.035522 0.000000 0.000933
# 5 0.003019 0.001704 -0.000980 0.000000 0.021669 0.000000
# 6 0.000000 0.000000 0.000000 0.000933 0.000000 0.037002
#
#
# Mechanical properties :
#
#
# Convention : Reuss Voigt Hill
#
# Bulk Modulus (GPa) = 54.10996 67.22537 60.66766
# Shear Modulus (GPa) = 32.39082 36.06191 34.22636
#
# Velocity S-wave (km/s) = 3.85519 4.06780 3.96292
# Velocity P-wave (km/s) = 6.68170 7.27386 6.98406
#
# Compressibility (1/GPa) = 0.01848089
#
# Stress axis : x y z
#
# Youngs Moduli (GPa) = 115.61874 83.46396 64.03686
#
# Poissons Ratio (x) = 0.27216 0.26235
# Poissons Ratio (y) = 0.37701 0.09767
# Poissons Ratio (z) = 0.47367 0.12729
#
# Static dielectric constant tensor:
#      x y z
#    x 4.110250 0.000000 -0.053400 
#    y 0.000000 4.411670 0.000000 
#    z -0.053400 0.000000 3.969190 
# 
# 
# High freq. dielectric constant tensor:
#      x y z
#    x 1.879940 0.000000 0.005930 
#    y 0.000000 1.837190 0.000000 
#    z 0.005930 0.000000 1.852640 
# 
# From -- ./inp_files/25653.got.cif
#   From: 2010.03.12/outbox.cif.g09.slc.cpg/sg5_13_cif.got.tgz:25653.got - 2010.03.31 09:47:26.
