data_PCOD8050037
_publ_section_title
;
Structure prediction by ZEFSAII (Michael W. Deem and Ramdas Pophale) SiO2 
 PCOD8050037
Probable space group: C 2
;
_chemical_formula_sum "Si O2"
_cell_formula_units_Z 26
_cell_length_a 23.017242
_cell_length_b 8.158988
_cell_length_c 7.679824
_cell_angle_alpha 90.000000
_cell_angle_beta 89.885770
_cell_angle_gamma 90.000000
_cell_volume 1442.248123
_symmetry_space_group_name_H-M "C 2"
_symmetry_group_IT_number 5
_symmetry_cell_setting 'monoclinic'
loop_
_space_group_symop_operation_xyz
x,y,z
-x,y,-z
1/2+x,1/2+y,z
1/2-x,1/2+y,-z
loop_
_atom_site_type_symbol
_atom_site_label
_atom_site_fract_x
_atom_site_fract_y
_atom_site_fract_z
Si Si1 0.200839 0.261600 0.856875
Si Si2 0.697091 0.996766 0.168887
Si Si3 0.612268 0.489290 0.855577
Si Si4 0.000000 0.879376 0.000000
Si Si5 0.609813 0.261284 0.154858
Si Si6 0.219325 0.497993 0.544263
Si Si7 0.335612 0.346620 0.486202
O O1 0.252967 0.135915 0.823422
O O2 0.195388 0.393178 0.704189
O O3 0.139089 0.169961 0.864112
O O4 0.212924 0.352191 0.038537
O O5 0.635883 0.080821 0.118762
O O6 0.692938 0.925026 0.364223
O O7 0.624750 0.401925 0.673209
O O8 0.542071 0.494885 0.881939
O O9 0.640033 0.384774 0.015434
O O10 0.040064 0.762647 0.122887
O O11 0.622589 0.316941 0.350837
O O12 0.289516 0.488473 0.535352
O O13 0.200344 0.685527 0.568836
#
# Coordination Sequence:
#
# PCOD8050037 Si02
#       7
#     4   4   4   2   4   4   4
#     4  12  23  35  59  89 126 156 194 244 308 359
#     4  11  23  35  59  91 122 159 191 242 310 355
#     4  10  21  40  58  86 113 159 202 246 292 344
#     4   8  22  42  62  84 114 154 218 244 278 358
#     4   9  20  41  58  87 111 156 204 243 289 348
#     4  11  22  35  54  95 124 151 191 239 304 373
#     4  11  20  35  62  86 128 153 190 246 302 356
#
# _framework density 18.027411000000001
#
# number of rings (size 3 to 8) (size 9 to 14) (size 15 to 20)
#    0.923    0.615    4.615    1.846    2.154    1.846 
#    0.000    0.769    0.000    0.000    0.000    0.000 
#    0.000    0.000    0.000    0.000    0.000    0.000 
#
# Total GULP energy -161128.967017 kJ/mol
# GULP energy per Si atom -12394.535924 kJ/mol
# Density = 1.798638 g / cm^3
# Si number density = 18.027411 Si / 1000 Ang^3
#
#
#
# Elastic Constant Matrix: (Units=GPa)
#
#
# Indices 1 2 3 4 5 6 
#
# 1 117.3996 28.8708 24.5922 0.0000 6.0279 0.0000
# 2 28.8708 43.9101 28.4012 0.0000 2.9082 0.0000
# 3 24.5922 28.4012 98.8446 0.0000 -5.3561 0.0000
# 4 0.0000 0.0000 0.0000 23.1838 0.0000 1.4208
# 5 6.0279 2.9082 -5.3561 0.0000 33.1217 0.0000
# 6 0.0000 0.0000 0.0000 1.4208 0.0000 28.6579
#
#
#
# Elastic Compliance Matrix: (Units=1/GPa)
#
#
# Indices 1 2 3 4 5 6 
#
# 1 0.010276 -0.006084 -0.000889 0.000000 -0.001480 0.000000
# 2 -0.006084 0.032053 -0.007858 0.000000 -0.002978 0.000000
# 3 -0.000889 -0.007858 0.012754 0.000000 0.002914 0.000000
# 4 0.000000 0.000000 0.000000 0.043265 0.000000 -0.002145
# 5 -0.001480 -0.002978 0.002914 0.000000 0.031194 0.000000
# 6 0.000000 0.000000 0.000000 -0.002145 0.000000 0.035001
#
#
# Mechanical properties :
#
#
# Convention : Reuss Voigt Hill
#
# Bulk Modulus (GPa) = 39.33469 47.09808 43.21639
# Shear Modulus (GPa) = 24.66974 28.87870 26.77422
#
# Velocity S-wave (km/s) = 3.70328 4.00676 3.85800
# Velocity P-wave (km/s) = 6.33660 6.89841 6.62346
#
# Compressibility (1/GPa) = 0.02542285
#
# Stress axis : x y z
#
# Youngs Moduli (GPa) = 97.31249 31.19789 78.40853
#
# Poissons Ratio (x) = 0.18980 0.06969
# Poissons Ratio (y) = 0.59202 0.61611
# Poissons Ratio (z) = 0.08649 0.24515
#
# Static dielectric constant tensor:
#      x y z
#    x 3.138110 0.000000 -0.065030 
#    y 0.000000 3.264450 0.000000 
#    z -0.065030 0.000000 3.487560 
# 
# 
# High freq. dielectric constant tensor:
#      x y z
#    x 1.674150 0.000000 -0.005860 
#    y 0.000000 1.684670 0.000000 
#    z -0.005860 0.000000 1.717470 
# 
# From -- ./inp_files/30470.got.cif
#   From: 2010.03.12/outbox.cif.g09.slc.cpg/sg5_16_cif.got.tgz:30470.got - 2010.03.31 09:47:26.
