data_PCOD8050338
_publ_section_title
;
Structure prediction by ZEFSAII (Michael W. Deem and Ramdas Pophale) SiO2 
 PCOD8050338
Probable space group: C 2
;
_chemical_formula_sum "Si O2"
_cell_formula_units_Z 22
_cell_length_a 26.829611
_cell_length_b 5.671956
_cell_length_c 6.815841
_cell_angle_alpha 90.000000
_cell_angle_beta 109.639056
_cell_angle_gamma 90.000000
_cell_volume 976.873978
_symmetry_space_group_name_H-M "C 2"
_symmetry_group_IT_number 5
_symmetry_cell_setting 'monoclinic'
loop_
_space_group_symop_operation_xyz
x,y,z
-x,y,-z
1/2+x,1/2+y,z
1/2-x,1/2+y,-z
loop_
_atom_site_type_symbol
_atom_site_label
_atom_site_fract_x
_atom_site_fract_y
_atom_site_fract_z
Si Si1 0.590568 0.370570 0.699689
Si Si2 0.415139 0.755195 0.593236
Si Si3 0.670714 0.988902 0.792671
Si Si4 0.237893 0.989107 0.373389
Si Si5 0.500000 0.042063 0.500000
Si Si6 0.134943 0.175520 0.078676
O O1 0.578420 0.485027 0.470484
O O2 0.648623 0.253657 0.775580
O O3 0.543202 0.189665 0.679893
O O4 0.592360 0.558723 0.876712
O O5 0.402153 0.787621 0.803903
O O6 0.365526 0.849965 0.407094
O O7 0.469880 0.887427 0.622197
O O8 0.730002 0.987842 0.788685
O O9 0.668668 0.873564 0.006848
O O10 0.252013 0.237144 0.504509
O O11 0.175927 0.994475 0.235308
#
# Coordination Sequence:
#
# PCOD8050338 Si02
#       6
#     4   4   4   4   2   4
#     4  10  23  43  70  99 137 187 233 307 354 437
#     4  10  21  47  66 100 140 184 235 300 359 434
#     4  10  24  42  66 101 142 186 244 290 354 428
#     4  12  27  45  74 106 150 207 238 294 366 430
#     4  10  22  44  74  94 142 182 238 296 382 418
#     4  11  25  42  72 102 148 183 245 296 360 431
#
# _framework density 22.520817000000001
#
# number of rings (size 3 to 8) (size 9 to 14) (size 15 to 20)
#    0.000    1.455    1.818    1.636    7.636    2.909 
#    0.000   21.818    0.000    0.000    0.000    0.000 
#    0.000    0.000    0.000    0.000    0.000    0.000 
#
# Total GULP energy -136359.272769 kJ/mol
# GULP energy per Si atom -12396.297524 kJ/mol
# Density = 2.246956 g / cm^3
# Si number density = 22.520817 Si / 1000 Ang^3
#
#
#
# Elastic Constant Matrix: (Units=GPa)
#
#
# Indices 1 2 3 4 5 6 
#
# 1 130.3179 27.8269 46.7070 0.0000 -34.9291 0.0000
# 2 27.8269 111.6980 42.5429 0.0000 -18.0384 0.0000
# 3 46.7070 42.5429 116.3339 0.0000 -39.0374 0.0000
# 4 0.0000 0.0000 0.0000 21.7501 0.0000 4.1844
# 5 -34.9291 -18.0384 -39.0374 0.0000 43.0193 0.0000
# 6 0.0000 0.0000 0.0000 4.1844 0.0000 33.1083
#
#
#
# Elastic Compliance Matrix: (Units=1/GPa)
#
#
# Indices 1 2 3 4 5 6 
#
# 1 0.010158 -0.000884 -0.001599 0.000000 0.006426 0.000000
# 2 -0.000884 0.010530 -0.003242 0.000000 0.000755 0.000000
# 3 -0.001599 -0.003242 0.013705 0.000000 0.009779 0.000000
# 4 0.000000 0.000000 0.000000 0.047122 0.000000 -0.005956
# 5 0.006426 0.000755 0.009779 0.000000 0.037653 0.000000
# 6 0.000000 0.000000 0.000000 -0.005956 0.000000 0.030957
#
#
# Mechanical properties :
#
#
# Convention : Reuss Voigt Hill
#
# Bulk Modulus (GPa) = 43.58694 65.83369 54.71031
# Shear Modulus (GPa) = 29.54696 35.66042 32.60369
#
# Velocity S-wave (km/s) = 3.62606 3.98357 3.80901
# Velocity P-wave (km/s) = 6.07677 7.10311 6.60989
#
# Compressibility (1/GPa) = 0.02294265
#
# Stress axis : x y z
#
# Youngs Moduli (GPa) = 98.44827 94.96826 72.96648
#
# Poissons Ratio (x) = 0.08394 0.11664
# Poissons Ratio (y) = 0.08702 0.23659
# Poissons Ratio (z) = 0.15738 0.30792
#
# Static dielectric constant tensor:
#      x y z
#    x 4.076100 0.000000 -0.174890 
#    y 0.000000 4.462180 0.000000 
#    z -0.174890 0.000000 3.933250 
# 
# 
# High freq. dielectric constant tensor:
#      x y z
#    x 1.892500 0.000000 -0.005370 
#    y 0.000000 1.894140 0.000000 
#    z -0.005370 0.000000 1.873760 
# 
# From -- ./inp_files/10994.got.cif
#   From: 2010.03.12/outbox.cif.g09.slc.cpg/sg5_6_cif.got.tgz:10994.got - 2010.03.31 09:47:26.
