data_PCOD8050732
_publ_section_title
;
Structure prediction by ZEFSAII (Michael W. Deem and Ramdas Pophale) SiO2 
 PCOD8050732
Probable space group: C 2
;
_chemical_formula_sum "Si O2"
_cell_formula_units_Z 28
_cell_length_a 12.977004
_cell_length_b 6.533496
_cell_length_c 18.174507
_cell_angle_alpha 90.000000
_cell_angle_beta 53.889348
_cell_angle_gamma 90.000000
_cell_volume 1244.886456
_symmetry_space_group_name_H-M "C 2"
_symmetry_group_IT_number 5
_symmetry_cell_setting 'monoclinic'
loop_
_space_group_symop_operation_xyz
x,y,z
-x,y,-z
1/2+x,1/2+y,z
1/2-x,1/2+y,-z
loop_
_atom_site_type_symbol
_atom_site_label
_atom_site_fract_x
_atom_site_fract_y
_atom_site_fract_z
Si Si1 0.000000 0.668890 0.000000
Si Si2 0.797057 0.830227 0.573171
Si Si3 0.942733 0.958330 0.149995
Si Si4 0.436201 0.985626 0.418133
Si Si5 0.000000 0.163788 0.500000
Si Si6 0.886138 0.347942 0.942969
Si Si7 0.344433 0.206860 0.870536
Si Si8 0.194319 0.660277 0.273609
O O1 0.906234 0.526067 0.994100
O O2 0.077182 0.818629 0.913241
O O3 0.861951 0.632135 0.507645
O O4 0.787978 0.810788 0.665064
O O5 0.659534 0.876360 0.597527
O O6 0.879927 0.031148 0.526290
O O7 0.800076 0.984152 0.242768
O O8 0.001624 0.180527 0.105232
O O9 0.030962 0.849378 0.173668
O O10 0.544977 0.104302 0.328159
O O11 0.520793 0.813050 0.422433
O O12 0.879361 0.464616 0.866370
O O13 0.752453 0.247881 0.021371
O O14 0.279111 0.254523 0.818864
#
# Coordination Sequence:
#
# PCOD8050732 Si02
#       8
#     2   4   4   4   2   4   4   4
#     4  10  22  42  70  92 134 196 240 290 354 418
#     4  12  26  48  76 106 140 190 241 284 365 441
#     4  11  25  43  68 104 145 185 239 300 356 419
#     4  12  26  48  77 104 142 190 235 292 363 440
#     4  12  22  48  78  98 142 192 230 290 354 432
#     4  11  22  46  69  96 139 200 243 286 353 429
#     4  11  25  43  73 101 145 193 242 292 355 420
#     4  12  27  46  68 115 147 177 243 304 357 419
#
# _framework density 22.492014000000001
#
# number of rings (size 3 to 8) (size 9 to 14) (size 15 to 20)
#    0.000    0.571    5.714    2.143    4.000    3.429 
#    5.143    0.000    0.000    0.000    0.000    0.000 
#    0.000    0.000    0.000    0.000    0.000    0.000 
#
# Total GULP energy -173517.199466 kJ/mol
# GULP energy per Si atom -12394.085676 kJ/mol
# Density = 2.244082 g / cm^3
# Si number density = 22.492014 Si / 1000 Ang^3
#
#
#
# Elastic Constant Matrix: (Units=GPa)
#
#
# Indices 1 2 3 4 5 6 
#
# 1 130.5742 37.9138 40.8746 0.0001 -2.6202 0.0014
# 2 37.9138 109.9993 26.8533 0.0002 6.8954 0.0025
# 3 40.8746 26.8533 74.6535 0.0000 11.6845 0.0000
# 4 0.0001 0.0002 0.0000 16.1104 0.0000 5.0152
# 5 -2.6202 6.8954 11.6845 0.0000 41.3580 0.0003
# 6 0.0014 0.0025 0.0000 5.0152 0.0003 37.4346
#
#
#
# Elastic Compliance Matrix: (Units=1/GPa)
#
#
# Indices 1 2 3 4 5 6 
#
# 1 0.009953 -0.002368 -0.004979 0.000000 0.002432 0.000000
# 2 -0.002368 0.010548 -0.002301 0.000000 -0.001259 -0.000001
# 3 -0.004979 -0.002301 0.017722 0.000000 -0.004939 0.000000
# 4 0.000000 0.000000 0.000000 0.064773 0.000000 -0.008678
# 5 0.002432 -0.001259 -0.004939 0.000000 0.025938 0.000000
# 6 0.000000 -0.000001 0.000000 -0.008678 0.000000 0.027876
#
#
# Mechanical properties :
#
#
# Convention : Reuss Voigt Hill
#
# Bulk Modulus (GPa) = 52.83022 58.50116 55.66569
# Shear Modulus (GPa) = 27.41034 32.95298 30.18166
#
# Velocity S-wave (km/s) = 3.49473 3.83181 3.66715
# Velocity P-wave (km/s) = 6.31060 6.75598 6.53708
#
# Compressibility (1/GPa) = 0.01892856
#
# Stress axis : x y z
#
# Youngs Moduli (GPa) = 100.46966 94.80843 56.42807
#
# Poissons Ratio (x) = 0.22448 0.28093
# Poissons Ratio (y) = 0.23788 0.12982
# Poissons Ratio (z) = 0.50020 0.21812
#
# Static dielectric constant tensor:
#      x y z
#    x 4.135190 0.000000 0.054920 
#    y 0.000000 4.244220 0.000000 
#    z 0.054920 0.000000 3.914820 
# 
# 
# High freq. dielectric constant tensor:
#      x y z
#    x 1.907180 0.000000 0.006290 
#    y 0.000000 1.888750 0.000000 
#    z 0.006290 0.000000 1.869320 
# 
# From -- ./inp_files/61200.got.cif
#   From: 2010.03.12/outbox.cif.g09.slc.cpg/sg5_31_cif.got.tgz:61200.got - 2010.03.31 09:47:26.
