data_PCOD8050475
_publ_section_title
;
Structure prediction by ZEFSAII (Michael W. Deem and Ramdas Pophale) SiO2 
 PCOD8050475
Probable space group: C 2
;
_chemical_formula_sum "Si O2"
_cell_formula_units_Z 32
_cell_length_a 20.112758
_cell_length_b 13.182894
_cell_length_c 8.685942
_cell_angle_alpha 90.000000
_cell_angle_beta 39.695992
_cell_angle_gamma 90.000000
_cell_volume 1470.976535
_symmetry_space_group_name_H-M "C 2"
_symmetry_group_IT_number 5
_symmetry_cell_setting 'monoclinic'
loop_
_space_group_symop_operation_xyz
x,y,z
-x,y,-z
1/2+x,1/2+y,z
1/2-x,1/2+y,-z
loop_
_atom_site_type_symbol
_atom_site_label
_atom_site_fract_x
_atom_site_fract_y
_atom_site_fract_z
Si Si1 0.651285 0.495840 0.803720
Si Si2 0.006636 0.181672 0.151864
Si Si3 0.268453 0.646022 0.569360
Si Si4 0.699903 0.427491 0.043366
Si Si5 0.773298 0.135196 0.888975
Si Si6 0.101668 0.313909 0.243525
Si Si7 0.394223 0.243740 0.629617
Si Si8 0.396482 0.292937 0.265458
O O1 0.736863 0.558592 0.551651
O O2 0.705296 0.434657 0.848096
O O3 0.603514 0.412812 0.771849
O O4 0.564520 0.572675 0.026500
O O5 0.073904 0.258769 0.133487
O O6 0.887809 0.163032 0.412184
O O7 0.000000 0.238034 0.000000
O O8 0.209327 0.743827 0.610284
O O9 0.214653 0.617315 0.829419
O O10 0.664232 0.535195 0.173848
O O11 0.811893 0.401529 0.922040
O O12 0.617629 0.343763 0.242488
O O13 0.696623 0.164058 0.167650
O O14 0.855114 0.226540 0.720589
O O15 0.000000 0.363867 0.500000
O O16 0.500000 0.192117 0.500000
O O17 0.397988 0.273574 0.444908
O O18 0.500000 0.245324 0.000000
#
# Coordination Sequence:
#
# PCOD8050475 Si02
#       8
#     4   4   4   4   4   4   4   4
#     4  11  23  43  66 104 135 175 225 279 339 400
#     4  10  22  39  67  95 132 170 221 275 335 394
#     4  11  23  40  69  98 134 177 220 279 340 402
#     4  11  24  39  66  97 133 172 225 277 331 398
#     4  11  22  42  63  96 129 171 225 270 334 401
#     4  11  22  41  63  94 134 176 222 270 334 397
#     4  11  25  42  66  92 131 178 220 279 332 402
#     4  12  24  43  67  96 136 176 224 279 344 403
#
# _framework density 21.754256999999999
#
# number of rings (size 3 to 8) (size 9 to 14) (size 15 to 20)
#    0.000    1.000    2.500    5.625    5.250    2.000 
#    0.000    1.250    0.000    0.000    0.000    0.000 
#    0.000    0.000    0.000    0.000    0.000    0.000 
#
# Total GULP energy -198261.286848 kJ/mol
# GULP energy per Si atom -12391.330428 kJ/mol
# Density = 2.170474 g / cm^3
# Si number density = 21.754257 Si / 1000 Ang^3
#
#
#
# Elastic Constant Matrix: (Units=GPa)
#
#
# Indices 1 2 3 4 5 6 
#
# 1 123.0176 21.9997 46.4045 0.0000 23.1815 0.0000
# 2 21.9997 56.6328 23.6786 0.0000 5.5846 0.0000
# 3 46.4045 23.6786 97.7776 0.0000 14.3322 0.0000
# 4 0.0000 0.0000 0.0000 20.4488 0.0000 7.2027
# 5 23.1815 5.5846 14.3322 0.0000 51.5722 0.0000
# 6 0.0000 0.0000 0.0000 7.2027 0.0000 38.6444
#
#
#
# Elastic Compliance Matrix: (Units=1/GPa)
#
#
# Indices 1 2 3 4 5 6 
#
# 1 0.010686 -0.002116 -0.004054 0.000000 -0.003448 0.000000
# 2 -0.002116 0.020101 -0.003840 0.000000 -0.000158 0.000000
# 3 -0.004054 -0.003840 0.013295 0.000000 -0.001457 0.000000
# 4 0.000000 0.000000 0.000000 0.052339 0.000000 -0.009755
# 5 -0.003448 -0.000158 -0.001457 0.000000 0.021362 0.000000
# 6 0.000000 0.000000 0.000000 -0.009755 0.000000 0.027695
#
#
# Mechanical properties :
#
#
# Convention : Reuss Voigt Hill
#
# Bulk Modulus (GPa) = 41.56061 51.28820 46.42440
# Shear Modulus (GPa) = 28.81538 34.48944 31.65241
#
# Velocity S-wave (km/s) = 3.64343 3.98604 3.81858
# Velocity P-wave (km/s) = 6.07005 6.69418 6.38974
#
# Compressibility (1/GPa) = 0.02406124
#
# Stress axis : x y z
#
# Youngs Moduli (GPa) = 93.57854 49.74891 75.21818
#
# Poissons Ratio (x) = 0.10528 0.30491
# Poissons Ratio (y) = 0.19804 0.28886
# Poissons Ratio (z) = 0.37934 0.19105
#
# Static dielectric constant tensor:
#      x y z
#    x 4.159910 0.000000 0.158650 
#    y 0.000000 3.698840 0.000000 
#    z 0.158650 0.000000 4.064070 
# 
# 
# High freq. dielectric constant tensor:
#      x y z
#    x 1.866600 0.000000 0.016560 
#    y 0.000000 1.834890 0.000000 
#    z 0.016560 0.000000 1.856280 
# 
# From -- ./inp_files/29829.got.cif
#   From: 2010.03.12/outbox.cif.g09.slc.cpg/sg5_15_cif.got.tgz:29829.got - 2010.03.31 09:47:26.
