data_PCOD8050363
_publ_section_title
;
Structure prediction by ZEFSAII (Michael W. Deem and Ramdas Pophale) SiO2 
 PCOD8050363
Probable space group: C 2
;
_chemical_formula_sum "Si O2"
_cell_formula_units_Z 28
_cell_length_a 8.699061
_cell_length_b 12.206894
_cell_length_c 13.176233
_cell_angle_alpha 90.000000
_cell_angle_beta 91.652985
_cell_angle_gamma 90.000000
_cell_volume 1398.582384
_symmetry_space_group_name_H-M "C 2"
_symmetry_group_IT_number 5
_symmetry_cell_setting 'monoclinic'
loop_
_space_group_symop_operation_xyz
x,y,z
-x,y,-z
1/2+x,1/2+y,z
1/2-x,1/2+y,-z
loop_
_atom_site_type_symbol
_atom_site_label
_atom_site_fract_x
_atom_site_fract_y
_atom_site_fract_z
Si Si1 0.800453 0.575820 0.104426
Si Si2 0.892189 0.229444 0.762159
Si Si3 0.898155 0.673878 0.914108
Si Si4 0.348010 0.351280 0.377494
Si Si5 0.587057 0.595777 0.606563
Si Si6 0.690090 0.289202 0.402978
Si Si7 0.691775 0.846023 0.800620
O O1 0.674351 0.655093 0.150207
O O2 0.763958 0.451436 0.133590
O O3 0.974478 0.604492 0.147597
O O4 0.792327 0.591393 0.981176
O O5 0.757912 0.299355 0.709507
O O6 0.971551 0.153318 0.680912
O O7 0.014684 0.313237 0.813724
O O8 0.798838 0.745654 0.837395
O O9 0.000000 0.743943 0.000000
O O10 0.369705 0.477726 0.347997
O O11 0.508019 0.284888 0.380199
O O12 0.271316 0.344048 0.487779
O O13 0.500000 0.577884 0.500000
O O14 0.742186 0.666318 0.596645
O O15 0.772777 0.363630 0.318275
#
# Coordination Sequence:
#
# PCOD8050363 Si02
#       7
#     4   4   4   4   4   4   4
#     4   9  22  41  64  88 119 160 192 257 300 362
#     4  11  24  37  64  93 123 156 212 242 289 375
#     4   8  22  45  58  88 124 147 199 257 302 364
#     4  11  22  39  58  88 124 173 195 244 301 345
#     4  11  21  39  57  86 126 161 203 250 290 338
#     4  10  22  36  62  86 124 160 205 244 289 363
#     4  11  22  41  63  92 121 157 201 255 302 358
#
# _framework density 20.020271999999999
#
# number of rings (size 3 to 8) (size 9 to 14) (size 15 to 20)
#    0.857    0.857    2.857    1.714    0.000    6.286 
#    2.571    4.286    0.000    0.000    0.000    0.000 
#    0.000    0.000    0.000    0.000    0.000    0.000 
#
# Total GULP energy -173523.873621 kJ/mol
# GULP energy per Si atom -12394.562401 kJ/mol
# Density = 1.997470 g / cm^3
# Si number density = 20.020272 Si / 1000 Ang^3
#
#
#
# Elastic Constant Matrix: (Units=GPa)
#
#
# Indices 1 2 3 4 5 6 
#
# 1 72.5730 29.2789 2.4207 0.0000 -8.5992 0.0000
# 2 29.2789 96.4828 7.9527 0.0000 -8.0424 0.0000
# 3 2.4207 7.9527 33.0581 0.0000 -16.1966 0.0000
# 4 0.0000 0.0000 0.0000 17.0399 0.0000 2.6330
# 5 -8.5992 -8.0424 -16.1966 0.0000 35.5040 0.0000
# 6 0.0000 0.0000 0.0000 2.6330 0.0000 24.2924
#
#
#
# Elastic Compliance Matrix: (Units=1/GPa)
#
#
# Indices 1 2 3 4 5 6 
#
# 1 0.016050 -0.004712 0.001726 0.000000 0.003607 0.000000
# 2 -0.004712 0.012028 -0.002283 0.000000 0.000542 0.000000
# 3 0.001726 -0.002283 0.039439 0.000000 0.017893 0.000000
# 4 0.000000 0.000000 0.000000 0.059686 0.000000 -0.006469
# 5 0.003607 0.000542 0.017893 0.000000 0.037325 0.000000
# 6 0.000000 0.000000 0.000000 -0.006469 0.000000 0.041866
#
#
# Mechanical properties :
#
#
# Convention : Reuss Voigt Hill
#
# Bulk Modulus (GPa) = 17.55067 31.26874 24.40970
# Shear Modulus (GPa) = 21.19314 26.19801 23.69557
#
# Velocity S-wave (km/s) = 3.25712 3.62135 3.44405
# Velocity P-wave (km/s) = 4.78859 5.75656 5.29474
#
# Compressibility (1/GPa) = 0.05697789
#
# Stress axis : x y z
#
# Youngs Moduli (GPa) = 62.30462 83.14038 25.35561
#
# Poissons Ratio (x) = 0.39177 -0.04375
# Poissons Ratio (y) = 0.29359 0.05789
# Poissons Ratio (z) = -0.10752 0.18981
#
# Static dielectric constant tensor:
#      x y z
#    x 3.732500 0.000000 -0.167000 
#    y 0.000000 3.453020 0.000000 
#    z -0.167000 0.000000 3.662890 
# 
# 
# High freq. dielectric constant tensor:
#      x y z
#    x 1.785710 0.000000 -0.013560 
#    y 0.000000 1.765560 0.000000 
#    z -0.013560 0.000000 1.780230 
# 
# From -- ./inp_files/50128.got.cif
#   From: 2010.03.12/outbox.cif.g09.slc.cpg/sg5_26_cif.got.tgz:50128.got - 2010.03.31 09:47:26.
