data_PCOD8050265
_publ_section_title
;
Structure prediction by ZEFSAII (Michael W. Deem and Ramdas Pophale) SiO2 
 PCOD8050265
Probable space group: C 2
;
_chemical_formula_sum "Si O2"
_cell_formula_units_Z 30
_cell_length_a 11.708722
_cell_length_b 8.680745
_cell_length_c 15.363597
_cell_angle_alpha 90.000000
_cell_angle_beta 83.539720
_cell_angle_gamma 90.000000
_cell_volume 1551.646830
_symmetry_space_group_name_H-M "C 2"
_symmetry_group_IT_number 5
_symmetry_cell_setting 'monoclinic'
loop_
_space_group_symop_operation_xyz
x,y,z
-x,y,-z
1/2+x,1/2+y,z
1/2-x,1/2+y,-z
loop_
_atom_site_type_symbol
_atom_site_label
_atom_site_fract_x
_atom_site_fract_y
_atom_site_fract_z
Si Si1 0.875630 0.824690 0.538237
Si Si2 0.708433 0.992621 0.436818
Si Si3 0.758676 0.327682 0.737721
Si Si4 0.961887 0.948502 0.190082
Si Si5 0.578839 0.582988 0.338485
Si Si6 0.612167 0.272906 0.048344
Si Si7 0.259521 0.482343 0.092831
Si Si8 0.500000 0.792300 0.500000
O O1 0.795497 0.676019 0.553053
O O2 0.000000 0.764920 0.500000
O O3 0.829243 0.939086 0.467448
O O4 0.883225 0.917344 0.628109
O O5 0.702614 0.956332 0.335322
O O6 0.609798 0.903617 0.499133
O O7 0.619442 0.318512 0.757051
O O8 0.803539 0.163529 0.702360
O O9 0.808354 0.380747 0.828065
O O10 0.880885 0.039686 0.126520
O O11 0.071161 0.866561 0.136781
O O12 0.000695 0.068183 0.259896
O O13 0.509233 0.684090 0.414420
O O14 0.676426 0.117699 0.070017
O O15 0.500000 0.232433 0.000000
O O16 0.706891 0.375561 0.991361
#
# Coordination Sequence:
#
# PCOD8050265 Si02
#       8
#     4   4   4   4   4   4   4   2
#     4  12  25  40  66  90 123 179 214 260 321 371
#     4  11  23  42  63  91 131 168 222 267 313 372
#     4   9  22  40  59  92 127 157 205 264 300 371
#     4   9  22  39  66  87 126 159 201 251 313 361
#     4  11  22  39  64  90 130 165 214 258 311 367
#     4  10  21  43  64  91 123 161 197 255 310 384
#     4   9  22  41  65  89 126 154 202 251 313 374
#     4  10  22  42  62  92 128 176 218 270 308 374
#
# _framework density 19.334295999999998
#
# number of rings (size 3 to 8) (size 9 to 14) (size 15 to 20)
#    0.800    1.067    1.333    2.400    5.600    0.000 
#    2.400    0.000    0.000    0.000    0.000    0.000 
#    0.000    0.000    0.000    0.000    0.000    0.000 
#
# Total GULP energy -185919.199511 kJ/mol
# GULP energy per Si atom -12394.613301 kJ/mol
# Density = 1.929029 g / cm^3
# Si number density = 19.334296 Si / 1000 Ang^3
#
#
#
# Elastic Constant Matrix: (Units=GPa)
#
#
# Indices 1 2 3 4 5 6 
#
# 1 73.4623 37.8588 39.2311 0.0000 -7.2652 0.0000
# 2 37.8588 108.7854 54.6934 0.0000 -1.2335 0.0000
# 3 39.2311 54.6934 114.4183 0.0000 -16.4388 0.0000
# 4 0.0000 0.0000 0.0000 15.7503 0.0000 4.4490
# 5 -7.2652 -1.2335 -16.4388 0.0000 30.7586 0.0000
# 6 0.0000 0.0000 0.0000 4.4490 0.0000 38.9629
#
#
#
# Elastic Compliance Matrix: (Units=1/GPa)
#
#
# Indices 1 2 3 4 5 6 
#
# 1 0.018104 -0.004350 -0.003833 0.000000 0.002053 0.000000
# 2 -0.004350 0.013376 -0.005387 0.000000 -0.003370 0.000000
# 3 -0.003833 -0.005387 0.013505 0.000000 0.006096 0.000000
# 4 0.000000 0.000000 0.000000 0.065607 0.000000 -0.007491
# 5 0.002053 -0.003370 0.006096 0.000000 0.036119 0.000000
# 6 0.000000 0.000000 0.000000 -0.007491 0.000000 0.026521
#
#
# Mechanical properties :
#
#
# Convention : Reuss Voigt Hill
#
# Bulk Modulus (GPa) = 56.03577 62.24804 59.14191
# Shear Modulus (GPa) = 24.23407 28.08653 26.16030
#
# Velocity S-wave (km/s) = 3.54421 3.81554 3.68238
# Velocity P-wave (km/s) = 6.76713 7.18865 6.98107
#
# Compressibility (1/GPa) = 0.01784574
#
# Stress axis : x y z
#
# Youngs Moduli (GPa) = 55.23548 74.75884 74.04714
#
# Poissons Ratio (x) = 0.32521 0.28383
# Poissons Ratio (y) = 0.24028 0.39887
# Poissons Ratio (z) = 0.21172 0.40270
#
# Static dielectric constant tensor:
#      x y z
#    x 3.521520 0.000000 -0.119070 
#    y 0.000000 3.279370 0.000000 
#    z -0.119070 0.000000 3.700210 
# 
# 
# High freq. dielectric constant tensor:
#      x y z
#    x 1.750230 0.000000 -0.008820 
#    y 0.000000 1.734130 0.000000 
#    z -0.008820 0.000000 1.760890 
# 
# From -- ./inp_files/52281.got.cif
#   From: 2010.03.12/outbox.cif.g09.slc.cpg/sg5_27_cif.got.tgz:52281.got - 2010.03.31 09:47:26.
