data_PCOD8050355
_publ_section_title
;
Structure prediction by ZEFSAII (Michael W. Deem and Ramdas Pophale) SiO2 
 PCOD8050355
Probable space group: C 2
;
_chemical_formula_sum "Si O2"
_cell_formula_units_Z 18
_cell_length_a 21.343890
_cell_length_b 8.948245
_cell_length_c 8.416878
_cell_angle_alpha 90.000000
_cell_angle_beta 31.501233
_cell_angle_gamma 90.000000
_cell_volume 839.968163
_symmetry_space_group_name_H-M "C 2"
_symmetry_group_IT_number 5
_symmetry_cell_setting 'monoclinic'
loop_
_space_group_symop_operation_xyz
x,y,z
-x,y,-z
1/2+x,1/2+y,z
1/2-x,1/2+y,-z
loop_
_atom_site_type_symbol
_atom_site_label
_atom_site_fract_x
_atom_site_fract_y
_atom_site_fract_z
Si Si1 0.217044 0.406060 0.456572
Si Si2 0.591519 0.651813 0.525397
Si Si3 0.636201 0.337461 0.559259
Si Si4 0.671147 0.655651 0.005769
Si Si5 0.500000 0.098596 0.000000
O O1 0.156347 0.269999 0.495925
O O2 0.311283 0.338177 0.375574
O O3 0.116820 0.495639 0.775920
O O4 0.282390 0.510397 0.187343
O O5 0.579195 0.495513 0.642864
O O6 0.665591 0.622197 0.204558
O O7 0.457832 0.708626 0.779582
O O8 0.532251 0.209306 0.781697
O O9 0.739487 0.294625 0.211253
#
# Coordination Sequence:
#
# PCOD8050355 Si02
#       5
#     4   4   4   4   2
#     4  11  22  38  60  86 116 151 193 239 285 338
#     4  11  22  39  61  85 117 155 193 234 287 347
#     4  11  22  38  60  86 116 151 193 239 285 338
#     4  10  23  39  58  87 120 153 189 236 290 342
#     4  10  22  36  54  84 114 142 188 238 282 330
#
# _framework density 21.429382
#
# number of rings (size 3 to 8) (size 9 to 14) (size 15 to 20)
#    0.000    1.333    0.000    6.667    0.000    2.667 
#    0.000    0.000    0.000   18.667    0.000    0.000 
#    0.000    0.000    0.000    0.000    0.000    0.000 
#
# Total GULP energy -111592.343080 kJ/mol
# GULP energy per Si atom -12399.149231 kJ/mol
# Density = 2.138061 g / cm^3
# Si number density = 21.429382 Si / 1000 Ang^3
#
#
#
# Elastic Constant Matrix: (Units=GPa)
#
#
# Indices 1 2 3 4 5 6 
#
# 1 87.3957 29.2521 25.7251 0.0000 9.4847 0.0000
# 2 29.2521 89.9377 32.5076 0.0000 7.5894 0.0000
# 3 25.7251 32.5076 124.8228 0.0000 13.4896 0.0000
# 4 0.0000 0.0000 0.0000 38.7828 0.0000 2.5386
# 5 9.4847 7.5894 13.4896 0.0000 19.0778 0.0000
# 6 0.0000 0.0000 0.0000 2.5386 0.0000 29.1276
#
#
#
# Elastic Compliance Matrix: (Units=1/GPa)
#
#
# Indices 1 2 3 4 5 6 
#
# 1 0.013502 -0.003521 -0.001398 0.000000 -0.004323 0.000000
# 2 -0.003521 0.013336 -0.002559 0.000000 -0.001745 0.000000
# 3 -0.001398 -0.002559 0.009507 0.000000 -0.005009 0.000000
# 4 0.000000 0.000000 0.000000 0.025933 0.000000 -0.002260
# 5 -0.004323 -0.001745 -0.005009 0.000000 0.058802 0.000000
# 6 0.000000 0.000000 0.000000 -0.002260 0.000000 0.034529
#
#
# Mechanical properties :
#
#
# Convention : Reuss Voigt Hill
#
# Bulk Modulus (GPa) = 46.75445 53.01398 49.88421
# Shear Modulus (GPa) = 28.13813 31.70908 29.92360
#
# Velocity S-wave (km/s) = 3.62755 3.85086 3.74087
# Velocity P-wave (km/s) = 6.27780 6.67569 6.47980
#
# Compressibility (1/GPa) = 0.02138834
#
# Stress axis : x y z
#
# Youngs Moduli (GPa) = 74.06578 74.98381 105.18215
#
# Poissons Ratio (x) = 0.26403 0.14709
# Poissons Ratio (y) = 0.26079 0.26915
# Poissons Ratio (z) = 0.10357 0.19187
#
# Static dielectric constant tensor:
#      x y z
#    x 3.595190 0.000000 0.012590 
#    y 0.000000 3.935050 0.000000 
#    z 0.012590 0.000000 4.219790 
# 
# 
# High freq. dielectric constant tensor:
#      x y z
#    x 1.813060 0.000000 -0.000800 
#    y 0.000000 1.853360 0.000000 
#    z -0.000800 0.000000 1.866930 
# 
# From -- ./inp_files/17938.got.cif
#   From: 2010.03.12/outbox.cif.g09.slc.cpg/sg5_9_cif.got.tgz:17938.got - 2010.03.31 09:47:26.
