data_PCOD8050716
_publ_section_title
;
Structure prediction by ZEFSAII (Michael W. Deem and Ramdas Pophale) SiO2 
 PCOD8050716
Probable space group: C 2
;
_chemical_formula_sum "Si O2"
_cell_formula_units_Z 32
_cell_length_a 11.077348
_cell_length_b 9.091480
_cell_length_c 29.168563
_cell_angle_alpha 90.000000
_cell_angle_beta 148.511962
_cell_angle_gamma 90.000000
_cell_volume 1534.343252
_symmetry_space_group_name_H-M "C 2"
_symmetry_group_IT_number 5
_symmetry_cell_setting 'monoclinic'
loop_
_space_group_symop_operation_xyz
x,y,z
-x,y,-z
1/2+x,1/2+y,z
1/2-x,1/2+y,-z
loop_
_atom_site_type_symbol
_atom_site_label
_atom_site_fract_x
_atom_site_fract_y
_atom_site_fract_z
Si Si1 0.827327 0.515330 0.816366
Si Si2 0.900495 0.763894 0.145125
Si Si3 0.713790 0.879375 0.996957
Si Si4 0.081508 0.537771 0.477330
Si Si5 0.884742 0.003732 0.723917
Si Si6 0.217363 0.703975 0.745882
Si Si7 0.443057 0.604688 0.906165
Si Si8 0.270326 0.721173 0.454446
O O1 0.572155 0.560961 0.748757
O O2 0.808657 0.370883 0.778485
O O3 0.915591 0.657172 0.818532
O O4 0.986314 0.476550 0.912120
O O5 0.783989 0.882559 0.073355
O O6 0.689845 0.660999 0.092537
O O7 0.027916 0.848274 0.227419
O O8 0.661207 0.712299 0.964626
O O9 0.941790 0.946327 0.045666
O O10 0.232158 0.641986 0.492004
O O11 0.233528 0.395106 0.537755
O O12 0.000000 0.612794 0.500000
O O13 0.856560 0.475335 0.378933
O O14 0.866198 0.133489 0.754033
O O15 0.263104 0.606259 0.805945
O O16 0.945160 0.689224 0.648390
O O17 0.500000 0.670811 0.500000
#
# Coordination Sequence:
#
# PCOD8050716 Si02
#       8
#     4   4   4   4   4   4   4   4
#     4  11  24  39  61  93 122 169 210 256 310 365
#     4  12  24  39  64  89 125 163 212 258 311 367
#     4  11  22  38  61  90 120 166 210 250 305 364
#     4  10  23  41  66  95 129 166 210 265 324 390
#     4  11  23  42  64  88 127 166 205 261 316 372
#     4  10  22  43  60  92 128 160 206 260 313 370
#     4  11  23  40  64  88 125 164 208 258 308 365
#     4  10  22  42  68  94 125 167 212 263 326 384
#
# _framework density 20.855827999999999
#
# number of rings (size 3 to 8) (size 9 to 14) (size 15 to 20)
#    0.000    1.250    5.000    1.875    0.000    3.500 
#    0.000    3.750    0.000    0.000    0.000    0.000 
#    0.000    0.000    0.000    0.000    0.000    0.000 
#
# Total GULP energy -198290.489726 kJ/mol
# GULP energy per Si atom -12393.155608 kJ/mol
# Density = 2.080836 g / cm^3
# Si number density = 20.855828 Si / 1000 Ang^3
#
#
#
# Elastic Constant Matrix: (Units=GPa)
#
#
# Indices 1 2 3 4 5 6 
#
# 1 120.2882 56.0963 23.0463 0.0000 10.2128 0.0000
# 2 56.0963 63.0162 19.7584 0.0000 17.2058 0.0000
# 3 23.0463 19.7584 74.2144 0.0000 3.0755 0.0000
# 4 0.0000 0.0000 0.0000 21.8175 0.0000 -0.3694
# 5 10.2128 17.2058 3.0755 0.0000 24.8942 0.0000
# 6 0.0000 0.0000 0.0000 -0.3694 0.0000 37.5797
#
#
#
# Elastic Compliance Matrix: (Units=1/GPa)
#
#
# Indices 1 2 3 4 5 6 
#
# 1 0.014554 -0.013599 -0.001046 0.000000 0.003558 0.000000
# 2 -0.013599 0.034022 -0.004113 0.000000 -0.017428 0.000000
# 3 -0.001046 -0.004113 0.014835 0.000000 0.001439 0.000000
# 4 0.000000 0.000000 0.000000 0.045842 0.000000 0.000451
# 5 0.003558 -0.017428 0.001439 0.000000 0.050578 0.000000
# 6 0.000000 0.000000 0.000000 0.000451 0.000000 0.026615
#
#
# Mechanical properties :
#
#
# Convention : Reuss Voigt Hill
#
# Bulk Modulus (GPa) = 38.61766 50.59118 44.60442
# Shear Modulus (GPa) = 21.49679 27.43280 24.46480
#
# Velocity S-wave (km/s) = 3.21399 3.63072 3.42869
# Velocity P-wave (km/s) = 5.68591 6.47197 6.09163
#
# Compressibility (1/GPa) = 0.02589489
#
# Stress axis : x y z
#
# Youngs Moduli (GPa) = 68.71196 29.39251 67.40931
#
# Poissons Ratio (x) = 0.39970 0.07054
# Poissons Ratio (y) = 0.93439 0.27724
# Poissons Ratio (z) = 0.07190 0.12089
#
# Static dielectric constant tensor:
#      x y z
#    x 3.871420 0.000000 -0.079540 
#    y 0.000000 3.758070 0.000000 
#    z -0.079540 0.000000 4.020880 
# 
# 
# High freq. dielectric constant tensor:
#      x y z
#    x 1.810360 0.000000 -0.001480 
#    y 0.000000 1.800570 0.000000 
#    z -0.001480 0.000000 1.835800 
# 
# From -- ./inp_files/71777.got.cif
#   From: 2010.03.12/outbox.cif.g09.slc.cpg/sg5_36_cif.got.tgz:71777.got - 2010.03.31 09:47:26.
