data_PCOD8050370
_publ_section_title
;
Structure prediction by ZEFSAII (Michael W. Deem and Ramdas Pophale) SiO2 
 PCOD8050370
Probable space group: C 2
;
_chemical_formula_sum "Si O2"
_cell_formula_units_Z 30
_cell_length_a 14.961901
_cell_length_b 13.444111
_cell_length_c 15.480666
_cell_angle_alpha 90.000000
_cell_angle_beta 28.667764
_cell_angle_gamma 90.000000
_cell_volume 1493.844218
_symmetry_space_group_name_H-M "C 2"
_symmetry_group_IT_number 5
_symmetry_cell_setting 'monoclinic'
loop_
_space_group_symop_operation_xyz
x,y,z
-x,y,-z
1/2+x,1/2+y,z
1/2-x,1/2+y,-z
loop_
_atom_site_type_symbol
_atom_site_label
_atom_site_fract_x
_atom_site_fract_y
_atom_site_fract_z
Si Si1 0.000000 0.108660 0.000000
Si Si2 0.213847 0.530211 0.614217
Si Si3 0.697336 0.413972 0.306630
Si Si4 0.040379 0.906203 0.262297
Si Si5 0.606819 0.189579 0.585283
Si Si6 0.861318 0.411169 0.870738
Si Si7 0.557455 0.758378 0.811834
Si Si8 0.616373 0.015492 0.317604
O O1 0.050408 0.176378 0.040556
O O2 0.823913 0.041050 0.172054
O O3 0.288487 0.517113 0.649197
O O4 0.348027 0.466704 0.435289
O O5 0.203635 0.643453 0.589817
O O6 0.005756 0.488227 0.789092
O O7 0.500000 0.361617 0.500000
O O8 0.690085 0.434488 0.210773
O O9 0.868287 0.343223 0.185707
O O10 0.000828 0.788731 0.296758
O O11 0.149479 0.934961 0.081908
O O12 0.765342 0.209937 0.382269
O O13 0.468765 0.110828 0.658497
O O14 0.872138 0.421319 0.757687
O O15 0.918099 0.301346 0.856930
O O16 0.500000 0.982579 0.500000
#
# Coordination Sequence:
#
# PCOD8050370 Si02
#       8
#     2   4   4   4   4   4   4   4
#     4  12  24  34  64  96 116 156 204 254 314 360
#     4   9  21  35  52  91 123 155 193 250 308 356
#     4   9  16  32  55  84 117 151 188 246 299 347
#     4  11  20  36  62  85 122 158 203 250 302 365
#     4  11  20  36  61  88 126 158 198 258 306 359
#     4  10  22  37  56  91 116 161 198 246 301 365
#     4  11  19  34  58  88 120 151 200 243 308 354
#     4  11  24  39  58  91 128 155 202 260 309 361
#
# _framework density 20.082415999999998
#
# number of rings (size 3 to 8) (size 9 to 14) (size 15 to 20)
#    0.000    1.600    5.333    2.400    1.867    1.600 
#    0.000    0.000    0.000    2.400    6.933    0.000 
#    0.000    0.000    0.000    0.000    0.000    0.000 
#
# Total GULP energy -185909.666727 kJ/mol
# GULP energy per Si atom -12393.977782 kJ/mol
# Density = 2.003671 g / cm^3
# Si number density = 20.082416 Si / 1000 Ang^3
#
#
#
# Elastic Constant Matrix: (Units=GPa)
#
#
# Indices 1 2 3 4 5 6 
#
# 1 86.1234 49.4324 32.4681 -0.0197 17.5184 0.0103
# 2 49.4324 55.1117 33.7171 -0.0082 9.5417 0.0086
# 3 32.4681 33.7171 126.3684 -0.0174 15.8907 0.0127
# 4 -0.0197 -0.0082 -0.0174 13.7830 0.0165 3.1544
# 5 17.5184 9.5417 15.8907 0.0165 29.8896 -0.0093
# 6 0.0103 0.0086 0.0127 3.1544 -0.0093 29.6133
#
#
#
# Elastic Compliance Matrix: (Units=1/GPa)
#
#
# Indices 1 2 3 4 5 6 
#
# 1 0.025685 -0.021761 0.000242 0.000036 -0.008236 -0.000009
# 2 -0.021761 0.040605 -0.005591 -0.000018 0.002764 0.000001
# 3 0.000242 -0.005591 0.009791 0.000015 -0.003563 -0.000005
# 4 0.000036 -0.000018 0.000015 0.074366 -0.000067 -0.007922
# 5 -0.008236 0.002764 -0.003563 -0.000067 0.039296 0.000023
# 6 -0.000009 0.000001 -0.000005 -0.007922 0.000023 0.034612
#
#
# Mechanical properties :
#
#
# Convention : Reuss Voigt Hill
#
# Bulk Modulus (GPa) = 45.73871 55.42652 50.58262
# Shear Modulus (GPa) = 17.49102 24.78956 21.14029
#
# Velocity S-wave (km/s) = 2.95441 3.51720 3.24802
# Velocity P-wave (km/s) = 5.87052 6.64483 6.26964
#
# Compressibility (1/GPa) = 0.02186332
#
# Stress axis : x y z
#
# Youngs Moduli (GPa) = 38.93287 24.62751 102.13738
#
# Poissons Ratio (x) = 0.53591 -0.02477
# Poissons Ratio (y) = 0.84721 0.57101
# Poissons Ratio (z) = -0.00944 0.13768
#
# Static dielectric constant tensor:
#      x y z
#    x 3.850210 -0.000020 0.051560 
#    y -0.000020 3.515510 0.000030 
#    z 0.051560 0.000030 3.749680 
# 
# 
# High freq. dielectric constant tensor:
#      x y z
#    x 1.768460 0.000000 -0.004610 
#    y 0.000000 1.740890 0.000000 
#    z -0.004610 0.000000 1.802590 
# 
# From -- ./inp_files/54777.got.cif
#   From: 2010.03.12/outbox.cif.g09.slc.cpg/sg5_28_cif.got.tgz:54777.got - 2010.03.31 09:47:26.
