data_PCOD8050564
_publ_section_title
;
Structure prediction by ZEFSAII (Michael W. Deem and Ramdas Pophale) SiO2 
 PCOD8050564
Probable space group: C 2
;
_chemical_formula_sum "Si O2"
_cell_formula_units_Z 32
_cell_length_a 8.043457
_cell_length_b 25.312110
_cell_length_c 12.944478
_cell_angle_alpha 90.000000
_cell_angle_beta 31.085923
_cell_angle_gamma 90.000000
_cell_volume 1360.745961
_symmetry_space_group_name_H-M "C 2"
_symmetry_group_IT_number 5
_symmetry_cell_setting 'monoclinic'
loop_
_space_group_symop_operation_xyz
x,y,z
-x,y,-z
1/2+x,1/2+y,z
1/2-x,1/2+y,-z
loop_
_atom_site_type_symbol
_atom_site_label
_atom_site_fract_x
_atom_site_fract_y
_atom_site_fract_z
Si Si1 0.869785 0.393980 0.273771
Si Si2 0.649033 0.566973 0.649168
Si Si3 0.808806 0.252146 0.389688
Si Si4 0.718908 0.155129 0.576825
Si Si5 0.739285 0.593984 0.955492
Si Si6 0.863746 0.296710 0.965498
Si Si7 0.854150 0.340456 0.679311
Si Si8 0.753746 0.504705 0.274686
O O1 0.500000 0.396738 0.500000
O O2 0.955058 0.449835 0.172319
O O3 0.910875 0.347694 0.169831
O O4 0.108609 0.381465 0.244640
O O5 0.686031 0.599403 0.523628
O O6 0.436606 0.514887 0.733073
O O7 0.000000 0.548440 0.500000
O O8 0.469757 0.604308 0.829354
O O9 0.500000 0.278699 0.500000
O O10 0.685647 0.196329 0.500553
O O11 0.086424 0.252545 0.152094
O O12 0.921778 0.289258 0.422063
O O13 0.397511 0.147046 0.819215
O O14 0.000000 0.176561 0.500000
O O15 0.013409 0.553605 0.837167
O O16 0.500000 0.567771 0.000000
O O17 0.501716 0.318390 0.152108
O O18 0.000000 0.271771 0.000000
O O19 0.000000 0.368705 0.500000
O O20 0.500000 0.504053 0.500000
#
# Coordination Sequence:
#
# PCOD8050564 Si02
#       8
#     4   4   4   4   4   4   4   4
#     4  10  22  40  70 104 140 182 232 285 354 423
#     4  12  23  45  71  99 140 191 236 295 352 412
#     4  11  24  44  68 101 136 184 229 292 358 425
#     4  12  25  47  68  99 142 181 240 296 349 423
#     4  12  24  43  70  97 138 188 228 293 355 409
#     4  11  23  44  71 101 146 184 230 299 353 425
#     4  11  22  45  71 102 143 184 231 292 358 423
#     4  11  22  44  68 102 141 185 235 291 351 423
#
# _framework density 23.516511999999999
#
# number of rings (size 3 to 8) (size 9 to 14) (size 15 to 20)
#    0.000    0.750    3.750    5.625    0.000    2.000 
#    9.000    7.500    0.000    0.000    0.000    0.000 
#    0.000    0.000    0.000    0.000    0.000    0.000 
#
# Total GULP energy -198247.755271 kJ/mol
# GULP energy per Si atom -12390.484704 kJ/mol
# Density = 2.346299 g / cm^3
# Si number density = 23.516512 Si / 1000 Ang^3
#
#
#
# Elastic Constant Matrix: (Units=GPa)
#
#
# Indices 1 2 3 4 5 6 
#
# 1 145.4003 37.6474 50.4289 0.0000 -8.3566 0.0000
# 2 37.6474 91.8964 27.8097 0.0000 0.2600 0.0000
# 3 50.4289 27.8097 122.5554 0.0000 1.2388 0.0000
# 4 0.0000 0.0000 0.0000 32.8017 0.0000 -0.6281
# 5 -8.3566 0.2600 1.2388 0.0000 52.5032 0.0000
# 6 0.0000 0.0000 0.0000 -0.6281 0.0000 29.4120
#
#
#
# Elastic Compliance Matrix: (Units=1/GPa)
#
#
# Indices 1 2 3 4 5 6 
#
# 1 0.008686 -0.002659 -0.002985 0.000000 0.001466 0.000000
# 2 -0.002659 0.012498 -0.001737 0.000000 -0.000444 0.000000
# 3 -0.002985 -0.001737 0.009789 0.000000 -0.000698 0.000000
# 4 0.000000 0.000000 0.000000 0.030499 0.000000 0.000651
# 5 0.001466 -0.000444 -0.000698 0.000000 0.019298 0.000000
# 6 0.000000 0.000000 0.000000 0.000651 0.000000 0.034014
#
#
# Mechanical properties :
#
#
# Convention : Reuss Voigt Hill
#
# Bulk Modulus (GPa) = 61.69221 65.73603 63.71412
# Shear Modulus (GPa) = 37.05051 39.20778 38.12914
#
# Velocity S-wave (km/s) = 3.97358 4.08762 4.03100
# Velocity P-wave (km/s) = 6.88062 7.09169 6.98695
#
# Compressibility (1/GPa) = 0.01620950
#
# Stress axis : x y z
#
# Youngs Moduli (GPa) = 115.13132 80.01170 102.15210
#
# Poissons Ratio (x) = 0.21275 0.30497
# Poissons Ratio (y) = 0.30613 0.17748
# Poissons Ratio (z) = 0.34372 0.13901
#
# Static dielectric constant tensor:
#      x y z
#    x 4.381890 0.000000 0.001090 
#    y 0.000000 4.197080 0.000000 
#    z 0.001090 0.000000 4.334650 
# 
# 
# High freq. dielectric constant tensor:
#      x y z
#    x 1.947560 0.000000 -0.000270 
#    y 0.000000 1.896330 0.000000 
#    z -0.000270 0.000000 1.941750 
# 
# From -- ./inp_files/51733.got.cif
#   From: 2010.03.12/outbox.cif.g09.slc.cpg/sg5_26_cif.got.tgz:51733.got - 2010.03.31 09:47:26.
