data_PCOD8050096
_publ_section_title
;
Structure prediction by ZEFSAII (Michael W. Deem and Ramdas Pophale) SiO2 
 PCOD8050096
Probable space group: C 2
;
_chemical_formula_sum "Si O2"
_cell_formula_units_Z 20
_cell_length_a 9.162031
_cell_length_b 22.522151
_cell_length_c 7.892897
_cell_angle_alpha 90.000000
_cell_angle_beta 147.174289
_cell_angle_gamma 90.000000
_cell_volume 882.888238
_symmetry_space_group_name_H-M "C 2"
_symmetry_group_IT_number 5
_symmetry_cell_setting 'monoclinic'
loop_
_space_group_symop_operation_xyz
x,y,z
-x,y,-z
1/2+x,1/2+y,z
1/2-x,1/2+y,-z
loop_
_atom_site_type_symbol
_atom_site_label
_atom_site_fract_x
_atom_site_fract_y
_atom_site_fract_z
Si Si1 0.600340 0.726760 0.787081
Si Si2 0.476066 0.453820 0.177045
Si Si3 0.758128 0.839593 0.149407
Si Si4 0.976922 0.525915 0.677566
Si Si5 0.588557 0.158727 0.392572
O O1 0.500000 0.737132 0.500000
O O2 0.382526 0.687781 0.675172
O O3 0.637597 0.790556 0.907573
O O4 0.884526 0.693093 0.070027
O O5 0.400163 0.391561 0.183945
O O6 0.757644 0.477678 0.524938
O O7 0.500000 0.444578 0.000000
O O8 0.263014 0.504070 0.025984
O O9 0.000000 0.811861 0.500000
O O10 0.500000 0.864171 0.000000
O O11 0.000000 0.527472 0.500000
O O12 0.900038 0.591440 0.667160
O O13 0.500000 0.161226 0.500000
#
# Coordination Sequence:
#
# PCOD8050096 Si02
#       5
#     4   4   4   4   4
#     4  12  26  43  64  94 128 167 211 262 319 374
#     4  10  21  40  65  94 125 164 210 256 306 371
#     4  12  26  44  65  93 127 167 213 263 317 374
#     4   9  19  37  65  95 125 163 207 250 306 376
#     4  11  22  42  69  96 127 167 211 257 308 375
#
# _framework density 22.652923999999999
#
# number of rings (size 3 to 8) (size 9 to 14) (size 15 to 20)
#    0.000    1.200    0.000    6.600    0.000    8.800 
#    0.000   10.000    0.000    0.000    0.000    0.000 
#    0.000    0.000    0.000    0.000    0.000    0.000 
#
# Total GULP energy -124014.842813 kJ/mol
# GULP energy per Si atom -12401.484281 kJ/mol
# Density = 2.260136 g / cm^3
# Si number density = 22.652924 Si / 1000 Ang^3
#
#
#
# Elastic Constant Matrix: (Units=GPa)
#
#
# Indices 1 2 3 4 5 6 
#
# 1 78.3821 51.0654 34.2964 0.0000 8.3033 0.0000
# 2 51.0654 161.0014 31.1945 0.0000 9.4145 0.0000
# 3 34.2964 31.1945 106.4308 0.0000 8.0756 0.0000
# 4 0.0000 0.0000 0.0000 38.4386 0.0000 14.7911
# 5 8.3033 9.4145 8.0756 0.0000 42.7130 0.0000
# 6 0.0000 0.0000 0.0000 14.7911 0.0000 29.1552
#
#
#
# Elastic Compliance Matrix: (Units=1/GPa)
#
#
# Indices 1 2 3 4 5 6 
#
# 1 0.017886 -0.004755 -0.004247 0.000000 -0.001626 0.000000
# 2 -0.004755 0.007901 -0.000732 0.000000 -0.000679 0.000000
# 3 -0.004247 -0.000732 0.011063 0.000000 -0.001105 0.000000
# 4 0.000000 0.000000 0.000000 0.032326 0.000000 -0.016400
# 5 -0.001626 -0.000679 -0.001105 0.000000 0.024087 0.000000
# 6 0.000000 0.000000 0.000000 -0.016400 0.000000 0.042619
#
#
# Mechanical properties :
#
#
# Convention : Reuss Voigt Hill
#
# Bulk Modulus (GPa) = 57.52963 64.32521 60.92742
# Shear Modulus (GPa) = 31.02830 37.34523 34.18677
#
# Velocity S-wave (km/s) = 3.70500 4.06468 3.88900
# Velocity P-wave (km/s) = 6.61467 7.10538 6.86441
#
# Compressibility (1/GPa) = 0.01738235
#
# Stress axis : x y z
#
# Youngs Moduli (GPa) = 55.90845 126.56875 90.39513
#
# Poissons Ratio (x) = 0.60186 0.38387
# Poissons Ratio (y) = 0.26586 0.06616
# Poissons Ratio (z) = 0.23742 0.09264
#
# Static dielectric constant tensor:
#      x y z
#    x 3.984030 0.000000 0.249310 
#    y 0.000000 4.135090 0.000000 
#    z 0.249310 0.000000 4.543210 
# 
# 
# High freq. dielectric constant tensor:
#      x y z
#    x 1.884410 0.000000 0.014670 
#    y 0.000000 1.901920 0.000000 
#    z 0.014670 0.000000 1.909320 
# 
# From -- ./inp_files/3086.got.cif
#   From: 2010.03.12/outbox.cif.g09.slc.cpg/sg5_2_cif.got.tgz:3086.got - 2010.03.31 09:47:26.
