data_PCOD8050022
_publ_section_title
;
Structure prediction by ZEFSAII (Michael W. Deem and Ramdas Pophale) SiO2 
 PCOD8050022
Probable space group: C 2
;
_chemical_formula_sum "Si O2"
_cell_formula_units_Z 24
_cell_length_a 14.990606
_cell_length_b 13.971945
_cell_length_c 11.180798
_cell_angle_alpha 90.000000
_cell_angle_beta 152.455935
_cell_angle_gamma 90.000000
_cell_volume 1082.917763
_symmetry_space_group_name_H-M "C 2"
_symmetry_group_IT_number 5
_symmetry_cell_setting 'monoclinic'
loop_
_space_group_symop_operation_xyz
x,y,z
-x,y,-z
1/2+x,1/2+y,z
1/2-x,1/2+y,-z
loop_
_atom_site_type_symbol
_atom_site_label
_atom_site_fract_x
_atom_site_fract_y
_atom_site_fract_z
Si Si1 0.226452 0.186550 0.241450
Si Si2 0.308054 0.477980 0.839654
Si Si3 0.907697 0.778890 0.233618
Si Si4 0.790309 0.575593 0.777966
Si Si5 0.787289 0.271678 0.252941
Si Si6 0.409510 0.495294 0.233889
O O1 0.270850 0.217924 0.158470
O O2 0.369666 0.242284 0.501079
O O3 0.282503 0.074060 0.324212
O O4 0.000000 0.205090 0.000000
O O5 0.189223 0.380776 0.670895
O O6 0.500000 0.452027 0.000000
O O7 0.335217 0.501344 0.011137
O O8 0.906085 0.887279 0.278242
O O9 0.827467 0.773635 0.006456
O O10 0.812776 0.690984 0.783188
O O11 0.630477 0.532359 0.498937
O O12 0.729073 0.556585 0.843608
O O13 0.000000 0.528930 0.000000
O O14 0.000000 0.228717 0.500000
#
# Coordination Sequence:
#
# PCOD8050022 Si02
#       6
#     4   4   4   4   4   4
#     4  10  21  39  67  93 122 161 212 255 315 374
#     4  10  23  43  62  93 128 165 214 261 315 382
#     4  10  23  41  63  90 129 163 205 262 312 370
#     4  11  22  39  68  93 123 167 216 256 324 372
#     4  11  23  43  63  91 130 169 209 263 316 372
#     4  10  22  43  61  91 134 159 208 272 306 378
#
# _framework density 22.162347
#
# number of rings (size 3 to 8) (size 9 to 14) (size 15 to 20)
#    0.000    1.667    1.667    3.500    2.333    5.333 
#   12.000    0.000    0.000    0.000    0.000    0.000 
#    0.000    0.000    0.000    0.000    0.000    0.000 
#
# Total GULP energy -148686.229405 kJ/mol
# GULP energy per Si atom -12390.519117 kJ/mol
# Density = 2.211190 g / cm^3
# Si number density = 22.162347 Si / 1000 Ang^3
#
#
#
# Elastic Constant Matrix: (Units=GPa)
#
#
# Indices 1 2 3 4 5 6 
#
# 1 47.7696 4.3991 19.3375 0.0000 27.0165 0.0000
# 2 4.3991 141.7114 20.4333 0.0000 17.0971 0.0000
# 3 19.3375 20.4333 94.0014 0.0000 31.5521 0.0000
# 4 0.0000 0.0000 0.0000 -39.6956 0.0000 109.7949
# 5 27.0165 17.0971 31.5521 0.0000 39.0286 0.0000
# 6 0.0000 0.0000 0.0000 109.7949 0.0000 -139.6256
#
#
#
# Elastic Compliance Matrix: (Units=1/GPa)
#
#
# Indices 1 2 3 4 5 6 
#
# 1 0.034978 0.001884 0.001097 0.000000 -0.025925 0.000000
# 2 0.001884 0.007587 -0.000664 0.000000 -0.004091 0.000000
# 3 0.001097 -0.000664 0.014704 0.000000 -0.012356 0.000000
# 4 0.000000 0.000000 0.000000 0.021440 0.000000 0.016859
# 5 -0.025925 -0.004091 -0.012356 0.000000 0.055349 0.000000
# 6 0.000000 0.000000 0.000000 0.016859 0.000000 0.006095
#
#
# Mechanical properties :
#
#
# Convention : Reuss Voigt Hill
#
# Bulk Modulus (GPa) = 16.15411 41.31360 28.73385
# Shear Modulus (GPa) = 32.01951 -12.10435 9.95758
#
# Velocity S-wave (km/s) = 3.80514 -2.33956 2.12197
# Velocity P-wave (km/s) = 5.15851 3.37399 4.35856
#
# Compressibility (1/GPa) = 0.06190375
#
# Stress axis : x y z
#
# Youngs Moduli (GPa) = 28.58915 131.79737 68.00846
#
# Poissons Ratio (x) = -0.24828 -0.07459
# Poissons Ratio (y) = -0.05386 0.04513
# Poissons Ratio (z) = -0.03135 0.08745
#
# Static dielectric constant tensor:
#      x y z
#    x 3.839130 0.000000 0.741500 
#    y 0.000000 4.599860 0.000000 
#    z 0.741500 0.000000 7.362500 
# 
# 
# High freq. dielectric constant tensor:
#      x y z
#    x 1.853940 0.000000 0.009610 
#    y 0.000000 1.902170 0.000000 
#    z 0.009610 0.000000 1.868160 
# 
# From -- ./inp_files/43118.got.cif
#   From: 2010.03.12/outbox.cif.g09.slc.cpg/sg5_22_cif.got.tgz:43118.got - 2010.03.31 09:47:26.
