data_PCOD8050534
_publ_section_title
;
Structure prediction by ZEFSAII (Michael W. Deem and Ramdas Pophale) SiO2 
 PCOD8050534
Probable space group: C 2
;
_chemical_formula_sum "Si O2"
_cell_formula_units_Z 28
_cell_length_a 23.345211
_cell_length_b 10.521450
_cell_length_c 5.182878
_cell_angle_alpha 90.000000
_cell_angle_beta 89.559030
_cell_angle_gamma 90.000000
_cell_volume 1273.009142
_symmetry_space_group_name_H-M "C 2"
_symmetry_group_IT_number 5
_symmetry_cell_setting 'monoclinic'
loop_
_space_group_symop_operation_xyz
x,y,z
-x,y,-z
1/2+x,1/2+y,z
1/2-x,1/2+y,-z
loop_
_atom_site_type_symbol
_atom_site_label
_atom_site_fract_x
_atom_site_fract_y
_atom_site_fract_z
Si Si1 0.375127 0.024170 0.931140
Si Si2 0.325149 0.500605 0.902673
Si Si3 0.796815 0.677241 0.296408
Si Si4 0.500000 0.227691 0.500000
Si Si5 0.307925 0.639057 0.411107
Si Si6 0.215757 0.346976 0.949414
Si Si7 0.500000 0.058508 0.000000
Si Si8 0.380665 0.282823 0.635913
O O1 0.343566 0.079119 0.186738
O O2 0.336001 0.900648 0.866593
O O3 0.377664 0.134229 0.717469
O O4 0.440980 0.977450 0.978590
O O5 0.341138 0.604078 0.677762
O O6 0.257977 0.462879 0.871566
O O7 0.364665 0.375673 0.871538
O O8 0.335355 0.552052 0.187611
O O9 0.759936 0.613869 0.530898
O O10 0.833020 0.796795 0.412462
O O11 0.750800 0.734301 0.092798
O O12 0.444298 0.316761 0.537262
O O13 0.510124 0.144642 0.751573
O O14 0.311873 0.785212 0.310040
#
# Coordination Sequence:
#
# PCOD8050534 Si02
#       8
#     4   4   4   2   4   4   2   4
#     4  11  23  41  64  96 134 170 216 269 326 396
#     4  12  24  38  61  87 131 165 211 261 323 394
#     4  12  20  40  58  96 127 169 201 261 323 388
#     4  10  22  40  66  92 128 166 214 276 322 388
#     4  12  25  40  56  90 130 169 205 256 323 391
#     4  12  23  38  61  93 131 172 210 261 332 386
#     4  10  22  42  64  96 130 170 216 268 330 378
#     4  11  23  38  65  94 131 164 219 264 335 378
#
# _framework density 21.995128000000001
#
# number of rings (size 3 to 8) (size 9 to 14) (size 15 to 20)
#    0.000    0.571    7.143    1.714    0.000    1.143 
#    0.000    0.000    0.000    1.714    0.000    0.000 
#    0.000    0.000    0.000    0.000    0.000    0.000 
#
# Total GULP energy -173443.565095 kJ/mol
# GULP energy per Si atom -12388.826078 kJ/mol
# Density = 2.194507 g / cm^3
# Si number density = 21.995128 Si / 1000 Ang^3
#
#
#
# Elastic Constant Matrix: (Units=GPa)
#
#
# Indices 1 2 3 4 5 6 
#
# 1 149.1187 22.1865 22.0937 0.0000 -22.1613 0.0000
# 2 22.1865 58.1028 15.7646 0.0000 -5.3936 0.0000
# 3 22.0937 15.7646 104.3892 0.0000 -14.3903 0.0000
# 4 0.0000 0.0000 0.0000 35.1252 0.0000 -9.2854
# 5 -22.1613 -5.3936 -14.3903 0.0000 28.2002 0.0000
# 6 0.0000 0.0000 0.0000 -9.2854 0.0000 29.9654
#
#
#
# Elastic Compliance Matrix: (Units=1/GPa)
#
#
# Indices 1 2 3 4 5 6 
#
# 1 0.007963 -0.002375 -0.000566 0.000000 0.005514 0.000000
# 2 -0.002375 0.018783 -0.002255 0.000000 0.000576 0.000000
# 3 -0.000566 -0.002255 0.010670 0.000000 0.004568 0.000000
# 4 0.000000 0.000000 0.000000 0.031010 0.000000 0.009609
# 5 0.005514 0.000576 0.004568 0.000000 0.042235 0.000000
# 6 0.000000 0.000000 0.000000 0.009609 0.000000 0.036349
#
#
# Mechanical properties :
#
#
# Convention : Reuss Voigt Hill
#
# Bulk Modulus (GPa) = 37.00504 47.96671 42.48588
# Shear Modulus (GPa) = 30.04626 35.42920 32.73773
#
# Velocity S-wave (km/s) = 3.70001 4.01780 3.86217
# Velocity P-wave (km/s) = 5.92572 6.58626 6.26470
#
# Compressibility (1/GPa) = 0.02702334
#
# Stress axis : x y z
#
# Youngs Moduli (GPa) = 125.58262 53.23983 93.72383
#
# Poissons Ratio (x) = 0.12645 0.05309
# Poissons Ratio (y) = 0.29826 0.21130
# Poissons Ratio (z) = 0.07114 0.12003
#
# Static dielectric constant tensor:
#      x y z
#    x 4.176820 0.000000 -0.208700 
#    y 0.000000 3.882990 0.000000 
#    z -0.208700 0.000000 4.052300 
# 
# 
# High freq. dielectric constant tensor:
#      x y z
#    x 1.838240 0.000000 -0.017130 
#    y 0.000000 1.837190 0.000000 
#    z -0.017130 0.000000 1.879630 
# 
# From -- ./inp_files/9477.got.cif
#   From: 2010.03.12/outbox.cif.g09.slc.cpg/sg5_5_cif.got.tgz:9477.got - 2010.03.31 09:47:26.
