data_PCOD8050875
_publ_section_title
;
Structure prediction by ZEFSAII (Michael W. Deem and Ramdas Pophale) SiO2 
 PCOD8050875
Probable space group: C 2
;
_chemical_formula_sum "Si O2"
_cell_formula_units_Z 22
_cell_length_a 21.155704
_cell_length_b 9.624994
_cell_length_c 12.859125
_cell_angle_alpha 90.000000
_cell_angle_beta 157.896015
_cell_angle_gamma 90.000000
_cell_volume 985.281998
_symmetry_space_group_name_H-M "C 2"
_symmetry_group_IT_number 5
_symmetry_cell_setting 'monoclinic'
loop_
_space_group_symop_operation_xyz
x,y,z
-x,y,-z
1/2+x,1/2+y,z
1/2-x,1/2+y,-z
loop_
_atom_site_type_symbol
_atom_site_label
_atom_site_fract_x
_atom_site_fract_y
_atom_site_fract_z
Si Si1 0.880799 0.901760 0.701471
Si Si2 0.255913 0.495812 0.714049
Si Si3 0.500000 0.157934 0.000000
Si Si4 0.310905 0.250139 0.242066
Si Si5 0.499927 0.758030 0.376197
Si Si6 0.722313 0.501423 0.668264
O O1 0.861729 0.751198 0.727903
O O2 0.792024 0.012811 0.644859
O O3 0.793013 0.905576 0.457269
O O4 0.079408 0.924213 0.985925
O O5 0.239104 0.645015 0.742484
O O6 0.092124 0.400327 0.483625
O O7 0.408531 0.065510 0.948165
O O8 0.500000 0.212597 0.500000
O O9 0.299671 0.407701 0.264621
O O10 0.190106 0.248427 0.957291
O O11 0.500000 0.749444 0.500000
O O12 0.588144 0.624017 0.462443
#
# Coordination Sequence:
#
# PCOD8050875 Si02
#       6
#     4   4   2   4   4   4
#     4  10  22  44  73 107 139 176 226 298 352 429
#     4  10  23  46  74  99 143 186 229 286 369 413
#     4  10  24  42  68 110 140 184 216 292 364 416
#     4  12  30  46  68 108 144 190 244 300 341 422
#     4  12  27  48  73  98 142 199 245 287 354 423
#     4  12  26  43  75 107 142 179 244 290 355 426
#
# _framework density 22.328631999999999
#
# number of rings (size 3 to 8) (size 9 to 14) (size 15 to 20)
#    0.000    1.091    5.455    1.091    7.636    5.818 
#    0.000    0.000    0.000    0.000    0.000    0.000 
#    0.000    0.000    0.000    0.000    0.000    0.000 
#
# Total GULP energy -136372.240630 kJ/mol
# GULP energy per Si atom -12397.476421 kJ/mol
# Density = 2.227781 g / cm^3
# Si number density = 22.328632 Si / 1000 Ang^3
#
#
#
# Elastic Constant Matrix: (Units=GPa)
#
#
# Indices 1 2 3 4 5 6 
#
# 1 100.1945 15.5145 52.4541 0.0000 -6.8213 0.0000
# 2 15.5145 80.3698 30.5501 0.0000 -2.8430 0.0000
# 3 52.4541 30.5501 124.3710 0.0000 1.2005 0.0000
# 4 0.0000 0.0000 0.0000 19.6144 0.0000 5.3422
# 5 -6.8213 -2.8430 1.2005 0.0000 41.1708 0.0000
# 6 0.0000 0.0000 0.0000 5.3422 0.0000 38.4932
#
#
#
# Elastic Compliance Matrix: (Units=1/GPa)
#
#
# Indices 1 2 3 4 5 6 
#
# 1 0.013036 -0.000372 -0.005429 0.000000 0.002293 0.000000
# 2 -0.000372 0.013780 -0.003237 0.000000 0.000984 0.000000
# 3 -0.005429 -0.003237 0.011139 0.000000 -0.001448 0.000000
# 4 0.000000 0.000000 0.000000 0.052986 0.000000 -0.007354
# 5 0.002293 0.000984 -0.001448 0.000000 0.024779 0.000000
# 6 0.000000 0.000000 0.000000 -0.007354 0.000000 0.026999
#
#
# Mechanical properties :
#
#
# Convention : Reuss Voigt Hill
#
# Bulk Modulus (GPa) = 50.30438 55.77474 53.03956
# Shear Modulus (GPa) = 29.86459 33.61679 31.74069
#
# Velocity S-wave (km/s) = 3.66116 3.88435 3.77440
# Velocity P-wave (km/s) = 6.36004 6.71943 6.54220
#
# Compressibility (1/GPa) = 0.01987898
#
# Stress axis : x y z
#
# Youngs Moduli (GPa) = 76.70809 72.57045 89.77156
#
# Poissons Ratio (x) = 0.02698 0.48737
# Poissons Ratio (y) = 0.02852 0.29064
# Poissons Ratio (z) = 0.41645 0.23495
#
# Static dielectric constant tensor:
#      x y z
#    x 4.018610 0.000000 0.115920 
#    y 0.000000 4.093730 0.000000 
#    z 0.115920 0.000000 3.923190 
# 
# 
# High freq. dielectric constant tensor:
#      x y z
#    x 1.883290 0.000000 0.007850 
#    y 0.000000 1.881670 0.000000 
#    z 0.007850 0.000000 1.874290 
# 
# From -- ./inp_files/57654.got.cif
#   From: 2010.03.12/outbox.cif.g09.slc.cpg/sg5_29_cif.got.tgz:57654.got - 2010.03.31 09:47:26.
