data_PCOD8050445
_publ_section_title
;
Structure prediction by ZEFSAII (Michael W. Deem and Ramdas Pophale) SiO2 
 PCOD8050445
Probable space group: C 2
;
_chemical_formula_sum "Si O2"
_cell_formula_units_Z 18
_cell_length_a 7.704127
_cell_length_b 24.519592
_cell_length_c 5.056528
_cell_angle_alpha 90.000000
_cell_angle_beta 120.500166
_cell_angle_gamma 90.000000
_cell_volume 823.016868
_symmetry_space_group_name_H-M "C 2"
_symmetry_group_IT_number 5
_symmetry_cell_setting 'monoclinic'
loop_
_space_group_symop_operation_xyz
x,y,z
-x,y,-z
1/2+x,1/2+y,z
1/2-x,1/2+y,-z
loop_
_atom_site_type_symbol
_atom_site_label
_atom_site_fract_x
_atom_site_fract_y
_atom_site_fract_z
Si Si1 0.500000 0.009890 0.000000
Si Si2 0.370706 0.182337 0.629742
Si Si3 0.000000 0.578548 0.500000
Si Si4 0.762488 0.843955 0.832209
Si Si5 0.235379 0.912805 0.670829
Si Si6 0.500000 0.748355 0.500000
O O1 0.412935 0.044061 0.183658
O O2 0.673344 0.973149 0.266130
O O3 0.500000 0.213001 0.500000
O O4 0.333732 0.119281 0.505518
O O5 0.151156 0.209600 0.456853
O O6 0.500000 0.184969 0.000000
O O7 0.693247 0.874641 0.513402
O O8 0.644903 0.787214 0.786612
O O9 0.692161 0.883608 0.008506
O O10 0.000000 0.830906 0.000000
O O11 0.000000 0.921166 0.500000
#
# Coordination Sequence:
#
# PCOD8050445 Si02
#       6
#     2   4   2   4   4   2
#     4  12  20  40  70  86 120 176 210 252 334 374
#     4  10  24  46  61  92 135 164 216 276 309 370
#     4  10  22  45  62  90 132 161 210 286 306 356
#     4  10  22  39  61  97 134 161 205 262 311 386
#     4  10  22  40  60  95 131 158 207 262 311 385
#     4  12  24  41  74  94 124 187 210 248 338 382
#
# _framework density 21.870753000000001
#
# number of rings (size 3 to 8) (size 9 to 14) (size 15 to 20)
#    0.667    0.889    1.111    3.333    0.000    7.111 
#    2.000    2.222    0.000    0.000    0.000    0.000 
#    0.000    0.000    0.000    0.000    0.000    0.000 
#
# Total GULP energy -111503.735145 kJ/mol
# GULP energy per Si atom -12389.303905 kJ/mol
# Density = 2.182097 g / cm^3
# Si number density = 21.870753 Si / 1000 Ang^3
#
#
#
# Elastic Constant Matrix: (Units=GPa)
#
#
# Indices 1 2 3 4 5 6 
#
# 1 120.3088 68.0691 60.8319 0.0000 -16.6489 0.0000
# 2 68.0691 146.9493 56.5530 0.0000 -0.5707 0.0000
# 3 60.8319 56.5530 131.4659 0.0000 -19.3907 0.0000
# 4 0.0000 0.0000 0.0000 6.6974 0.0000 -6.2377
# 5 -16.6489 -0.5707 -19.3907 0.0000 32.8693 0.0000
# 6 0.0000 0.0000 0.0000 -6.2377 0.0000 35.1961
#
#
#
# Elastic Compliance Matrix: (Units=1/GPa)
#
#
# Indices 1 2 3 4 5 6 
#
# 1 0.013472 -0.004902 -0.003429 0.000000 0.004716 0.000000
# 2 -0.004902 0.010075 -0.002635 0.000000 -0.003863 0.000000
# 3 -0.003429 -0.002635 0.011023 0.000000 0.004720 0.000000
# 4 0.000000 0.000000 0.000000 0.178829 0.000000 0.031694
# 5 0.004716 -0.003863 0.004720 0.000000 0.035530 0.000000
# 6 0.000000 0.000000 0.000000 0.031694 0.000000 0.034029
#
#
# Mechanical properties :
#
#
# Convention : Reuss Voigt Hill
#
# Bulk Modulus (GPa) = 79.13762 85.51465 82.32614
# Shear Modulus (GPa) = 16.17571 29.17057 22.67314
#
# Velocity S-wave (km/s) = 2.72252 3.65604 3.22326
# Velocity P-wave (km/s) = 6.79305 7.55030 7.18167
#
# Compressibility (1/GPa) = 0.01263621
#
# Stress axis : x y z
#
# Youngs Moduli (GPa) = 74.22637 99.25406 90.71698
#
# Poissons Ratio (x) = 0.48659 0.31111
# Poissons Ratio (y) = 0.36389 0.23907
# Poissons Ratio (z) = 0.25456 0.26157
#
# Static dielectric constant tensor:
#      x y z
#    x 3.986070 0.000000 -0.165450 
#    y 0.000000 4.032100 0.000000 
#    z -0.165450 0.000000 3.711970 
# 
# 
# High freq. dielectric constant tensor:
#      x y z
#    x 1.859740 0.000000 -0.010030 
#    y 0.000000 1.864730 0.000000 
#    z -0.010030 0.000000 1.860610 
# 
# From -- ./inp_files/3276.got.cif
#   From: 2010.03.12/outbox.cif.g09.slc.cpg/sg5_2_cif.got.tgz:3276.got - 2010.03.31 09:47:26.
