data_PCOD8050040
_publ_section_title
;
Structure prediction by ZEFSAII (Michael W. Deem and Ramdas Pophale) SiO2 
 PCOD8050040
Probable space group: C 2
;
_chemical_formula_sum "Si O2"
_cell_formula_units_Z 30
_cell_length_a 10.882348
_cell_length_b 9.179952
_cell_length_c 14.686578
_cell_angle_alpha 90.000000
_cell_angle_beta 91.590280
_cell_angle_gamma 90.000000
_cell_volume 1466.615701
_symmetry_space_group_name_H-M "C 2"
_symmetry_group_IT_number 5
_symmetry_cell_setting 'monoclinic'
loop_
_space_group_symop_operation_xyz
x,y,z
-x,y,-z
1/2+x,1/2+y,z
1/2-x,1/2+y,-z
loop_
_atom_site_type_symbol
_atom_site_label
_atom_site_fract_x
_atom_site_fract_y
_atom_site_fract_z
Si Si1 0.276501 0.154190 0.470010
Si Si2 0.677997 0.925302 0.755495
Si Si3 0.500000 0.341431 0.500000
Si Si4 0.381586 0.865024 0.442374
Si Si5 0.231759 0.145529 0.107334
Si Si6 0.035622 0.156595 0.818490
Si Si7 0.369985 0.429075 0.039502
Si Si8 0.398692 0.522776 0.662331
O O1 0.398962 0.242517 0.448768
O O2 0.206100 0.223374 0.555444
O O3 0.314230 0.990838 0.499442
O O4 0.193919 0.149235 0.376075
O O5 0.596246 0.923173 0.660539
O O6 0.626844 0.795442 0.817693
O O7 0.821938 0.911245 0.726806
O O8 0.678224 0.076845 0.812899
O O9 0.443882 0.440678 0.575716
O O10 0.500000 0.817711 0.500000
O O11 0.296847 0.285338 0.066522
O O12 0.097201 0.195782 0.140813
O O13 0.212847 0.018213 0.033269
O O14 0.106798 0.032016 0.873916
O O15 0.012422 0.097453 0.715956
O O16 0.500000 0.380036 0.000000
#
# Coordination Sequence:
#
# PCOD8050040 Si02
#       8
#     4   4   2   4   4   4   4   4
#     4  11  22  38  56  85 112 159 214 261 310 362
#     4  10  21  40  59  89 127 160 209 258 307 368
#     4  12  22  38  60  84 120 164 216 276 312 362
#     4  11  23  38  58  83 120 163 212 262 309 361
#     4  10  22  41  64  97 127 157 203 252 305 381
#     4  10  22  40  62  89 124 163 200 256 310 373
#     4  10  22  42  68  95 124 159 198 247 311 379
#     4  10  24  38  59  87 123 163 217 263 310 369
#
# _framework density 20.455255000000001
#
# number of rings (size 3 to 8) (size 9 to 14) (size 15 to 20)
#    0.000    1.600    3.333    1.600    2.800    4.267 
#    0.000    4.000    0.000    0.000    0.000    0.000 
#    0.000    0.000    0.000    0.000    0.000    0.000 
#
# Total GULP energy -185870.889302 kJ/mol
# GULP energy per Si atom -12391.392620 kJ/mol
# Density = 2.040870 g / cm^3
# Si number density = 20.455255 Si / 1000 Ang^3
#
#
#
# Elastic Constant Matrix: (Units=GPa)
#
#
# Indices 1 2 3 4 5 6 
#
# 1 91.3880 66.2394 45.9498 0.0000 -2.3274 0.0000
# 2 66.2394 130.5108 55.8916 0.0000 -21.3059 0.0000
# 3 45.9498 55.8916 96.6660 0.0000 -1.7895 0.0000
# 4 0.0000 0.0000 0.0000 23.7537 0.0000 -1.0494
# 5 -2.3274 -21.3059 -1.7895 0.0000 30.5836 0.0000
# 6 0.0000 0.0000 0.0000 -1.0494 0.0000 36.2347
#
#
#
# Elastic Compliance Matrix: (Units=1/GPa)
#
#
# Indices 1 2 3 4 5 6 
#
# 1 0.019302 -0.008813 -0.004171 0.000000 -0.004914 0.000000
# 2 -0.008813 0.015824 -0.004774 0.000000 0.010074 0.000000
# 3 -0.004171 -0.004774 0.015036 0.000000 -0.002763 0.000000
# 4 0.000000 0.000000 0.000000 0.042153 0.000000 0.001221
# 5 -0.004914 0.010074 -0.002763 0.000000 0.039179 0.000000
# 6 0.000000 0.000000 0.000000 0.001221 0.000000 0.027633
#
#
# Mechanical properties :
#
#
# Convention : Reuss Voigt Hill
#
# Bulk Modulus (GPa) = 68.26831 72.74738 70.50784
# Shear Modulus (GPa) = 25.05974 28.14666 26.60320
#
# Velocity S-wave (km/s) = 3.50394 3.71349 3.61023
# Velocity P-wave (km/s) = 7.05812 7.35037 7.20573
#
# Compressibility (1/GPa) = 0.01464809
#
# Stress axis : x y z
#
# Youngs Moduli (GPa) = 51.80909 63.19609 66.50560
#
# Poissons Ratio (x) = 0.55692 0.27737
# Poissons Ratio (y) = 0.45657 0.31748
# Poissons Ratio (z) = 0.21607 0.30168
#
# Static dielectric constant tensor:
#      x y z
#    x 3.998730 0.000000 0.076730 
#    y 0.000000 3.990270 0.000000 
#    z 0.076730 0.000000 3.853250 
# 
# 
# High freq. dielectric constant tensor:
#      x y z
#    x 1.800370 0.000000 0.005320 
#    y 0.000000 1.794710 0.000000 
#    z 0.005320 0.000000 1.798710 
# 
# From -- ./inp_files/52273.got.cif
#   From: 2010.03.12/outbox.cif.g09.slc.cpg/sg5_27_cif.got.tgz:52273.got - 2010.03.31 09:47:26.
