data_PCOD8050733
_publ_section_title
;
Structure prediction by ZEFSAII (Michael W. Deem and Ramdas Pophale) SiO2 
 PCOD8050733
Probable space group: C 2
;
_chemical_formula_sum "Si O2"
_cell_formula_units_Z 26
_cell_length_a 19.866127
_cell_length_b 7.665577
_cell_length_c 14.519022
_cell_angle_alpha 90.000000
_cell_angle_beta 146.977803
_cell_angle_gamma 90.000000
_cell_volume 1204.933722
_symmetry_space_group_name_H-M "C 2"
_symmetry_group_IT_number 5
_symmetry_cell_setting 'monoclinic'
loop_
_space_group_symop_operation_xyz
x,y,z
-x,y,-z
1/2+x,1/2+y,z
1/2-x,1/2+y,-z
loop_
_atom_site_type_symbol
_atom_site_label
_atom_site_fract_x
_atom_site_fract_y
_atom_site_fract_z
Si Si1 0.214319 0.772430 0.154529
Si Si2 0.272456 0.884223 0.786866
Si Si3 0.500000 0.455994 0.500000
Si Si4 0.931230 0.218572 0.271681
Si Si5 0.674965 0.897526 0.528216
Si Si6 0.696936 0.734275 0.363202
Si Si7 0.075415 0.095638 0.933922
O O1 0.180061 0.566573 0.114478
O O2 0.320449 0.805701 0.200883
O O3 0.261711 0.816136 0.310092
O O4 0.100542 0.895771 0.994565
O O5 0.301572 0.888932 0.710852
O O6 0.346496 0.723839 0.913093
O O7 0.127266 0.847251 0.642656
O O8 0.504186 0.575045 0.414141
O O9 0.027446 0.372012 0.358526
O O10 0.882650 0.126462 0.123111
O O11 0.732779 0.809573 0.503345
O O12 0.696303 0.103348 0.547661
O O13 0.568685 0.629380 0.217755
#
# Coordination Sequence:
#
# PCOD8050733 Si02
#       7
#     4   4   2   4   4   4   4
#     4  11  23  44  71  96 135 179 218 285 341 391
#     4  11  23  45  67 101 129 179 223 279 334 406
#     4  10  22  42  70  94 134 172 224 282 330 392
#     4  10  22  43  68 101 134 172 229 285 325 411
#     4  11  21  43  69  94 136 178 223 279 332 390
#     4  11  25  44  66 102 138 179 229 280 328 415
#     4  11  26  45  65 100 143 171 228 281 339 401
#
# _framework density 21.577950999999999
#
# number of rings (size 3 to 8) (size 9 to 14) (size 15 to 20)
#    0.000    1.231    4.615    1.385    6.462    1.231 
#   11.077    0.000    0.000    0.000    0.000    0.000 
#    0.000    0.000    0.000    0.000    0.000    0.000 
#
# Total GULP energy -161218.106967 kJ/mol
# GULP energy per Si atom -12401.392844 kJ/mol
# Density = 2.152884 g / cm^3
# Si number density = 21.577951 Si / 1000 Ang^3
#
#
#
# Elastic Constant Matrix: (Units=GPa)
#
#
# Indices 1 2 3 4 5 6 
#
# 1 128.1163 30.3161 33.7356 0.0000 -22.4297 0.0000
# 2 30.3161 90.6963 29.2156 0.0000 2.8083 0.0000
# 3 33.7356 29.2156 76.0550 0.0000 -15.2998 0.0000
# 4 0.0000 0.0000 0.0000 32.7634 0.0000 3.1019
# 5 -22.4297 2.8083 -15.2998 0.0000 34.2690 0.0000
# 6 0.0000 0.0000 0.0000 3.1019 0.0000 33.1272
#
#
#
# Elastic Compliance Matrix: (Units=1/GPa)
#
#
# Indices 1 2 3 4 5 6 
#
# 1 0.010082 -0.002841 -0.002204 0.000000 0.005847 0.000000
# 2 -0.002841 0.013778 -0.005091 0.000000 -0.005262 0.000000
# 3 -0.002204 -0.005091 0.017442 0.000000 0.006762 0.000000
# 4 0.000000 0.000000 0.000000 0.030795 0.000000 -0.002884
# 5 0.005847 -0.005262 0.006762 0.000000 0.036458 0.000000
# 6 0.000000 0.000000 0.000000 -0.002884 0.000000 0.030457
#
#
# Mechanical properties :
#
#
# Convention : Reuss Voigt Hill
#
# Bulk Modulus (GPa) = 47.55231 53.48911 50.52071
# Shear Modulus (GPa) = 30.06714 33.47192 31.76953
#
# Velocity S-wave (km/s) = 3.73690 3.94281 3.84124
# Velocity P-wave (km/s) = 6.38001 6.75058 6.56791
#
# Compressibility (1/GPa) = 0.02102947
#
# Stress axis : x y z
#
# Youngs Moduli (GPa) = 99.18839 72.57790 57.33261
#
# Poissons Ratio (x) = 0.20619 0.12638
# Poissons Ratio (y) = 0.28179 0.29189
# Poissons Ratio (z) = 0.21865 0.36950
#
# Static dielectric constant tensor:
#      x y z
#    x 4.119370 0.000000 -0.170790 
#    y 0.000000 3.829430 0.000000 
#    z -0.170790 0.000000 3.893790 
# 
# 
# High freq. dielectric constant tensor:
#      x y z
#    x 1.866530 0.000000 -0.012860 
#    y 0.000000 1.834810 0.000000 
#    z -0.012860 0.000000 1.842210 
# 
# From -- ./inp_files/56842.got.cif
#   From: 2010.03.12/outbox.cif.g09.slc.cpg/sg5_29_cif.got.tgz:56842.got - 2010.03.31 09:47:26.
