data_PCOD8050524
_publ_section_title
;
Structure prediction by ZEFSAII (Michael W. Deem and Ramdas Pophale) SiO2 
 PCOD8050524
Probable space group: C 2
;
_chemical_formula_sum "Si O2"
_cell_formula_units_Z 20
_cell_length_a 21.063166
_cell_length_b 8.107209
_cell_length_c 5.140063
_cell_angle_alpha 90.000000
_cell_angle_beta 118.929213
_cell_angle_gamma 90.000000
_cell_volume 768.209556
_symmetry_space_group_name_H-M "C 2"
_symmetry_group_IT_number 5
_symmetry_cell_setting 'monoclinic'
loop_
_space_group_symop_operation_xyz
x,y,z
-x,y,-z
1/2+x,1/2+y,z
1/2-x,1/2+y,-z
loop_
_atom_site_type_symbol
_atom_site_label
_atom_site_fract_x
_atom_site_fract_y
_atom_site_fract_z
Si Si1 0.915351 0.466280 0.278091
Si Si2 0.549887 0.288027 0.853703
Si Si3 0.415007 0.608302 0.282336
Si Si4 0.706351 0.486693 0.643404
Si Si5 0.707324 0.098937 0.683042
O O1 0.901848 0.619070 0.048136
O O2 0.889224 0.286703 0.115370
O O3 0.871608 0.508760 0.458446
O O4 0.000000 0.451148 0.500000
O O5 0.500000 0.282993 0.500000
O O6 0.600820 0.453074 0.944931
O O7 0.500000 0.297705 0.000000
O O8 0.500000 0.615242 0.500000
O O9 0.372158 0.573369 0.467246
O O10 0.693949 0.291989 0.628500
O O11 0.740946 0.532878 0.438092
O O12 0.757699 0.553049 0.971844
#
# Coordination Sequence:
#
# PCOD8050524 Si02
#       5
#     4   4   4   4   4
#     4  10  22  44  72 104 141 183 236 292 353 423
#     4  10  22  40  64  96 134 174 221 278 343 402
#     4  10  22  44  72 104 141 183 236 292 353 423
#     4  12  26  47  73 105 146 191 241 298 361 433
#     4  12  26  47  73 105 146 191 241 298 361 433
#
# _framework density 26.034565000000001
#
# number of rings (size 3 to 8) (size 9 to 14) (size 15 to 20)
#    0.000    1.200    2.000    3.600    0.000    7.200 
#    0.000    8.000    0.000    0.000    0.000    0.000 
#    0.000    0.000    0.000    0.000    0.000    0.000 
#
# Total GULP energy -123896.581949 kJ/mol
# GULP energy per Si atom -12389.658195 kJ/mol
# Density = 2.597531 g / cm^3
# Si number density = 26.034565 Si / 1000 Ang^3
#
#
#
# Elastic Constant Matrix: (Units=GPa)
#
#
# Indices 1 2 3 4 5 6 
#
# 1 203.0200 56.6550 26.1922 0.0000 -40.0302 0.0000
# 2 56.6550 308.3552 11.8109 0.0000 -32.5587 0.0000
# 3 26.1922 11.8109 51.5936 0.0000 -28.5912 0.0000
# 4 0.0000 0.0000 0.0000 30.2989 0.0000 -8.5685
# 5 -40.0302 -32.5587 -28.5912 0.0000 42.5789 0.0000
# 6 0.0000 0.0000 0.0000 -8.5685 0.0000 44.2515
#
#
#
# Elastic Compliance Matrix: (Units=1/GPa)
#
#
# Indices 1 2 3 4 5 6 
#
# 1 0.006135 -0.000565 -0.000045 0.000000 0.005305 0.000000
# 2 -0.000565 0.003619 0.001111 0.000000 0.002982 0.000000
# 3 -0.000045 0.001111 0.031213 0.000000 0.021766 0.000000
# 4 0.000000 0.000000 0.000000 0.034916 0.000000 0.006761
# 5 0.005305 0.002982 0.021766 0.000000 0.045369 0.000000
# 6 0.000000 0.000000 0.000000 0.006761 0.000000 0.023907
#
#
# Mechanical properties :
#
#
# Convention : Reuss Voigt Hill
#
# Bulk Modulus (GPa) = 23.82757 83.58723 53.70740
# Shear Modulus (GPa) = 31.61576 54.64657 43.13116
#
# Velocity S-wave (km/s) = 3.48857 4.58646 4.07466
# Velocity P-wave (km/s) = 5.03974 7.76037 6.54303
#
# Compressibility (1/GPa) = 0.04196819
#
# Stress axis : x y z
#
# Youngs Moduli (GPa) = 162.99110 276.30444 32.03817
#
# Poissons Ratio (x) = 0.15621 0.00145
# Poissons Ratio (y) = 0.09215 -0.03559
# Poissons Ratio (z) = 0.00737 -0.30698
#
# Static dielectric constant tensor:
#      x y z
#    x 5.468710 0.000000 -0.492990 
#    y 0.000000 9.196730 0.000000 
#    z -0.492990 0.000000 4.470140 
# 
# 
# High freq. dielectric constant tensor:
#      x y z
#    x 2.076500 0.000000 -0.018950 
#    y 0.000000 2.082080 0.000000 
#    z -0.018950 0.000000 1.991250 
# 
# From -- ./inp_files/8032.got.cif
#   From: 2010.03.12/outbox.cif.g09.slc.cpg/sg5_5_cif.got.tgz:8032.got - 2010.03.31 09:47:26.
