data_PCOD8050097
_publ_section_title
;
Structure prediction by ZEFSAII (Michael W. Deem and Ramdas Pophale) SiO2 
 PCOD8050097
Probable space group: C 2
;
_chemical_formula_sum "Si O2"
_cell_formula_units_Z 12
_cell_length_a 9.007275
_cell_length_b 5.295136
_cell_length_c 11.645877
_cell_angle_alpha 90.000000
_cell_angle_beta 48.917074
_cell_angle_gamma 90.000000
_cell_volume 418.673428
_symmetry_space_group_name_H-M "C 2"
_symmetry_group_IT_number 5
_symmetry_cell_setting 'monoclinic'
loop_
_space_group_symop_operation_xyz
x,y,z
-x,y,-z
1/2+x,1/2+y,z
1/2-x,1/2+y,-z
loop_
_atom_site_type_symbol
_atom_site_label
_atom_site_fract_x
_atom_site_fract_y
_atom_site_fract_z
Si Si1 0.271383 0.816060 0.123457
Si Si2 0.120274 0.315448 0.175650
Si Si3 0.209999 0.722789 0.450430
O O1 0.143553 0.577561 0.237287
O O2 0.191792 0.078953 0.218655
O O3 0.500000 0.767626 0.000000
O O4 0.227186 0.845863 0.007717
O O5 0.884826 0.274362 0.264599
O O6 0.244010 0.437420 0.477650
O O7 0.000000 0.765981 0.500000
#
# Coordination Sequence:
#
# PCOD8050097 Si02
#       3
#     4   4   4
#     4  10  21  40  65  96 127 171 221 290 347 404
#     4  10  23  39  65  96 130 173 229 281 347 411
#     4  12  28  49  73 106 143 194 238 291 350 424
#
# _framework density 28.661954999999999
#
# number of rings (size 3 to 8) (size 9 to 14) (size 15 to 20)
#    0.000    1.333    0.000    4.000    9.333    0.000 
#    0.000    0.000    0.000    0.000    0.000    0.000 
#    0.000    0.000    0.000    0.000    0.000    0.000 
#
# Total GULP energy -74338.985321 kJ/mol
# GULP energy per Si atom -12389.830887 kJ/mol
# Density = 2.859672 g / cm^3
# Si number density = 28.661955 Si / 1000 Ang^3
#
#
#
# Elastic Constant Matrix: (Units=GPa)
#
#
# Indices 1 2 3 4 5 6 
#
# 1 87.8380 52.6924 13.7724 0.0000 -54.4466 0.0000
# 2 52.6924 292.4751 16.6513 0.0000 -36.9218 0.0000
# 3 13.7724 16.6513 98.9660 0.0000 -14.1914 0.0000
# 4 0.0000 0.0000 0.0000 30.2838 0.0000 -10.9376
# 5 -54.4466 -36.9218 -14.1914 0.0000 63.5136 0.0000
# 6 0.0000 0.0000 0.0000 -10.9376 0.0000 43.7713
#
#
#
# Elastic Compliance Matrix: (Units=1/GPa)
#
#
# Indices 1 2 3 4 5 6 
#
# 1 0.025303 -0.001957 -0.000253 0.000000 0.020497 0.000000
# 2 -0.001957 0.003851 -0.000305 0.000000 0.000493 0.000000
# 3 -0.000253 -0.000305 0.010470 0.000000 0.001945 0.000000
# 4 0.000000 0.000000 0.000000 0.036297 0.000000 0.009070
# 5 0.020497 0.000493 0.001945 0.000000 0.034037 0.000000
# 6 0.000000 0.000000 0.000000 0.009070 0.000000 0.025112
#
#
# Mechanical properties :
#
#
# Convention : Reuss Voigt Hill
#
# Bulk Modulus (GPa) = 28.90565 71.72348 50.31456
# Shear Modulus (GPa) = 32.97473 53.92459 43.44966
#
# Velocity S-wave (km/s) = 3.39554 4.34222 3.89772
# Velocity P-wave (km/s) = 5.04775 7.08647 6.15215
#
# Compressibility (1/GPa) = 0.03459532
#
# Stress axis : x y z
#
# Youngs Moduli (GPa) = 39.52084 259.65597 95.51157
#
# Poissons Ratio (x) = 0.50807 0.02415
# Poissons Ratio (y) = 0.07733 0.02913
# Poissons Ratio (z) = 0.00999 0.07918
#
# Static dielectric constant tensor:
#      x y z
#    x 5.307700 0.000000 1.047470 
#    y 0.000000 6.168780 0.000000 
#    z 1.047470 0.000000 7.076250 
# 
# 
# High freq. dielectric constant tensor:
#      x y z
#    x 2.147570 0.000000 -0.006850 
#    y 0.000000 2.190790 0.000000 
#    z -0.006850 0.000000 2.180010 
# 
# From -- ./inp_files/17712.got.cif
#   From: 2010.03.12/outbox.cif.g09.slc.cpg/sg5_9_cif.got.tgz:17712.got - 2010.03.31 09:47:26.
