data_PCOD8050198
_publ_section_title
;
Structure prediction by ZEFSAII (Michael W. Deem and Ramdas Pophale) SiO2 
 PCOD8050198
Probable space group: C 2
;
_chemical_formula_sum "Si O2"
_cell_formula_units_Z 32
_cell_length_a 10.701693
_cell_length_b 9.661248
_cell_length_c 27.406548
_cell_angle_alpha 90.000000
_cell_angle_beta 30.924487
_cell_angle_gamma 90.000000
_cell_volume 1456.214563
_symmetry_space_group_name_H-M "C 2"
_symmetry_group_IT_number 5
_symmetry_cell_setting 'monoclinic'
loop_
_space_group_symop_operation_xyz
x,y,z
-x,y,-z
1/2+x,1/2+y,z
1/2-x,1/2+y,-z
loop_
_atom_site_type_symbol
_atom_site_label
_atom_site_fract_x
_atom_site_fract_y
_atom_site_fract_z
Si Si1 0.485711 0.250000 0.783486
Si Si2 0.466364 0.558320 0.237314
Si Si3 0.228128 0.600506 0.953467
Si Si4 0.556439 0.127913 0.578888
Si Si5 0.549120 0.440358 0.587420
Si Si6 0.550322 0.831032 0.063954
Si Si7 0.231288 0.102804 0.395548
Si Si8 0.806909 0.530657 0.212031
O O1 0.602250 0.399744 0.750049
O O2 0.606680 0.197312 0.693278
O O3 0.555043 0.153243 0.805991
O O4 0.194025 0.266863 0.878079
O O5 0.540509 0.616812 0.159645
O O6 0.686352 0.583601 0.201776
O O7 0.227887 0.631444 0.338967
O O8 0.271893 0.701126 0.985084
O O9 0.184128 0.439749 0.983194
O O10 0.000000 0.656994 0.000000
O O11 0.649465 0.285702 0.548940
O O12 0.591438 0.054036 0.620151
O O13 0.720524 0.044043 0.485467
O O14 0.377192 0.474200 0.598588
O O15 0.399849 0.457860 0.686924
O O16 0.496619 0.911719 0.132726
O O17 0.000000 0.179083 0.500000
#
# Coordination Sequence:
#
# PCOD8050198 Si02
#       8
#     4   4   4   4   4   4   4   4
#     4  10  21  41  69  97 132 179 219 271 335 390
#     4  11  24  40  64  99 132 176 217 278 331 393
#     4  12  25  46  69 100 134 169 221 276 334 401
#     4  11  23  41  65  94 138 173 228 275 330 387
#     4  10  23  41  64  97 132 180 225 270 325 401
#     4  11  26  45  72  98 132 173 221 274 337 397
#     4   9  20  39  64  90 133 175 225 267 322 388
#     4  10  22  43  66 100 138 172 225 268 330 401
#
# _framework density 21.974784
#
# number of rings (size 3 to 8) (size 9 to 14) (size 15 to 20)
#    0.000    1.500    2.500    3.000    7.000    2.500 
#    4.500    0.000    0.000    0.000    0.000    0.000 
#    0.000    0.000    0.000    0.000    0.000    0.000 
#
# Total GULP energy -198320.681023 kJ/mol
# GULP energy per Si atom -12395.042564 kJ/mol
# Density = 2.192477 g / cm^3
# Si number density = 21.974784 Si / 1000 Ang^3
#
#
#
# Elastic Constant Matrix: (Units=GPa)
#
#
# Indices 1 2 3 4 5 6 
#
# 1 87.1203 42.7499 23.9132 -0.0004 -4.0185 0.0002
# 2 42.7499 105.8446 30.3144 0.0011 -10.2558 0.0016
# 3 23.9132 30.3144 81.0873 -0.0008 -0.2632 0.0003
# 4 -0.0004 0.0011 -0.0008 39.4169 -0.0006 -3.3397
# 5 -4.0185 -10.2558 -0.2632 -0.0006 34.4170 0.0006
# 6 0.0002 0.0016 0.0003 -3.3397 0.0006 38.6925
#
#
#
# Elastic Compliance Matrix: (Units=1/GPa)
#
#
# Indices 1 2 3 4 5 6 
#
# 1 0.014712 -0.005249 -0.002376 0.000000 0.000136 0.000000
# 2 -0.005249 0.012800 -0.003227 0.000000 0.003177 -0.000001
# 3 -0.002376 -0.003227 0.014236 0.000000 -0.001130 0.000000
# 4 0.000000 0.000000 0.000000 0.025557 0.000000 0.002206
# 5 0.000136 0.003177 -0.001130 0.000000 0.030009 -0.000001
# 6 0.000000 -0.000001 0.000000 0.002206 -0.000001 0.026035
#
#
# Mechanical properties :
#
#
# Convention : Reuss Voigt Hill
#
# Bulk Modulus (GPa) = 49.88905 52.00081 50.94493
# Shear Modulus (GPa) = 32.95242 34.31025 33.63133
#
# Velocity S-wave (km/s) = 3.87661 3.95567 3.91634
# Velocity P-wave (km/s) = 6.54138 6.67670 6.60939
#
# Compressibility (1/GPa) = 0.02004448
#
# Stress axis : x y z
#
# Youngs Moduli (GPa) = 67.97032 78.12696 70.24503
#
# Poissons Ratio (x) = 0.41005 0.16691
# Poissons Ratio (y) = 0.35674 0.22668
# Poissons Ratio (z) = 0.16151 0.25212
#
# Static dielectric constant tensor:
#      x y z
#    x 4.005260 0.000010 0.080160 
#    y 0.000010 3.799970 -0.000010 
#    z 0.080160 -0.000010 4.154000 
# 
# 
# High freq. dielectric constant tensor:
#      x y z
#    x 1.861600 0.000000 0.006570 
#    y 0.000000 1.849110 0.000000 
#    z 0.006570 0.000000 1.878490 
# 
# From -- ./inp_files/71753.got.cif
#   From: 2010.03.12/outbox.cif.g09.slc.cpg/sg5_36_cif.got.tgz:71753.got - 2010.03.31 09:47:26.
