data_PCOD8050308
_publ_section_title
;
Structure prediction by ZEFSAII (Michael W. Deem and Ramdas Pophale) SiO2 
 PCOD8050308
Probable space group: C 2
;
_chemical_formula_sum "Si O2"
_cell_formula_units_Z 28
_cell_length_a 13.534199
_cell_length_b 6.647331
_cell_length_c 17.431787
_cell_angle_alpha 90.000000
_cell_angle_beta 122.787081
_cell_angle_gamma 90.000000
_cell_volume 1318.429757
_symmetry_space_group_name_H-M "C 2"
_symmetry_group_IT_number 5
_symmetry_cell_setting 'monoclinic'
loop_
_space_group_symop_operation_xyz
x,y,z
-x,y,-z
1/2+x,1/2+y,z
1/2-x,1/2+y,-z
loop_
_atom_site_type_symbol
_atom_site_label
_atom_site_fract_x
_atom_site_fract_y
_atom_site_fract_z
Si Si1 0.672784 0.665210 0.145458
Si Si2 0.244951 0.633842 0.401248
Si Si3 0.374555 0.773172 0.589415
Si Si4 0.155142 0.928047 0.869548
Si Si5 0.500000 0.963717 0.000000
Si Si6 0.000000 0.189487 0.500000
Si Si7 0.191056 0.779014 0.049157
Si Si8 0.109737 0.978323 0.270758
O O1 0.655148 0.455468 0.092587
O O2 0.675050 0.619969 0.236868
O O3 0.793925 0.775492 0.173025
O O4 0.564474 0.817311 0.087201
O O5 0.150900 0.455404 0.363902
O O6 0.253989 0.725981 0.491508
O O7 0.378949 0.562957 0.434195
O O8 0.195852 0.790349 0.319070
O O9 0.475933 0.820306 0.567784
O O10 0.413181 0.586689 0.657984
O O11 0.192954 0.161196 0.870445
O O12 0.015356 0.905477 0.814231
O O13 0.214171 0.871607 0.975625
O O14 0.408575 0.109198 0.003663
#
# Coordination Sequence:
#
# PCOD8050308 Si02
#       8
#     4   4   4   4   2   2   4   4
#     4  11  25  42  63 104 137 181 237 289 354 410
#     4  10  21  44  68  96 132 181 227 284 353 415
#     4  10  21  44  68  93 134 177 229 284 348 422
#     4  11  25  42  68  99 136 189 232 291 343 423
#     4  10  22  40  70  90 130 184 226 292 354 414
#     4   8  20  42  72  92 124 184 222 272 348 420
#     4  11  22  44  68  91 137 186 236 279 358 421
#     4  12  26  40  66 106 139 171 240 292 339 415
#
# _framework density 21.237385
#
# number of rings (size 3 to 8) (size 9 to 14) (size 15 to 20)
#    0.857    0.571    2.857    2.143    2.000    8.000 
#    0.000    5.000    0.000    0.000    0.000    0.000 
#    0.000    0.000    0.000    0.000    0.000    0.000 
#
# Total GULP energy -173483.406283 kJ/mol
# GULP energy per Si atom -12391.671877 kJ/mol
# Density = 2.118905 g / cm^3
# Si number density = 21.237385 Si / 1000 Ang^3
#
#
#
# Elastic Constant Matrix: (Units=GPa)
#
#
# Indices 1 2 3 4 5 6 
#
# 1 122.0470 35.6008 27.2532 0.0000 -8.9352 0.0000
# 2 35.6008 96.6545 19.1478 0.0000 -4.6285 0.0000
# 3 27.2532 19.1478 62.5759 0.0000 -4.6125 0.0000
# 4 0.0000 0.0000 0.0000 28.4812 0.0000 -4.1543
# 5 -8.9352 -4.6285 -4.6125 0.0000 27.2402 0.0000
# 6 0.0000 0.0000 0.0000 -4.1543 0.0000 35.0839
#
#
#
# Elastic Compliance Matrix: (Units=1/GPa)
#
#
# Indices 1 2 3 4 5 6 
#
# 1 0.009934 -0.002904 -0.003275 0.000000 0.002210 0.000000
# 2 -0.002904 0.011910 -0.002330 0.000000 0.000677 0.000000
# 3 -0.003275 -0.002330 0.018239 0.000000 0.001618 0.000000
# 4 0.000000 0.000000 0.000000 0.035728 0.000000 0.004231
# 5 0.002210 0.000677 0.001618 0.000000 0.037824 0.000000
# 6 0.000000 0.000000 0.000000 0.004231 0.000000 0.029004
#
#
# Mechanical properties :
#
#
# Convention : Reuss Voigt Hill
#
# Bulk Modulus (GPa) = 43.35524 49.47566 46.41545
# Shear Modulus (GPa) = 29.87844 31.44609 30.66226
#
# Velocity S-wave (km/s) = 3.75491 3.85215 3.80384
# Velocity P-wave (km/s) = 6.26562 6.56754 6.41835
#
# Compressibility (1/GPa) = 0.02306526
#
# Stress axis : x y z
#
# Youngs Moduli (GPa) = 100.66607 83.96462 54.82779
#
# Poissons Ratio (x) = 0.24386 0.17955
# Poissons Ratio (y) = 0.29237 0.12772
# Poissons Ratio (z) = 0.32966 0.19560
#
# Static dielectric constant tensor:
#      x y z
#    x 3.761390 0.000000 -0.024100 
#    y 0.000000 3.918450 0.000000 
#    z -0.024100 0.000000 3.645130 
# 
# 
# High freq. dielectric constant tensor:
#      x y z
#    x 1.834080 0.000000 -0.004170 
#    y 0.000000 1.824980 0.000000 
#    z -0.004170 0.000000 1.818150 
# 
# From -- ./inp_files/65565.got.cif
#   From: 2010.03.12/outbox.cif.g09.slc.cpg/sg5_33_cif.got.tgz:65565.got - 2010.03.31 09:47:26.
