data_PCOD8050663
_publ_section_title
;
Structure prediction by ZEFSAII (Michael W. Deem and Ramdas Pophale) SiO2 
 PCOD8050663
Probable space group: C 2
;
_chemical_formula_sum "Si O2"
_cell_formula_units_Z 24
_cell_length_a 15.312683
_cell_length_b 8.334968
_cell_length_c 14.573932
_cell_angle_alpha 90.000000
_cell_angle_beta 37.020923
_cell_angle_gamma 90.000000
_cell_volume 1119.967379
_symmetry_space_group_name_H-M "C 2"
_symmetry_group_IT_number 5
_symmetry_cell_setting 'monoclinic'
loop_
_space_group_symop_operation_xyz
x,y,z
-x,y,-z
1/2+x,1/2+y,z
1/2-x,1/2+y,-z
loop_
_atom_site_type_symbol
_atom_site_label
_atom_site_fract_x
_atom_site_fract_y
_atom_site_fract_z
Si Si1 0.811017 0.781650 0.491662
Si Si2 0.957698 0.123479 0.353543
Si Si3 0.000000 0.989692 0.000000
Si Si4 0.905275 0.651208 0.785963
Si Si5 0.500000 0.804718 0.500000
Si Si6 0.298999 0.096433 0.683837
Si Si7 0.156150 0.944928 0.050789
O O1 0.649552 0.765799 0.587989
O O2 0.813704 0.724008 0.592675
O O3 0.923230 0.670796 0.336522
O O4 0.861009 0.964882 0.447262
O O5 0.026757 0.188506 0.390130
O O6 0.078474 0.087078 0.174513
O O7 0.869118 0.096819 0.147014
O O8 0.064772 0.895371 0.034967
O O9 0.895498 0.667943 0.684538
O O10 0.818736 0.793629 0.906746
O O11 0.822596 0.489790 0.885117
O O12 0.357514 0.918068 0.607488
#
# Coordination Sequence:
#
# PCOD8050663 Si02
#       7
#     4   4   2   4   2   4   4
#     4  11  22  44  64  93 127 172 216 272 319 383
#     4  11  26  40  66  95 130 167 226 266 322 385
#     4  10  22  42  62  92 122 174 204 266 314 390
#     4  10  23  38  66  92 125 170 208 267 309 387
#     4  12  26  40  68  96 124 180 216 274 320 388
#     4  11  22  43  67  88 132 169 216 261 339 369
#     4  10  23  41  64  92 131 166 220 254 328 378
#
# _framework density 21.429193999999999
#
# number of rings (size 3 to 8) (size 9 to 14) (size 15 to 20)
#    0.000    1.333    3.333    1.000   11.667    0.000 
#    0.000    0.000    0.000    1.000    0.000    0.000 
#    0.000    0.000    0.000    0.000    0.000    0.000 
#
# Total GULP energy -148681.936760 kJ/mol
# GULP energy per Si atom -12390.161397 kJ/mol
# Density = 2.138042 g / cm^3
# Si number density = 21.429194 Si / 1000 Ang^3
#
#
#
# Elastic Constant Matrix: (Units=GPa)
#
#
# Indices 1 2 3 4 5 6 
#
# 1 46.4411 5.4132 -1.3444 0.0000 21.0741 0.0000
# 2 5.4132 40.7747 -4.7151 0.0000 12.2186 0.0000
# 3 -1.3444 -4.7151 80.2613 0.0000 2.7454 0.0000
# 4 0.0000 0.0000 0.0000 35.3061 0.0000 6.4887
# 5 21.0741 12.2186 2.7454 0.0000 43.2592 0.0000
# 6 0.0000 0.0000 0.0000 6.4887 0.0000 33.1647
#
#
#
# Elastic Compliance Matrix: (Units=1/GPa)
#
#
# Indices 1 2 3 4 5 6 
#
# 1 0.027723 0.000543 0.000966 0.000000 -0.013720 0.000000
# 2 0.000543 0.027076 0.001874 0.000000 -0.008031 0.000000
# 3 0.000966 0.001874 0.012647 0.000000 -0.001802 0.000000
# 4 0.000000 0.000000 0.000000 0.029380 0.000000 -0.005748
# 5 -0.013720 -0.008031 -0.001802 0.000000 0.032183 0.000000
# 6 0.000000 0.000000 0.000000 -0.005748 0.000000 0.031277
#
#
# Mechanical properties :
#
#
# Convention : Reuss Voigt Hill
#
# Bulk Modulus (GPa) = 13.47487 18.46492 15.96989
# Shear Modulus (GPa) = 28.04895 33.55421 30.80158
#
# Velocity S-wave (km/s) = 3.62182 3.96133 3.79537
# Velocity P-wave (km/s) = 4.87768 5.43676 5.16479
#
# Compressibility (1/GPa) = 0.07421223
#
# Stress axis : x y z
#
# Youngs Moduli (GPa) = 36.07063 36.93263 79.06852
#
# Poissons Ratio (x) = -0.02004 -0.07635
# Poissons Ratio (y) = -0.01957 -0.14821
# Poissons Ratio (z) = -0.03483 -0.06923
#
# Static dielectric constant tensor:
#      x y z
#    x 3.955710 0.000000 0.083960 
#    y 0.000000 3.560300 0.000000 
#    z 0.083960 0.000000 4.297910 
# 
# 
# High freq. dielectric constant tensor:
#      x y z
#    x 1.837040 0.000000 0.004820 
#    y 0.000000 1.814060 0.000000 
#    z 0.004820 0.000000 1.870250 
# 
# From -- ./inp_files/22810.got.cif
#   From: 2010.03.12/outbox.cif.g09.slc.cpg/sg5_12_cif.got.tgz:22810.got - 2010.03.31 09:47:26.
