data_PCOD8050667
_publ_section_title
;
Structure prediction by ZEFSAII (Michael W. Deem and Ramdas Pophale) SiO2 
 PCOD8050667
Probable space group: C 2
;
_chemical_formula_sum "Si O2"
_cell_formula_units_Z 26
_cell_length_a 11.890595
_cell_length_b 8.166050
_cell_length_c 23.365092
_cell_angle_alpha 90.000000
_cell_angle_beta 147.213540
_cell_angle_gamma 90.000000
_cell_volume 1228.539830
_symmetry_space_group_name_H-M "C 2"
_symmetry_group_IT_number 5
_symmetry_cell_setting 'monoclinic'
loop_
_space_group_symop_operation_xyz
x,y,z
-x,y,-z
1/2+x,1/2+y,z
1/2-x,1/2+y,-z
loop_
_atom_site_type_symbol
_atom_site_label
_atom_site_fract_x
_atom_site_fract_y
_atom_site_fract_z
Si Si1 0.630088 0.628140 0.789381
Si Si2 0.968969 0.296944 0.615003
Si Si3 0.787978 0.872757 0.939696
Si Si4 0.677801 0.222186 0.928509
Si Si5 0.213472 0.087461 0.558790
Si Si6 0.000000 0.423685 0.000000
Si Si7 0.158477 0.851904 0.298396
O O1 0.621030 0.687880 0.719987
O O2 0.623229 0.787923 0.826860
O O3 0.841609 0.531854 0.894593
O O4 0.424428 0.519514 0.710057
O O5 0.817805 0.176553 0.515487
O O6 0.841840 0.423240 0.600024
O O7 0.111730 0.386557 0.628274
O O8 0.676377 0.029704 0.917580
O O9 0.845740 0.743674 0.013788
O O10 0.000000 0.926242 0.000000
O O11 0.888272 0.306636 0.997416
O O12 0.484787 0.304971 0.815665
O O13 0.345663 0.208087 0.656063
O O14 0.000000 0.039828 0.500000
#
# Coordination Sequence:
#
# PCOD8050667 Si02
#       7
#     4   4   4   4   4   2   4
#     4  11  23  41  62  94 134 165 217 260 313 378
#     4  11  23  42  69  91 127 165 204 269 324 383
#     4  12  24  40  61  91 128 177 218 265 311 376
#     4  11  23  41  64  90 133 174 219 265 317 372
#     4  10  23  44  67  94 123 159 213 261 329 386
#     4  10  22  42  62  94 130 180 218 260 314 380
#     4  10  23  41  61  94 126 162 211 267 313 382
#
# _framework density 21.163333999999999
#
# number of rings (size 3 to 8) (size 9 to 14) (size 15 to 20)
#    0.000    1.231    1.538    4.615    2.154    1.231 
#    5.538    0.000    0.000    0.000    0.000    0.000 
#    0.000    0.000    0.000    0.000    0.000    0.000 
#
# Total GULP energy -161239.645107 kJ/mol
# GULP energy per Si atom -12403.049624 kJ/mol
# Density = 2.111517 g / cm^3
# Si number density = 21.163334 Si / 1000 Ang^3
#
#
#
# Elastic Constant Matrix: (Units=GPa)
#
#
# Indices 1 2 3 4 5 6 
#
# 1 92.9315 33.8183 26.4305 0.0000 -4.0562 0.0000
# 2 33.8183 89.9383 8.8653 0.0000 14.0896 0.0000
# 3 26.4305 8.8653 72.0643 -0.0001 -6.8721 -0.0003
# 4 0.0000 0.0000 -0.0001 25.8342 0.0000 1.0176
# 5 -4.0562 14.0896 -6.8721 0.0000 33.5061 -0.0001
# 6 0.0000 0.0000 -0.0003 1.0176 -0.0001 40.7391
#
#
#
# Elastic Compliance Matrix: (Units=1/GPa)
#
#
# Indices 1 2 3 4 5 6 
#
# 1 0.014034 -0.005347 -0.004195 0.000000 0.003087 0.000000
# 2 -0.005347 0.014224 -0.000429 0.000000 -0.006717 0.000000
# 3 -0.004195 -0.000429 0.015745 0.000000 0.002902 0.000000
# 4 0.000000 0.000000 0.000000 0.038746 0.000000 -0.000968
# 5 0.003087 -0.006717 0.002902 0.000000 0.033639 0.000000
# 6 0.000000 0.000000 0.000000 -0.000968 0.000000 0.024571
#
#
# Mechanical properties :
#
#
# Convention : Reuss Voigt Hill
#
# Bulk Modulus (GPa) = 41.56288 43.68469 42.62379
# Shear Modulus (GPa) = 29.59955 32.40390 31.00172
#
# Velocity S-wave (km/s) = 3.74388 3.91722 3.83153
# Velocity P-wave (km/s) = 6.19440 6.41451 6.30541
#
# Compressibility (1/GPa) = 0.02405993
#
# Stress axis : x y z
#
# Youngs Moduli (GPa) = 71.25357 70.30419 63.51384
#
# Poissons Ratio (x) = 0.37594 0.26645
# Poissons Ratio (y) = 0.38101 0.02726
# Poissons Ratio (z) = 0.29891 0.03017
#
# Static dielectric constant tensor:
#      x y z
#    x 4.056510 0.000000 -0.065300 
#    y 0.000000 3.835820 0.000000 
#    z -0.065300 0.000000 3.833550 
# 
# 
# High freq. dielectric constant tensor:
#      x y z
#    x 1.838700 0.000000 -0.009360 
#    y 0.000000 1.831120 0.000000 
#    z -0.009360 0.000000 1.831450 
# 
# From -- ./inp_files/47381.got.cif
#   From: 2010.03.12/outbox.cif.g09.slc.cpg/sg5_24_cif.got.tgz:47381.got - 2010.03.31 09:47:26.
