data_PCOD8050157
_publ_section_title
;
Structure prediction by ZEFSAII (Michael W. Deem and Ramdas Pophale) SiO2 
 PCOD8050157
Probable space group: C 2
;
_chemical_formula_sum "Si O2"
_cell_formula_units_Z 32
_cell_length_a 14.855754
_cell_length_b 23.305787
_cell_length_c 8.347222
_cell_angle_alpha 90.000000
_cell_angle_beta 148.873987
_cell_angle_gamma 90.000000
_cell_volume 1493.913592
_symmetry_space_group_name_H-M "C 2"
_symmetry_group_IT_number 5
_symmetry_cell_setting 'monoclinic'
loop_
_space_group_symop_operation_xyz
x,y,z
-x,y,-z
1/2+x,1/2+y,z
1/2-x,1/2+y,-z
loop_
_atom_site_type_symbol
_atom_site_label
_atom_site_fract_x
_atom_site_fract_y
_atom_site_fract_z
Si Si1 0.506277 0.683520 0.822110
Si Si2 0.810504 0.888448 0.764129
Si Si3 0.357472 0.505218 0.670533
Si Si4 0.812111 0.609345 0.766926
Si Si5 0.187845 0.610044 0.855647
Si Si6 0.000087 0.310681 0.691733
Si Si7 0.882395 0.004947 0.190648
Si Si8 0.183142 0.885671 0.848450
O O1 0.332906 0.656839 0.483689
O O2 0.508948 0.750376 0.792468
O O3 0.500000 0.670989 0.000000
O O4 0.678578 0.657867 0.001069
O O5 0.665253 0.843580 0.484255
O O6 0.765963 0.952541 0.626726
O O7 0.799456 0.884172 0.935950
O O8 0.000000 0.866985 0.000000
O O9 0.225046 0.550629 0.389888
O O10 0.480848 0.475532 0.724106
O O11 0.500000 0.538399 0.000000
O O12 0.821560 0.600326 0.969830
O O13 0.000000 0.633040 0.000000
O O14 0.000000 0.625329 0.500000
O O15 0.253858 0.547244 0.897301
O O16 0.000000 0.302190 0.500000
O O17 0.167694 0.347270 0.002876
O O18 0.000000 0.041065 0.500000
O O19 0.788434 0.953707 0.146317
O O20 0.000000 0.862908 0.500000
#
# Coordination Sequence:
#
# PCOD8050157 Si02
#       8
#     4   4   4   4   4   4   4   4
#     4  12  26  49  70  96 137 175 226 286 339 393
#     4  10  21  41  63  95 132 175 217 270 328 391
#     4  11  21  40  67  98 142 175 213 274 336 395
#     4  12  26  43  69 103 134 177 225 276 338 404
#     4  12  26  43  71 102 132 178 227 276 339 405
#     4  10  24  45  70  94 128 180 227 272 329 401
#     4  11  20  40  66  97 137 180 213 269 336 395
#     4  10  22  39  65  94 132 175 220 270 327 393
#
# _framework density 21.420247
#
# number of rings (size 3 to 8) (size 9 to 14) (size 15 to 20)
#    0.000    1.000    5.000    2.250    1.750    4.500 
#    0.000    2.500    0.000    0.000    0.000    0.000 
#    0.000    0.000    0.000    0.000    0.000    0.000 
#
# Total GULP energy -198261.188233 kJ/mol
# GULP energy per Si atom -12391.324265 kJ/mol
# Density = 2.137149 g / cm^3
# Si number density = 21.420247 Si / 1000 Ang^3
#
#
#
# Elastic Constant Matrix: (Units=GPa)
#
#
# Indices 1 2 3 4 5 6 
#
# 1 84.1374 36.6128 43.7719 0.0000 6.3936 0.0000
# 2 36.6128 136.3198 71.9110 0.0000 20.5350 0.0000
# 3 43.7719 71.9110 149.6055 0.0000 21.8567 0.0000
# 4 0.0000 0.0000 0.0000 31.6892 0.0000 14.9494
# 5 6.3936 20.5350 21.8567 0.0000 43.7861 0.0000
# 6 0.0000 0.0000 0.0000 14.9494 0.0000 44.7268
#
#
#
# Elastic Compliance Matrix: (Units=1/GPa)
#
#
# Indices 1 2 3 4 5 6 
#
# 1 0.014516 -0.002277 -0.003235 0.000000 0.000563 0.000000
# 2 -0.002277 0.010430 -0.003971 0.000000 -0.002577 0.000000
# 3 -0.003235 -0.003971 0.009922 0.000000 -0.002618 0.000000
# 4 0.000000 0.000000 0.000000 0.037464 0.000000 -0.012522
# 5 0.000563 -0.002577 -0.002618 0.000000 0.025272 0.000000
# 6 0.000000 0.000000 0.000000 -0.012522 0.000000 0.026543
#
#
# Mechanical properties :
#
#
# Convention : Reuss Voigt Hill
#
# Bulk Modulus (GPa) = 62.88224 74.96155 68.92189
# Shear Modulus (GPa) = 33.68971 38.55820 36.12396
#
# Velocity S-wave (km/s) = 3.97015 4.24734 4.11108
# Velocity P-wave (km/s) = 7.10185 7.68927 7.40139
#
# Compressibility (1/GPa) = 0.01590274
#
# Stress axis : x y z
#
# Youngs Moduli (GPa) = 68.88759 95.87649 100.78788
#
# Poissons Ratio (x) = 0.21832 0.32604
# Poissons Ratio (y) = 0.15687 0.40020
# Poissons Ratio (z) = 0.22285 0.38070
#
# Static dielectric constant tensor:
#      x y z
#    x 4.241820 0.000000 0.106470 
#    y 0.000000 3.784840 0.000000 
#    z 0.106470 0.000000 4.281960 
# 
# 
# High freq. dielectric constant tensor:
#      x y z
#    x 1.849900 0.000000 -0.008700 
#    y 0.000000 1.827300 0.000000 
#    z -0.008700 0.000000 1.845550 
# 
# From -- ./inp_files/25686.got.cif
#   From: 2010.03.12/outbox.cif.g09.slc.cpg/sg5_13_cif.got.tgz:25686.got - 2010.03.31 09:47:26.
