data_PCOD8050381
_publ_section_title
;
Structure prediction by ZEFSAII (Michael W. Deem and Ramdas Pophale) SiO2 
 PCOD8050381
Probable space group: C 2
;
_chemical_formula_sum "Si O2"
_cell_formula_units_Z 32
_cell_length_a 18.573249
_cell_length_b 8.997594
_cell_length_c 11.692621
_cell_angle_alpha 90.000000
_cell_angle_beta 62.105986
_cell_angle_gamma 90.000000
_cell_volume 1726.979868
_symmetry_space_group_name_H-M "C 2"
_symmetry_group_IT_number 5
_symmetry_cell_setting 'monoclinic'
loop_
_space_group_symop_operation_xyz
x,y,z
-x,y,-z
1/2+x,1/2+y,z
1/2-x,1/2+y,-z
loop_
_atom_site_type_symbol
_atom_site_label
_atom_site_fract_x
_atom_site_fract_y
_atom_site_fract_z
Si Si1 0.705711 0.456680 0.568212
Si Si2 0.933011 0.065972 0.462200
Si Si3 0.262018 0.657135 0.642150
Si Si4 0.075858 0.889761 0.018737
Si Si5 0.988969 0.164226 0.811382
Si Si6 0.170539 0.314997 0.007720
Si Si7 0.848655 0.128455 0.186250
Si Si8 0.798709 0.649852 0.060115
O O1 0.612406 0.442609 0.585645
O O2 0.762922 0.518682 0.422701
O O3 0.737730 0.305894 0.594653
O O4 0.706540 0.587696 0.663785
O O5 0.861105 0.154750 0.584011
O O6 0.000000 0.997251 0.500000
O O7 0.981777 0.177970 0.341679
O O8 0.213226 0.640296 0.794850
O O9 0.048623 0.998561 0.141721
O O10 0.120809 0.743406 0.032786
O O11 0.000000 0.835007 0.000000
O O12 0.140893 0.976028 0.891889
O O13 0.923893 0.290788 0.890608
O O14 0.063060 0.190214 0.843500
O O15 0.220430 0.226635 0.065326
O O16 0.192435 0.252751 0.864481
O O17 0.191698 0.487342 0.999807
#
# Coordination Sequence:
#
# PCOD8050381 Si02
#       8
#     4   4   4   4   4   4   4   4
#     4   9  20  36  60  88 115 158 198 248 290 353
#     4   9  19  35  63  88 115 159 203 241 296 364
#     4  10  22  37  63  89 117 158 202 249 294 366
#     4   9  18  34  56  80 109 151 189 242 289 345
#     4   9  18  36  60  83 113 158 199 232 294 362
#     4  11  23  35  57  87 121 156 195 247 301 356
#     4   9  17  36  60  79 113 151 198 233 289 357
#     4  12  24  37  56  89 121 156 196 250 304 350
#
# _framework density 18.529456
#
# number of rings (size 3 to 8) (size 9 to 14) (size 15 to 20)
#    0.750    1.500    1.250    3.375    1.750    1.000 
#    0.000    0.000    0.000    0.750    0.000    0.000 
#    0.000    0.000    0.000    0.000    0.000    0.000 
#
# Total GULP energy -198254.357272 kJ/mol
# GULP energy per Si atom -12390.897330 kJ/mol
# Density = 1.848728 g / cm^3
# Si number density = 18.529456 Si / 1000 Ang^3
#
#
#
# Elastic Constant Matrix: (Units=GPa)
#
#
# Indices 1 2 3 4 5 6 
#
# 1 63.6041 29.0396 -1.0064 0.0000 1.9913 0.0000
# 2 29.0396 92.1503 10.1370 0.0000 -0.9681 0.0000
# 3 -1.0064 10.1370 55.0617 0.0000 -4.0828 0.0000
# 4 0.0000 0.0000 0.0000 18.8722 0.0000 3.7691
# 5 1.9913 -0.9681 -4.0828 0.0000 20.6578 0.0000
# 6 0.0000 0.0000 0.0000 3.7691 0.0000 28.3439
#
#
#
# Elastic Compliance Matrix: (Units=1/GPa)
#
#
# Indices 1 2 3 4 5 6 
#
# 1 0.018542 -0.006006 0.001310 0.000000 -0.001810 0.000000
# 2 -0.006006 0.013022 -0.002455 0.000000 0.000704 0.000000
# 3 0.001310 -0.002455 0.018896 0.000000 0.003493 0.000000
# 4 0.000000 0.000000 0.000000 0.054434 0.000000 -0.007239
# 5 -0.001810 0.000704 0.003493 0.000000 0.049306 0.000000
# 6 0.000000 0.000000 0.000000 -0.007239 0.000000 0.036244
#
#
# Mechanical properties :
#
#
# Convention : Reuss Voigt Hill
#
# Bulk Modulus (GPa) = 27.65583 31.90628 29.78106
# Shear Modulus (GPa) = 23.06295 25.08451 24.07373
#
# Velocity S-wave (km/s) = 3.53181 3.68334 3.60837
# Velocity P-wave (km/s) = 5.62043 5.94525 5.78512
#
# Compressibility (1/GPa) = 0.03615874
#
# Stress axis : x y z
#
# Youngs Moduli (GPa) = 53.93174 76.79257 52.92019
#
# Poissons Ratio (x) = 0.46124 -0.06935
# Poissons Ratio (y) = 0.32393 0.12992
# Poissons Ratio (z) = -0.07068 0.18852
#
# Static dielectric constant tensor:
#      x y z
#    x 3.388080 0.000000 0.054680 
#    y 0.000000 3.103840 0.000000 
#    z 0.054680 0.000000 3.570190 
# 
# 
# High freq. dielectric constant tensor:
#      x y z
#    x 1.714070 0.000000 0.008280 
#    y 0.000000 1.685540 0.000000 
#    z 0.008280 0.000000 1.722880 
# 
# From -- ./inp_files/44137.got.cif
#   From: 2010.03.12/outbox.cif.g09.slc.cpg/sg5_23_cif.got.tgz:44137.got - 2010.03.31 09:47:26.
