data_PCOD8050585
_publ_section_title
;
Structure prediction by ZEFSAII (Michael W. Deem and Ramdas Pophale) SiO2 
 PCOD8050585
Probable space group: C 2
;
_chemical_formula_sum "Si O2"
_cell_formula_units_Z 28
_cell_length_a 10.882387
_cell_length_b 8.997174
_cell_length_c 15.652695
_cell_angle_alpha 90.000000
_cell_angle_beta 59.445080
_cell_angle_gamma 90.000000
_cell_volume 1319.758042
_symmetry_space_group_name_H-M "C 2"
_symmetry_group_IT_number 5
_symmetry_cell_setting 'monoclinic'
loop_
_space_group_symop_operation_xyz
x,y,z
-x,y,-z
1/2+x,1/2+y,z
1/2-x,1/2+y,-z
loop_
_atom_site_type_symbol
_atom_site_label
_atom_site_fract_x
_atom_site_fract_y
_atom_site_fract_z
Si Si1 0.832485 0.102470 0.191416
Si Si2 0.145434 0.071451 0.091076
Si Si3 0.118519 0.838265 0.247255
Si Si4 0.686887 0.261441 0.593525
Si Si5 0.089492 0.068874 0.388271
Si Si6 0.833292 0.855204 0.064790
Si Si7 0.309035 0.600164 0.397576
O O1 0.739577 0.224444 0.173544
O O2 0.784708 0.123445 0.306028
O O3 0.996585 0.145080 0.113481
O O4 0.799910 0.935964 0.167298
O O5 0.250672 0.199689 0.086626
O O6 0.095968 0.960366 0.182691
O O7 0.214769 0.973680 0.990870
O O8 0.972851 0.746319 0.313479
O O9 0.163892 0.926934 0.317359
O O10 0.792362 0.186590 0.624995
O O11 0.728173 0.431383 0.567317
O O12 0.699494 0.193278 0.494117
O O13 0.000000 0.007991 0.500000
O O14 0.973649 0.140986 0.363538
O O15 0.000000 0.816183 0.000000
#
# Coordination Sequence:
#
# PCOD8050585 Si02
#       7
#     4   4   4   4   4   4   4
#     4  11  24  41  64 101 133 166 216 266 324 388
#     4  11  23  47  68  96 134 164 214 271 329 391
#     4  11  24  39  66  95 132 172 214 264 324 384
#     4  10  22  42  60  90 132 176 226 264 316 372
#     4   9  20  39  62  82 126 173 220 267 309 364
#     4  10  25  44  71  95 129 167 212 272 331 394
#     4  10  22  41  63  91 133 175 222 269 315 375
#
# _framework density 21.216010000000001
#
# number of rings (size 3 to 8) (size 9 to 14) (size 15 to 20)
#    0.000    1.714    2.857    0.857    8.000    2.286 
#    7.714    0.000    0.000    0.000    0.000    0.000 
#    0.000    0.000    0.000    0.000    0.000    0.000 
#
# Total GULP energy -173550.774639 kJ/mol
# GULP energy per Si atom -12396.483903 kJ/mol
# Density = 2.116772 g / cm^3
# Si number density = 21.216010 Si / 1000 Ang^3
#
#
#
# Elastic Constant Matrix: (Units=GPa)
#
#
# Indices 1 2 3 4 5 6 
#
# 1 102.5940 60.5067 40.5415 0.0000 -6.7424 0.0000
# 2 60.5067 94.1380 30.6797 0.0000 -17.0346 0.0000
# 3 40.5415 30.6797 91.7842 0.0000 0.6763 0.0000
# 4 0.0000 0.0000 0.0000 43.8993 0.0000 0.3099
# 5 -6.7424 -17.0346 0.6763 0.0000 31.3544 0.0000
# 6 0.0000 0.0000 0.0000 0.3099 0.0000 41.3036
#
#
#
# Elastic Compliance Matrix: (Units=1/GPa)
#
#
# Indices 1 2 3 4 5 6 
#
# 1 0.017195 -0.009959 -0.004254 0.000000 -0.001621 0.000000
# 2 -0.009959 0.019213 -0.002084 0.000000 0.008341 0.000000
# 3 -0.004254 -0.002084 0.013488 0.000000 -0.002338 0.000000
# 4 0.000000 0.000000 0.000000 0.022781 0.000000 -0.000171
# 5 -0.001621 0.008341 -0.002338 0.000000 0.036127 0.000000
# 6 0.000000 0.000000 0.000000 -0.000171 0.000000 0.024212
#
#
# Mechanical properties :
#
#
# Convention : Reuss Voigt Hill
#
# Bulk Modulus (GPa) = 57.80243 61.33024 59.56633
# Shear Modulus (GPa) = 29.17512 33.76401 31.46957
#
# Velocity S-wave (km/s) = 3.71232 3.99361 3.85553
# Velocity P-wave (km/s) = 6.75862 7.08770 6.92512
#
# Compressibility (1/GPa) = 0.01730031
#
# Stress axis : x y z
#
# Youngs Moduli (GPa) = 58.15525 52.04919 74.13834
#
# Poissons Ratio (x) = 0.51836 0.31541
# Poissons Ratio (y) = 0.57917 0.15454
# Poissons Ratio (z) = 0.24742 0.10850
#
# Static dielectric constant tensor:
#      x y z
#    x 3.925320 0.000000 0.245490 
#    y 0.000000 3.681390 0.000000 
#    z 0.245490 0.000000 3.946660 
# 
# 
# High freq. dielectric constant tensor:
#      x y z
#    x 1.828290 0.000000 0.011590 
#    y 0.000000 1.823220 0.000000 
#    z 0.011590 0.000000 1.840520 
# 
# From -- ./inp_files/52390.got.cif
#   From: 2010.03.12/outbox.cif.g09.slc.cpg/sg5_27_cif.got.tgz:52390.got - 2010.03.31 09:47:26.
