data_PCOD8050597
_publ_section_title
;
Structure prediction by ZEFSAII (Michael W. Deem and Ramdas Pophale) SiO2 
 PCOD8050597
Probable space group: C 2
;
_chemical_formula_sum "Si O2"
_cell_formula_units_Z 32
_cell_length_a 12.156792
_cell_length_b 12.488801
_cell_length_c 11.523837
_cell_angle_alpha 90.000000
_cell_angle_beta 59.779041
_cell_angle_gamma 90.000000
_cell_volume 1511.806430
_symmetry_space_group_name_H-M "C 2"
_symmetry_group_IT_number 5
_symmetry_cell_setting 'monoclinic'
loop_
_space_group_symop_operation_xyz
x,y,z
-x,y,-z
1/2+x,1/2+y,z
1/2-x,1/2+y,-z
loop_
_atom_site_type_symbol
_atom_site_label
_atom_site_fract_x
_atom_site_fract_y
_atom_site_fract_z
Si Si1 0.798929 0.241470 0.563327
Si Si2 0.911271 0.310207 0.942714
Si Si3 0.352601 0.158704 0.560690
Si Si4 0.942427 0.963643 0.823674
Si Si5 0.842940 0.747644 0.808573
Si Si6 0.722053 0.456920 0.711638
Si Si7 0.445506 0.673040 0.695996
Si Si8 0.314849 0.010985 0.902747
O O1 0.676408 0.202308 0.553271
O O2 0.765754 0.363576 0.603804
O O3 0.822345 0.185713 0.676463
O O4 0.928496 0.227080 0.423066
O O5 0.927896 0.231103 0.827399
O O6 0.922957 0.437773 0.907301
O O7 0.771633 0.299472 0.063822
O O8 0.000000 0.274182 0.000000
O O9 0.500000 0.126452 0.500000
O O10 0.318047 0.240365 0.683669
O O11 0.258099 0.060512 0.619728
O O12 0.946132 0.840618 0.775479
O O13 0.073496 0.965083 0.826822
O O14 0.959701 0.045503 0.706465
O O15 0.821442 0.008096 0.959870
O O16 0.869969 0.630899 0.852735
O O17 0.799824 0.450760 0.788769
#
# Coordination Sequence:
#
# PCOD8050597 Si02
#       8
#     4   4   4   4   4   4   4   4
#     4  11  24  42  65  97 138 178 231 284 338 411
#     4  11  22  40  69  98 134 176 225 283 342 405
#     4  11  24  42  63  96 134 183 228 281 344 412
#     4  11  22  42  68 101 132 177 229 288 340 410
#     4  10  23  41  67  96 134 174 230 287 336 408
#     4  11  23  41  67  96 131 184 225 276 349 401
#     4  11  23  42  69 101 136 178 231 280 349 410
#     4  10  22  41  64  99 134 174 224 283 342 408
#
# _framework density 21.166730000000001
#
# number of rings (size 3 to 8) (size 9 to 14) (size 15 to 20)
#    0.000    1.250    3.750    1.875    3.500    1.000 
#    2.250   10.000    0.000    0.000    0.000    0.000 
#    0.000    0.000    0.000    0.000    0.000    0.000 
#
# Total GULP energy -198218.721043 kJ/mol
# GULP energy per Si atom -12388.670065 kJ/mol
# Density = 2.111855 g / cm^3
# Si number density = 21.166730 Si / 1000 Ang^3
#
#
#
# Elastic Constant Matrix: (Units=GPa)
#
#
# Indices 1 2 3 4 5 6 
#
# 1 92.1162 41.7812 31.2350 0.0000 18.1210 0.0000
# 2 41.7812 127.9406 38.7737 0.0000 4.4884 0.0000
# 3 31.2350 38.7737 92.7845 0.0000 11.8900 0.0000
# 4 0.0000 0.0000 0.0000 33.7218 0.0000 -1.8763
# 5 18.1210 4.4884 11.8900 0.0000 35.7078 0.0000
# 6 0.0000 0.0000 0.0000 -1.8763 0.0000 21.8789
#
#
#
# Elastic Compliance Matrix: (Units=1/GPa)
#
#
# Indices 1 2 3 4 5 6 
#
# 1 0.014645 -0.003792 -0.002564 0.000000 -0.006102 0.000000
# 2 -0.003792 0.009932 -0.003093 0.000000 0.001706 0.000000
# 3 -0.002564 -0.003093 0.013283 0.000000 -0.002733 0.000000
# 4 0.000000 0.000000 0.000000 0.029797 0.000000 0.002555
# 5 -0.006102 0.001706 -0.002733 0.000000 0.031797 0.000000
# 6 0.000000 0.000000 0.000000 0.002555 0.000000 0.045925
#
#
# Mechanical properties :
#
#
# Convention : Reuss Voigt Hill
#
# Bulk Modulus (GPa) = 52.73004 59.60234 56.16619
# Shear Modulus (GPa) = 29.30884 31.66513 30.48698
#
# Velocity S-wave (km/s) = 3.72515 3.87199 3.79928
# Velocity P-wave (km/s) = 6.59304 6.94330 6.77043
#
# Compressibility (1/GPa) = 0.01896452
#
# Stress axis : x y z
#
# Youngs Moduli (GPa) = 68.28118 100.68732 75.28243
#
# Poissons Ratio (x) = 0.38177 0.19301
# Poissons Ratio (y) = 0.25890 0.23281
# Poissons Ratio (z) = 0.17506 0.31138
#
# Static dielectric constant tensor:
#      x y z
#    x 3.802640 0.000000 0.092720 
#    y 0.000000 3.997930 0.000000 
#    z 0.092720 0.000000 3.941830 
# 
# 
# High freq. dielectric constant tensor:
#      x y z
#    x 1.820500 0.000000 0.002260 
#    y 0.000000 1.838410 0.000000 
#    z 0.002260 0.000000 1.835680 
# 
# From -- ./inp_files/39414.got.cif
#   From: 2010.03.12/outbox.cif.g09.slc.cpg/sg5_20_cif.got.tgz:39414.got - 2010.03.31 09:47:26.
