data_PCOD8050508
_publ_section_title
;
Structure prediction by ZEFSAII (Michael W. Deem and Ramdas Pophale) SiO2 
 PCOD8050508
Probable space group: C 2
;
_chemical_formula_sum "Si O2"
_cell_formula_units_Z 22
_cell_length_a 8.544892
_cell_length_b 28.426179
_cell_length_c 5.052680
_cell_angle_alpha 90.000000
_cell_angle_beta 55.225593
_cell_angle_gamma 90.000000
_cell_volume 1008.100200
_symmetry_space_group_name_H-M "C 2"
_symmetry_group_IT_number 5
_symmetry_cell_setting 'monoclinic'
loop_
_space_group_symop_operation_xyz
x,y,z
-x,y,-z
1/2+x,1/2+y,z
1/2-x,1/2+y,-z
loop_
_atom_site_type_symbol
_atom_site_label
_atom_site_fract_x
_atom_site_fract_y
_atom_site_fract_z
Si Si1 0.220721 0.737040 0.288767
Si Si2 0.294831 0.025326 0.112679
Si Si3 0.221147 0.678115 0.778566
Si Si4 0.500000 0.820133 0.000000
Si Si5 0.500000 0.884899 0.500000
Si Si6 0.000000 0.098510 0.500000
Si Si7 0.715917 0.466143 0.705423
O O1 0.274439 0.718830 0.525395
O O2 0.315711 0.787344 0.172669
O O3 0.000000 0.747042 0.500000
O O4 0.283011 0.698303 0.006669
O O5 0.132368 0.064288 0.191516
O O6 0.218678 0.991837 0.419984
O O7 0.500000 0.047442 0.000000
O O8 0.331076 0.996118 0.812828
O O9 0.338113 0.633561 0.545316
O O10 0.000000 0.663779 0.000000
O O11 0.535015 0.852385 0.217075
O O12 0.315838 0.915698 0.601025
O O13 0.500000 0.458555 0.000000
#
# Coordination Sequence:
#
# PCOD8050508 Si02
#       7
#     4   4   4   2   2   2   4
#     4  10  22  42  66  90 133 168 207 261 327 387
#     4  12  24  42  66  92 130 170 224 272 322 380
#     4  10  22  40  62  95 131 172 209 265 319 379
#     4  12  24  40  66 102 118 172 208 272 326 398
#     4  12  26  41  68  92 136 156 224 275 330 382
#     4  12  24  39  66  98 130 172 228 265 312 390
#     4  12  24  46  66  91 124 177 217 270 334 389
#
# _framework density 21.823229000000001
#
# number of rings (size 3 to 8) (size 9 to 14) (size 15 to 20)
#    0.000    0.727    3.636    3.818    0.000    4.364 
#    0.000    3.636    0.000    0.000    0.000    0.000 
#    0.000    0.000    0.000    0.000    0.000    0.000 
#
# Total GULP energy -136280.688200 kJ/mol
# GULP energy per Si atom -12389.153473 kJ/mol
# Density = 2.177356 g / cm^3
# Si number density = 21.823229 Si / 1000 Ang^3
#
#
#
# Elastic Constant Matrix: (Units=GPa)
#
#
# Indices 1 2 3 4 5 6 
#
# 1 74.4619 42.7793 49.0448 0.0000 -4.6929 0.0000
# 2 42.7793 140.9776 63.4751 0.0000 -8.5614 0.0000
# 3 49.0448 63.4751 115.1710 0.0000 -0.0216 0.0000
# 4 0.0000 0.0000 0.0000 34.2222 0.0000 -14.6518
# 5 -4.6929 -8.5614 -0.0216 0.0000 49.9586 0.0000
# 6 0.0000 0.0000 0.0000 -14.6518 0.0000 -69.4628
#
#
#
# Elastic Compliance Matrix: (Units=1/GPa)
#
#
# Indices 1 2 3 4 5 6 
#
# 1 0.019608 -0.002804 -0.006804 0.000000 0.001358 0.000000
# 2 -0.002804 0.009967 -0.004299 0.000000 0.001443 0.000000
# 3 -0.006804 -0.004299 0.013950 0.000000 -0.001370 0.000000
# 4 0.000000 0.000000 0.000000 0.026801 0.000000 -0.005653
# 5 0.001358 0.001443 -0.001370 0.000000 0.020391 0.000000
# 6 0.000000 0.000000 0.000000 -0.005653 0.000000 -0.013204
#
#
# Mechanical properties :
#
#
# Convention : Reuss Voigt Hill
#
# Bulk Modulus (GPa) = 63.65310 71.24545 67.44928
# Shear Modulus (GPa) = 45.22275 14.63102 29.92689
#
# Velocity S-wave (km/s) = 4.55711 2.59208 3.70717
# Velocity P-wave (km/s) = 7.54458 6.45570 7.02128
#
# Compressibility (1/GPa) = 0.01571015
#
# Stress axis : x y z
#
# Youngs Moduli (GPa) = 51.00001 100.32636 71.68708
#
# Poissons Ratio (x) = 0.28130 0.48778
# Poissons Ratio (y) = 0.14299 0.30820
# Poissons Ratio (z) = 0.34702 0.43132
#
# Static dielectric constant tensor:
#      x y z
#    x 4.293410 0.000000 -0.236620 
#    y 0.000000 3.969570 0.000000 
#    z -0.236620 0.000000 4.255330 
# 
# 
# High freq. dielectric constant tensor:
#      x y z
#    x 1.864180 0.000000 -0.017660 
#    y 0.000000 1.856530 0.000000 
#    z -0.017660 0.000000 1.874020 
# 
# From -- ./inp_files/3578.got.cif
#   From: 2010.03.12/outbox.cif.g09.slc.cpg/sg5_2_cif.got.tgz:3578.got - 2010.03.31 09:47:26.
