data_PCOD8050438
_publ_section_title
;
Structure prediction by ZEFSAII (Michael W. Deem and Ramdas Pophale) SiO2 
 PCOD8050438
Probable space group: C 2
;
_chemical_formula_sum "Si O2"
_cell_formula_units_Z 24
_cell_length_a 19.679866
_cell_length_b 12.887921
_cell_length_c 14.724980
_cell_angle_alpha 90.000000
_cell_angle_beta 160.853058
_cell_angle_gamma 90.000000
_cell_volume 1224.962908
_symmetry_space_group_name_H-M "C 2"
_symmetry_group_IT_number 5
_symmetry_cell_setting 'monoclinic'
loop_
_space_group_symop_operation_xyz
x,y,z
-x,y,-z
1/2+x,1/2+y,z
1/2-x,1/2+y,-z
loop_
_atom_site_type_symbol
_atom_site_label
_atom_site_fract_x
_atom_site_fract_y
_atom_site_fract_z
Si Si1 0.000000 0.506551 0.000000
Si Si2 0.415568 0.741425 0.172224
Si Si3 0.826051 0.332374 0.657245
Si Si4 0.764818 0.569014 0.180727
Si Si5 0.813930 0.168248 0.326775
Si Si6 0.852881 0.839347 0.014897
Si Si7 0.500000 0.662415 0.000000
O O1 0.130826 0.438094 0.234995
O O2 0.151285 0.576315 0.130912
O O3 0.504576 0.819185 0.208494
O O4 0.606632 0.704009 0.474852
O O5 0.240371 0.800261 0.007927
O O6 0.309960 0.641175 0.995374
O O7 0.839885 0.234362 0.742170
O O8 0.599350 0.341373 0.329630
O O9 0.743264 0.451107 0.123720
O O10 0.000000 0.596436 0.500000
O O11 0.628953 0.587301 0.098463
O O12 0.709876 0.266594 0.147624
O O13 0.000000 0.124507 0.500000
#
# Coordination Sequence:
#
# PCOD8050438 Si02
#       7
#     2   4   4   4   4   4   2
#     4  11  22  37  60  86 116 149 188 235 286 336
#     4  10  22  40  60  83 115 151 191 234 279 336
#     4  10  22  39  59  85 114 151 191 233 282 335
#     4  11  22  38  61  86 114 150 189 234 285 336
#     4  10  22  40  58  83 116 151 189 234 281 335
#     4  11  23  38  60  86 116 150 189 235 283 336
#     4   9  22  41  58  82 116 151 192 233 278 336
#
# _framework density 19.592428999999999
#
# number of rings (size 3 to 8) (size 9 to 14) (size 15 to 20)
#    0.000    1.667    0.000    4.500    0.000    8.667 
#    0.000    1.667    0.000    0.000    0.000    0.000 
#    0.000    0.000    0.000    0.000    0.000    0.000 
#
# Total GULP energy -148874.164381 kJ/mol
# GULP energy per Si atom -12406.180365 kJ/mol
# Density = 1.954784 g / cm^3
# Si number density = 19.592429 Si / 1000 Ang^3
#
#
#
# Elastic Constant Matrix: (Units=GPa)
#
#
# Indices 1 2 3 4 5 6 
#
# 1 115.0966 76.1328 46.7929 -0.0014 -7.3382 0.0001
# 2 76.1328 132.9443 54.5925 -0.0057 4.1851 -0.0018
# 3 46.7929 54.5925 133.4832 -0.0051 -2.8218 -0.0010
# 4 -0.0014 -0.0057 -0.0051 14.3027 -0.0025 -11.4168
# 5 -7.3382 4.1851 -2.8218 -0.0025 31.5567 -0.0003
# 6 0.0001 -0.0018 -0.0010 -11.4168 -0.0003 26.1092
#
#
#
# Elastic Compliance Matrix: (Units=1/GPa)
#
#
# Indices 1 2 3 4 5 6 
#
# 1 0.014998 -0.007939 -0.001918 -0.000003 0.004369 -0.000002
# 2 -0.007939 0.013317 -0.002745 0.000005 -0.003858 0.000003
# 3 -0.001918 -0.002745 0.009303 0.000004 0.000750 0.000002
# 4 -0.000003 0.000005 0.000004 0.107406 0.000008 0.046966
# 5 0.004369 -0.003858 0.000750 0.000008 0.033284 0.000004
# 6 -0.000002 0.000003 0.000002 0.046966 0.000004 0.058838
#
#
# Mechanical properties :
#
#
# Convention : Reuss Voigt Hill
#
# Bulk Modulus (GPa) = 80.55904 81.84004 81.19954
# Shear Modulus (GPa) = 18.76267 27.99411 23.37839
#
# Velocity S-wave (km/s) = 3.09795 3.78408 3.45807
# Velocity P-wave (km/s) = 7.34868 7.80732 7.58147
#
# Compressibility (1/GPa) = 0.01241326
#
# Stress axis : x y z
#
# Youngs Moduli (GPa) = 66.67554 75.09330 107.49659
#
# Poissons Ratio (x) = 0.59613 0.20623
# Poissons Ratio (y) = 0.52931 0.29508
# Poissons Ratio (z) = 0.12792 0.20613
#
# Static dielectric constant tensor:
#      x y z
#    x 3.677300 0.000000 -0.121110 
#    y 0.000000 3.524510 0.000000 
#    z -0.121110 0.000000 3.769290 
# 
# 
# High freq. dielectric constant tensor:
#      x y z
#    x 1.775450 0.000000 -0.002970 
#    y 0.000000 1.767080 0.000000 
#    z -0.002970 0.000000 1.776760 
# 
# From -- ./inp_files/19395.got.cif
#   From: 2010.03.12/outbox.cif.g09.slc.cpg/sg5_10_cif.got.tgz:19395.got - 2010.03.31 09:47:26.
