data_PCOD8050020
_publ_section_title
;
Structure prediction by ZEFSAII (Michael W. Deem and Ramdas Pophale) SiO2 
 PCOD8050020
Probable space group: C 2
;
_chemical_formula_sum "Si O2"
_cell_formula_units_Z 22
_cell_length_a 10.816630
_cell_length_b 9.197960
_cell_length_c 10.054852
_cell_angle_alpha 90.000000
_cell_angle_beta 77.316211
_cell_angle_gamma 90.000000
_cell_volume 975.954339
_symmetry_space_group_name_H-M "C 2"
_symmetry_group_IT_number 5
_symmetry_cell_setting 'monoclinic'
loop_
_space_group_symop_operation_xyz
x,y,z
-x,y,-z
1/2+x,1/2+y,z
1/2-x,1/2+y,-z
loop_
_atom_site_type_symbol
_atom_site_label
_atom_site_fract_x
_atom_site_fract_y
_atom_site_fract_z
Si Si1 0.225115 0.341880 0.092504
Si Si2 0.333589 0.819581 0.201389
Si Si3 0.500000 0.412958 0.000000
Si Si4 0.455148 0.607238 0.777445
Si Si5 0.479383 0.077579 0.852475
Si Si6 0.438281 0.321802 0.649298
O O1 0.375068 0.331227 0.091097
O O2 0.160471 0.221664 0.205716
O O3 0.157174 0.497883 0.135444
O O4 0.196488 0.298677 0.946718
O O5 0.412161 0.683504 0.232660
O O6 0.212623 0.817094 0.324329
O O7 0.409101 0.967808 0.212303
O O8 0.576059 0.506598 0.089299
O O9 0.472088 0.493530 0.652883
O O10 0.483585 0.223704 0.763619
O O11 0.500000 0.130343 0.000000
O O12 0.500000 0.259652 0.500000
#
# Coordination Sequence:
#
# PCOD8050020 Si02
#       6
#     4   4   2   4   4   4
#     4  10  21  39  67 105 129 161 214 275 332 373
#     4  10  21  44  65  93 133 165 215 274 317 383
#     4  12  20  34  66 102 130 158 202 268 330 382
#     4  11  23  41  64  94 133 167 209 267 327 380
#     4   9  22  42  71  97 127 169 216 270 326 380
#     4  12  27  42  62  98 135 174 218 260 320 391
#
# _framework density 22.542037000000001
#
# number of rings (size 3 to 8) (size 9 to 14) (size 15 to 20)
#    0.000    1.455    3.636    2.182    1.273    2.909 
#    0.000    3.636    0.000    0.000    0.000    0.000 
#    0.000    0.000    0.000    0.000    0.000    0.000 
#
# Total GULP energy -136323.886346 kJ/mol
# GULP energy per Si atom -12393.080577 kJ/mol
# Density = 2.249073 g / cm^3
# Si number density = 22.542037 Si / 1000 Ang^3
#
#
#
# Elastic Constant Matrix: (Units=GPa)
#
#
# Indices 1 2 3 4 5 6 
#
# 1 140.0796 53.9249 49.5305 0.0000 -22.2477 0.0000
# 2 53.9249 141.5060 49.8487 0.0000 -4.3172 0.0000
# 3 49.5305 49.8487 102.3855 0.0000 -19.5344 0.0000
# 4 0.0000 0.0000 0.0000 13.1433 0.0000 -0.6151
# 5 -22.2477 -4.3172 -19.5344 0.0000 24.6355 0.0000
# 6 0.0000 0.0000 0.0000 -0.6151 0.0000 29.5167
#
#
#
# Elastic Compliance Matrix: (Units=1/GPa)
#
#
# Indices 1 2 3 4 5 6 
#
# 1 0.010111 -0.002877 -0.002174 0.000000 0.006903 0.000000
# 2 -0.002877 0.009443 -0.003989 0.000000 -0.004107 0.000000
# 3 -0.002174 -0.003989 0.014437 0.000000 0.008786 0.000000
# 4 0.000000 0.000000 0.000000 0.076159 0.000000 0.001587
# 5 0.006903 -0.004107 0.008786 0.000000 0.053073 0.000000
# 6 0.000000 0.000000 0.000000 0.001587 0.000000 0.033912
#
#
# Mechanical properties :
#
#
# Convention : Reuss Voigt Hill
#
# Bulk Modulus (GPa) = 62.84676 76.73104 69.78890
# Shear Modulus (GPa) = 22.67375 28.83691 25.75533
#
# Velocity S-wave (km/s) = 3.17494 3.58054 3.38382
# Velocity P-wave (km/s) = 6.43278 7.15588 6.80395
#
# Compressibility (1/GPa) = 0.01591172
#
# Stress axis : x y z
#
# Youngs Moduli (GPa) = 98.89944 105.89606 69.26585
#
# Poissons Ratio (x) = 0.30465 0.15056
# Poissons Ratio (y) = 0.28452 0.27633
# Poissons Ratio (z) = 0.21498 0.42246
#
# Static dielectric constant tensor:
#      x y z
#    x 4.240710 0.000000 -0.195860 
#    y 0.000000 4.436610 0.000000 
#    z -0.195860 0.000000 3.795760 
# 
# 
# High freq. dielectric constant tensor:
#      x y z
#    x 1.903970 0.000000 -0.023280 
#    y 0.000000 1.919610 0.000000 
#    z -0.023280 0.000000 1.825520 
# 
# From -- ./inp_files/38282.got.cif
#   From: 2010.03.12/outbox.cif.g09.slc.cpg/sg5_20_cif.got.tgz:38282.got - 2010.03.31 09:47:26.
