data_PCOD8050837
_publ_section_title
;
Structure prediction by ZEFSAII (Michael W. Deem and Ramdas Pophale) SiO2 
 PCOD8050837
Probable space group: C 2
;
_chemical_formula_sum "Si O2"
_cell_formula_units_Z 28
_cell_length_a 11.224832
_cell_length_b 8.456489
_cell_length_c 20.040847
_cell_angle_alpha 90.000000
_cell_angle_beta 41.616566
_cell_angle_gamma 90.000000
_cell_volume 1263.418452
_symmetry_space_group_name_H-M "C 2"
_symmetry_group_IT_number 5
_symmetry_cell_setting 'monoclinic'
loop_
_space_group_symop_operation_xyz
x,y,z
-x,y,-z
1/2+x,1/2+y,z
1/2-x,1/2+y,-z
loop_
_atom_site_type_symbol
_atom_site_label
_atom_site_fract_x
_atom_site_fract_y
_atom_site_fract_z
Si Si1 0.330901 0.301370 0.748541
Si Si2 0.670983 0.898789 0.595021
Si Si3 0.953276 0.645950 0.450075
Si Si4 0.453464 0.108170 0.235471
Si Si5 0.812714 0.657054 0.056643
Si Si6 0.918575 0.382890 0.924437
Si Si7 0.856330 0.154328 0.730975
O O1 0.372441 0.185657 0.668484
O O2 0.431533 0.234828 0.771633
O O3 0.412752 0.472345 0.695584
O O4 0.118210 0.311529 0.850948
O O5 0.856104 0.806997 0.512916
O O6 0.509394 0.777372 0.648827
O O7 0.677144 0.029854 0.534810
O O8 0.655964 0.986275 0.672028
O O9 0.000000 0.558612 0.500000
O O10 0.314351 0.197149 0.244300
O O11 0.587499 0.004578 0.134765
O O12 0.722895 0.745128 0.031567
O O13 0.683561 0.664722 0.173796
O O14 0.854164 0.475857 0.017452
O O15 0.000000 0.738868 0.000000
#
# Coordination Sequence:
#
# PCOD8050837 Si02
#       7
#     4   4   4   4   4   4   4
#     4  10  23  44  67  97 133 176 213 275 337 389
#     4  11  24  43  66 100 133 174 225 267 334 394
#     4  11  24  42  69  99 133 174 221 271 331 397
#     4  10  22  44  67  96 136 171 218 274 331 389
#     4  12  25  43  67  96 130 175 224 271 331 389
#     4  11  25  44  65  97 131 174 222 274 327 396
#     4  11  23  42  66  95 137 173 219 273 327 386
#
# _framework density 22.162096999999999
#
# number of rings (size 3 to 8) (size 9 to 14) (size 15 to 20)
#    0.000    1.143    4.286    2.571    2.000    4.571 
#    2.571    0.714    0.000    0.000    0.000    0.000 
#    0.000    0.000    0.000    0.000    0.000    0.000 
#
# Total GULP energy -173583.810164 kJ/mol
# GULP energy per Si atom -12398.843583 kJ/mol
# Density = 2.211165 g / cm^3
# Si number density = 22.162097 Si / 1000 Ang^3
#
#
#
# Elastic Constant Matrix: (Units=GPa)
#
#
# Indices 1 2 3 4 5 6 
#
# 1 119.6052 40.5176 30.5037 0.0000 -0.3826 0.0000
# 2 40.5176 65.5365 18.1927 0.0000 -7.9140 0.0000
# 3 30.5037 18.1927 61.7524 0.0000 -4.3139 0.0000
# 4 0.0000 0.0000 0.0000 42.4562 0.0000 -1.1065
# 5 -0.3826 -7.9140 -4.3139 0.0000 36.0472 0.0000
# 6 0.0000 0.0000 0.0000 -1.1065 0.0000 38.2904
#
#
#
# Elastic Compliance Matrix: (Units=1/GPa)
#
#
# Indices 1 2 3 4 5 6 
#
# 1 0.011463 -0.006195 -0.003957 0.000000 -0.001712 0.000000
# 2 -0.006195 0.020314 -0.002639 0.000000 0.004078 0.000000
# 3 -0.003957 -0.002639 0.019042 0.000000 0.001657 0.000000
# 4 0.000000 0.000000 0.000000 0.023571 0.000000 0.000681
# 5 -0.001712 0.004078 0.001657 0.000000 0.028817 0.000000
# 6 0.000000 0.000000 0.000000 0.000681 0.000000 0.026136
#
#
# Mechanical properties :
#
#
# Convention : Reuss Voigt Hill
#
# Bulk Modulus (GPa) = 39.62662 47.25802 43.44232
# Shear Modulus (GPa) = 30.61123 33.87077 32.24100
#
# Velocity S-wave (km/s) = 3.72054 3.91361 3.81830
# Velocity P-wave (km/s) = 6.03123 6.46467 6.25171
#
# Compressibility (1/GPa) = 0.02523556
#
# Stress axis : x y z
#
# Youngs Moduli (GPa) = 87.23505 49.22673 52.51648
#
# Poissons Ratio (x) = 0.30498 0.20780
# Poissons Ratio (y) = 0.54046 0.13861
# Poissons Ratio (z) = 0.34518 0.12993
#
# Static dielectric constant tensor:
#      x y z
#    x 4.006200 0.000000 0.219930 
#    y 0.000000 4.001950 0.000000 
#    z 0.219930 0.000000 3.927850 
# 
# 
# High freq. dielectric constant tensor:
#      x y z
#    x 1.881870 0.000000 0.014900 
#    y 0.000000 1.861550 0.000000 
#    z 0.014900 0.000000 1.874440 
# 
# From -- ./inp_files/65102.got.cif
#   From: 2010.03.12/outbox.cif.g09.slc.cpg/sg5_33_cif.got.tgz:65102.got - 2010.03.31 09:47:26.
