data_PCOD8050928
_publ_section_title
;
Structure prediction by ZEFSAII (Michael W. Deem and Ramdas Pophale) SiO2 
 PCOD8050928
Probable space group: C 2
;
_chemical_formula_sum "Si O2"
_cell_formula_units_Z 18
_cell_length_a 10.715696
_cell_length_b 8.615124
_cell_length_c 9.345288
_cell_angle_alpha 90.000000
_cell_angle_beta 120.776813
_cell_angle_gamma 90.000000
_cell_volume 741.228684
_symmetry_space_group_name_H-M "C 2"
_symmetry_group_IT_number 5
_symmetry_cell_setting 'monoclinic'
loop_
_space_group_symop_operation_xyz
x,y,z
-x,y,-z
1/2+x,1/2+y,z
1/2-x,1/2+y,-z
loop_
_atom_site_type_symbol
_atom_site_label
_atom_site_fract_x
_atom_site_fract_y
_atom_site_fract_z
Si Si1 0.260161 0.918320 0.893649
Si Si2 0.914875 0.906682 0.690125
Si Si3 0.500000 0.045426 0.500000
Si Si4 0.809316 0.554248 0.625464
Si Si5 0.241929 0.086754 0.164971
O O1 0.330399 0.746245 0.931575
O O2 0.086809 0.912548 0.784956
O O3 0.328771 0.011840 0.801795
O O4 0.311110 0.998038 0.069970
O O5 0.852381 0.733935 0.631869
O O6 0.852814 0.016075 0.526019
O O7 0.869417 0.974393 0.818669
O O8 0.417530 0.953495 0.581194
O O9 0.371800 0.143073 0.347735
#
# Coordination Sequence:
#
# PCOD8050928 Si02
#       5
#     4   4   2   4   4
#     4  12  25  47  70 105 143 185 229 299 338 419
#     4  11  24  46  69 104 143 185 230 294 341 424
#     4  10  22  46  68  98 134 188 222 282 342 424
#     4  11  23  44  76  98 143 187 231 284 361 395
#     4  11  25  47  73 101 146 183 232 285 360 400
#
# _framework density 24.284002999999998
#
# number of rings (size 3 to 8) (size 9 to 14) (size 15 to 20)
#    0.000    0.889    2.222    5.333    0.000    0.889 
#   40.000    0.000    0.000    0.000    0.000    0.000 
#    0.000    0.000    0.000    0.000    0.000    0.000 
#
# Total GULP energy -111500.734857 kJ/mol
# GULP energy per Si atom -12388.970540 kJ/mol
# Density = 2.422873 g / cm^3
# Si number density = 24.284003 Si / 1000 Ang^3
#
#
#
# Elastic Constant Matrix: (Units=GPa)
#
#
# Indices 1 2 3 4 5 6 
#
# 1 116.6756 33.3721 40.4885 0.0000 -34.0337 0.0000
# 2 33.3721 117.0270 42.7082 0.0000 -9.9146 0.0000
# 3 40.4885 42.7082 103.4187 0.0000 -40.4415 0.0000
# 4 0.0000 0.0000 0.0000 34.1240 0.0000 -10.8341
# 5 -34.0337 -9.9146 -40.4415 0.0000 53.9360 0.0000
# 6 0.0000 0.0000 0.0000 -10.8341 0.0000 25.2561
#
#
#
# Elastic Compliance Matrix: (Units=1/GPa)
#
#
# Indices 1 2 3 4 5 6 
#
# 1 0.011350 -0.002300 -0.001215 0.000000 0.005828 0.000000
# 2 -0.002300 0.010651 -0.004669 0.000000 -0.002994 0.000000
# 3 -0.001215 -0.004669 0.016183 0.000000 0.010509 0.000000
# 4 0.000000 0.000000 0.000000 0.033925 0.000000 0.014553
# 5 0.005828 -0.002994 0.010509 0.000000 0.029548 0.000000
# 6 0.000000 0.000000 0.000000 0.014553 0.000000 0.045837
#
#
# Mechanical properties :
#
#
# Convention : Reuss Voigt Hill
#
# Bulk Modulus (GPa) = 45.83540 63.36210 54.59875
# Shear Modulus (GPa) = 29.21703 37.36673 33.29188
#
# Velocity S-wave (km/s) = 3.47239 3.92693 3.70664
# Velocity P-wave (km/s) = 5.91544 6.83446 6.39149
#
# Compressibility (1/GPa) = 0.02181720
#
# Stress axis : x y z
#
# Youngs Moduli (GPa) = 88.10432 93.88733 61.79448
#
# Poissons Ratio (x) = 0.21590 0.07507
# Poissons Ratio (y) = 0.20260 0.28852
# Poissons Ratio (z) = 0.10703 0.43836
#
# Static dielectric constant tensor:
#      x y z
#    x 4.718110 0.000000 -0.363820 
#    y 0.000000 4.140610 0.000000 
#    z -0.363820 0.000000 4.611230 
# 
# 
# High freq. dielectric constant tensor:
#      x y z
#    x 1.977310 0.000000 -0.017600 
#    y 0.000000 1.936450 0.000000 
#    z -0.017600 0.000000 1.981800 
# 
# From -- ./inp_files/18128.got.cif
#   From: 2010.03.12/outbox.cif.g09.slc.cpg/sg5_10_cif.got.tgz:18128.got - 2010.03.31 09:47:26.
