data_PCOD8050258
_publ_section_title
;
Structure prediction by ZEFSAII (Michael W. Deem and Ramdas Pophale) SiO2 
 PCOD8050258
Probable space group: C 2
;
_chemical_formula_sum "Si O2"
_cell_formula_units_Z 24
_cell_length_a 12.092690
_cell_length_b 7.803499
_cell_length_c 24.263785
_cell_angle_alpha 90.000000
_cell_angle_beta 146.204664
_cell_angle_gamma 90.000000
_cell_volume 1273.572495
_symmetry_space_group_name_H-M "C 2"
_symmetry_group_IT_number 5
_symmetry_cell_setting 'monoclinic'
loop_
_space_group_symop_operation_xyz
x,y,z
-x,y,-z
1/2+x,1/2+y,z
1/2-x,1/2+y,-z
loop_
_atom_site_type_symbol
_atom_site_label
_atom_site_fract_x
_atom_site_fract_y
_atom_site_fract_z
Si Si1 0.974046 0.730980 0.229955
Si Si2 0.789691 0.536316 0.751518
Si Si3 0.134792 0.177031 0.409307
Si Si4 0.191831 0.539931 0.116325
Si Si5 0.518326 0.855952 0.758531
Si Si6 0.698066 0.844445 0.550569
O O1 0.116737 0.710453 0.235614
O O2 0.104988 0.788991 0.335763
O O3 0.809060 0.870013 0.146477
O O4 0.876171 0.543736 0.203201
O O5 0.553522 0.555664 0.655311
O O6 0.875599 0.515934 0.848527
O O7 0.854550 0.373006 0.740303
O O8 0.211457 0.266481 0.495566
O O9 0.089561 0.318004 0.344000
O O10 0.304153 0.050385 0.456076
O O11 0.325513 0.708407 0.162492
O O12 0.000000 0.561843 0.000000
O O13 0.500000 0.782610 0.500000
#
# Coordination Sequence:
#
# PCOD8050258 Si02
#       6
#     4   4   4   4   4   4
#     4  10  21  43  61  87 130 160 204 254 306 362
#     4   9  21  42  60  86 126 159 206 259 300 365
#     4  11  22  38  59  92 126 163 212 247 300 368
#     4  11  23  43  66  92 123 159 209 260 313 372
#     4   9  21  42  59  89 124 159 205 256 303 361
#     4  12  22  37  61  92 126 167 204 249 305 364
#
# _framework density 18.844629999999999
#
# number of rings (size 3 to 8) (size 9 to 14) (size 15 to 20)
#    1.000    0.667    5.000    1.000    0.000    3.333 
#    9.000    0.000    0.000    0.000    0.000    0.000 
#    0.000    0.000    0.000    0.000    0.000    0.000 
#
# Total GULP energy -148723.045235 kJ/mol
# GULP energy per Si atom -12393.587103 kJ/mol
# Density = 1.880174 g / cm^3
# Si number density = 18.844630 Si / 1000 Ang^3
#
#
#
# Elastic Constant Matrix: (Units=GPa)
#
#
# Indices 1 2 3 4 5 6 
#
# 1 89.4904 16.6437 8.9061 0.0000 -4.9491 0.0000
# 2 16.6437 109.1978 2.6791 0.0000 10.5793 0.0000
# 3 8.9061 2.6791 47.0018 0.0000 -2.7845 0.0000
# 4 0.0000 0.0000 0.0000 17.8706 0.0000 6.7839
# 5 -4.9491 10.5793 -2.7845 0.0000 15.8427 0.0000
# 6 0.0000 0.0000 0.0000 6.7839 0.0000 42.6533
#
#
#
# Elastic Compliance Matrix: (Units=1/GPa)
#
#
# Indices 1 2 3 4 5 6 
#
# 1 0.012056 -0.002272 -0.001861 0.000000 0.004956 0.000000
# 2 -0.002272 0.010262 -0.000609 0.000000 -0.007669 0.000000
# 3 -0.001861 -0.000609 0.021881 0.000000 0.003671 0.000000
# 4 0.000000 0.000000 0.000000 0.059553 0.000000 -0.009472
# 5 0.004956 -0.007669 0.003671 0.000000 0.070436 0.000000
# 6 0.000000 0.000000 0.000000 -0.009472 0.000000 0.024951
#
#
# Mechanical properties :
#
#
# Convention : Reuss Voigt Hill
#
# Bulk Modulus (GPa) = 28.80643 33.57199 31.18921
# Shear Modulus (GPa) = 22.70711 29.77071 26.23891
#
# Velocity S-wave (km/s) = 3.47503 3.97898 3.73551
# Velocity P-wave (km/s) = 5.60540 6.24208 5.93229
#
# Compressibility (1/GPa) = 0.03471447
#
# Stress axis : x y z
#
# Youngs Moduli (GPa) = 82.94422 97.44710 45.70250
#
# Poissons Ratio (x) = 0.22141 0.08507
# Poissons Ratio (y) = 0.18846 0.02782
# Poissons Ratio (z) = 0.15439 0.05932
#
# Static dielectric constant tensor:
#      x y z
#    x 3.527270 0.000000 -0.144600 
#    y 0.000000 3.478140 0.000000 
#    z -0.144600 0.000000 3.184260 
# 
# 
# High freq. dielectric constant tensor:
#      x y z
#    x 1.735730 0.000000 -0.013600 
#    y 0.000000 1.734580 0.000000 
#    z -0.013600 0.000000 1.715040 
# 
# From -- ./inp_files/38345.got.cif
#   From: 2010.03.12/outbox.cif.g09.slc.cpg/sg5_20_cif.got.tgz:38345.got - 2010.03.31 09:47:26.
