data_PCOD8050158
_publ_section_title
;
Structure prediction by ZEFSAII (Michael W. Deem and Ramdas Pophale) SiO2 
 PCOD8050158
Probable space group: C 2
;
_chemical_formula_sum "Si O2"
_cell_formula_units_Z 20
_cell_length_a 5.023290
_cell_length_b 26.420087
_cell_length_c 7.032590
_cell_angle_alpha 90.000000
_cell_angle_beta 76.231752
_cell_angle_gamma 90.000000
_cell_volume 906.517355
_symmetry_space_group_name_H-M "C 2"
_symmetry_group_IT_number 5
_symmetry_cell_setting 'monoclinic'
loop_
_space_group_symop_operation_xyz
x,y,z
-x,y,-z
1/2+x,1/2+y,z
1/2-x,1/2+y,-z
loop_
_atom_site_type_symbol
_atom_site_label
_atom_site_fract_x
_atom_site_fract_y
_atom_site_fract_z
Si Si1 0.804032 0.675930 0.368007
Si Si2 0.723700 0.469517 0.126902
Si Si3 0.500000 0.245152 0.000000
Si Si4 0.779372 0.380241 0.376042
Si Si5 0.699964 0.061668 0.630617
Si Si6 0.500000 0.814730 0.000000
O O1 0.500000 0.680796 0.500000
O O2 0.884105 0.618473 0.294697
O O3 0.000000 0.695700 0.500000
O O4 0.848761 0.710609 0.179439
O O5 0.642499 0.431265 0.308923
O O6 0.801845 0.525386 0.187500
O O7 0.500000 0.473266 0.000000
O O8 0.000000 0.444825 0.000000
O O9 0.268133 0.280640 0.956021
O O10 0.500000 0.352078 0.500000
O O11 0.000000 0.394057 0.500000
O O12 0.955036 0.347936 0.195970
O O13 0.500000 0.040545 0.500000
O O14 0.000000 0.062687 0.500000
#
# Coordination Sequence:
#
# PCOD8050158 Si02
#       6
#     4   4   2   4   4   2
#     4  10  23  43  68  98 136 176 223 271 329 402
#     4  12  24  40  67 102 139 173 223 273 324 404
#     4  12  26  44  71  98 133 174 222 290 338 388
#     4  12  26  46  72  97 136 183 218 277 343 396
#     4  10  21  41  63  96 136 178 222 263 323 402
#     4  12  28  46  67 104 131 166 240 280 332 408
#
# _framework density 22.062456000000001
#
# number of rings (size 3 to 8) (size 9 to 14) (size 15 to 20)
#    0.000    0.800    1.000    6.000    2.800    4.800 
#    1.800    0.000    0.000    0.000    0.000    0.000 
#    0.000    0.000    0.000    0.000    0.000    0.000 
#
# Total GULP energy -123983.576101 kJ/mol
# GULP energy per Si atom -12398.357610 kJ/mol
# Density = 2.201224 g / cm^3
# Si number density = 22.062456 Si / 1000 Ang^3
#
#
#
# Elastic Constant Matrix: (Units=GPa)
#
#
# Indices 1 2 3 4 5 6 
#
# 1 148.5046 27.8398 50.2064 0.0000 26.9271 0.0000
# 2 27.8398 102.8377 60.1909 0.0000 14.4369 0.0000
# 3 50.2064 60.1909 127.6271 0.0000 15.7831 0.0000
# 4 0.0000 0.0000 0.0000 44.6243 0.0000 1.4675
# 5 26.9271 14.4369 15.7831 0.0000 52.3303 0.0000
# 6 0.0000 0.0000 0.0000 1.4675 0.0000 38.7244
#
#
#
# Elastic Compliance Matrix: (Units=1/GPa)
#
#
# Indices 1 2 3 4 5 6 
#
# 1 0.008319 -0.000146 -0.002783 0.000000 -0.003401 0.000000
# 2 -0.000146 0.013612 -0.006136 0.000000 -0.001830 0.000000
# 3 -0.002783 -0.006136 0.011881 0.000000 -0.000458 0.000000
# 4 0.000000 0.000000 0.000000 0.022437 0.000000 -0.000850
# 5 -0.003401 -0.001830 -0.000458 0.000000 0.021502 0.000000
# 6 0.000000 0.000000 0.000000 -0.000850 0.000000 0.025856
#
#
# Mechanical properties :
#
#
# Convention : Reuss Voigt Hill
#
# Bulk Modulus (GPa) = 63.76890 72.82704 68.29797
# Shear Modulus (GPa) = 39.38154 43.18464 41.28309
#
# Velocity S-wave (km/s) = 4.22951 4.42903 4.33042
# Velocity P-wave (km/s) = 7.26762 7.69651 7.48513
#
# Compressibility (1/GPa) = 0.01568163
#
# Stress axis : x y z
#
# Youngs Moduli (GPa) = 120.21136 73.46619 84.17018
#
# Poissons Ratio (x) = 0.01069 0.23426
# Poissons Ratio (y) = 0.01750 0.51646
# Poissons Ratio (z) = 0.33457 0.45079
#
# Static dielectric constant tensor:
#      x y z
#    x 3.976510 0.000000 -0.018220 
#    y 0.000000 4.241970 0.000000 
#    z -0.018220 0.000000 3.944810 
# 
# 
# High freq. dielectric constant tensor:
#      x y z
#    x 1.888180 0.000000 -0.002860 
#    y 0.000000 1.870800 0.000000 
#    z -0.002860 0.000000 1.874280 
# 
# From -- ./inp_files/1097.got.cif
#   From: 2010.03.12/outbox.cif.g09.slc.cpg/sg5_1_cif.got.tgz:1097.got - 2010.03.31 09:47:26.
