data_PCOD8050872
_publ_section_title
;
Structure prediction by ZEFSAII (Michael W. Deem and Ramdas Pophale) SiO2 
 PCOD8050872
Probable space group: C 2
;
_chemical_formula_sum "Si O2"
_cell_formula_units_Z 24
_cell_length_a 12.033900
_cell_length_b 10.744075
_cell_length_c 17.080606
_cell_angle_alpha 90.000000
_cell_angle_beta 28.625450
_cell_angle_gamma 90.000000
_cell_volume 1058.006598
_symmetry_space_group_name_H-M "C 2"
_symmetry_group_IT_number 5
_symmetry_cell_setting 'monoclinic'
loop_
_space_group_symop_operation_xyz
x,y,z
-x,y,-z
1/2+x,1/2+y,z
1/2-x,1/2+y,-z
loop_
_atom_site_type_symbol
_atom_site_label
_atom_site_fract_x
_atom_site_fract_y
_atom_site_fract_z
Si Si1 0.023191 0.221510 0.210682
Si Si2 0.221074 0.817419 0.810226
Si Si3 0.740031 0.280005 0.188290
Si Si4 0.746190 0.950298 0.686376
Si Si5 0.481289 0.197173 0.828546
Si Si6 0.291626 0.059759 0.681013
O O1 0.070980 0.244754 0.273592
O O2 0.836649 0.326489 0.305345
O O3 0.917948 0.086176 0.251829
O O4 0.254255 0.233223 0.017254
O O5 0.199752 0.759851 0.736776
O O6 0.246045 0.964383 0.780221
O O7 0.000000 0.793323 0.000000
O O8 0.740579 0.418689 0.227524
O O9 0.554246 0.261415 0.233769
O O10 0.652221 0.188009 0.310214
O O11 0.000000 0.244584 0.000000
O O12 0.000000 0.992751 0.500000
O O13 0.546294 0.051137 0.788488
O O14 0.500000 0.009311 0.500000
#
# Coordination Sequence:
#
# PCOD8050872 Si02
#       6
#     4   4   4   4   4   4
#     4  10  22  44  72  96 135 179 236 281 337 424
#     4  10  24  43  66 100 134 174 236 289 336 418
#     4  11  21  43  74  97 133 186 240 283 345 424
#     4  11  25  46  69 102 143 181 231 297 356 405
#     4  11  24  43  71 101 134 182 235 285 346 421
#     4  11  23  42  68  98 136 182 225 283 355 404
#
# _framework density 22.684169000000001
#
# number of rings (size 3 to 8) (size 9 to 14) (size 15 to 20)
#    0.000    1.333    3.333    3.500    4.667    4.000 
#   18.000    0.000    0.000    0.000    0.000    0.000 
#    0.000    0.000    0.000    0.000    0.000    0.000 
#
# Total GULP energy -148666.051943 kJ/mol
# GULP energy per Si atom -12388.837662 kJ/mol
# Density = 2.263254 g / cm^3
# Si number density = 22.684169 Si / 1000 Ang^3
#
#
#
# Elastic Constant Matrix: (Units=GPa)
#
#
# Indices 1 2 3 4 5 6 
#
# 1 217.4968 50.3701 30.6255 0.0024 -5.5501 -0.0032
# 2 50.3701 61.5923 11.4597 -0.0027 -0.3572 0.0042
# 3 30.6255 11.4597 46.7539 0.0228 -3.9087 -0.0084
# 4 0.0024 -0.0027 0.0228 14.7973 0.0086 1.2307
# 5 -5.5501 -0.3572 -3.9087 0.0086 22.2201 0.0032
# 6 -0.0032 0.0042 -0.0084 1.2307 0.0032 45.9624
#
#
#
# Elastic Compliance Matrix: (Units=1/GPa)
#
#
# Indices 1 2 3 4 5 6 
#
# 1 0.006037 -0.004412 -0.002794 0.000002 0.000945 0.000000
# 2 -0.004412 0.020240 -0.002168 0.000009 -0.001158 -0.000003
# 3 -0.002794 -0.002168 0.024043 -0.000039 0.003497 0.000005
# 4 0.000002 0.000009 -0.000039 0.067731 -0.000032 -0.001814
# 5 0.000945 -0.001158 0.003497 -0.000032 0.045837 -0.000002
# 6 0.000000 -0.000003 0.000005 -0.001814 -0.000002 0.021805
#
#
# Mechanical properties :
#
#
# Convention : Reuss Voigt Hill
#
# Bulk Modulus (GPa) = 31.67337 56.75042 44.21189
# Shear Modulus (GPa) = 23.25961 32.15514 27.70738
#
# Velocity S-wave (km/s) = 3.20561 3.76907 3.49870
# Velocity P-wave (km/s) = 5.26254 6.63424 5.98780
#
# Compressibility (1/GPa) = 0.03157226
#
# Stress axis : x y z
#
# Youngs Moduli (GPa) = 165.64398 49.40619 41.59290
#
# Poissons Ratio (x) = 0.21797 0.11621
# Poissons Ratio (y) = 0.73078 0.09017
# Poissons Ratio (z) = 0.46282 0.10711
#
# Static dielectric constant tensor:
#      x y z
#    x 5.008150 -0.000040 -0.157850 
#    y -0.000040 4.065750 0.000040 
#    z -0.157850 0.000040 3.681270 
# 
# 
# High freq. dielectric constant tensor:
#      x y z
#    x 1.913890 0.000000 -0.003060 
#    y 0.000000 1.881890 0.000000 
#    z -0.003060 0.000000 1.873850 
# 
# From -- ./inp_files/60443.got.cif
#   From: 2010.03.12/outbox.cif.g09.slc.cpg/sg5_31_cif.got.tgz:60443.got - 2010.03.31 09:47:26.
