data_PCOD8050472
_publ_section_title
;
Structure prediction by ZEFSAII (Michael W. Deem and Ramdas Pophale) SiO2 
 PCOD8050472
Probable space group: C 2
;
_chemical_formula_sum "Si O2"
_cell_formula_units_Z 28
_cell_length_a 9.458097
_cell_length_b 12.770819
_cell_length_c 21.671992
_cell_angle_alpha 90.000000
_cell_angle_beta 28.730739
_cell_angle_gamma 90.000000
_cell_volume 1258.316987
_symmetry_space_group_name_H-M "C 2"
_symmetry_group_IT_number 5
_symmetry_cell_setting 'monoclinic'
loop_
_space_group_symop_operation_xyz
x,y,z
-x,y,-z
1/2+x,1/2+y,z
1/2-x,1/2+y,-z
loop_
_atom_site_type_symbol
_atom_site_label
_atom_site_fract_x
_atom_site_fract_y
_atom_site_fract_z
Si Si1 0.177941 0.746820 0.871338
Si Si2 0.476616 0.048426 0.881896
Si Si3 0.682457 0.245724 0.616626
Si Si4 0.054006 0.957244 0.856387
Si Si5 0.240850 0.877921 0.143625
Si Si6 0.631858 0.024332 0.685804
Si Si7 0.143300 0.805523 0.382672
O O1 0.156539 0.650713 0.832567
O O2 0.008502 0.845451 0.907115
O O3 0.519309 0.769850 0.754878
O O4 0.000000 0.713602 0.000000
O O5 0.463582 0.047026 0.813685
O O6 0.635520 0.944319 0.846726
O O7 0.142367 0.046294 0.034969
O O8 0.450696 0.284056 0.756181
O O9 0.764917 0.126916 0.603665
O O10 0.550327 0.260689 0.599180
O O11 0.000000 0.304822 0.500000
O O12 0.963804 0.953036 0.819335
O O13 0.394509 0.985171 0.726985
O O14 0.500000 0.833325 0.000000
O O15 0.872987 0.933071 0.606553
O O16 0.000000 0.758653 0.500000
#
# Coordination Sequence:
#
# PCOD8050472 Si02
#       7
#     4   4   4   4   4   4   4
#     4  11  24  41  72 102 142 184 235 296 365 430
#     4  11  22  41  66 109 141 182 237 294 358 439
#     4  12  28  47  73 107 139 190 247 292 361 433
#     4  10  22  39  67 103 141 182 230 286 369 416
#     4  10  23  43  70 103 144 180 234 298 357 426
#     4  11  24  44  72 100 142 184 239 297 355 432
#     4  11  27  51  71 101 146 190 238 300 360 428
#
# _framework density 22.251944999999999
#
# number of rings (size 3 to 8) (size 9 to 14) (size 15 to 20)
#    0.000    1.143    1.429    4.714   12.000    1.143 
#    0.000    0.714    0.000    0.000    0.000    0.000 
#    0.000    0.000    0.000    0.000    0.000    0.000 
#
# Total GULP energy -173593.330055 kJ/mol
# GULP energy per Si atom -12399.523575 kJ/mol
# Density = 2.220130 g / cm^3
# Si number density = 22.251945 Si / 1000 Ang^3
#
#
#
# Elastic Constant Matrix: (Units=GPa)
#
#
# Indices 1 2 3 4 5 6 
#
# 1 123.2681 16.2651 59.0614 -0.0194 0.2532 0.0491
# 2 16.2651 86.9107 36.0110 -0.1141 -4.4130 -0.0011
# 3 59.0614 36.0110 119.8966 -0.1667 4.2195 -0.2854
# 4 -0.0194 -0.1141 -0.1667 15.2289 0.0942 1.5139
# 5 0.2532 -4.4130 4.2195 0.0942 35.1149 0.0757
# 6 0.0491 -0.0011 -0.2854 1.5139 0.0757 27.7036
#
#
#
# Elastic Compliance Matrix: (Units=1/GPa)
#
#
# Indices 1 2 3 4 5 6 
#
# 1 0.010634 0.000251 -0.005335 -0.000039 0.000596 -0.000073
# 2 0.000251 0.013309 -0.004197 0.000046 0.002175 -0.000052
# 3 -0.005335 -0.004197 0.012299 0.000095 -0.001967 0.000136
# 4 -0.000039 0.000046 0.000095 0.066026 -0.000175 -0.003607
# 5 0.000596 0.002175 -0.001967 -0.000175 0.028984 -0.000091
# 6 -0.000073 -0.000052 0.000136 -0.003607 -0.000091 0.036295
#
#
# Mechanical properties :
#
#
# Convention : Reuss Voigt Hill
#
# Bulk Modulus (GPa) = 56.56578 61.41672 58.99125
# Shear Modulus (GPa) = 26.04124 30.19200 28.11662
#
# Velocity S-wave (km/s) = 3.42466 3.68751 3.55851
# Velocity P-wave (km/s) = 6.41198 6.76689 6.59183
#
# Compressibility (1/GPa) = 0.01767853
#
# Stress axis : x y z
#
# Youngs Moduli (GPa) = 94.03567 75.13807 81.30816
#
# Poissons Ratio (x) = -0.01883 0.43377
# Poissons Ratio (y) = -0.02356 0.34128
# Poissons Ratio (z) = 0.50167 0.31538
#
# Static dielectric constant tensor:
#      x y z
#    x 4.117790 0.000120 -0.037140 
#    y 0.000120 3.923590 -0.000080 
#    z -0.037140 -0.000080 3.941230 
# 
# 
# High freq. dielectric constant tensor:
#      x y z
#    x 1.889250 0.000000 -0.003360 
#    y 0.000000 1.863420 0.000000 
#    z -0.003360 0.000000 1.877490 
# 
# From -- ./inp_files/50896.got.cif
#   From: 2010.03.12/outbox.cif.g09.slc.cpg/sg5_26_cif.got.tgz:50896.got - 2010.03.31 09:47:26.
