data_PCOD8050702
_publ_section_title
;
Structure prediction by ZEFSAII (Michael W. Deem and Ramdas Pophale) SiO2 
 PCOD8050702
Probable space group: C 2
;
_chemical_formula_sum "Si O2"
_cell_formula_units_Z 32
_cell_length_a 11.702863
_cell_length_b 8.307822
_cell_length_c 15.201463
_cell_angle_alpha 90.000000
_cell_angle_beta 88.932455
_cell_angle_gamma 90.000000
_cell_volume 1477.710305
_symmetry_space_group_name_H-M "C 2"
_symmetry_group_IT_number 5
_symmetry_cell_setting 'monoclinic'
loop_
_space_group_symop_operation_xyz
x,y,z
-x,y,-z
1/2+x,1/2+y,z
1/2-x,1/2+y,-z
loop_
_atom_site_type_symbol
_atom_site_label
_atom_site_fract_x
_atom_site_fract_y
_atom_site_fract_z
Si Si1 0.226729 0.038710 0.073515
Si Si2 0.002709 0.132621 0.901672
Si Si3 0.376081 0.098485 0.472101
Si Si4 0.538695 0.988024 0.856476
Si Si5 0.181217 0.675166 0.100297
Si Si6 0.162787 0.074135 0.754133
Si Si7 0.280229 0.868325 0.613665
Si Si8 0.470077 0.856465 0.330890
O O1 0.130911 0.147628 0.123780
O O2 0.341016 0.073447 0.126325
O O3 0.174461 0.860703 0.076743
O O4 0.236532 0.086460 0.970728
O O5 0.054466 0.312198 0.900355
O O6 0.070340 0.021442 0.830334
O O7 0.000000 0.057515 0.000000
O O8 0.500000 0.170590 0.500000
O O9 0.304011 0.025159 0.553790
O O10 0.296254 0.236080 0.433566
O O11 0.400573 0.953670 0.404805
O O12 0.442676 0.093589 0.904825
O O13 0.515036 0.972573 0.753445
O O14 0.230451 0.656407 0.197920
O O15 0.206839 0.920912 0.699794
O O16 0.104012 0.199878 0.689014
O O17 0.404463 0.798321 0.638960
#
# Coordination Sequence:
#
# PCOD8050702 Si02
#       8
#     4   4   4   4   4   4   4   4
#     4  12  24  42  63  88 130 177 224 277 323 377
#     4  11  22  43  62  88 132 174 221 275 324 377
#     4  10  24  44  72 101 130 164 208 262 325 405
#     4  11  23  42  64  93 129 174 221 270 328 381
#     4  12  23  42  64  90 130 177 224 277 324 373
#     4  11  23  43  65  94 136 174 217 272 322 382
#     4  11  23  45  70  99 133 166 210 266 328 394
#     4  10  22  42  66  97 132 171 210 262 330 389
#
# _framework density 21.655125000000002
#
# number of rings (size 3 to 8) (size 9 to 14) (size 15 to 20)
#    0.000    1.000    5.000    2.625    0.000    5.000 
#    4.500    0.000    0.000    0.000    0.000    0.000 
#    0.000    0.000    0.000    0.000    0.000    0.000 
#
# Total GULP energy -198392.461751 kJ/mol
# GULP energy per Si atom -12399.528859 kJ/mol
# Density = 2.160584 g / cm^3
# Si number density = 21.655125 Si / 1000 Ang^3
#
#
#
# Elastic Constant Matrix: (Units=GPa)
#
#
# Indices 1 2 3 4 5 6 
#
# 1 140.6727 32.9070 38.3322 0.0000 0.1555 0.0000
# 2 32.9070 38.8724 19.3068 0.0000 13.2677 0.0000
# 3 38.3322 19.3068 97.5327 0.0000 2.3996 0.0000
# 4 0.0000 0.0000 0.0000 26.9213 0.0000 7.3466
# 5 0.1555 13.2677 2.3996 0.0000 44.1685 0.0000
# 6 0.0000 0.0000 0.0000 7.3466 0.0000 35.4994
#
#
#
# Elastic Compliance Matrix: (Units=1/GPa)
#
#
# Indices 1 2 3 4 5 6 
#
# 1 0.009545 -0.007781 -0.002271 0.000000 0.002427 0.000000
# 2 -0.007781 0.038250 -0.004237 0.000000 -0.011232 0.000000
# 3 -0.002271 -0.004237 0.011969 0.000000 0.000631 0.000000
# 4 0.000000 0.000000 0.000000 0.039369 0.000000 -0.008147
# 5 0.002427 -0.011232 0.000631 0.000000 0.025972 0.000000
# 6 0.000000 0.000000 0.000000 -0.008147 0.000000 0.029856
#
#
# Mechanical properties :
#
#
# Convention : Reuss Voigt Hill
#
# Bulk Modulus (GPa) = 32.06568 50.90777 41.48673
# Shear Modulus (GPa) = 25.78210 33.75327 29.76769
#
# Velocity S-wave (km/s) = 3.45422 3.95229 3.71162
# Velocity P-wave (km/s) = 5.54512 6.66235 6.12924
#
# Compressibility (1/GPa) = 0.03118599
#
# Stress axis : x y z
#
# Youngs Moduli (GPa) = 104.76802 26.14371 83.55096
#
# Poissons Ratio (x) = 0.20341 0.18973
# Poissons Ratio (y) = 0.81516 0.35404
# Poissons Ratio (z) = 0.23791 0.11078
#
# Static dielectric constant tensor:
#      x y z
#    x 4.219130 0.000000 -0.090720 
#    y 0.000000 3.508260 0.000000 
#    z -0.090720 0.000000 4.084760 
# 
# 
# High freq. dielectric constant tensor:
#      x y z
#    x 1.878420 0.000000 -0.000500 
#    y 0.000000 1.822760 0.000000 
#    z -0.000500 0.000000 1.855910 
# 
# From -- ./inp_files/52441.got.cif
#   From: 2010.03.12/outbox.cif.g09.slc.cpg/sg5_27_cif.got.tgz:52441.got - 2010.03.31 09:47:26.
