data_PCOD8050043
_publ_section_title
;
Structure prediction by ZEFSAII (Michael W. Deem and Ramdas Pophale) SiO2 
 PCOD8050043
Probable space group: C 2
;
_chemical_formula_sum "Si O2"
_cell_formula_units_Z 24
_cell_length_a 11.460637
_cell_length_b 8.815608
_cell_length_c 14.415667
_cell_angle_alpha 90.000000
_cell_angle_beta 127.878776
_cell_angle_gamma 90.000000
_cell_volume 1149.593351
_symmetry_space_group_name_H-M "C 2"
_symmetry_group_IT_number 5
_symmetry_cell_setting 'monoclinic'
loop_
_space_group_symop_operation_xyz
x,y,z
-x,y,-z
1/2+x,1/2+y,z
1/2-x,1/2+y,-z
loop_
_atom_site_type_symbol
_atom_site_label
_atom_site_fract_x
_atom_site_fract_y
_atom_site_fract_z
Si Si1 0.910087 0.284640 0.216466
Si Si2 0.707190 0.764649 0.032512
Si Si3 0.316385 0.587701 0.614551
Si Si4 0.442225 0.297237 0.571155
Si Si5 0.335977 0.090798 0.947620
Si Si6 0.799500 0.594872 0.239944
O O1 0.762597 0.187716 0.173597
O O2 0.889256 0.452827 0.243493
O O3 0.055598 0.213408 0.331868
O O4 0.924274 0.276014 0.109547
O O5 0.674783 0.657918 0.106392
O O6 0.751711 0.933268 0.084185
O O7 0.846671 0.684848 0.049226
O O8 0.365401 0.433931 0.588460
O O9 0.172495 0.658242 0.496003
O O10 0.279964 0.549265 0.703659
O O11 0.500000 0.357918 0.500000
O O12 0.583494 0.231992 0.694127
O O13 0.500000 0.051604 0.000000
#
# Coordination Sequence:
#
# PCOD8050043 Si02
#       6
#     4   4   4   4   4   4
#     4  10  22  41  59  95 128 161 208 249 305 373
#     4  10  21  40  59  93 129 163 210 245 301 376
#     4  11  24  43  68  92 123 167 206 266 320 364
#     4  10  24  44  65  93 123 161 213 264 317 374
#     4  10  22  38  58  85 128 168 200 248 298 361
#     4  11  23  41  65  93 129 165 210 258 307 374
#
# _framework density 20.876947999999999
#
# number of rings (size 3 to 8) (size 9 to 14) (size 15 to 20)
#    1.000    0.667    1.667    2.000    2.333    4.000 
#    0.000    0.833    0.000    0.000    0.000    0.000 
#    0.000    0.000    0.000    0.000    0.000    0.000 
#
# Total GULP energy -148662.186087 kJ/mol
# GULP energy per Si atom -12388.515507 kJ/mol
# Density = 2.082943 g / cm^3
# Si number density = 20.876948 Si / 1000 Ang^3
#
#
#
# Elastic Constant Matrix: (Units=GPa)
#
#
# Indices 1 2 3 4 5 6 
#
# 1 113.1190 66.2486 34.0660 0.0000 -13.2121 0.0000
# 2 66.2486 124.1690 27.9381 0.0000 -15.8851 0.0000
# 3 34.0660 27.9381 59.4568 0.0000 -10.9256 0.0000
# 4 0.0000 0.0000 0.0000 25.2454 0.0000 -1.1122
# 5 -13.2121 -15.8851 -10.9256 0.0000 27.1074 0.0000
# 6 0.0000 0.0000 0.0000 -1.1122 0.0000 31.8402
#
#
#
# Elastic Compliance Matrix: (Units=1/GPa)
#
#
# Indices 1 2 3 4 5 6 
#
# 1 0.014147 -0.006282 -0.004928 0.000000 0.001228 0.000000
# 2 -0.006282 0.012185 -0.001487 0.000000 0.003479 0.000000
# 3 -0.004928 -0.001487 0.021319 0.000000 0.005319 0.000000
# 4 0.000000 0.000000 0.000000 0.039672 0.000000 0.001386
# 5 0.001228 0.003479 0.005319 0.000000 0.041671 0.000000
# 6 0.000000 0.000000 0.000000 0.001386 0.000000 0.031455
#
#
# Mechanical properties :
#
#
# Convention : Reuss Voigt Hill
#
# Bulk Modulus (GPa) = 44.93092 61.47225 53.20159
# Shear Modulus (GPa) = 25.87167 28.07142 26.97154
#
# Velocity S-wave (km/s) = 3.52411 3.67087 3.59824
# Velocity P-wave (km/s) = 6.17476 6.89029 6.54231
#
# Compressibility (1/GPa) = 0.02225639
#
# Stress axis : x y z
#
# Youngs Moduli (GPa) = 70.68752 82.06914 46.90738
#
# Poissons Ratio (x) = 0.51555 0.23116
# Poissons Ratio (y) = 0.44405 0.06975
# Poissons Ratio (z) = 0.34835 0.12203
#
# Static dielectric constant tensor:
#      x y z
#    x 3.559120 0.000000 -0.129200 
#    y 0.000000 3.720730 0.000000 
#    z -0.129200 0.000000 3.738240 
# 
# 
# High freq. dielectric constant tensor:
#      x y z
#    x 1.801250 0.000000 -0.005030 
#    y 0.000000 1.829560 0.000000 
#    z -0.005030 0.000000 1.812180 
# 
# From -- ./inp_files/60231.got.cif
#   From: 2010.03.12/outbox.cif.g09.slc.cpg/sg5_31_cif.got.tgz:60231.got - 2010.03.31 09:47:26.
