data_PCOD8050139
_publ_section_title
;
Structure prediction by ZEFSAII (Michael W. Deem and Ramdas Pophale) SiO2 
 PCOD8050139
Probable space group: C 2
;
_chemical_formula_sum "Si O2"
_cell_formula_units_Z 32
_cell_length_a 5.178333
_cell_length_b 9.170287
_cell_length_c 29.287489
_cell_angle_alpha 90.000000
_cell_angle_beta 66.182881
_cell_angle_gamma 90.000000
_cell_volume 1272.329913
_symmetry_space_group_name_H-M "C 2"
_symmetry_group_IT_number 5
_symmetry_cell_setting 'monoclinic'
loop_
_space_group_symop_operation_xyz
x,y,z
-x,y,-z
1/2+x,1/2+y,z
1/2-x,1/2+y,-z
loop_
_atom_site_type_symbol
_atom_site_label
_atom_site_fract_x
_atom_site_fract_y
_atom_site_fract_z
Si Si1 0.393055 0.318170 0.245490
Si Si2 0.009482 0.757019 0.662909
Si Si3 0.117165 0.037168 0.539357
Si Si4 0.356925 0.954222 0.358000
Si Si5 0.934470 0.326314 0.566967
Si Si6 0.024630 0.486430 0.789830
Si Si7 0.314602 0.149933 0.058142
Si Si8 0.766237 0.482333 0.905777
O O1 0.312463 0.317765 0.305903
O O2 0.160264 0.412973 0.236692
O O3 0.701829 0.388940 0.218202
O O4 0.390779 0.151672 0.228533
O O5 0.946333 0.585492 0.675351
O O6 0.727950 0.855838 0.679933
O O7 0.123712 0.763706 0.601338
O O8 0.913442 0.028695 0.597584
O O9 0.150789 0.211066 0.528002
O O10 0.000000 0.963778 0.500000
O O11 0.412995 0.964767 0.534491
O O12 0.495126 0.857175 0.386245
O O13 0.828376 0.490462 0.847969
O O14 0.484240 0.064503 0.085203
O O15 0.031104 0.062930 0.065071
O O16 0.244601 0.313903 0.078561
O O17 0.500000 0.157875 0.000000
#
# Coordination Sequence:
#
# PCOD8050139 Si02
#       8
#     4   4   4   4   4   4   4   4
#     4  12  26  44  72 103 138 182 241 289 338 434
#     4  10  23  38  62  91 123 163 214 274 330 383
#     4  10  23  38  59  92 118 160 208 254 314 398
#     4  10  21  41  60  89 121 162 206 262 336 393
#     4  10  22  41  61  87 122 160 206 259 331 387
#     4  12  26  48  69 106 140 188 237 281 363 413
#     4  12  24  42  69 105 138 187 242 287 348 413
#     4  12  25  45  71  98 149 187 227 303 349 413
#
# _framework density 25.150708000000002
#
# number of rings (size 3 to 8) (size 9 to 14) (size 15 to 20)
#    0.000    1.000    0.000    6.375    5.250    0.000 
#    0.000    0.000    0.000    0.000    0.000    0.000 
#    0.000    0.000    0.000    0.000    0.000    0.000 
#
# Total GULP energy -198243.984403 kJ/mol
# GULP energy per Si atom -12390.249025 kJ/mol
# Density = 2.509346 g / cm^3
# Si number density = 25.150708 Si / 1000 Ang^3
#
#
#
# Elastic Constant Matrix: (Units=GPa)
#
#
# Indices 1 2 3 4 5 6 
#
# 1 101.7741 53.3455 -5.2086 0.0000 15.1617 0.0003
# 2 53.3455 195.9755 19.2981 0.0000 17.6335 0.0001
# 3 -5.2086 19.2981 108.2592 0.0000 5.7483 0.0000
# 4 0.0000 0.0000 0.0000 40.3879 0.0000 6.6671
# 5 15.1617 17.6335 5.7483 0.0000 29.6634 0.0000
# 6 0.0003 0.0001 0.0000 6.6671 0.0000 38.3992
#
#
#
# Elastic Compliance Matrix: (Units=1/GPa)
#
#
# Indices 1 2 3 4 5 6 
#
# 1 0.012183 -0.003029 0.001375 0.000000 -0.004693 0.000000
# 2 -0.003029 0.006214 -0.001151 0.000000 -0.001922 0.000000
# 3 0.001375 -0.001151 0.009608 0.000000 -0.001881 0.000000
# 4 0.000000 0.000000 0.000000 0.025490 0.000000 -0.004426
# 5 -0.004693 -0.001922 -0.001881 0.000000 0.037617 0.000000
# 6 0.000000 0.000000 0.000000 -0.004426 0.000000 0.026811
#
#
# Mechanical properties :
#
#
# Convention : Reuss Voigt Hill
#
# Bulk Modulus (GPa) = 44.65445 60.09762 52.37604
# Shear Modulus (GPa) = 38.16823 44.26170 41.21496
#
# Velocity S-wave (km/s) = 3.89984 4.19962 4.05250
# Velocity P-wave (km/s) = 6.17022 6.88931 6.53966
#
# Compressibility (1/GPa) = 0.02239418
#
# Stress axis : x y z
#
# Youngs Moduli (GPa) = 82.08096 160.93612 104.07618
#
# Poissons Ratio (x) = 0.48755 -0.14314
# Poissons Ratio (y) = 0.24866 0.11983
# Poissons Ratio (z) = -0.11289 0.18529
#
# Static dielectric constant tensor:
#      x y z
#    x 4.687260 0.000000 -0.266620 
#    y 0.000000 5.278040 0.000000 
#    z -0.266620 0.000000 4.356880 
# 
# 
# High freq. dielectric constant tensor:
#      x y z
#    x 2.006140 0.000000 0.001450 
#    y 0.000000 2.024790 0.000000 
#    z 0.001450 0.000000 2.019650 
# 
# From -- ./inp_files/71490.got.cif
#   From: 2010.03.12/outbox.cif.g09.slc.cpg/sg5_36_cif.got.tgz:71490.got - 2010.03.31 09:47:26.
