data_PCOD8050550
_publ_section_title
;
Structure prediction by ZEFSAII (Michael W. Deem and Ramdas Pophale) SiO2 
 PCOD8050550
Probable space group: C 2
;
_chemical_formula_sum "Si O2"
_cell_formula_units_Z 28
_cell_length_a 7.705242
_cell_length_b 11.856100
_cell_length_c 15.461469
_cell_angle_alpha 90.000000
_cell_angle_beta 115.213404
_cell_angle_gamma 90.000000
_cell_volume 1277.899333
_symmetry_space_group_name_H-M "C 2"
_symmetry_group_IT_number 5
_symmetry_cell_setting 'monoclinic'
loop_
_space_group_symop_operation_xyz
x,y,z
-x,y,-z
1/2+x,1/2+y,z
1/2-x,1/2+y,-z
loop_
_atom_site_type_symbol
_atom_site_label
_atom_site_fract_x
_atom_site_fract_y
_atom_site_fract_z
Si Si1 0.501363 0.899600 0.601341
Si Si2 0.500000 0.244457 0.500000
Si Si3 0.784286 0.925668 0.155335
Si Si4 0.285513 0.677204 0.923908
Si Si5 0.362903 0.439734 0.368517
Si Si6 0.000000 0.586552 0.000000
Si Si7 0.899882 0.153080 0.614981
Si Si8 0.324935 0.536728 0.768571
O O1 0.500000 0.927141 0.500000
O O2 0.304744 0.948476 0.597155
O O3 0.521047 0.765772 0.622452
O O4 0.677523 0.958663 0.685980
O O5 0.486408 0.326138 0.412916
O O6 0.685585 0.165254 0.530495
O O7 0.729257 0.803766 0.110662
O O8 0.772327 0.929578 0.255630
O O9 0.994308 0.960051 0.165591
O O10 0.625919 0.011646 0.089667
O O11 0.137843 0.663683 0.971124
O O12 0.232955 0.591964 0.834392
O O13 0.500000 0.650263 0.000000
O O14 0.497915 0.548090 0.409312
O O15 0.893336 0.135088 0.717374
#
# Coordination Sequence:
#
# PCOD8050550 Si02
#       8
#     4   2   4   4   4   2   4   4
#     4  11  26  44  69 105 143 190 237 287 347 416
#     4  10  22  40  68 106 134 182 234 288 340 414
#     4  11  25  48  74 104 142 183 236 296 353 432
#     4  12  25  47  75 107 144 187 231 298 361 420
#     4  10  24  46  70 101 145 184 237 292 347 421
#     4  12  26  46  76 110 140 186 238 284 368 434
#     4  10  25  44  70  97 139 188 234 287 351 407
#     4  11  26  46  71 105 144 180 239 294 352 421
#
# _framework density 21.910961
#
# number of rings (size 3 to 8) (size 9 to 14) (size 15 to 20)
#    0.000    1.143    2.143    2.571   10.000    4.571 
#    5.143    1.429    0.000    0.000    0.000    0.000 
#    0.000    0.000    0.000    0.000    0.000    0.000 
#
# Total GULP energy -173648.037291 kJ/mol
# GULP energy per Si atom -12403.431235 kJ/mol
# Density = 2.186109 g / cm^3
# Si number density = 21.910961 Si / 1000 Ang^3
#
#
#
# Elastic Constant Matrix: (Units=GPa)
#
#
# Indices 1 2 3 4 5 6 
#
# 1 134.4510 58.9842 55.0298 0.0000 -11.8795 0.0000
# 2 58.9842 116.9151 42.7304 0.0000 4.7100 0.0000
# 3 55.0298 42.7304 125.5558 0.0000 2.2592 0.0000
# 4 0.0000 0.0000 0.0000 32.0411 0.0000 13.3000
# 5 -11.8795 4.7100 2.2592 0.0000 45.0605 0.0000
# 6 0.0000 0.0000 0.0000 13.3000 0.0000 43.0395
#
#
#
# Elastic Compliance Matrix: (Units=1/GPa)
#
#
# Indices 1 2 3 4 5 6 
#
# 1 0.011127 -0.004513 -0.003405 0.000000 0.003576 0.000000
# 2 -0.004513 0.011632 -0.001939 0.000000 -0.002308 0.000000
# 3 -0.003405 -0.001939 0.010139 0.000000 -0.001203 0.000000
# 4 0.000000 0.000000 0.000000 0.035802 0.000000 -0.011064
# 5 0.003576 -0.002308 -0.001203 0.000000 0.023437 0.000000
# 6 0.000000 0.000000 0.000000 -0.011064 0.000000 0.026653
#
#
# Mechanical properties :
#
#
# Convention : Reuss Voigt Hill
#
# Bulk Modulus (GPa) = 75.85743 76.71230 76.28487
# Shear Modulus (GPa) = 34.98952 38.70671 36.84812
#
# Velocity S-wave (km/s) = 4.00045 4.20759 4.10533
# Velocity P-wave (km/s) = 7.48559 7.66107 7.57384
#
# Compressibility (1/GPa) = 0.01318262
#
# Stress axis : x y z
#
# Youngs Moduli (GPa) = 89.86815 85.97067 98.63219
#
# Poissons Ratio (x) = 0.38801 0.33588
# Poissons Ratio (y) = 0.40560 0.19125
# Poissons Ratio (z) = 0.30603 0.16670
#
# Static dielectric constant tensor:
#      x y z
#    x 3.922930 0.000000 0.030430 
#    y 0.000000 4.079450 0.000000 
#    z 0.030430 0.000000 4.198660 
# 
# 
# High freq. dielectric constant tensor:
#      x y z
#    x 1.865610 0.000000 0.004120 
#    y 0.000000 1.870870 0.000000 
#    z 0.004120 0.000000 1.874590 
# 
# From -- ./inp_files/50395.got.cif
#   From: 2010.03.12/outbox.cif.g09.slc.cpg/sg5_26_cif.got.tgz:50395.got - 2010.03.31 09:47:26.
