data_PCOD8050792
_publ_section_title
;
Structure prediction by ZEFSAII (Michael W. Deem and Ramdas Pophale) SiO2 
 PCOD8050792
Probable space group: C 2
;
_chemical_formula_sum "Si O2"
_cell_formula_units_Z 20
_cell_length_a 7.379454
_cell_length_b 25.226385
_cell_length_c 8.141952
_cell_angle_alpha 90.000000
_cell_angle_beta 143.211637
_cell_angle_gamma 90.000000
_cell_volume 907.682130
_symmetry_space_group_name_H-M "C 2"
_symmetry_group_IT_number 5
_symmetry_cell_setting 'monoclinic'
loop_
_space_group_symop_operation_xyz
x,y,z
-x,y,-z
1/2+x,1/2+y,z
1/2-x,1/2+y,-z
loop_
_atom_site_type_symbol
_atom_site_label
_atom_site_fract_x
_atom_site_fract_y
_atom_site_fract_z
Si Si1 0.706814 0.511950 0.990516
Si Si2 0.845273 0.616362 0.222561
Si Si3 0.354598 0.233664 0.223695
Si Si4 0.500000 0.867721 0.500000
Si Si5 0.500000 0.297854 0.000000
Si Si6 0.786991 0.948474 0.478520
O O1 0.864048 0.570436 0.095642
O O2 0.965152 0.467372 0.176038
O O3 0.500000 0.508924 0.000000
O O4 0.479932 0.500091 0.676943
O O5 0.981845 0.673853 0.276445
O O6 0.000000 0.593187 0.500000
O O7 0.500000 0.629674 0.000000
O O8 0.500000 0.254620 0.500000
O O9 0.464875 0.265255 0.143432
O O10 0.000000 0.237930 0.000000
O O11 0.695004 0.832440 0.766468
O O12 0.741897 0.904751 0.584334
O O13 0.000000 0.919872 0.500000
#
# Coordination Sequence:
#
# PCOD8050792 Si02
#       6
#     4   4   4   2   2   4
#     4  11  19  39  67  92 132 176 211 260 325 395
#     4   9  18  34  64  97 128 176 208 249 332 395
#     4  10  22  43  68  98 138 168 217 279 327 399
#     4  12  26  46  66  92 132 176 226 280 334 388
#     4  12  26  44  72  98 124 180 230 276 342 384
#     4  12  25  42  63  94 129 170 220 275 325 388
#
# _framework density 22.034144999999999
#
# number of rings (size 3 to 8) (size 9 to 14) (size 15 to 20)
#    0.000    1.200    2.000    5.400    0.000    2.400 
#    3.600    0.000    0.000    0.000    0.000    0.000 
#    0.000    0.000    0.000    0.000    0.000    0.000 
#
# Total GULP energy -123912.167940 kJ/mol
# GULP energy per Si atom -12391.216794 kJ/mol
# Density = 2.198399 g / cm^3
# Si number density = 22.034145 Si / 1000 Ang^3
#
#
#
# Elastic Constant Matrix: (Units=GPa)
#
#
# Indices 1 2 3 4 5 6 
#
# 1 129.9497 45.1466 30.3784 0.0000 -9.4852 0.0000
# 2 45.1466 112.0989 39.2987 0.0000 -12.3009 0.0000
# 3 30.3784 39.2987 138.1851 0.0000 -3.1986 0.0000
# 4 0.0000 0.0000 0.0000 23.0086 0.0000 6.2678
# 5 -9.4852 -12.3009 -3.1986 0.0000 31.0853 0.0000
# 6 0.0000 0.0000 0.0000 6.2678 0.0000 -10.5186
#
#
#
# Elastic Compliance Matrix: (Units=1/GPa)
#
#
# Indices 1 2 3 4 5 6 
#
# 1 0.009146 -0.003147 -0.001083 0.000000 0.001434 0.000000
# 2 -0.003147 0.011420 -0.002479 0.000000 0.003304 0.000000
# 3 -0.001083 -0.002479 0.008169 0.000000 -0.000471 0.000000
# 4 0.000000 0.000000 0.000000 0.037392 0.000000 0.022281
# 5 0.001434 0.003304 -0.000471 0.000000 0.033866 0.000000
# 6 0.000000 0.000000 0.000000 0.022281 0.000000 -0.081793
#
#
# Mechanical properties :
#
#
# Convention : Reuss Voigt Hill
#
# Bulk Modulus (GPa) = 65.28499 67.76458 66.52478
# Shear Modulus (GPa) = 136.15260 26.40906 81.28083
#
# Velocity S-wave (km/s) = 7.86929 3.46577 6.08019
# Velocity P-wave (km/s) = 10.59533 6.84372 8.91901
#
# Compressibility (1/GPa) = 0.01531746
#
# Stress axis : x y z
#
# Youngs Moduli (GPa) = 109.33442 87.56791 122.41541
#
# Poissons Ratio (x) = 0.27554 0.13253
# Poissons Ratio (y) = 0.34403 0.30352
# Poissons Ratio (z) = 0.11837 0.21712
#
# Static dielectric constant tensor:
#      x y z
#    x 3.929180 0.000000 -0.138700 
#    y 0.000000 4.313880 0.000000 
#    z -0.138700 0.000000 4.321440 
# 
# 
# High freq. dielectric constant tensor:
#      x y z
#    x 1.842020 0.000000 0.009140 
#    y 0.000000 1.867140 0.000000 
#    z 0.009140 0.000000 1.887910 
# 
# From -- ./inp_files/17292.got.cif
#   From: 2010.03.12/outbox.cif.g09.slc.cpg/sg5_9_cif.got.tgz:17292.got - 2010.03.31 09:47:26.
