data_PCOD8050713
_publ_section_title
;
Structure prediction by ZEFSAII (Michael W. Deem and Ramdas Pophale) SiO2 
 PCOD8050713
Probable space group: C 2
;
_chemical_formula_sum "Si O2"
_cell_formula_units_Z 26
_cell_length_a 10.773644
_cell_length_b 9.622921
_cell_length_c 20.566038
_cell_angle_alpha 90.000000
_cell_angle_beta 148.510259
_cell_angle_gamma 90.000000
_cell_volume 1113.725993
_symmetry_space_group_name_H-M "C 2"
_symmetry_group_IT_number 5
_symmetry_cell_setting 'monoclinic'
loop_
_space_group_symop_operation_xyz
x,y,z
-x,y,-z
1/2+x,1/2+y,z
1/2-x,1/2+y,-z
loop_
_atom_site_type_symbol
_atom_site_label
_atom_site_fract_x
_atom_site_fract_y
_atom_site_fract_z
Si Si1 0.500000 0.961931 0.500000
Si Si2 0.612029 0.945392 0.880323
Si Si3 0.513521 0.610881 0.288927
Si Si4 0.607380 0.368953 0.678035
Si Si5 0.803722 0.598256 0.214906
Si Si6 0.607467 0.870498 0.410757
Si Si7 0.192616 0.142970 0.937963
O O1 0.544487 0.857439 0.459397
O O2 0.278578 0.064424 0.387194
O O3 0.355702 0.873694 0.748993
O O4 0.762165 0.807852 0.969296
O O5 0.709144 0.035661 0.863368
O O6 0.597666 0.052628 0.934875
O O7 0.416490 0.518937 0.302924
O O8 0.488872 0.763570 0.308476
O O9 0.337324 0.598378 0.149709
O O10 0.612434 0.258226 0.739997
O O11 0.391882 0.348676 0.531159
O O12 0.539675 0.592970 0.125769
O O13 0.006656 0.520469 0.346616
#
# Coordination Sequence:
#
# PCOD8050713 Si02
#       7
#     2   4   4   4   4   4   4
#     4  10  22  42  68 100 146 176 220 290 342 410
#     4  11  26  46  68  97 140 180 233 290 339 411
#     4  11  23  41  70 101 136 178 229 280 346 411
#     4  10  25  41  66 104 136 178 220 289 350 407
#     4  11  23  46  69  99 135 183 232 281 348 407
#     4  11  22  41  72 105 136 182 226 280 352 416
#     4  11  25  46  70  99 131 189 231 281 345 408
#
# _framework density 23.34506
#
# number of rings (size 3 to 8) (size 9 to 14) (size 15 to 20)
#    0.000    1.231    3.077    2.308    4.308    4.923 
#    2.769    0.000    0.000    0.000    0.000    0.000 
#    0.000    0.000    0.000    0.000    0.000    0.000 
#
# Total GULP energy -161106.802199 kJ/mol
# GULP energy per Si atom -12392.830938 kJ/mol
# Density = 2.329193 g / cm^3
# Si number density = 23.345060 Si / 1000 Ang^3
#
#
#
# Elastic Constant Matrix: (Units=GPa)
#
#
# Indices 1 2 3 4 5 6 
#
# 1 54.9389 9.0692 4.9072 0.0001 -16.5999 0.0000
# 2 9.0692 88.1946 12.6806 0.0002 -0.7677 0.0000
# 3 4.9072 12.6806 70.1730 0.0008 -15.0405 0.0000
# 4 0.0001 0.0002 0.0008 43.0400 0.0000 -9.8818
# 5 -16.5999 -0.7677 -15.0405 0.0000 35.7642 0.0001
# 6 0.0000 0.0000 0.0000 -9.8818 0.0001 37.0549
#
#
#
# Elastic Compliance Matrix: (Units=1/GPa)
#
#
# Indices 1 2 3 4 5 6 
#
# 1 0.021646 -0.002300 0.001148 0.000000 0.010480 0.000000
# 2 -0.002300 0.011901 -0.002378 0.000000 -0.001812 0.000000
# 3 0.001148 -0.002378 0.016160 0.000000 0.007278 0.000000
# 4 0.000000 0.000000 0.000000 0.024750 0.000000 0.006600
# 5 0.010480 -0.001812 0.007278 0.000000 0.035847 0.000000
# 6 0.000000 0.000000 0.000000 0.006600 0.000000 0.028747
#
#
# Mechanical properties :
#
#
# Convention : Reuss Voigt Hill
#
# Bulk Modulus (GPa) = 23.44808 29.62449 26.53629
# Shear Modulus (GPa) = 31.18647 35.61512 33.40079
#
# Velocity S-wave (km/s) = 3.65895 3.91012 3.78662
# Velocity P-wave (km/s) = 5.28361 5.75350 5.52355
#
# Compressibility (1/GPa) = 0.04264741
#
# Stress axis : x y z
#
# Youngs Moduli (GPa) = 46.19837 84.02507 61.88180
#
# Poissons Ratio (x) = 0.19324 -0.07105
# Poissons Ratio (y) = 0.10624 0.14717
# Poissons Ratio (z) = -0.05304 0.19983
#
# Static dielectric constant tensor:
#      x y z
#    x 4.090130 0.000000 0.120700 
#    y 0.000000 4.193950 0.000000 
#    z 0.120700 0.000000 4.503540 
# 
# 
# High freq. dielectric constant tensor:
#      x y z
#    x 1.913710 0.000000 -0.006840 
#    y 0.000000 1.931040 0.000000 
#    z -0.006840 0.000000 1.927540 
# 
# From -- ./inp_files/68320.got.cif
#   From: 2010.03.12/outbox.cif.g09.slc.cpg/sg5_35_cif.got.tgz:68320.got - 2010.03.31 09:47:26.
