data_PCOD8050057
_publ_section_title
;
Structure prediction by ZEFSAII (Michael W. Deem and Ramdas Pophale) SiO2 
 PCOD8050057
Probable space group: C 2
;
_chemical_formula_sum "Si O2"
_cell_formula_units_Z 20
_cell_length_a 23.974783
_cell_length_b 10.034349
_cell_length_c 5.246060
_cell_angle_alpha 90.000000
_cell_angle_beta 55.906244
_cell_angle_gamma 90.000000
_cell_volume 1045.132041
_symmetry_space_group_name_H-M "C 2"
_symmetry_group_IT_number 5
_symmetry_cell_setting 'monoclinic'
loop_
_space_group_symop_operation_xyz
x,y,z
-x,y,-z
1/2+x,1/2+y,z
1/2-x,1/2+y,-z
loop_
_atom_site_type_symbol
_atom_site_label
_atom_site_fract_x
_atom_site_fract_y
_atom_site_fract_z
Si Si1 0.576156 0.796460 0.289241
Si Si2 0.303801 0.423247 0.456674
Si Si3 0.707100 0.116939 0.485336
Si Si4 0.076321 0.464737 0.785382
Si Si5 0.669071 0.545053 0.105280
O O1 0.500000 0.743099 0.500000
O O2 0.588790 0.903622 0.476505
O O3 0.624703 0.675875 0.228326
O O4 0.590843 0.858253 0.972842
O O5 0.281596 0.271263 0.479470
O O6 0.237908 0.520098 0.625634
O O7 0.343485 0.451924 0.617076
O O8 0.351590 0.460705 0.093980
O O9 0.627665 0.088512 0.665437
O O10 0.751298 0.085628 0.117494
O O11 0.000000 0.519977 0.000000
#
# Coordination Sequence:
#
# PCOD8050057 Si02
#       5
#     4   4   4   4   4
#     4  10  21  40  62  88 117 154 201 243 286 350
#     4  10  24  35  58  88 116 155 195 237 300 335
#     4  10  24  37  61  83 125 150 197 244 284 356
#     4  10  22  37  62  88 117 158 196 239 292 347
#     4  10  23  35  59  86 115 149 199 235 296 334
#
# _framework density 19.136337000000001
#
# number of rings (size 3 to 8) (size 9 to 14) (size 15 to 20)
#    1.200    0.800    0.000    2.400   11.200    0.000 
#    0.000    2.000    0.000    0.000    0.000    0.000 
#    0.000    0.000    0.000    0.000    0.000    0.000 
#
# Total GULP energy -123904.900095 kJ/mol
# GULP energy per Si atom -12390.490010 kJ/mol
# Density = 1.909278 g / cm^3
# Si number density = 19.136337 Si / 1000 Ang^3
#
#
#
# Elastic Constant Matrix: (Units=GPa)
#
#
# Indices 1 2 3 4 5 6 
#
# 1 79.8507 38.9851 47.4576 0.0000 4.4541 0.0000
# 2 38.9851 112.2607 27.9888 0.0000 -9.0806 0.0000
# 3 47.4576 27.9888 80.2845 0.0000 8.8594 0.0000
# 4 0.0000 0.0000 0.0000 17.0911 0.0000 -6.8465
# 5 4.4541 -9.0806 8.8594 0.0000 34.3791 0.0000
# 6 0.0000 0.0000 0.0000 -6.8465 0.0000 23.9588
#
#
#
# Elastic Compliance Matrix: (Units=1/GPa)
#
#
# Indices 1 2 3 4 5 6 
#
# 1 0.021379 -0.004830 -0.010815 0.000000 -0.001259 0.000000
# 2 -0.004830 0.011288 -0.001521 0.000000 0.003999 0.000000
# 3 -0.010815 -0.001521 0.019833 0.000000 -0.004112 0.000000
# 4 0.000000 0.000000 0.000000 0.066074 0.000000 0.018881
# 5 -0.001259 0.003999 -0.004112 0.000000 0.031366 0.000000
# 6 0.000000 0.000000 0.000000 0.018881 0.000000 0.047134
#
#
# Mechanical properties :
#
#
# Convention : Reuss Voigt Hill
#
# Bulk Modulus (GPa) = 55.04407 55.69544 55.36975
# Shear Modulus (GPa) = 21.05594 25.61676 23.33635
#
# Velocity S-wave (km/s) = 3.32069 3.66272 3.49589
# Velocity P-wave (km/s) = 6.59767 6.85967 6.72995
#
# Compressibility (1/GPa) = 0.01816726
#
# Stress axis : x y z
#
# Youngs Moduli (GPa) = 46.77407 88.58989 50.42153
#
# Poissons Ratio (x) = 0.42788 0.54531
# Poissons Ratio (y) = 0.22591 0.07672
# Poissons Ratio (z) = 0.50586 0.13479
#
# Static dielectric constant tensor:
#      x y z
#    x 3.430360 0.000000 0.077370 
#    y 0.000000 3.196800 0.000000 
#    z 0.077370 0.000000 3.624130 
# 
# 
# High freq. dielectric constant tensor:
#      x y z
#    x 1.732830 0.000000 0.013230 
#    y 0.000000 1.728100 0.000000 
#    z 0.013230 0.000000 1.749180 
# 
# From -- ./inp_files/8058.got.cif
#   From: 2010.03.12/outbox.cif.g09.slc.cpg/sg5_5_cif.got.tgz:8058.got - 2010.03.31 09:47:26.
