data_PCOD8050295
_publ_section_title
;
Structure prediction by ZEFSAII (Michael W. Deem and Ramdas Pophale) SiO2 
 PCOD8050295
Probable space group: C 2
;
_chemical_formula_sum "Si O2"
_cell_formula_units_Z 28
_cell_length_a 8.998351
_cell_length_b 9.027452
_cell_length_c 24.191249
_cell_angle_alpha 90.000000
_cell_angle_beta 39.565308
_cell_angle_gamma 90.000000
_cell_volume 1251.689914
_symmetry_space_group_name_H-M "C 2"
_symmetry_group_IT_number 5
_symmetry_cell_setting 'monoclinic'
loop_
_space_group_symop_operation_xyz
x,y,z
-x,y,-z
1/2+x,1/2+y,z
1/2-x,1/2+y,-z
loop_
_atom_site_type_symbol
_atom_site_label
_atom_site_fract_x
_atom_site_fract_y
_atom_site_fract_z
Si Si1 0.776699 0.777680 0.414441
Si Si2 0.262848 0.654947 0.034035
Si Si3 0.078682 0.037189 0.321480
Si Si4 0.284486 0.247149 0.534952
Si Si5 0.891753 0.476013 0.329766
Si Si6 0.730279 0.826327 0.073221
Si Si7 0.234757 0.768477 0.813594
O O1 0.500000 0.774662 0.500000
O O2 0.871411 0.789003 0.449503
O O3 0.896198 0.645564 0.346696
O O4 0.885045 0.922253 0.353993
O O5 0.150394 0.490731 0.074755
O O6 0.049158 0.769911 0.108989
O O7 0.500000 0.684599 0.000000
O O8 0.338821 0.693956 0.949139
O O9 0.280681 0.961859 0.300155
O O10 0.176708 0.116533 0.239156
O O11 0.952328 0.153600 0.398870
O O12 0.500000 0.154645 0.500000
O O13 0.255643 0.393119 0.580876
O O14 0.154782 0.409187 0.250734
O O15 0.654308 0.777493 0.156459
O O16 0.000000 0.849042 0.000000
#
# Coordination Sequence:
#
# PCOD8050295 Si02
#       7
#     4   4   4   4   4   4   4
#     4  12  23  41  69  94 128 183 239 279 325 394
#     4  10  21  43  76 102 128 174 219 264 326 401
#     4  11  23  41  64  96 132 179 223 278 340 380
#     4  11  21  40  68  88 128 177 228 287 330 386
#     4  11  23  42  62  95 137 178 217 285 346 374
#     4   9  20  42  70  99 129 171 213 264 323 394
#     4  10  23  44  67  95 145 174 213 274 335 400
#
# _framework density 22.369755999999999
#
# number of rings (size 3 to 8) (size 9 to 14) (size 15 to 20)
#    0.000    1.429    2.857    2.571    0.000    1.714 
#    0.000   18.571    0.000    0.000    0.000    0.000 
#    0.000    0.000    0.000    0.000    0.000    0.000 
#
# Total GULP energy -173443.223190 kJ/mol
# GULP energy per Si atom -12388.801656 kJ/mol
# Density = 2.231884 g / cm^3
# Si number density = 22.369756 Si / 1000 Ang^3
#
#
#
# Elastic Constant Matrix: (Units=GPa)
#
#
# Indices 1 2 3 4 5 6 
#
# 1 103.2218 48.3210 54.1792 -0.0001 7.7484 0.0000
# 2 48.3210 117.7601 51.0801 0.0000 4.5342 0.0000
# 3 54.1792 51.0801 112.0917 -0.0007 7.2131 -0.0001
# 4 -0.0001 0.0000 -0.0007 34.6828 0.0000 5.6822
# 5 7.7484 4.5342 7.2131 0.0000 30.5495 0.0000
# 6 0.0000 0.0000 -0.0001 5.6822 0.0000 33.2032
#
#
#
# Elastic Compliance Matrix: (Units=1/GPa)
#
#
# Indices 1 2 3 4 5 6 
#
# 1 0.014163 -0.003518 -0.005123 0.000000 -0.001861 0.000000
# 2 -0.003518 0.011463 -0.003525 0.000000 0.000023 0.000000
# 3 -0.005123 -0.003525 0.013085 0.000000 -0.001267 0.000000
# 4 0.000000 0.000000 0.000000 0.029664 0.000000 -0.005077
# 5 -0.001861 0.000023 -0.001267 0.000000 0.033501 0.000000
# 6 0.000000 0.000000 0.000000 -0.005077 0.000000 0.030986
#
#
# Mechanical properties :
#
#
# Convention : Reuss Voigt Hill
#
# Bulk Modulus (GPa) = 69.53930 71.13711 70.33821
# Shear Modulus (GPa) = 30.86619 31.65332 31.25975
#
# Velocity S-wave (km/s) = 3.71862 3.76574 3.74225
# Velocity P-wave (km/s) = 7.04211 7.12582 7.08409
#
# Compressibility (1/GPa) = 0.01438036
#
# Stress axis : x y z
#
# Youngs Moduli (GPa) = 70.60495 87.23340 76.42152
#
# Poissons Ratio (x) = 0.30688 0.39150
# Poissons Ratio (y) = 0.24838 0.26939
# Poissons Ratio (z) = 0.36171 0.30750
#
# Static dielectric constant tensor:
#      x y z
#    x 4.861320 0.000000 0.678020 
#    y 0.000000 4.064310 0.000000 
#    z 0.678020 0.000000 4.507830 
# 
# 
# High freq. dielectric constant tensor:
#      x y z
#    x 1.874420 0.000000 0.002220 
#    y 0.000000 1.873040 0.000000 
#    z 0.002220 0.000000 1.886510 
# 
# From -- ./inp_files/70114.got.cif
#   From: 2010.03.12/outbox.cif.g09.slc.cpg/sg5_36_cif.got.tgz:70114.got - 2010.03.31 09:47:26.
