data_PCOD8050015
_publ_section_title
;
Structure prediction by ZEFSAII (Michael W. Deem and Ramdas Pophale) SiO2 
 PCOD8050015
Probable space group: C 2
;
_chemical_formula_sum "Si O2"
_cell_formula_units_Z 22
_cell_length_a 11.016046
_cell_length_b 14.465890
_cell_length_c 10.812027
_cell_angle_alpha 90.000000
_cell_angle_beta 40.525986
_cell_angle_gamma 90.000000
_cell_volume 1119.574385
_symmetry_space_group_name_H-M "C 2"
_symmetry_group_IT_number 5
_symmetry_cell_setting 'monoclinic'
loop_
_space_group_symop_operation_xyz
x,y,z
-x,y,-z
1/2+x,1/2+y,z
1/2-x,1/2+y,-z
loop_
_atom_site_type_symbol
_atom_site_label
_atom_site_fract_x
_atom_site_fract_y
_atom_site_fract_z
Si Si1 0.148414 0.861680 0.128843
Si Si2 0.127931 0.736339 0.513797
Si Si3 0.024266 0.213569 0.118028
Si Si4 0.000000 0.809691 0.000000
Si Si5 0.873288 0.643205 0.242317
Si Si6 0.721347 0.569670 0.135020
O O1 0.970993 0.823073 0.342813
O O2 0.111832 0.873042 0.010217
O O3 0.192345 0.961762 0.144530
O O4 0.318991 0.791632 0.012066
O O5 0.332465 0.764483 0.306729
O O6 0.161148 0.651724 0.584668
O O7 0.000000 0.700066 0.500000
O O8 0.071345 0.131080 0.176980
O O9 0.000000 0.169727 0.000000
O O10 0.864955 0.745044 0.186772
O O11 0.715090 0.586445 0.289466
O O12 0.075687 0.597663 0.070884
#
# Coordination Sequence:
#
# PCOD8050015 Si02
#       6
#     4   4   4   2   4   4
#     4  11  22  42  64  93 126 163 212 261 304 375
#     4  11  22  41  65  87 127 167 211 257 310 373
#     4  12  23  41  65  88 124 173 207 255 328 362
#     4   8  16  38  62  78 128 160 190 258 306 350
#     4   9  18  40  62  89 124 164 205 257 308 366
#     4  10  21  39  66  92 125 166 207 259 313 367
#
# _framework density 19.650324999999999
#
# number of rings (size 3 to 8) (size 9 to 14) (size 15 to 20)
#    0.000    1.818    7.273    0.000    3.818    0.727 
#    6.545    0.000    0.000    0.000    0.000    0.000 
#    0.000    0.000    0.000    0.000    0.000    0.000 
#
# Total GULP energy -136298.762602 kJ/mol
# GULP energy per Si atom -12390.796600 kJ/mol
# Density = 1.960560 g / cm^3
# Si number density = 19.650325 Si / 1000 Ang^3
#
#
#
# Elastic Constant Matrix: (Units=GPa)
#
#
# Indices 1 2 3 4 5 6 
#
# 1 153.5657 38.4338 24.0384 0.0000 35.5044 -0.0005
# 2 38.4338 90.8299 7.2590 -0.0001 13.6486 -0.0002
# 3 24.0384 7.2590 78.2231 -0.0016 4.3836 0.0004
# 4 0.0000 -0.0001 -0.0016 9.4911 0.0005 4.3490
# 5 35.5044 13.6486 4.3836 0.0005 35.6696 0.0002
# 6 -0.0005 -0.0002 0.0004 4.3490 0.0002 30.0659
#
#
#
# Elastic Compliance Matrix: (Units=1/GPa)
#
#
# Indices 1 2 3 4 5 6 
#
# 1 0.009364 -0.002575 -0.002186 0.000000 -0.008066 0.000000
# 2 -0.002575 0.012445 -0.000242 0.000000 -0.002169 0.000000
# 3 -0.002186 -0.000242 0.013444 0.000003 0.000617 -0.000001
# 4 0.000000 0.000000 0.000003 0.112841 -0.000002 -0.016322
# 5 -0.008066 -0.002169 0.000617 -0.000002 0.036818 0.000000
# 6 0.000000 0.000000 -0.000001 -0.016322 0.000000 0.035621
#
#
# Mechanical properties :
#
#
# Convention : Reuss Voigt Hill
#
# Bulk Modulus (GPa) = 39.61266 51.34235 45.47750
# Shear Modulus (GPa) = 20.92453 31.90449 26.41451
#
# Velocity S-wave (km/s) = 3.26674 4.03378 3.67035
# Velocity P-wave (km/s) = 5.86782 6.91953 6.41526
#
# Compressibility (1/GPa) = 0.02524445
#
# Stress axis : x y z
#
# Youngs Moduli (GPa) = 106.79733 80.35669 74.38405
#
# Poissons Ratio (x) = 0.20694 0.16264
# Poissons Ratio (y) = 0.27503 0.01799
# Poissons Ratio (z) = 0.23351 0.01944
#
# Static dielectric constant tensor:
#      x y z
#    x 4.287140 0.000000 0.328650 
#    y 0.000000 3.266970 0.000000 
#    z 0.328650 0.000000 3.606240 
# 
# 
# High freq. dielectric constant tensor:
#      x y z
#    x 1.796700 0.000000 0.012090 
#    y 0.000000 1.729990 0.000000 
#    z 0.012090 0.000000 1.753450 
# 
# From -- ./inp_files/39785.got.cif
#   From: 2010.03.12/outbox.cif.g09.slc.cpg/sg5_20_cif.got.tgz:39785.got - 2010.03.31 09:47:26.
