data_PCOD8050725
_publ_section_title
;
Structure prediction by ZEFSAII (Michael W. Deem and Ramdas Pophale) SiO2 
 PCOD8050725
Probable space group: C 2
;
_chemical_formula_sum "Si O2"
_cell_formula_units_Z 28
_cell_length_a 13.118667
_cell_length_b 5.033494
_cell_length_c 22.296415
_cell_angle_alpha 90.000000
_cell_angle_beta 125.140514
_cell_angle_gamma 90.000000
_cell_volume 1203.957338
_symmetry_space_group_name_H-M "C 2"
_symmetry_group_IT_number 5
_symmetry_cell_setting 'monoclinic'
loop_
_space_group_symop_operation_xyz
x,y,z
-x,y,-z
1/2+x,1/2+y,z
1/2-x,1/2+y,-z
loop_
_atom_site_type_symbol
_atom_site_label
_atom_site_fract_x
_atom_site_fract_y
_atom_site_fract_z
Si Si1 0.000000 0.592411 0.000000
Si Si2 0.000000 0.336169 0.500000
Si Si3 0.617262 0.380450 0.231542
Si Si4 0.982790 0.368362 0.863557
Si Si5 0.751563 0.777117 0.961341
Si Si6 0.014280 0.921013 0.322466
Si Si7 0.096822 0.442159 0.656231
Si Si8 0.245699 0.184514 0.535499
O O1 0.991570 0.411457 0.937972
O O2 0.873879 0.771213 0.960230
O O3 0.966122 0.512601 0.429832
O O4 0.881106 0.145791 0.469896
O O5 0.591192 0.594922 0.170989
O O6 0.523459 0.450414 0.254092
O O7 0.758397 0.378054 0.302522
O O8 0.592589 0.092856 0.196315
O O9 0.124107 0.361427 0.884156
O O10 0.721513 0.483774 0.976357
O O11 0.912179 0.700583 0.304964
O O12 0.147763 0.819524 0.389729
O O13 0.977332 0.198652 0.339255
O O14 0.213506 0.391690 0.471037
#
# Coordination Sequence:
#
# PCOD8050725 Si02
#       8
#     2   2   4   4   4   4   4   4
#     4  10  24  46  76 106 136 174 226 284 340 404
#     4  12  24  44  72 104 134 178 238 298 338 396
#     4  12  27  47  66 100 143 186 230 279 339 416
#     4  11  25  45  73 102 139 182 224 281 343 407
#     4  10  22  42  69 105 136 169 218 271 336 403
#     4  12  25  46  65  96 137 181 229 284 343 410
#     4  12  27  44  72 101 135 187 236 282 348 401
#     4  12  24  42  67 101 131 174 227 287 352 400
#
# _framework density 23.256637999999999
#
# number of rings (size 3 to 8) (size 9 to 14) (size 15 to 20)
#    0.000    0.571    4.286    3.429    0.000   10.857 
#    0.000    4.286    0.000    0.000    0.000    0.000 
#    0.000    0.000    0.000    0.000    0.000    0.000 
#
# Total GULP energy -173602.386015 kJ/mol
# GULP energy per Si atom -12400.170430 kJ/mol
# Density = 2.320370 g / cm^3
# Si number density = 23.256638 Si / 1000 Ang^3
#
#
#
# Elastic Constant Matrix: (Units=GPa)
#
#
# Indices 1 2 3 4 5 6 
#
# 1 136.7951 27.4592 35.1449 0.0000 4.2197 -0.0001
# 2 27.4592 85.8264 11.0971 0.0001 -3.7833 -0.0002
# 3 35.1449 11.0971 100.0969 0.0000 1.4015 -0.0001
# 4 0.0000 0.0001 0.0000 28.4680 -0.0001 7.7396
# 5 4.2197 -3.7833 1.4015 -0.0001 42.0119 0.0001
# 6 -0.0001 -0.0002 -0.0001 7.7396 0.0001 28.6512
#
#
#
# Elastic Compliance Matrix: (Units=1/GPa)
#
#
# Indices 1 2 3 4 5 6 
#
# 1 0.008523 -0.002420 -0.002710 0.000000 -0.000984 0.000000
# 2 -0.002420 0.012560 -0.000562 0.000000 0.001393 0.000000
# 3 -0.002710 -0.000562 0.011006 0.000000 -0.000146 0.000000
# 4 0.000000 0.000000 0.000000 0.037911 0.000000 -0.010241
# 5 -0.000984 0.001393 -0.000146 0.000000 0.024032 0.000000
# 6 0.000000 0.000000 0.000000 -0.010241 0.000000 0.037669
#
#
# Mechanical properties :
#
#
# Convention : Reuss Voigt Hill
#
# Bulk Modulus (GPa) = 48.30000 52.23565 50.26782
# Shear Modulus (GPa) = 33.33629 36.42737 34.88183
#
# Velocity S-wave (km/s) = 3.79015 3.96197 3.87701
# Velocity P-wave (km/s) = 6.32194 6.59082 6.45778
#
# Compressibility (1/GPa) = 0.02070393
#
# Stress axis : x y z
#
# Youngs Moduli (GPa) = 117.33555 79.61996 90.85688
#
# Poissons Ratio (x) = 0.19265 0.24625
# Poissons Ratio (y) = 0.28391 0.05109
# Poissons Ratio (z) = 0.31802 0.04478
#
# Static dielectric constant tensor:
#      x y z
#    x 4.513960 0.000000 0.127140 
#    y 0.000000 4.099420 0.000000 
#    z 0.127140 0.000000 4.102820 
# 
# 
# High freq. dielectric constant tensor:
#      x y z
#    x 1.935040 0.000000 0.016710 
#    y 0.000000 1.916000 0.000000 
#    z 0.016710 0.000000 1.913800 
# 
# From -- ./inp_files/65006.got.cif
#   From: 2010.03.12/outbox.cif.g09.slc.cpg/sg5_33_cif.got.tgz:65006.got - 2010.03.31 09:47:26.
