data_PCOD8050781
_publ_section_title
;
Structure prediction by ZEFSAII (Michael W. Deem and Ramdas Pophale) SiO2 
 PCOD8050781
Probable space group: C 2
;
_chemical_formula_sum "Si O2"
_cell_formula_units_Z 28
_cell_length_a 11.022129
_cell_length_b 15.131627
_cell_length_c 9.966091
_cell_angle_alpha 90.000000
_cell_angle_beta 121.490545
_cell_angle_gamma 90.000000
_cell_volume 1417.377916
_symmetry_space_group_name_H-M "C 2"
_symmetry_group_IT_number 5
_symmetry_cell_setting 'monoclinic'
loop_
_space_group_symop_operation_xyz
x,y,z
-x,y,-z
1/2+x,1/2+y,z
1/2-x,1/2+y,-z
loop_
_atom_site_type_symbol
_atom_site_label
_atom_site_fract_x
_atom_site_fract_y
_atom_site_fract_z
Si Si1 0.916305 0.552540 0.249426
Si Si2 0.779575 0.381538 0.291226
Si Si3 0.500000 0.441870 0.000000
Si Si4 0.672303 0.557749 0.902802
Si Si5 0.032581 0.213280 0.665032
Si Si6 0.123936 0.461224 0.174624
Si Si7 0.265551 0.813849 0.576255
Si Si8 0.000000 0.701182 0.500000
O O1 0.865988 0.471679 0.314298
O O2 0.945627 0.639709 0.349764
O O3 0.057514 0.525338 0.249200
O O4 0.791428 0.582423 0.078889
O O5 0.871024 0.300551 0.288699
O O6 0.757832 0.372801 0.437258
O O7 0.629528 0.380906 0.125926
O O8 0.548630 0.500716 0.901436
O O9 0.605406 0.646359 0.807524
O O10 0.744535 0.507595 0.821455
O O11 0.000000 0.171305 0.500000
O O12 0.881530 0.237150 0.639399
O O13 0.193958 0.374752 0.276171
O O14 0.000000 0.432539 0.000000
O O15 0.117540 0.766260 0.511053
#
# Coordination Sequence:
#
# PCOD8050781 Si02
#       8
#     4   4   2   4   4   4   4   2
#     4  10  22  45  65  91 127 173 206 254 322 382
#     4  10  22  44  66  91 126 174 207 248 322 382
#     4  10  24  42  66  92 126 170 206 256 322 368
#     4  10  24  41  65  95 124 163 213 261 313 367
#     4  10  23  42  64  94 124 166 211 255 313 372
#     4  10  22  43  67  91 123 167 212 255 315 382
#     4  11  25  41  63  96 126 164 211 259 315 371
#     4  12  28  38  64 100 128 160 212 270 314 360
#
# _framework density 19.754788000000001
#
# number of rings (size 3 to 8) (size 9 to 14) (size 15 to 20)
#    0.000    1.714    1.429    0.857   11.000    3.429 
#    1.286    0.000    0.000    0.000    0.000    0.000 
#    0.000    0.000    0.000    0.000    0.000    0.000 
#
# Total GULP energy -173638.525013 kJ/mol
# GULP energy per Si atom -12402.751787 kJ/mol
# Density = 1.970983 g / cm^3
# Si number density = 19.754788 Si / 1000 Ang^3
#
#
#
# Elastic Constant Matrix: (Units=GPa)
#
#
# Indices 1 2 3 4 5 6 
#
# 1 147.8930 50.7142 47.0293 0.0000 -8.0510 0.0000
# 2 50.7142 86.1348 66.3765 0.0000 -5.6859 0.0000
# 3 47.0293 66.3765 101.6090 0.0000 -7.2142 0.0000
# 4 0.0000 0.0000 0.0000 50.0365 0.0000 11.2644
# 5 -8.0510 -5.6859 -7.2142 0.0000 31.4220 0.0000
# 6 0.0000 0.0000 0.0000 11.2644 0.0000 17.2007
#
#
#
# Elastic Compliance Matrix: (Units=1/GPa)
#
#
# Indices 1 2 3 4 5 6 
#
# 1 0.008606 -0.003995 -0.001289 0.000000 0.001186 0.000000
# 2 -0.003995 0.025250 -0.014632 0.000000 0.000186 0.000000
# 3 -0.001289 -0.014632 0.020113 0.000000 0.001640 0.000000
# 4 0.000000 0.000000 0.000000 0.023441 0.000000 -0.015351
# 5 0.001186 0.000186 0.001640 0.000000 0.032539 0.000000
# 6 0.000000 0.000000 0.000000 -0.015351 0.000000 0.068191
#
#
# Mechanical properties :
#
#
# Convention : Reuss Voigt Hill
#
# Bulk Modulus (GPa) = 70.74111 73.76409 72.25260
# Shear Modulus (GPa) = 22.45308 31.16631 26.80970
#
# Velocity S-wave (km/s) = 3.37499 3.97628 3.68791
# Velocity P-wave (km/s) = 7.14666 7.64866 7.40192
#
# Compressibility (1/GPa) = 0.01413605
#
# Stress axis : x y z
#
# Youngs Moduli (GPa) = 116.19487 39.60345 49.71814
#
# Poissons Ratio (x) = 0.15823 0.06409
# Poissons Ratio (y) = 0.46425 0.72750
# Poissons Ratio (z) = 0.14978 0.57949
#
# Static dielectric constant tensor:
#      x y z
#    x 3.800470 0.000000 -0.031980 
#    y 0.000000 3.380380 0.000000 
#    z -0.031980 0.000000 3.730950 
# 
# 
# High freq. dielectric constant tensor:
#      x y z
#    x 1.787800 0.000000 0.000370 
#    y 0.000000 1.759390 0.000000 
#    z 0.000370 0.000000 1.783920 
# 
# From -- ./inp_files/20764.got.cif
#   From: 2010.03.12/outbox.cif.g09.slc.cpg/sg5_11_cif.got.tgz:20764.got - 2010.03.31 09:47:26.
