data_PCOD8050321
_publ_section_title
;
Structure prediction by ZEFSAII (Michael W. Deem and Ramdas Pophale) SiO2 
 PCOD8050321
Probable space group: C 2
;
_chemical_formula_sum "Si O2"
_cell_formula_units_Z 28
_cell_length_a 30.266049
_cell_length_b 7.326669
_cell_length_c 9.381618
_cell_angle_alpha 90.000000
_cell_angle_beta 146.339353
_cell_angle_gamma 90.000000
_cell_volume 1153.091248
_symmetry_space_group_name_H-M "C 2"
_symmetry_group_IT_number 5
_symmetry_cell_setting 'monoclinic'
loop_
_space_group_symop_operation_xyz
x,y,z
-x,y,-z
1/2+x,1/2+y,z
1/2-x,1/2+y,-z
loop_
_atom_site_type_symbol
_atom_site_label
_atom_site_fract_x
_atom_site_fract_y
_atom_site_fract_z
Si Si1 0.551335 0.098280 0.934107
Si Si2 0.124040 0.942081 0.037725
Si Si3 0.105902 0.730702 0.379266
Si Si4 0.588376 0.619618 0.240046
Si Si5 0.761083 0.379671 0.915277
Si Si6 0.733907 0.789169 0.752036
Si Si7 0.923282 0.295776 0.210841
O O1 0.575451 0.255840 0.888777
O O2 0.455574 0.109447 0.693521
O O3 0.579793 0.903832 0.948476
O O4 0.602456 0.144831 0.212437
O O5 0.072826 0.081337 0.806051
O O6 0.212943 0.897886 0.219796
O O7 0.128876 0.035389 0.206709
O O8 0.195996 0.730856 0.682389
O O9 0.076639 0.941956 0.309961
O O10 0.642719 0.783839 0.449280
O O11 0.500000 0.710330 0.000000
O O12 0.752466 0.575330 0.818749
O O13 0.755985 0.394678 0.071923
O O14 0.847597 0.314280 0.107060
O O15 0.000000 0.367728 0.500000
#
# Coordination Sequence:
#
# PCOD8050321 Si02
#       7
#     4   4   4   4   4   4   4
#     4  10  21  48  76 108 145 197 252 316 385 453
#     4  11  24  48  72 109 151 206 244 322 377 446
#     4   9  20  44  79 106 149 198 247 312 390 457
#     4  10  21  44  78 113 149 198 259 315 377 457
#     4  11  25  46  70 114 154 200 255 315 388 469
#     4  11  25  46  78 108 155 204 257 313 393 456
#     4  12  29  46  71 113 153 195 268 312 383 470
#
# _framework density 24.282554000000001
#
# number of rings (size 3 to 8) (size 9 to 14) (size 15 to 20)
#    0.000    1.429    4.286    0.857    4.000    5.143 
#   10.286    0.000    0.000    0.000    0.000    0.000 
#    0.000    0.000    0.000    0.000    0.000    0.000 
#
# Total GULP energy -173533.230105 kJ/mol
# GULP energy per Si atom -12395.230722 kJ/mol
# Density = 2.422729 g / cm^3
# Si number density = 24.282554 Si / 1000 Ang^3
#
#
#
# Elastic Constant Matrix: (Units=GPa)
#
#
# Indices 1 2 3 4 5 6 
#
# 1 146.9961 37.0135 68.3509 0.0000 18.7080 0.0000
# 2 37.0135 91.3810 35.6865 0.0000 11.7657 0.0000
# 3 68.3509 35.6865 158.0838 0.0000 21.9081 0.0000
# 4 0.0000 0.0000 0.0000 35.0326 0.0000 6.5428
# 5 18.7080 11.7657 21.9081 0.0000 29.5612 0.0000
# 6 0.0000 0.0000 0.0000 6.5428 0.0000 29.3090
#
#
#
# Elastic Compliance Matrix: (Units=1/GPa)
#
#
# Indices 1 2 3 4 5 6 
#
# 1 0.009115 -0.002147 -0.003093 0.000000 -0.002622 0.000000
# 2 -0.002147 0.012765 -0.001602 0.000000 -0.002535 0.000000
# 3 -0.003093 -0.001602 0.008543 0.000000 -0.003736 0.000000
# 4 0.000000 0.000000 0.000000 0.029787 0.000000 -0.006649
# 5 -0.002622 -0.002535 -0.003736 0.000000 0.039265 0.000000
# 6 0.000000 0.000000 0.000000 -0.006649 0.000000 0.035604
#
#
# Mechanical properties :
#
#
# Convention : Reuss Voigt Hill
#
# Bulk Modulus (GPa) = 59.74213 75.39584 67.56898
# Shear Modulus (GPa) = 32.39569 35.80789 34.10179
#
# Velocity S-wave (km/s) = 3.65651 3.84426 3.75156
# Velocity P-wave (km/s) = 6.51791 7.12890 6.83024
#
# Compressibility (1/GPa) = 0.01673861
#
# Stress axis : x y z
#
# Youngs Moduli (GPa) = 109.70393 78.34117 117.06012
#
# Poissons Ratio (x) = 0.16817 0.36210
# Poissons Ratio (y) = 0.23549 0.18755
# Poissons Ratio (z) = 0.33935 0.12552
#
# Static dielectric constant tensor:
#      x y z
#    x 4.359140 0.000000 0.087290 
#    y 0.000000 4.475840 0.000000 
#    z 0.087290 0.000000 4.245770 
# 
# 
# High freq. dielectric constant tensor:
#      x y z
#    x 1.964900 0.000000 0.010630 
#    y 0.000000 1.980510 0.000000 
#    z 0.010630 0.000000 1.950630 
# 
# From -- ./inp_files/31786.got.cif
#   From: 2010.03.12/outbox.cif.g09.slc.cpg/sg5_16_cif.got.tgz:31786.got - 2010.03.31 09:47:26.
