data_PCOD8050978
_publ_section_title
;
Structure prediction by ZEFSAII (Michael W. Deem and Ramdas Pophale) SiO2 
 PCOD8050978
Probable space group: C 2
;
_chemical_formula_sum "Si O2"
_cell_formula_units_Z 28
_cell_length_a 14.212679
_cell_length_b 6.466099
_cell_length_c 15.758659
_cell_angle_alpha 90.000000
_cell_angle_beta 121.016407
_cell_angle_gamma 90.000000
_cell_volume 1241.161802
_symmetry_space_group_name_H-M "C 2"
_symmetry_group_IT_number 5
_symmetry_cell_setting 'monoclinic'
loop_
_space_group_symop_operation_xyz
x,y,z
-x,y,-z
1/2+x,1/2+y,z
1/2-x,1/2+y,-z
loop_
_atom_site_type_symbol
_atom_site_label
_atom_site_fract_x
_atom_site_fract_y
_atom_site_fract_z
Si Si1 0.887960 0.989200 0.550780
Si Si2 0.130861 0.515454 0.865841
Si Si3 0.821096 0.301883 0.948986
Si Si4 0.096433 0.631602 0.151086
Si Si5 0.821113 0.651801 0.634225
Si Si6 0.513729 0.871894 0.656440
Si Si7 0.500000 0.486424 0.000000
Si Si8 0.000000 0.652646 0.500000
O O1 0.860041 0.883624 0.627873
O O2 0.907653 0.799120 0.496332
O O3 0.794838 0.126921 0.465096
O O4 0.992471 0.137492 0.615589
O O5 0.203824 0.707900 0.865819
O O6 0.017866 0.578319 0.857359
O O7 0.106213 0.371576 0.772678
O O8 0.203067 0.401121 0.970365
O O9 0.865152 0.463021 0.899458
O O10 0.914153 0.129996 0.009889
O O11 0.188306 0.648441 0.267611
O O12 0.076804 0.850683 0.097240
O O13 0.901430 0.470240 0.640055
O O14 0.556788 0.008210 0.597416
#
# Coordination Sequence:
#
# PCOD8050978 Si02
#       8
#     4   4   4   4   4   4   2   2
#     4  11  21  44  66  98 135 176 224 286 343 419
#     4  11  24  46  70 100 141 185 237 289 360 422
#     4  12  25  46  71 102 146 187 234 303 352 429
#     4  11  24  46  68 105 140 184 241 292 352 432
#     4  10  23  39  72  98 132 179 228 281 353 413
#     4  10  23  44  66  98 137 179 229 288 340 424
#     4  12  22  46  68 102 142 184 236 294 354 422
#     4  10  24  42  62  96 136 176 218 284 336 408
#
# _framework density 22.559507
#
# number of rings (size 3 to 8) (size 9 to 14) (size 15 to 20)
#    0.000    1.143    4.286    1.286    4.000    0.000 
#    7.714    0.000    0.000    0.000    0.000    0.000 
#    0.000    0.000    0.000    0.000    0.000    0.000 
#
# Total GULP energy -173577.243834 kJ/mol
# GULP energy per Si atom -12398.374560 kJ/mol
# Density = 2.250816 g / cm^3
# Si number density = 22.559507 Si / 1000 Ang^3
#
#
#
# Elastic Constant Matrix: (Units=GPa)
#
#
# Indices 1 2 3 4 5 6 
#
# 1 74.0859 41.0619 38.9402 0.0000 -10.5958 0.0000
# 2 41.0619 131.2823 57.5821 0.0000 -14.8048 0.0000
# 3 38.9402 57.5821 147.8876 0.0000 -19.1954 0.0000
# 4 0.0000 0.0000 0.0000 28.9460 0.0000 2.4164
# 5 -10.5958 -14.8048 -19.1954 0.0000 31.0672 0.0000
# 6 0.0000 0.0000 0.0000 2.4164 0.0000 29.4068
#
#
#
# Elastic Compliance Matrix: (Units=1/GPa)
#
#
# Indices 1 2 3 4 5 6 
#
# 1 0.017496 -0.004003 -0.002741 0.000000 0.002366 0.000000
# 2 -0.004003 0.010263 -0.002701 0.000000 0.001857 0.000000
# 3 -0.002741 -0.002701 0.008966 0.000000 0.003318 0.000000
# 4 0.000000 0.000000 0.000000 0.034786 0.000000 -0.002858
# 5 0.002366 0.001857 0.003318 0.000000 0.035930 0.000000
# 6 0.000000 0.000000 0.000000 -0.002858 0.000000 0.034241
#
#
# Mechanical properties :
#
#
# Convention : Reuss Voigt Hill
#
# Bulk Modulus (GPa) = 56.07143 69.82492 62.94818
# Shear Modulus (GPa) = 30.02703 32.26210 31.14456
#
# Velocity S-wave (km/s) = 3.65226 3.78575 3.71961
# Velocity P-wave (km/s) = 6.53408 7.08010 6.81257
#
# Compressibility (1/GPa) = 0.01783439
#
# Stress axis : x y z
#
# Youngs Moduli (GPa) = 57.15707 97.43360 111.53265
#
# Poissons Ratio (x) = 0.39004 0.30571
# Poissons Ratio (y) = 0.22881 0.30126
# Poissons Ratio (z) = 0.15667 0.26318
#
# Static dielectric constant tensor:
#      x y z
#    x 3.954070 0.000000 -0.262970 
#    y 0.000000 4.170820 0.000000 
#    z -0.262970 0.000000 4.371310 
# 
# 
# High freq. dielectric constant tensor:
#      x y z
#    x 1.881950 0.000000 -0.010400 
#    y 0.000000 1.893930 0.000000 
#    z -0.010400 0.000000 1.892170 
# 
# From -- ./inp_files/61164.got.cif
#   From: 2010.03.12/outbox.cif.g09.slc.cpg/sg5_31_cif.got.tgz:61164.got - 2010.03.31 09:47:26.
