data_PCOD8050559
_publ_section_title
;
Structure prediction by ZEFSAII (Michael W. Deem and Ramdas Pophale) SiO2 
 PCOD8050559
Probable space group: C 2
;
_chemical_formula_sum "Si O2"
_cell_formula_units_Z 26
_cell_length_a 9.275638
_cell_length_b 19.401925
_cell_length_c 9.176485
_cell_angle_alpha 90.000000
_cell_angle_beta 46.693279
_cell_angle_gamma 90.000000
_cell_volume 1201.746188
_symmetry_space_group_name_H-M "C 2"
_symmetry_group_IT_number 5
_symmetry_cell_setting 'monoclinic'
loop_
_space_group_symop_operation_xyz
x,y,z
-x,y,-z
1/2+x,1/2+y,z
1/2-x,1/2+y,-z
loop_
_atom_site_type_symbol
_atom_site_label
_atom_site_fract_x
_atom_site_fract_y
_atom_site_fract_z
Si Si1 0.822826 0.190910 0.822492
Si Si2 0.000000 0.603744 0.500000
Si Si3 0.075724 0.328410 0.102076
Si Si4 0.159341 0.847140 0.517181
Si Si5 0.225005 0.696614 0.571137
Si Si6 0.692796 0.577982 0.940671
Si Si7 0.423724 0.429251 0.895188
O O1 0.806280 0.268252 0.896158
O O2 0.697058 0.180839 0.761905
O O3 0.053465 0.179482 0.631762
O O4 0.730671 0.135775 0.999739
O O5 0.908607 0.650488 0.438135
O O6 0.844465 0.558682 0.702660
O O7 0.884868 0.360462 0.313933
O O8 0.228864 0.389981 0.976611
O O9 0.000000 0.298972 0.000000
O O10 0.157453 0.775288 0.603496
O O11 0.000000 0.842271 0.500000
O O12 0.100556 0.911250 0.661074
O O13 0.500000 0.611251 0.000000
O O14 0.630915 0.509705 0.071447
O O15 0.500000 0.406213 0.000000
#
# Coordination Sequence:
#
# PCOD8050559 Si02
#       7
#     4   2   4   4   4   4   4
#     4  10  22  43  67 100 138 173 223 282 333 390
#     4  12  24  42  70 100 134 176 226 272 334 410
#     4  11  23  42  70 100 135 178 225 283 332 399
#     4  11  22  42  68  99 134 175 222 275 339 398
#     4  10  22  40  69 105 132 171 223 281 334 393
#     4  11  25  46  67  98 137 183 220 278 339 401
#     4  11  26  45  66  97 134 180 228 273 342 402
#
# _framework density 21.635183000000001
#
# number of rings (size 3 to 8) (size 9 to 14) (size 15 to 20)
#    0.000    1.231    3.846    1.385    4.308    4.923 
#    5.538    0.000    0.000    0.000    0.000    0.000 
#    0.000    0.000    0.000    0.000    0.000    0.000 
#
# Total GULP energy -161163.552083 kJ/mol
# GULP energy per Si atom -12397.196314 kJ/mol
# Density = 2.158594 g / cm^3
# Si number density = 21.635183 Si / 1000 Ang^3
#
#
#
# Elastic Constant Matrix: (Units=GPa)
#
#
# Indices 1 2 3 4 5 6 
#
# 1 108.0554 27.0982 20.3732 0.0000 28.0027 0.0000
# 2 27.0982 90.6255 51.3657 0.0000 9.3924 0.0000
# 3 20.3732 51.3657 139.1461 0.0000 13.9186 0.0000
# 4 0.0000 0.0000 0.0000 38.4439 0.0000 9.3415
# 5 28.0027 9.3924 13.9186 0.0000 32.1271 0.0000
# 6 0.0000 0.0000 0.0000 9.3415 0.0000 20.5764
#
#
#
# Elastic Compliance Matrix: (Units=1/GPa)
#
#
# Indices 1 2 3 4 5 6 
#
# 1 0.012572 -0.002827 0.000226 0.000000 -0.010229 0.000000
# 2 -0.002827 0.014705 -0.005050 0.000000 0.000353 0.000000
# 3 0.000226 -0.005050 0.009292 0.000000 -0.002747 0.000000
# 4 0.000000 0.000000 0.000000 0.029237 0.000000 -0.013273
# 5 -0.010229 0.000353 -0.002747 0.000000 0.041129 0.000000
# 6 0.000000 0.000000 0.000000 -0.013273 0.000000 0.054625
#
#
# Mechanical properties :
#
#
# Convention : Reuss Voigt Hill
#
# Bulk Modulus (GPa) = 47.01901 59.50015 53.25958
# Shear Modulus (GPa) = 27.18092 34.16214 30.67153
#
# Velocity S-wave (km/s) = 3.54832 3.97799 3.76928
# Velocity P-wave (km/s) = 6.21025 6.97570 6.60408
#
# Compressibility (1/GPa) = 0.02126799
#
# Stress axis : x y z
#
# Youngs Moduli (GPa) = 79.54303 68.00209 107.61407
#
# Poissons Ratio (x) = 0.19225 -0.02434
# Poissons Ratio (y) = 0.22488 0.54344
# Poissons Ratio (z) = -0.01799 0.34340
#
# Static dielectric constant tensor:
#      x y z
#    x 4.116270 0.000000 0.100780 
#    y 0.000000 3.553650 0.000000 
#    z 0.100780 0.000000 4.224030 
# 
# 
# High freq. dielectric constant tensor:
#      x y z
#    x 1.863870 0.000000 0.000380 
#    y 0.000000 1.825230 0.000000 
#    z 0.000380 0.000000 1.864630 
# 
# From -- ./inp_files/16897.got.cif
#   From: 2010.03.12/outbox.cif.g09.slc.cpg/sg5_9_cif.got.tgz:16897.got - 2010.03.31 09:47:26.
