data_PCOD8050826
_publ_section_title
;
Structure prediction by ZEFSAII (Michael W. Deem and Ramdas Pophale) SiO2 
 PCOD8050826
Probable space group: C 2
;
_chemical_formula_sum "Si O2"
_cell_formula_units_Z 28
_cell_length_a 5.700339
_cell_length_b 18.939599
_cell_length_c 11.681498
_cell_angle_alpha 90.000000
_cell_angle_beta 110.648651
_cell_angle_gamma 90.000000
_cell_volume 1180.143136
_symmetry_space_group_name_H-M "C 2"
_symmetry_group_IT_number 5
_symmetry_cell_setting 'monoclinic'
loop_
_space_group_symop_operation_xyz
x,y,z
-x,y,-z
1/2+x,1/2+y,z
1/2-x,1/2+y,-z
loop_
_atom_site_type_symbol
_atom_site_label
_atom_site_fract_x
_atom_site_fract_y
_atom_site_fract_z
Si Si1 0.134656 0.882420 0.315915
Si Si2 0.794350 0.034051 0.570931
Si Si3 0.127730 0.120627 0.779826
Si Si4 0.000000 0.794718 0.500000
Si Si5 0.032949 0.508441 0.870533
Si Si6 0.863974 0.361381 0.858308
Si Si7 0.000000 0.084577 0.000000
Si Si8 0.986530 0.266026 0.685346
O O1 0.374266 0.834027 0.338907
O O2 0.978317 0.846983 0.390235
O O3 0.932403 0.881175 0.175991
O O4 0.214816 0.959997 0.364817
O O5 0.500000 0.052190 0.500000
O O6 0.000000 0.034809 0.500000
O O7 0.874557 0.091646 0.678973
O O8 0.348233 0.066547 0.783182
O O9 0.168512 0.198288 0.731520
O O10 0.121303 0.130323 0.918025
O O11 0.745243 0.747881 0.442399
O O12 0.988574 0.429661 0.812215
O O13 0.312555 0.534508 0.896357
O O14 0.000000 0.502114 0.000000
O O15 0.891955 0.288209 0.794997
O O16 0.000000 0.348128 0.000000
#
# Coordination Sequence:
#
# PCOD8050826 Si02
#       8
#     4   4   4   2   4   4   2   4
#     4  11  23  44  70  99 139 187 237 305 369 432
#     4  12  28  47  80 114 149 194 257 317 371 451
#     4  11  26  45  70 107 146 190 244 309 377 447
#     4  10  22  44  66  92 134 180 236 286 368 426
#     4   9  20  41  66  97 133 180 241 294 364 435
#     4  10  23  42  67 101 138 180 243 296 360 444
#     4  10  24  44  76  98 148 196 232 312 380 448
#     4  11  26  41  70  99 142 190 237 302 369 446
#
# _framework density 23.725935
#
# number of rings (size 3 to 8) (size 9 to 14) (size 15 to 20)
#    0.000    1.429    2.143    1.286    8.000    4.000 
#    5.143    0.000    0.000    0.000    0.000    0.000 
#    0.000    0.000    0.000    0.000    0.000    0.000 
#
# Total GULP energy -173432.889532 kJ/mol
# GULP energy per Si atom -12388.063538 kJ/mol
# Density = 2.367193 g / cm^3
# Si number density = 23.725935 Si / 1000 Ang^3
#
#
#
# Elastic Constant Matrix: (Units=GPa)
#
#
# Indices 1 2 3 4 5 6 
#
# 1 91.4683 7.2409 32.9099 0.0000 32.0853 0.0000
# 2 7.2409 109.3881 24.8126 0.0000 11.0543 0.0000
# 3 32.9099 24.8126 106.4180 0.0000 28.9116 0.0000
# 4 0.0000 0.0000 0.0000 28.6489 0.0000 6.7673
# 5 32.0853 11.0543 28.9116 0.0000 45.9984 0.0000
# 6 0.0000 0.0000 0.0000 6.7673 0.0000 26.5255
#
#
#
# Elastic Compliance Matrix: (Units=1/GPa)
#
#
# Indices 1 2 3 4 5 6 
#
# 1 0.014890 0.000440 -0.002239 0.000000 -0.009085 0.000000
# 2 0.000440 0.009711 -0.002029 0.000000 -0.001365 0.000000
# 3 -0.002239 -0.002029 0.012066 0.000000 -0.005534 0.000000
# 4 0.000000 0.000000 0.000000 0.037144 0.000000 -0.009476
# 5 -0.009085 -0.001365 -0.005534 0.000000 0.031883 0.000000
# 6 0.000000 0.000000 0.000000 -0.009476 0.000000 0.040117
#
#
# Mechanical properties :
#
#
# Convention : Reuss Voigt Hill
#
# Bulk Modulus (GPa) = 34.47028 48.57791 41.52409
# Shear Modulus (GPa) = 30.64870 36.38861 33.51865
#
# Velocity S-wave (km/s) = 3.59803 3.92050 3.76273
# Velocity P-wave (km/s) = 5.64103 6.40413 6.03465
#
# Compressibility (1/GPa) = 0.02901050
#
# Stress axis : x y z
#
# Youngs Moduli (GPa) = 67.15743 102.97671 82.87631
#
# Poissons Ratio (x) = -0.04535 0.18559
# Poissons Ratio (y) = -0.02957 0.16820
# Poissons Ratio (z) = 0.15039 0.20899
#
# Static dielectric constant tensor:
#      x y z
#    x 4.279840 0.000000 0.230400 
#    y 0.000000 4.194480 0.000000 
#    z 0.230400 0.000000 4.580930 
# 
# 
# High freq. dielectric constant tensor:
#      x y z
#    x 1.930730 0.000000 0.020250 
#    y 0.000000 1.928500 0.000000 
#    z 0.020250 0.000000 1.951310 
# 
# From -- ./inp_files/34011.got.cif
#   From: 2010.03.12/outbox.cif.g09.slc.cpg/sg5_18_cif.got.tgz:34011.got - 2010.03.31 09:47:26.
