data_PCOD8050951
_publ_section_title
;
Structure prediction by ZEFSAII (Michael W. Deem and Ramdas Pophale) SiO2 
 PCOD8050951
Probable space group: C 2
;
_chemical_formula_sum "Si O2"
_cell_formula_units_Z 20
_cell_length_a 11.749489
_cell_length_b 8.272365
_cell_length_c 10.125051
_cell_angle_alpha 90.000000
_cell_angle_beta 128.238584
_cell_angle_gamma 90.000000
_cell_volume 772.963612
_symmetry_space_group_name_H-M "C 2"
_symmetry_group_IT_number 5
_symmetry_cell_setting 'monoclinic'
loop_
_space_group_symop_operation_xyz
x,y,z
-x,y,-z
1/2+x,1/2+y,z
1/2-x,1/2+y,-z
loop_
_atom_site_type_symbol
_atom_site_label
_atom_site_fract_x
_atom_site_fract_y
_atom_site_fract_z
Si Si1 0.638279 0.638660 0.440747
Si Si2 0.664638 0.949112 0.603154
Si Si3 0.655292 0.474610 0.772697
Si Si4 0.577149 0.912829 0.192729
Si Si5 0.675999 0.107458 0.872258
O O1 0.677334 0.754429 0.594530
O O2 0.772569 0.531960 0.484568
O O3 0.506536 0.520661 0.385332
O O4 0.584641 0.751988 0.283414
O O5 0.500000 0.007445 0.500000
O O6 0.741248 0.007042 0.793393
O O7 0.760507 0.485762 0.718684
O O8 0.660743 0.293283 0.827941
O O9 0.710672 0.592719 0.927430
O O10 0.482191 0.045210 0.199983
O O11 0.500000 0.865014 0.000000
#
# Coordination Sequence:
#
# PCOD8050951 Si02
#       5
#     4   4   4   4   4
#     4  12  28  47  77 104 154 202 246 306 383 426
#     4  12  29  50  71 108 155 196 253 306 372 453
#     4  11  25  48  80 109 150 197 249 313 366 444
#     4  10  22  47  73 108 147 189 250 308 358 446
#     4  11  24  50  77 112 151 192 253 308 369 446
#
# _framework density 25.874441000000001
#
# number of rings (size 3 to 8) (size 9 to 14) (size 15 to 20)
#    0.000    0.800    4.000    2.400    2.800    3.200 
#   10.800    0.000    0.000    0.000    0.000    0.000 
#    0.000    0.000    0.000    0.000    0.000    0.000 
#
# Total GULP energy -124063.011978 kJ/mol
# GULP energy per Si atom -12406.301198 kJ/mol
# Density = 2.581555 g / cm^3
# Si number density = 25.874441 Si / 1000 Ang^3
#
#
#
# Elastic Constant Matrix: (Units=GPa)
#
#
# Indices 1 2 3 4 5 6 
#
# 1 172.2711 52.7080 46.5763 0.0000 5.4124 0.0000
# 2 52.7080 152.1579 19.0523 0.0000 2.8646 0.0000
# 3 46.5763 19.0523 45.9086 0.0000 -5.0172 0.0000
# 4 0.0000 0.0000 0.0000 39.1574 0.0000 6.4003
# 5 5.4124 2.8646 -5.0172 0.0000 60.3729 0.0000
# 6 0.0000 0.0000 0.0000 6.4003 0.0000 45.1202
#
#
#
# Elastic Compliance Matrix: (Units=1/GPa)
#
#
# Indices 1 2 3 4 5 6 
#
# 1 0.008634 -0.001951 -0.008097 0.000000 -0.001354 0.000000
# 2 -0.001951 0.007393 -0.001118 0.000000 -0.000269 0.000000
# 3 -0.008097 -0.001118 0.030827 0.000000 0.003341 0.000000
# 4 0.000000 0.000000 0.000000 0.026144 0.000000 -0.003709
# 5 -0.001354 -0.000269 0.003341 0.000000 0.016976 0.000000
# 6 0.000000 0.000000 0.000000 -0.003709 0.000000 0.022689
#
#
# Mechanical properties :
#
#
# Convention : Reuss Voigt Hill
#
# Bulk Modulus (GPa) = 40.78269 67.44565 54.11417
# Shear Modulus (GPa) = 34.92382 45.73016 40.32699
#
# Velocity S-wave (km/s) = 3.67787 4.20859 3.95215
# Velocity P-wave (km/s) = 5.81649 7.05262 6.46417
#
# Compressibility (1/GPa) = 0.02452021
#
# Stress axis : x y z
#
# Youngs Moduli (GPa) = 115.82573 135.26139 32.43944
#
# Poissons Ratio (x) = 0.26394 0.26268
# Poissons Ratio (y) = 0.22601 0.03626
# Poissons Ratio (z) = 0.93789 0.15120
#
# Static dielectric constant tensor:
#      x y z
#    x 5.443110 0.000000 -0.085910 
#    y 0.000000 4.607980 0.000000 
#    z -0.085910 0.000000 5.064250 
# 
# 
# High freq. dielectric constant tensor:
#      x y z
#    x 2.060010 0.000000 -0.021450 
#    y 0.000000 2.040670 0.000000 
#    z -0.021450 0.000000 2.050330 
# 
# From -- ./inp_files/38491.got.cif
#   From: 2010.03.12/outbox.cif.g09.slc.cpg/sg5_20_cif.got.tgz:38491.got - 2010.03.31 09:47:26.
