data_PCOD8050884
_publ_section_title
;
Structure prediction by ZEFSAII (Michael W. Deem and Ramdas Pophale) SiO2 
 PCOD8050884
Probable space group: C 2
;
_chemical_formula_sum "Si O2"
_cell_formula_units_Z 30
_cell_length_a 16.150904
_cell_length_b 8.946758
_cell_length_c 11.577410
_cell_angle_alpha 90.000000
_cell_angle_beta 124.735894
_cell_angle_gamma 90.000000
_cell_volume 1374.780411
_symmetry_space_group_name_H-M "C 2"
_symmetry_group_IT_number 5
_symmetry_cell_setting 'monoclinic'
loop_
_space_group_symop_operation_xyz
x,y,z
-x,y,-z
1/2+x,1/2+y,z
1/2-x,1/2+y,-z
loop_
_atom_site_type_symbol
_atom_site_label
_atom_site_fract_x
_atom_site_fract_y
_atom_site_fract_z
Si Si1 0.525305 0.312950 0.896004
Si Si2 0.695185 0.517735 0.115350
Si Si3 0.364219 0.939448 0.596831
Si Si4 0.823445 0.753869 0.626645
Si Si5 0.000000 0.315974 0.500000
Si Si6 0.609214 0.821975 0.124572
Si Si7 0.706447 0.733905 0.737834
Si Si8 0.174796 0.568661 0.992699
O O1 0.422685 0.349277 0.745332
O O2 0.500000 0.242134 0.000000
O O3 0.591371 0.462352 0.971288
O O4 0.584150 0.177468 0.881715
O O5 0.681546 0.676241 0.168415
O O6 0.743587 0.400458 0.244400
O O7 0.783806 0.504804 0.092099
O O8 0.254748 0.864757 0.495376
O O9 0.445393 0.902152 0.561324
O O10 0.400064 0.885814 0.752670
O O11 0.358956 0.117889 0.574331
O O12 0.766526 0.654469 0.681467
O O13 0.086587 0.217577 0.629655
O O14 0.646943 0.944022 0.063268
O O15 0.500000 0.766789 0.000000
O O16 0.734950 0.669462 0.884033
#
# Coordination Sequence:
#
# PCOD8050884 Si02
#       8
#     4   4   4   4   2   4   4   4
#     4  11  20  42  67  91 129 177 215 263 338 386
#     4  11  25  38  66 100 135 169 214 276 326 394
#     4  11  26  45  70  97 134 175 227 274 330 395
#     4  11  23  44  69  94 128 178 219 274 329 394
#     4  10  26  44  68  92 130 184 214 268 332 402
#     4  12  25  40  67 105 131 166 227 274 324 391
#     4  10  22  45  63  89 134 174 216 264 338 384
#     4  11  22  42  65  96 136 170 216 273 330 388
#
# _framework density 21.821667999999999
#
# number of rings (size 3 to 8) (size 9 to 14) (size 15 to 20)
#    0.000    1.067    4.000    3.200    9.333    0.000 
#    2.400    0.000    0.000    0.800    0.000    0.000 
#    0.000    0.000    0.000    0.000    0.000    0.000 
#
# Total GULP energy -185823.497709 kJ/mol
# GULP energy per Si atom -12388.233181 kJ/mol
# Density = 2.177200 g / cm^3
# Si number density = 21.821668 Si / 1000 Ang^3
#
#
#
# Elastic Constant Matrix: (Units=GPa)
#
#
# Indices 1 2 3 4 5 6 
#
# 1 121.7473 16.9148 33.6080 0.0000 5.5243 0.0000
# 2 16.9148 71.8659 6.5237 0.0000 3.8969 0.0000
# 3 33.6080 6.5237 83.9222 0.0000 19.9266 0.0000
# 4 0.0000 0.0000 0.0000 21.8895 0.0000 -0.4277
# 5 5.5243 3.8969 19.9266 0.0000 46.4283 0.0000
# 6 0.0000 0.0000 0.0000 -0.4277 0.0000 26.7238
#
#
#
# Elastic Compliance Matrix: (Units=1/GPa)
#
#
# Indices 1 2 3 4 5 6 
#
# 1 0.009504 -0.001927 -0.003815 0.000000 0.000668 0.000000
# 2 -0.001927 0.014430 -0.000130 0.000000 -0.000926 0.000000
# 3 -0.003815 -0.000130 0.014857 0.000000 -0.005912 0.000000
# 4 0.000000 0.000000 0.000000 0.045698 0.000000 0.000731
# 5 0.000668 -0.000926 -0.005912 0.000000 0.024074 0.000000
# 6 0.000000 0.000000 0.000000 0.000731 0.000000 0.037432
#
#
# Mechanical properties :
#
#
# Convention : Reuss Voigt Hill
#
# Bulk Modulus (GPa) = 36.97160 43.51425 40.24293
# Shear Modulus (GPa) = 29.98392 33.70760 31.84576
#
# Velocity S-wave (km/s) = 3.71083 3.93451 3.82431
# Velocity P-wave (km/s) = 5.94472 6.37375 6.16297
#
# Compressibility (1/GPa) = 0.02704779
#
# Stress axis : x y z
#
# Youngs Moduli (GPa) = 105.21615 69.29835 67.30655
#
# Poissons Ratio (x) = 0.13353 0.25677
# Poissons Ratio (y) = 0.20274 0.00876
# Poissons Ratio (z) = 0.40140 0.00902
#
# Static dielectric constant tensor:
#      x y z
#    x 4.168760 0.000000 0.235200 
#    y 0.000000 3.745990 0.000000 
#    z 0.235200 0.000000 4.076040 
# 
# 
# High freq. dielectric constant tensor:
#      x y z
#    x 1.871220 0.000000 0.006870 
#    y 0.000000 1.846050 0.000000 
#    z 0.006870 0.000000 1.855190 
# 
# From -- ./inp_files/42046.got.cif
#   From: 2010.03.12/outbox.cif.g09.slc.cpg/sg5_22_cif.got.tgz:42046.got - 2010.03.31 09:47:26.
