data_PCOD8050366
_publ_section_title
;
Structure prediction by ZEFSAII (Michael W. Deem and Ramdas Pophale) SiO2 
 PCOD8050366
Probable space group: C 2
;
_chemical_formula_sum "Si O2"
_cell_formula_units_Z 26
_cell_length_a 8.186456
_cell_length_b 11.721956
_cell_length_c 18.998194
_cell_angle_alpha 90.000000
_cell_angle_beta 136.520637
_cell_angle_gamma 90.000000
_cell_volume 1254.456606
_symmetry_space_group_name_H-M "C 2"
_symmetry_group_IT_number 5
_symmetry_cell_setting 'monoclinic'
loop_
_space_group_symop_operation_xyz
x,y,z
-x,y,-z
1/2+x,1/2+y,z
1/2-x,1/2+y,-z
loop_
_atom_site_type_symbol
_atom_site_label
_atom_site_fract_x
_atom_site_fract_y
_atom_site_fract_z
Si Si1 0.240690 0.078580 0.895275
Si Si2 0.667312 0.422015 0.743953
Si Si3 0.275639 0.828453 0.332873
Si Si4 0.500000 0.008417 0.500000
Si Si5 0.552758 0.411462 0.121974
Si Si6 0.172228 0.329253 0.910378
Si Si7 0.981018 0.084097 0.577246
O O1 0.229726 0.213528 0.887039
O O2 0.164679 0.026747 0.797296
O O3 0.500000 0.035468 0.000000
O O4 0.043516 0.036608 0.889242
O O5 0.457293 0.330495 0.690185
O O6 0.644005 0.482915 0.661004
O O7 0.895207 0.345665 0.829960
O O8 0.437502 0.930535 0.413159
O O9 0.198715 0.851282 0.229214
O O10 0.411139 0.709143 0.377442
O O11 0.722089 0.081902 0.536826
O O12 0.723609 0.427623 0.108351
O O13 0.317517 0.334354 0.029211
O O14 0.000000 0.058659 0.500000
#
# Coordination Sequence:
#
# PCOD8050366 Si02
#       7
#     4   4   4   2   4   4   4
#     4  11  20  39  60  83 130 173 202 263 322 369
#     4  10  24  42  65  94 129 166 217 268 322 390
#     4  10  22  45  65  94 131 168 216 272 323 391
#     4  10  24  48  64  98 134 166 222 278 328 392
#     4  10  22  36  63  93 128 166 215 262 311 391
#     4  11  22  39  61  98 127 169 216 256 322 397
#     4  11  24  46  71  96 131 173 220 276 336 390
#
# _framework density 20.726106000000001
#
# number of rings (size 3 to 8) (size 9 to 14) (size 15 to 20)
#    0.000    1.538    3.846    0.923    2.154    1.231 
#    9.692    4.615    0.000    0.000    0.000    0.000 
#    0.000    0.000    0.000    0.000    0.000    0.000 
#
# Total GULP energy -161074.538737 kJ/mol
# GULP energy per Si atom -12390.349134 kJ/mol
# Density = 2.067893 g / cm^3
# Si number density = 20.726106 Si / 1000 Ang^3
#
#
#
# Elastic Constant Matrix: (Units=GPa)
#
#
# Indices 1 2 3 4 5 6 
#
# 1 87.2722 41.3131 51.2471 0.0000 1.2722 0.0000
# 2 41.3131 69.4684 49.9963 0.0000 6.1675 0.0000
# 3 51.2471 49.9963 143.6849 0.0000 -0.6684 0.0000
# 4 0.0000 0.0000 0.0000 31.6909 0.0000 6.7039
# 5 1.2722 6.1675 -0.6684 0.0000 40.2517 0.0000
# 6 0.0000 0.0000 0.0000 6.7039 0.0000 28.5254
#
#
#
# Elastic Compliance Matrix: (Units=1/GPa)
#
#
# Indices 1 2 3 4 5 6 
#
# 1 0.017136 -0.007801 -0.003395 0.000000 0.000597 0.000000
# 2 -0.007801 0.023138 -0.005285 0.000000 -0.003386 0.000000
# 3 -0.003395 -0.005285 0.010014 0.000000 0.001083 0.000000
# 4 0.000000 0.000000 0.000000 0.033206 0.000000 -0.007804
# 5 0.000597 -0.003386 0.001083 0.000000 0.025362 0.000000
# 6 0.000000 0.000000 0.000000 -0.007804 0.000000 0.036890
#
#
# Mechanical properties :
#
#
# Convention : Reuss Voigt Hill
#
# Bulk Modulus (GPa) = 57.70886 65.05982 61.38434
# Shear Modulus (GPa) = 27.10298 30.61822 28.86060
#
# Velocity S-wave (km/s) = 3.62010 3.84771 3.73564
# Velocity P-wave (km/s) = 6.73628 7.15529 6.94895
#
# Compressibility (1/GPa) = 0.01732836
#
# Stress axis : x y z
#
# Youngs Moduli (GPa) = 58.35767 43.21877 99.85741
#
# Poissons Ratio (x) = 0.33713 0.33898
# Poissons Ratio (y) = 0.45522 0.52771
# Poissons Ratio (z) = 0.19810 0.22840
#
# Static dielectric constant tensor:
#      x y z
#    x 3.808300 0.000000 0.050220 
#    y 0.000000 3.491520 0.000000 
#    z 0.050220 0.000000 4.115680 
# 
# 
# High freq. dielectric constant tensor:
#      x y z
#    x 1.807950 0.000000 0.001380 
#    y 0.000000 1.791910 0.000000 
#    z 0.001380 0.000000 1.836010 
# 
# From -- ./inp_files/50215.got.cif
#   From: 2010.03.12/outbox.cif.g09.slc.cpg/sg5_26_cif.got.tgz:50215.got - 2010.03.31 09:47:26.
