data_PCOD8050783
_publ_section_title
;
Structure prediction by ZEFSAII (Michael W. Deem and Ramdas Pophale) SiO2 
 PCOD8050783
Probable space group: C 2
;
_chemical_formula_sum "Si O2"
_cell_formula_units_Z 28
_cell_length_a 11.318707
_cell_length_b 10.732022
_cell_length_c 21.779800
_cell_angle_alpha 90.000000
_cell_angle_beta 149.843510
_cell_angle_gamma 90.000000
_cell_volume 1329.077536
_symmetry_space_group_name_H-M "C 2"
_symmetry_group_IT_number 5
_symmetry_cell_setting 'monoclinic'
loop_
_space_group_symop_operation_xyz
x,y,z
-x,y,-z
1/2+x,1/2+y,z
1/2-x,1/2+y,-z
loop_
_atom_site_type_symbol
_atom_site_label
_atom_site_fract_x
_atom_site_fract_y
_atom_site_fract_z
Si Si1 0.578551 0.670910 0.356359
Si Si2 0.760751 0.409057 0.626287
Si Si3 0.511282 0.281110 0.775981
Si Si4 0.410855 0.136767 0.614386
Si Si5 0.301276 0.526988 0.702647
Si Si6 0.121233 0.548821 0.204256
Si Si7 0.804449 0.491231 0.954862
O O1 0.549233 0.806603 0.311159
O O2 0.735968 0.585842 0.381544
O O3 0.330865 0.601885 0.255932
O O4 0.714974 0.692813 0.481349
O O5 0.500000 0.352362 0.500000
O O6 0.791745 0.438568 0.712151
O O7 0.780334 0.534978 0.596706
O O8 0.511826 0.245565 0.703850
O O9 0.292449 0.375912 0.691657
O O10 0.491159 0.159556 0.807666
O O11 0.751720 0.352633 0.902941
O O12 0.618073 0.073791 0.669647
O O13 0.561138 0.569163 0.844027
O O14 0.911278 0.487204 0.070933
O O15 0.000000 0.557013 0.000000
#
# Coordination Sequence:
#
# PCOD8050783 Si02
#       7
#     4   4   4   4   4   4   4
#     4  12  24  38  71  97 140 176 224 287 339 416
#     4  11  24  41  65 101 137 182 220 280 351 407
#     4   9  24  41  68  97 132 183 222 283 344 400
#     4  11  23  43  67 100 139 176 228 280 349 412
#     4  10  23  43  61 103 130 178 231 275 342 407
#     4  11  22  46  65 103 136 175 231 287 347 405
#     4  10  22  43  67  91 130 178 224 279 333 408
#
# _framework density 21.067243000000001
#
# number of rings (size 3 to 8) (size 9 to 14) (size 15 to 20)
#    0.857    0.571    2.857    2.143    2.000    5.714 
#    2.571    2.143    0.000    0.000    0.000    0.000 
#    0.000    0.000    0.000    0.000    0.000    0.000 
#
# Total GULP energy -173539.017144 kJ/mol
# GULP energy per Si atom -12395.644082 kJ/mol
# Density = 2.101929 g / cm^3
# Si number density = 21.067243 Si / 1000 Ang^3
#
#
#
# Elastic Constant Matrix: (Units=GPa)
#
#
# Indices 1 2 3 4 5 6 
#
# 1 96.2544 18.4995 35.7202 -0.0001 -9.0090 -0.0002
# 2 18.4995 86.0247 37.0324 0.0001 -18.3958 -0.0001
# 3 35.7202 37.0324 111.9931 0.0008 -22.1622 0.0001
# 4 -0.0001 0.0001 0.0008 28.9380 0.0000 -4.4356
# 5 -9.0090 -18.3958 -22.1622 0.0000 38.7986 -0.0001
# 6 -0.0002 -0.0001 0.0001 -4.4356 -0.0001 41.3237
#
#
#
# Elastic Compliance Matrix: (Units=1/GPa)
#
#
# Indices 1 2 3 4 5 6 
#
# 1 0.011872 -0.001025 -0.003380 0.000000 0.000340 0.000000
# 2 -0.001025 0.014330 -0.003511 0.000000 0.004551 0.000000
# 3 -0.003380 -0.003511 0.012045 0.000000 0.004431 0.000000
# 4 0.000000 0.000000 0.000000 0.035135 0.000000 0.003771
# 5 0.000340 0.004551 0.004431 0.000000 0.030542 0.000000
# 6 0.000000 0.000000 0.000000 0.003771 0.000000 0.024604
#
#
# Mechanical properties :
#
#
# Convention : Reuss Voigt Hill
#
# Bulk Modulus (GPa) = 44.61499 52.97517 48.79508
# Shear Modulus (GPa) = 32.93123 35.34673 34.13898
#
# Velocity S-wave (km/s) = 3.95796 4.10055 4.02988
# Velocity P-wave (km/s) = 6.48927 6.90070 6.69814
#
# Compressibility (1/GPa) = 0.02241399
#
# Stress axis : x y z
#
# Youngs Moduli (GPa) = 84.22838 69.78605 83.02190
#
# Poissons Ratio (x) = 0.07155 0.28065
# Poissons Ratio (y) = 0.08636 0.29147
# Poissons Ratio (z) = 0.28473 0.24500
#
# Static dielectric constant tensor:
#      x y z
#    x 3.840490 0.000000 -0.183010 
#    y 0.000000 3.678340 0.000000 
#    z -0.183010 0.000000 3.790250 
# 
# 
# High freq. dielectric constant tensor:
#      x y z
#    x 1.832480 0.000000 -0.011430 
#    y 0.000000 1.816150 0.000000 
#    z -0.011430 0.000000 1.821570 
# 
# From -- ./inp_files/65309.got.cif
#   From: 2010.03.12/outbox.cif.g09.slc.cpg/sg5_33_cif.got.tgz:65309.got - 2010.03.31 09:47:26.
