data_PCOD8050065
_publ_section_title
;
Structure prediction by ZEFSAII (Michael W. Deem and Ramdas Pophale) SiO2 
 PCOD8050065
Probable space group: C 2
;
_chemical_formula_sum "Si O2"
_cell_formula_units_Z 24
_cell_length_a 8.639751
_cell_length_b 18.616505
_cell_length_c 15.251369
_cell_angle_alpha 90.000000
_cell_angle_beta 149.535653
_cell_angle_gamma 90.000000
_cell_volume 1243.706686
_symmetry_space_group_name_H-M "C 2"
_symmetry_group_IT_number 5
_symmetry_cell_setting 'monoclinic'
loop_
_space_group_symop_operation_xyz
x,y,z
-x,y,-z
1/2+x,1/2+y,z
1/2-x,1/2+y,-z
loop_
_atom_site_type_symbol
_atom_site_label
_atom_site_fract_x
_atom_site_fract_y
_atom_site_fract_z
Si Si1 0.835513 0.538320 0.011487
Si Si2 0.364389 0.279468 0.168562
Si Si3 0.782763 0.787413 0.317379
Si Si4 0.641818 0.129576 0.309375
Si Si5 0.795562 0.882045 0.984891
Si Si6 0.706008 0.120482 0.682397
O O1 0.813590 0.455995 0.027827
O O2 0.043465 0.574788 0.186506
O O3 0.504013 0.572572 0.838860
O O4 0.000000 0.545621 0.000000
O O5 0.463214 0.303695 0.314580
O O6 0.536924 0.207530 0.224655
O O7 0.461836 0.339042 0.145129
O O8 0.000000 0.265694 0.000000
O O9 0.481863 0.833542 0.182219
O O10 0.696057 0.703281 0.282369
O O11 0.000000 0.813153 0.500000
O O12 0.485789 0.108398 0.323849
O O13 0.000000 0.127447 0.500000
O O14 0.000000 0.896136 0.000000
O O15 0.500000 0.094403 0.500000
#
# Coordination Sequence:
#
# PCOD8050065 Si02
#       6
#     4   4   4   4   4   4
#     4  12  24  40  60  83 118 158 197 241 291 346
#     4   9  19  38  59  83 117 153 191 235 286 343
#     4   9  19  37  61  85 114 148 187 238 286 338
#     4  11  22  37  61  91 121 153 191 237 290 347
#     4  11  23  38  58  83 114 153 194 237 291 347
#     4  10  21  40  63  89 118 151 195 242 288 341
#
# _framework density 19.297153000000002
#
# number of rings (size 3 to 8) (size 9 to 14) (size 15 to 20)
#    0.000    1.667    0.000    7.000    0.000    7.333 
#    0.000    5.833    0.000    0.000    0.000    0.000 
#    0.000    0.000    0.000    0.000    0.000    0.000 
#
# Total GULP energy -148796.296213 kJ/mol
# GULP energy per Si atom -12399.691351 kJ/mol
# Density = 1.925323 g / cm^3
# Si number density = 19.297153 Si / 1000 Ang^3
#
#
#
# Elastic Constant Matrix: (Units=GPa)
#
#
# Indices 1 2 3 4 5 6 
#
# 1 123.1660 43.3146 47.5371 0.0002 -10.2532 0.0017
# 2 43.3146 89.3535 56.1363 0.0073 -3.8360 -0.0009
# 3 47.5371 56.1363 117.6874 0.0094 -12.7026 0.0040
# 4 0.0002 0.0073 0.0094 4.4377 -0.0049 -2.7430
# 5 -10.2532 -3.8360 -12.7026 -0.0049 42.7272 0.0033
# 6 0.0017 -0.0009 0.0040 -2.7430 0.0033 34.1735
#
#
#
# Elastic Compliance Matrix: (Units=1/GPa)
#
#
# Indices 1 2 3 4 5 6 
#
# 1 0.010381 -0.003476 -0.002376 0.000012 0.001473 0.000001
# 2 -0.003476 0.017175 -0.006934 -0.000015 -0.001354 0.000000
# 3 -0.002376 -0.006934 0.013055 -0.000015 0.002688 -0.000003
# 4 0.000012 -0.000015 -0.000015 0.237107 0.000023 0.019032
# 5 0.001473 -0.001354 0.002688 0.000023 0.024435 -0.000001
# 6 0.000001 0.000000 -0.000003 0.019032 -0.000001 0.030790
#
#
# Mechanical properties :
#
#
# Convention : Reuss Voigt Hill
#
# Bulk Modulus (GPa) = 66.50089 69.35366 67.92727
# Shear Modulus (GPa) = 13.75403 28.48226 21.11814
#
# Velocity S-wave (km/s) = 2.67263 3.84602 3.31171
# Velocity P-wave (km/s) = 6.63779 7.46595 7.06402
#
# Compressibility (1/GPa) = 0.01503739
#
# Stress axis : x y z
#
# Youngs Moduli (GPa) = 96.32621 58.22387 76.60079
#
# Poissons Ratio (x) = 0.20241 0.18201
# Poissons Ratio (y) = 0.33487 0.53118
# Poissons Ratio (z) = 0.22888 0.40374
#
# Static dielectric constant tensor:
#      x y z
#    x 3.678820 0.000010 -0.391350 
#    y 0.000010 3.536280 0.000000 
#    z -0.391350 0.000000 3.760130 
# 
# 
# High freq. dielectric constant tensor:
#      x y z
#    x 1.762380 0.000000 -0.019440 
#    y 0.000000 1.748580 0.000000 
#    z -0.019440 0.000000 1.757610 
# 
# From -- ./inp_files/15829.got.cif
#   From: 2010.03.12/outbox.cif.g09.slc.cpg/sg5_8_cif.got.tgz:15829.got - 2010.03.31 09:47:26.
