data_PCOD8050932
_publ_section_title
;
Structure prediction by ZEFSAII (Michael W. Deem and Ramdas Pophale) SiO2 
 PCOD8050932
Probable space group: C 2
;
_chemical_formula_sum "Si O2"
_cell_formula_units_Z 22
_cell_length_a 16.112816
_cell_length_b 8.078398
_cell_length_c 8.132463
_cell_angle_alpha 90.000000
_cell_angle_beta 49.532491
_cell_angle_gamma 90.000000
_cell_volume 805.331201
_symmetry_space_group_name_H-M "C 2"
_symmetry_group_IT_number 5
_symmetry_cell_setting 'monoclinic'
loop_
_space_group_symop_operation_xyz
x,y,z
-x,y,-z
1/2+x,1/2+y,z
1/2-x,1/2+y,-z
loop_
_atom_site_type_symbol
_atom_site_label
_atom_site_fract_x
_atom_site_fract_y
_atom_site_fract_z
Si Si1 0.500000 0.526620 0.500000
Si Si2 0.214386 0.016775 0.373067
Si Si3 0.640941 0.455390 0.026090
Si Si4 0.000000 0.450823 0.500000
Si Si5 0.000000 0.750668 0.000000
Si Si6 0.861400 0.656246 0.453132
Si Si7 0.661463 0.831668 0.045693
O O1 0.613171 0.623585 0.417957
O O2 0.546029 0.424149 0.284891
O O3 0.253696 0.089963 0.495664
O O4 0.156699 0.841340 0.468095
O O5 0.316783 0.979302 0.117215
O O6 0.602353 0.370712 0.907483
O O7 0.666636 0.649169 0.956797
O O8 0.745435 0.348039 0.937876
O O9 0.104991 0.555219 0.427346
O O10 0.043863 0.342102 0.289090
O O11 0.964413 0.637499 0.197965
#
# Coordination Sequence:
#
# PCOD8050932 Si02
#       7
#     2   4   4   2   2   4   4
#     4  10  22  46  70 104 142 198 234 304 366 438
#     4  11  26  47  74 109 150 193 250 304 374 441
#     4  11  26  45  75 106 148 195 247 304 369 444
#     4  12  28  50  76 110 150 200 252 304 372 436
#     4  12  28  46  74 108 152 196 248 304 374 436
#     4  12  28  47  76 109 152 198 249 308 368 443
#     4  11  27  46  77 108 148 193 251 305 372 440
#
# _framework density 27.317951999999998
#
# number of rings (size 3 to 8) (size 9 to 14) (size 15 to 20)
#    0.000    0.727    1.818    3.273   15.273    2.909 
#    0.000    0.000    0.000    0.000    0.000    0.000 
#    0.000    0.000    0.000    0.000    0.000    0.000 
#
# Total GULP energy -136319.701810 kJ/mol
# GULP energy per Si atom -12392.700165 kJ/mol
# Density = 2.725578 g / cm^3
# Si number density = 27.317952 Si / 1000 Ang^3
#
#
#
# Elastic Constant Matrix: (Units=GPa)
#
#
# Indices 1 2 3 4 5 6 
#
# 1 159.7925 15.3142 -16.6740 0.0000 7.8554 0.0000
# 2 15.3142 69.4194 -2.7822 0.0000 -2.6187 0.0000
# 3 -16.6740 -2.7822 103.8443 0.0000 -20.5766 0.0000
# 4 0.0000 0.0000 0.0000 30.8206 0.0000 -1.5843
# 5 7.8554 -2.6187 -20.5766 0.0000 40.5963 0.0000
# 6 0.0000 0.0000 0.0000 -1.5843 0.0000 34.7490
#
#
#
# Elastic Compliance Matrix: (Units=1/GPa)
#
#
# Indices 1 2 3 4 5 6 
#
# 1 0.006528 -0.001443 0.000824 0.000000 -0.000939 0.000000
# 2 -0.001443 0.014797 0.000455 0.000000 0.001464 0.000000
# 3 0.000824 0.000455 0.010837 0.000000 0.005363 0.000000
# 4 0.000000 0.000000 0.000000 0.032522 0.000000 0.001483
# 5 -0.000939 0.001464 0.005363 0.000000 0.027627 0.000000
# 6 0.000000 0.000000 0.000000 0.001483 0.000000 0.028845
#
#
# Mechanical properties :
#
#
# Convention : Reuss Voigt Hill
#
# Bulk Modulus (GPa) = 31.41297 36.08581 33.74939
# Shear Modulus (GPa) = 37.85119 43.71307 40.78213
#
# Velocity S-wave (km/s) = 3.72638 4.00454 3.86796
# Velocity P-wave (km/s) = 5.48074 5.88388 5.68588
#
# Compressibility (1/GPa) = 0.03183399
#
# Stress axis : x y z
#
# Youngs Moduli (GPa) = 153.17534 67.58173 92.27775
#
# Poissons Ratio (x) = 0.09749 -0.07600
# Poissons Ratio (y) = 0.22097 -0.04198
# Poissons Ratio (z) = -0.12615 -0.03075
#
# Static dielectric constant tensor:
#      x y z
#    x 5.142310 0.000000 0.009810 
#    y 0.000000 4.562840 0.000000 
#    z 0.009810 0.000000 5.179090 
# 
# 
# High freq. dielectric constant tensor:
#      x y z
#    x 2.107450 0.000000 -0.007380 
#    y 0.000000 2.081280 0.000000 
#    z -0.007380 0.000000 2.121770 
# 
# From -- ./inp_files/26434.got.cif
#   From: 2010.03.12/outbox.cif.g09.slc.cpg/sg5_14_cif.got.tgz:26434.got - 2010.03.31 09:47:26.
