data_PCOD8050079
_publ_section_title
;
Structure prediction by ZEFSAII (Michael W. Deem and Ramdas Pophale) SiO2 
 PCOD8050079
Probable space group: C 2
;
_chemical_formula_sum "Si O2"
_cell_formula_units_Z 32
_cell_length_a 14.577152
_cell_length_b 13.525263
_cell_length_c 7.764726
_cell_angle_alpha 90.000000
_cell_angle_beta 104.766292
_cell_angle_gamma 90.000000
_cell_volume 1480.331942
_symmetry_space_group_name_H-M "C 2"
_symmetry_group_IT_number 5
_symmetry_cell_setting 'monoclinic'
loop_
_space_group_symop_operation_xyz
x,y,z
-x,y,-z
1/2+x,1/2+y,z
1/2-x,1/2+y,-z
loop_
_atom_site_type_symbol
_atom_site_label
_atom_site_fract_x
_atom_site_fract_y
_atom_site_fract_z
Si Si1 0.384145 0.596040 0.627735
Si Si2 0.767743 0.746991 0.328539
Si Si3 0.083616 0.343048 0.653058
Si Si4 0.459487 0.027093 0.160197
Si Si5 0.366041 0.135406 0.670396
Si Si6 0.736957 0.941240 0.494151
Si Si7 0.592995 0.635584 0.761508
Si Si8 0.283869 0.143492 0.992985
O O1 0.331363 0.691519 0.679785
O O2 0.327055 0.493249 0.633723
O O3 0.489382 0.593079 0.763372
O O4 0.385538 0.607300 0.423696
O O5 0.847305 0.702886 0.495960
O O6 0.766362 0.864647 0.357927
O O7 0.791669 0.730386 0.138992
O O8 0.030861 0.436230 0.708154
O O9 0.178845 0.376484 0.603373
O O10 0.106333 0.254464 0.795675
O O11 0.000000 0.292871 0.500000
O O12 0.520612 0.121508 0.255437
O O13 0.500000 0.989288 0.000000
O O14 0.349415 0.054997 0.093175
O O15 0.321139 0.182129 0.823945
O O16 0.325162 0.025495 0.624659
O O17 0.677544 0.596041 0.925332
#
# Coordination Sequence:
#
# PCOD8050079 Si02
#       8
#     4   4   4   4   4   4   4   4
#     4  10  21  40  64  89 127 173 209 267 332 381
#     4  11  22  39  65  96 121 174 219 260 326 395
#     4  12  20  37  69  96 121 171 225 272 322 398
#     4  10  23  38  62  97 127 165 212 278 337 379
#     4  10  21  42  63  91 136 164 208 276 332 377
#     4  11  20  37  68  95 126 169 227 262 325 395
#     4  11  21  42  62  86 133 173 210 269 337 376
#     4  11  23  39  62  93 127 169 211 270 323 395
#
# _framework density 21.616773999999999
#
# number of rings (size 3 to 8) (size 9 to 14) (size 15 to 20)
#    0.000    1.250    6.250    1.500    0.000    2.500 
#    0.000    5.000    0.000    0.000    0.000    0.000 
#    0.000    0.000    0.000    0.000    0.000    0.000 
#
# Total GULP energy -198318.652932 kJ/mol
# GULP energy per Si atom -12394.915808 kJ/mol
# Density = 2.156757 g / cm^3
# Si number density = 21.616774 Si / 1000 Ang^3
#
#
#
# Elastic Constant Matrix: (Units=GPa)
#
#
# Indices 1 2 3 4 5 6 
#
# 1 133.1787 40.1980 37.4484 0.0000 25.8255 0.0000
# 2 40.1980 90.4390 19.2378 0.0000 5.6133 0.0000
# 3 37.4484 19.2378 86.5573 0.0000 14.4131 0.0000
# 4 0.0000 0.0000 0.0000 24.2614 0.0000 -4.3118
# 5 25.8255 5.6133 14.4131 0.0000 33.5438 0.0000
# 6 0.0000 0.0000 0.0000 -4.3118 0.0000 19.1224
#
#
#
# Elastic Compliance Matrix: (Units=1/GPa)
#
#
# Indices 1 2 3 4 5 6 
#
# 1 0.010646 -0.003759 -0.002704 0.000000 -0.006405 0.000000
# 2 -0.003759 0.012958 -0.001480 0.000000 0.001362 0.000000
# 3 -0.002704 -0.001480 0.013640 0.000000 -0.003531 0.000000
# 4 0.000000 0.000000 0.000000 0.042938 0.000000 0.009682
# 5 -0.006405 0.001362 -0.003531 0.000000 0.036033 0.000000
# 6 0.000000 0.000000 0.000000 0.009682 0.000000 0.054478
#
#
# Mechanical properties :
#
#
# Convention : Reuss Voigt Hill
#
# Bulk Modulus (GPa) = 46.82217 55.99371 51.40794
# Shear Modulus (GPa) = 25.81327 29.60490 27.70909
#
# Velocity S-wave (km/s) = 3.45937 3.70474 3.58415
# Velocity P-wave (km/s) = 6.13706 6.65276 6.40010
#
# Compressibility (1/GPa) = 0.02135740
#
# Stress axis : x y z
#
# Youngs Moduli (GPa) = 93.93465 77.16999 73.31444
#
# Poissons Ratio (x) = 0.29009 0.19822
# Poissons Ratio (y) = 0.35311 0.10854
# Poissons Ratio (z) = 0.25397 0.11425
#
# Static dielectric constant tensor:
#      x y z
#    x 4.232150 0.000000 0.114350 
#    y 0.000000 3.692560 0.000000 
#    z 0.114350 0.000000 4.015050 
# 
# 
# High freq. dielectric constant tensor:
#      x y z
#    x 1.858500 0.000000 0.008660 
#    y 0.000000 1.818790 0.000000 
#    z 0.008660 0.000000 1.842590 
# 
# From -- ./inp_files/24412.got.cif
#   From: 2010.03.12/outbox.cif.g09.slc.cpg/sg5_13_cif.got.tgz:24412.got - 2010.03.31 09:47:26.
