data_PCOD8050264
_publ_section_title
;
Structure prediction by ZEFSAII (Michael W. Deem and Ramdas Pophale) SiO2 
 PCOD8050264
Probable space group: C 2
;
_chemical_formula_sum "Si O2"
_cell_formula_units_Z 28
_cell_length_a 10.878603
_cell_length_b 14.069736
_cell_length_c 10.860383
_cell_angle_alpha 90.000000
_cell_angle_beta 53.828750
_cell_angle_gamma 90.000000
_cell_volume 1341.886563
_symmetry_space_group_name_H-M "C 2"
_symmetry_group_IT_number 5
_symmetry_cell_setting 'monoclinic'
loop_
_space_group_symop_operation_xyz
x,y,z
-x,y,-z
1/2+x,1/2+y,z
1/2-x,1/2+y,-z
loop_
_atom_site_type_symbol
_atom_site_label
_atom_site_fract_x
_atom_site_fract_y
_atom_site_fract_z
Si Si1 0.177864 0.181770 0.731885
Si Si2 0.596891 0.808098 0.190493
Si Si3 0.781793 0.690509 0.412210
Si Si4 0.785932 0.949904 0.931605
Si Si5 0.500000 0.534353 0.000000
Si Si6 0.500000 0.811270 0.500000
Si Si7 0.673054 0.140221 0.875344
Si Si8 0.440498 0.306107 0.668933
O O1 0.258040 0.140051 0.559488
O O2 0.102884 0.096082 0.848426
O O3 0.306735 0.228180 0.741278
O O4 0.054988 0.262445 0.774715
O O5 0.564151 0.865485 0.340232
O O6 0.721547 0.726458 0.141401
O O7 0.650615 0.881883 0.056457
O O8 0.628570 0.746334 0.480926
O O9 0.805186 0.618686 0.283911
O O10 0.924159 0.762239 0.330395
O O11 0.882273 0.902007 0.766374
O O12 0.713653 0.046873 0.926845
O O13 0.893421 0.966530 0.984232
O O14 0.500000 0.170594 0.000000
O O15 0.500000 0.336278 0.500000
#
# Coordination Sequence:
#
# PCOD8050264 Si02
#       8
#     4   4   4   4   2   2   4   4
#     4  10  21  44  66  88 126 172 209 261 321 375
#     4  10  21  43  64  89 126 166 210 265 317 379
#     4   9  20  40  70  90 118 167 213 259 316 373
#     4  12  27  39  63  97 129 169 211 266 315 377
#     4  12  26  40  60  96 128 166 218 256 320 374
#     4   8  18  36  68  88 114 162 212 252 312 368
#     4  11  24  41  64  96 124 168 216 260 322 376
#     4  10  23  42  67  94 127 170 212 260 320 375
#
# _framework density 20.866143000000001
#
# number of rings (size 3 to 8) (size 9 to 14) (size 15 to 20)
#    0.000    1.714    1.429    1.714    9.000    1.143 
#    1.286    1.429    0.000    0.000    0.000    0.000 
#    0.000    0.000    0.000    0.000    0.000    0.000 
#
# Total GULP energy -173548.829620 kJ/mol
# GULP energy per Si atom -12396.344973 kJ/mol
# Density = 2.081865 g / cm^3
# Si number density = 20.866143 Si / 1000 Ang^3
#
#
#
# Elastic Constant Matrix: (Units=GPa)
#
#
# Indices 1 2 3 4 5 6 
#
# 1 110.9996 18.1011 21.6037 0.0000 -8.4052 0.0000
# 2 18.1011 57.5959 39.3048 0.0000 6.6102 0.0000
# 3 21.6037 39.3048 124.7140 0.0000 7.0148 0.0000
# 4 0.0000 0.0000 0.0000 9.4567 0.0000 6.1098
# 5 -8.4052 6.6102 7.0148 0.0000 38.1900 0.0000
# 6 0.0000 0.0000 0.0000 6.1098 0.0000 19.2847
#
#
#
# Elastic Compliance Matrix: (Units=1/GPa)
#
#
# Indices 1 2 3 4 5 6 
#
# 1 0.009866 -0.002740 -0.001005 0.000000 0.002830 0.000000
# 2 -0.002740 0.023134 -0.006626 0.000000 -0.003390 0.000000
# 3 -0.001005 -0.006626 0.010335 0.000000 -0.000973 0.000000
# 4 0.000000 0.000000 0.000000 0.132961 0.000000 -0.042125
# 5 0.002830 -0.003390 -0.000973 0.000000 0.027573 0.000000
# 6 0.000000 0.000000 0.000000 -0.042125 0.000000 0.065201
#
#
# Mechanical properties :
#
#
# Convention : Reuss Voigt Hill
#
# Bulk Modulus (GPa) = 44.25806 50.14761 47.20283
# Shear Modulus (GPa) = 16.81567 27.67296 22.24431
#
# Velocity S-wave (km/s) = 2.84189 3.64567 3.26858
# Velocity P-wave (km/s) = 5.65906 6.46579 6.07583
#
# Compressibility (1/GPa) = 0.02259475
#
# Stress axis : x y z
#
# Youngs Moduli (GPa) = 101.36167 43.22655 96.75650
#
# Poissons Ratio (x) = 0.11843 0.09721
# Poissons Ratio (y) = 0.27770 0.64107
# Poissons Ratio (z) = 0.10184 0.28640
#
# Static dielectric constant tensor:
#      x y z
#    x 4.178420 0.000000 0.250010 
#    y 0.000000 3.269010 0.000000 
#    z 0.250010 0.000000 4.615710 
# 
# 
# High freq. dielectric constant tensor:
#      x y z
#    x 1.841030 0.000000 0.002290 
#    y 0.000000 1.769940 0.000000 
#    z 0.002290 0.000000 1.848460 
# 
# From -- ./inp_files/39838.got.cif
#   From: 2010.03.12/outbox.cif.g09.slc.cpg/sg5_20_cif.got.tgz:39838.got - 2010.03.31 09:47:26.
