data_PCOD8050603
_publ_section_title
;
Structure prediction by ZEFSAII (Michael W. Deem and Ramdas Pophale) SiO2 
 PCOD8050603
Probable space group: C 2
;
_chemical_formula_sum "Si O2"
_cell_formula_units_Z 20
_cell_length_a 26.271282
_cell_length_b 8.045466
_cell_length_c 5.169708
_cell_angle_alpha 90.000000
_cell_angle_beta 118.580847
_cell_angle_gamma 90.000000
_cell_volume 959.541362
_symmetry_space_group_name_H-M "C 2"
_symmetry_group_IT_number 5
_symmetry_cell_setting 'monoclinic'
loop_
_space_group_symop_operation_xyz
x,y,z
-x,y,-z
1/2+x,1/2+y,z
1/2-x,1/2+y,-z
loop_
_atom_site_type_symbol
_atom_site_label
_atom_site_fract_x
_atom_site_fract_y
_atom_site_fract_z
Si Si1 0.065446 0.712620 0.142248
Si Si2 0.773906 0.434874 0.869450
Si Si3 0.433732 0.426235 0.356575
Si Si4 0.837716 0.460456 0.514737
Si Si5 0.329925 0.635590 0.232543
O O1 0.078065 0.847117 0.392938
O O2 0.102575 0.547797 0.270039
O O3 0.078811 0.792989 0.897217
O O4 0.000000 0.649134 0.000000
O O5 0.791874 0.496587 0.630541
O O6 0.705926 0.478041 0.742326
O O7 0.811339 0.531763 0.181763
O O8 0.787299 0.237784 0.933500
O O9 0.500000 0.493460 0.500000
O O10 0.387667 0.576264 0.221883
O O11 0.848826 0.261508 0.509924
#
# Coordination Sequence:
#
# PCOD8050603 Si02
#       5
#     4   4   4   4   4
#     4  10  22  41  65  91 122 169 212 257 312 374
#     4  10  25  39  60  95 123 171 201 264 315 371
#     4  10  23  42  66  92 124 167 210 258 312 374
#     4  10  24  40  61  94 123 169 205 262 315 369
#     4  10  26  40  64  94 130 164 212 259 316 374
#
# _framework density 20.843294
#
# number of rings (size 3 to 8) (size 9 to 14) (size 15 to 20)
#    1.200    0.800    0.000    1.200   11.200    0.000 
#    3.600    0.000    0.000    0.000    0.000    0.000 
#    0.000    0.000    0.000    0.000    0.000    0.000 
#
# Total GULP energy -123928.088282 kJ/mol
# GULP energy per Si atom -12392.808828 kJ/mol
# Density = 2.079585 g / cm^3
# Si number density = 20.843294 Si / 1000 Ang^3
#
#
#
# Elastic Constant Matrix: (Units=GPa)
#
#
# Indices 1 2 3 4 5 6 
#
# 1 137.4895 63.2215 39.3570 0.0000 14.6269 0.0000
# 2 63.2215 85.2426 28.1034 0.0000 27.7565 0.0000
# 3 39.3570 28.1034 80.7300 0.0000 -5.8525 0.0000
# 4 0.0000 0.0000 0.0000 32.1756 0.0000 15.7087
# 5 14.6269 27.7565 -5.8525 0.0000 37.2107 0.0000
# 6 0.0000 0.0000 0.0000 15.7087 0.0000 32.4930
#
#
#
# Elastic Compliance Matrix: (Units=1/GPa)
#
#
# Indices 1 2 3 4 5 6 
#
# 1 0.011678 -0.008045 -0.002822 0.000000 0.000967 0.000000
# 2 -0.008045 0.025025 -0.005982 0.000000 -0.016445 0.000000
# 3 -0.002822 -0.005982 0.016436 0.000000 0.008156 0.000000
# 4 0.000000 0.000000 0.000000 0.040682 0.000000 -0.019667
# 5 0.000967 -0.016445 0.008156 0.000000 0.040044 0.000000
# 6 0.000000 0.000000 0.000000 -0.019667 0.000000 0.040284
#
#
# Mechanical properties :
#
#
# Convention : Reuss Voigt Hill
#
# Bulk Modulus (GPa) = 51.43810 62.75843 57.09827
# Shear Modulus (GPa) = 23.32878 31.89454 27.61166
#
# Velocity S-wave (km/s) = 3.34914 3.91603 3.64363
# Velocity P-wave (km/s) = 6.29982 7.11492 6.71974
#
# Compressibility (1/GPa) = 0.01944084
#
# Stress axis : x y z
#
# Youngs Moduli (GPa) = 85.63253 39.95972 60.84056
#
# Poissons Ratio (x) = 0.32150 0.17170
# Poissons Ratio (y) = 0.68896 0.36392
# Poissons Ratio (z) = 0.24167 0.23902
#
# Static dielectric constant tensor:
#      x y z
#    x 3.785480 0.000000 -0.036140 
#    y 0.000000 3.430400 0.000000 
#    z -0.036140 0.000000 3.757150 
# 
# 
# High freq. dielectric constant tensor:
#      x y z
#    x 1.822400 0.000000 -0.004970 
#    y 0.000000 1.791250 0.000000 
#    z -0.004970 0.000000 1.817710 
# 
# From -- ./inp_files/9139.got.cif
#   From: 2010.03.12/outbox.cif.g09.slc.cpg/sg5_5_cif.got.tgz:9139.got - 2010.03.31 09:47:26.
