data_PCOD8050876
_publ_section_title
;
Structure prediction by ZEFSAII (Michael W. Deem and Ramdas Pophale) SiO2 
 PCOD8050876
Probable space group: C 2
;
_chemical_formula_sum "Si O2"
_cell_formula_units_Z 18
_cell_length_a 4.984556
_cell_length_b 19.822531
_cell_length_c 7.658985
_cell_angle_alpha 90.000000
_cell_angle_beta 111.321332
_cell_angle_gamma 90.000000
_cell_volume 704.962043
_symmetry_space_group_name_H-M "C 2"
_symmetry_group_IT_number 5
_symmetry_cell_setting 'monoclinic'
loop_
_space_group_symop_operation_xyz
x,y,z
-x,y,-z
1/2+x,1/2+y,z
1/2-x,1/2+y,-z
loop_
_atom_site_type_symbol
_atom_site_label
_atom_site_fract_x
_atom_site_fract_y
_atom_site_fract_z
Si Si1 0.073548 0.606920 0.714300
Si Si2 0.200304 0.301524 0.689112
Si Si3 0.290171 0.875090 0.802238
Si Si4 0.500000 0.204168 0.000000
Si Si5 0.573635 0.516538 0.709777
O O1 0.308575 0.547257 0.756492
O O2 0.000000 0.634283 0.500000
O O3 0.153984 0.664375 0.873848
O O4 0.795515 0.576941 0.743499
O O5 0.511706 0.328431 0.704798
O O6 0.244494 0.249362 0.858087
O O7 0.000000 0.262038 0.500000
O O8 0.995695 0.366836 0.682630
O O9 0.201691 0.951009 0.835394
O O10 0.500000 0.845983 0.000000
O O11 0.500000 0.489134 0.500000
#
# Coordination Sequence:
#
# PCOD8050876 Si02
#       5
#     4   4   4   2   4
#     4  10  25  46  74 108 149 202 252 313 377 454
#     4  12  27  48  77 111 152 203 254 318 385 453
#     4  12  24  47  77 114 151 194 251 321 391 459
#     4  12  28  52  74 112 156 210 266 310 370 462
#     4  10  22  44  73 109 148 192 249 311 391 455
#
# _framework density 25.533294000000001
#
# number of rings (size 3 to 8) (size 9 to 14) (size 15 to 20)
#    0.000    0.889    2.222    3.333    1.556   10.667 
#    0.000    0.000    0.000    0.000    0.000    0.000 
#    0.000    0.000    0.000    0.000    0.000    0.000 
#
# Total GULP energy -111502.376044 kJ/mol
# GULP energy per Si atom -12389.152894 kJ/mol
# Density = 2.547518 g / cm^3
# Si number density = 25.533294 Si / 1000 Ang^3
#
#
#
# Elastic Constant Matrix: (Units=GPa)
#
#
# Indices 1 2 3 4 5 6 
#
# 1 121.2190 27.0170 53.3000 0.0000 10.4571 0.0000
# 2 27.0170 103.5191 59.8063 0.0000 -1.8206 0.0000
# 3 53.3000 59.8063 175.9725 0.0000 23.3203 0.0000
# 4 0.0000 0.0000 0.0000 37.8711 0.0000 -4.3784
# 5 10.4571 -1.8206 23.3203 0.0000 44.0440 0.0000
# 6 0.0000 0.0000 0.0000 -4.3784 0.0000 35.1913
#
#
#
# Elastic Compliance Matrix: (Units=1/GPa)
#
#
# Indices 1 2 3 4 5 6 
#
# 1 0.009650 -0.001159 -0.002387 0.000000 -0.001075 0.000000
# 2 -0.001159 0.012504 -0.004306 0.000000 0.003072 0.000000
# 3 -0.002387 -0.004306 0.008407 0.000000 -0.004063 0.000000
# 4 0.000000 0.000000 0.000000 0.026791 0.000000 0.003333
# 5 -0.001075 0.003072 -0.004063 0.000000 0.025238 0.000000
# 6 0.000000 0.000000 0.000000 0.003333 0.000000 0.028831
#
#
# Mechanical properties :
#
#
# Convention : Reuss Voigt Hill
#
# Bulk Modulus (GPa) = 67.29754 75.66190 71.47972
# Shear Modulus (GPa) = 37.85699 40.79377 39.32538
#
# Velocity S-wave (km/s) = 3.85470 4.00142 3.92875
# Velocity P-wave (km/s) = 6.79894 7.14461 6.97392
#
# Compressibility (1/GPa) = 0.01485938
#
# Stress axis : x y z
#
# Youngs Moduli (GPa) = 103.62799 79.97408 118.94329
#
# Poissons Ratio (x) = 0.09266 0.28387
# Poissons Ratio (y) = 0.12006 0.51215
# Poissons Ratio (z) = 0.24731 0.34435
#
# Static dielectric constant tensor:
#      x y z
#    x 4.502690 0.000000 0.091200 
#    y 0.000000 4.315740 0.000000 
#    z 0.091200 0.000000 4.874130 
# 
# 
# High freq. dielectric constant tensor:
#      x y z
#    x 2.024890 0.000000 0.007150 
#    y 0.000000 2.004660 0.000000 
#    z 0.007150 0.000000 2.035670 
# 
# From -- ./inp_files/12360.got.cif
#   From: 2010.03.12/outbox.cif.g09.slc.cpg/sg5_7_cif.got.tgz:12360.got - 2010.03.31 09:47:26.
