data_PCOD8050560
_publ_section_title
;
Structure prediction by ZEFSAII (Michael W. Deem and Ramdas Pophale) SiO2 
 PCOD8050560
Probable space group: C 2
;
_chemical_formula_sum "Si O2"
_cell_formula_units_Z 28
_cell_length_a 11.239340
_cell_length_b 8.740766
_cell_length_c 13.612096
_cell_angle_alpha 90.000000
_cell_angle_beta 98.904219
_cell_angle_gamma 90.000000
_cell_volume 1321.142306
_symmetry_space_group_name_H-M "C 2"
_symmetry_group_IT_number 5
_symmetry_cell_setting 'monoclinic'
loop_
_space_group_symop_operation_xyz
x,y,z
-x,y,-z
1/2+x,1/2+y,z
1/2-x,1/2+y,-z
loop_
_atom_site_type_symbol
_atom_site_label
_atom_site_fract_x
_atom_site_fract_y
_atom_site_fract_z
Si Si1 0.658076 0.173280 0.975566
Si Si2 0.277262 0.192654 0.358491
Si Si3 0.447463 0.234150 0.645883
Si Si4 0.000000 0.983786 0.500000
Si Si5 0.500000 0.897498 0.000000
Si Si6 0.931495 0.828306 0.856933
Si Si7 0.626260 0.670069 0.142694
Si Si8 0.248635 0.511351 0.461838
O O1 0.562291 0.263624 0.897808
O O2 0.783266 0.170448 0.937155
O O3 0.668940 0.260130 0.081799
O O4 0.615449 0.999887 0.987945
O O5 0.412293 0.188252 0.333345
O O6 0.187135 0.202261 0.255191
O O7 0.247492 0.334161 0.427893
O O8 0.260888 0.038493 0.421181
O O9 0.434794 0.378591 0.573066
O O10 0.394858 0.278070 0.744093
O O11 0.364306 0.094687 0.601086
O O12 0.116819 0.078430 0.554196
O O13 0.528653 0.798775 0.101814
O O14 0.941750 0.009973 0.863755
#
# Coordination Sequence:
#
# PCOD8050560 Si02
#       8
#     4   4   4   2   2   4   4   4
#     4  10  23  44  62  94 135 172 213 274 332 389
#     4  11  25  41  72  95 135 181 221 280 335 400
#     4  11  20  44  67  91 133 175 219 272 338 391
#     4  10  22  42  64  96 128 172 210 288 322 400
#     4  10  24  40  64  98 134 164 222 276 312 394
#     4  10  22  40  69  89 129 178 212 265 338 390
#     4  12  23  42  67  99 131 176 222 271 331 393
#     4  11  22  44  65  96 133 172 221 279 335 389
#
# _framework density 21.19378
#
# number of rings (size 3 to 8) (size 9 to 14) (size 15 to 20)
#    0.000    1.429    4.286    2.571    4.000    0.000 
#    2.571    5.714    0.000    0.000    0.000    0.000 
#    0.000    0.000    0.000    0.000    0.000    0.000 
#
# Total GULP energy -173493.200648 kJ/mol
# GULP energy per Si atom -12392.371475 kJ/mol
# Density = 2.114554 g / cm^3
# Si number density = 21.193780 Si / 1000 Ang^3
#
#
#
# Elastic Constant Matrix: (Units=GPa)
#
#
# Indices 1 2 3 4 5 6 
#
# 1 49.3259 34.7781 18.5296 0.0000 10.1908 0.0000
# 2 34.7781 99.0303 47.0433 0.0000 10.7286 0.0000
# 3 18.5296 47.0433 151.3592 0.0000 6.7549 0.0000
# 4 0.0000 0.0000 0.0000 683.1202 0.0000 127.3190
# 5 10.1908 10.7286 6.7549 0.0000 35.9537 0.0000
# 6 0.0000 0.0000 0.0000 127.3190 0.0000 51.2459
#
#
#
# Elastic Compliance Matrix: (Units=1/GPa)
#
#
# Indices 1 2 3 4 5 6 
#
# 1 0.027852 -0.009051 -0.000368 0.000000 -0.005124 0.000000
# 2 -0.009051 0.015089 -0.003525 0.000000 -0.001275 0.000000
# 3 -0.000368 -0.003525 0.007761 0.000000 -0.000302 0.000000
# 4 0.000000 0.000000 0.000000 0.002726 0.000000 -0.006773
# 5 -0.005124 -0.001275 -0.000302 0.000000 0.029703 0.000000
# 6 0.000000 0.000000 0.000000 -0.006773 0.000000 0.036342
#
#
# Mechanical properties :
#
#
# Convention : Reuss Voigt Hill
#
# Bulk Modulus (GPa) = 40.29971 55.60192 47.95081
# Shear Modulus (GPa) = 32.54514 167.35491 99.95003
#
# Velocity S-wave (km/s) = 3.92292 8.89582 6.87477
# Velocity P-wave (km/s) = 6.29089 11.48068 9.25693
#
# Compressibility (1/GPa) = 0.02481407
#
# Stress axis : x y z
#
# Youngs Moduli (GPa) = 35.90410 66.27271 128.85203
#
# Poissons Ratio (x) = 0.59986 0.04739
# Poissons Ratio (y) = 0.32498 0.45418
# Poissons Ratio (z) = 0.01320 0.23360
#
# Static dielectric constant tensor:
#      x y z
#    x 0.704910 0.000000 -1.826460 
#    y 0.000000 3.816210 0.000000 
#    z -1.826460 0.000000 2.958370 
# 
# 
# High freq. dielectric constant tensor:
#      x y z
#    x 1.833020 0.000000 0.007400 
#    y 0.000000 1.823690 0.000000 
#    z 0.007400 0.000000 1.838120 
# 
# From -- ./inp_files/52114.got.cif
#   From: 2010.03.12/outbox.cif.g09.slc.cpg/sg5_27_cif.got.tgz:52114.got - 2010.03.31 09:47:26.
