data_PCOD8050510
_publ_section_title
;
Structure prediction by ZEFSAII (Michael W. Deem and Ramdas Pophale) SiO2 
 PCOD8050510
Probable space group: C 2
;
_chemical_formula_sum "Si O2"
_cell_formula_units_Z 28
_cell_length_a 17.341649
_cell_length_b 5.312691
_cell_length_c 14.936182
_cell_angle_alpha 90.000000
_cell_angle_beta 116.758096
_cell_angle_gamma 90.000000
_cell_volume 1228.725375
_symmetry_space_group_name_H-M "C 2"
_symmetry_group_IT_number 5
_symmetry_cell_setting 'monoclinic'
loop_
_space_group_symop_operation_xyz
x,y,z
-x,y,-z
1/2+x,1/2+y,z
1/2-x,1/2+y,-z
loop_
_atom_site_type_symbol
_atom_site_label
_atom_site_fract_x
_atom_site_fract_y
_atom_site_fract_z
Si Si1 0.122498 0.770840 0.742433
Si Si2 0.981478 0.588723 0.786569
Si Si3 0.656042 0.909492 0.404804
Si Si4 0.984937 0.088662 0.095961
Si Si5 0.322960 0.201293 0.417982
Si Si6 0.794613 0.999215 0.053476
Si Si7 0.467035 0.542736 0.571422
O O1 0.167488 0.628569 0.681903
O O2 0.194618 0.924984 0.835982
O O3 0.073951 0.575138 0.782996
O O4 0.050144 0.964000 0.671211
O O5 0.903162 0.620750 0.673975
O O6 0.970068 0.330605 0.835033
O O7 0.973929 0.830520 0.846212
O O8 0.738093 0.873005 0.383398
O O9 0.592370 0.676404 0.386560
O O10 0.692573 0.967854 0.523534
O O11 0.883424 0.091501 0.057869
O O12 0.000000 0.110580 0.000000
O O13 0.412897 0.318139 0.498173
O O14 0.766874 0.743381 0.986356
O O15 0.500000 0.702781 0.500000
#
# Coordination Sequence:
#
# PCOD8050510 Si02
#       7
#     4   4   4   4   4   4   4
#     4  10  23  45  67  95 132 178 233 269 346 406
#     4  11  24  42  73 100 136 180 231 276 336 417
#     4  12  23  39  63  95 142 174 228 279 340 393
#     4  11  25  47  72 102 133 177 230 286 345 407
#     4  11  24  41  60  98 136 177 223 283 336 400
#     4  11  24  45  70 100 135 172 225 290 342 405
#     4  10  22  40  63  91 130 182 225 272 329 411
#
# _framework density 22.787842000000001
#
# number of rings (size 3 to 8) (size 9 to 14) (size 15 to 20)
#    0.000    1.143    2.857    3.857    2.000    2.286 
#    2.571    0.000    0.000    0.000    0.000    0.000 
#    0.000    0.000    0.000    0.000    0.000    0.000 
#
# Total GULP energy -173509.992569 kJ/mol
# GULP energy per Si atom -12393.570898 kJ/mol
# Density = 2.273598 g / cm^3
# Si number density = 22.787842 Si / 1000 Ang^3
#
#
#
# Elastic Constant Matrix: (Units=GPa)
#
#
# Indices 1 2 3 4 5 6 
#
# 1 74.5417 11.0378 42.2971 0.0000 -19.0354 0.0000
# 2 11.0378 100.8507 39.3699 0.0001 -6.4960 -0.0001
# 3 42.2971 39.3699 124.7509 0.0000 -15.3598 0.0000
# 4 0.0000 0.0001 0.0000 38.9985 0.0000 5.1636
# 5 -19.0354 -6.4960 -15.3598 0.0000 49.8743 0.0000
# 6 0.0000 -0.0001 0.0000 5.1636 0.0000 22.1187
#
#
#
# Elastic Compliance Matrix: (Units=1/GPa)
#
#
# Indices 1 2 3 4 5 6 
#
# 1 0.017816 0.000562 -0.005583 0.000000 0.005154 0.000000
# 2 0.000562 0.011334 -0.003699 0.000000 0.000551 0.000000
# 3 -0.005583 -0.003699 0.011179 0.000000 0.000830 0.000000
# 4 0.000000 0.000000 0.000000 0.026460 0.000000 -0.006177
# 5 0.005154 0.000551 0.000830 0.000000 0.022345 0.000000
# 6 0.000000 0.000000 0.000000 -0.006177 0.000000 0.046653
#
#
# Mechanical properties :
#
#
# Convention : Reuss Voigt Hill
#
# Bulk Modulus (GPa) = 43.69363 53.95032 48.82198
# Shear Modulus (GPa) = 31.08343 36.02753 33.55548
#
# Velocity S-wave (km/s) = 3.69729 3.98049 3.84150
# Velocity P-wave (km/s) = 6.11902 6.69718 6.41461
#
# Compressibility (1/GPa) = 0.02288663
#
# Stress axis : x y z
#
# Youngs Moduli (GPa) = 56.12816 88.23134 89.45584
#
# Poissons Ratio (x) = -0.04955 0.49947
# Poissons Ratio (y) = -0.03152 0.33093
# Poissons Ratio (z) = 0.31339 0.32640
#
# Static dielectric constant tensor:
#      x y z
#    x 4.290070 0.000000 -0.127370 
#    y 0.000000 3.834830 0.000000 
#    z -0.127370 0.000000 4.480890 
# 
# 
# High freq. dielectric constant tensor:
#      x y z
#    x 1.897570 0.000000 -0.001060 
#    y 0.000000 1.880420 0.000000 
#    z -0.001060 0.000000 1.914870 
# 
# From -- ./inp_files/55504.got.cif
#   From: 2010.03.12/outbox.cif.g09.slc.cpg/sg5_28_cif.got.tgz:55504.got - 2010.03.31 09:47:26.
