data_PCOD8050306
_publ_section_title
;
Structure prediction by ZEFSAII (Michael W. Deem and Ramdas Pophale) SiO2 
 PCOD8050306
Probable space group: C 2
;
_chemical_formula_sum "Si O2"
_cell_formula_units_Z 28
_cell_length_a 21.193076
_cell_length_b 10.796053
_cell_length_c 17.998197
_cell_angle_alpha 90.000000
_cell_angle_beta 19.512615
_cell_angle_gamma 90.000000
_cell_volume 1375.476546
_symmetry_space_group_name_H-M "C 2"
_symmetry_group_IT_number 5
_symmetry_cell_setting 'monoclinic'
loop_
_space_group_symop_operation_xyz
x,y,z
-x,y,-z
1/2+x,1/2+y,z
1/2-x,1/2+y,-z
loop_
_atom_site_type_symbol
_atom_site_label
_atom_site_fract_x
_atom_site_fract_y
_atom_site_fract_z
Si Si1 0.290593 0.622650 0.718484
Si Si2 0.530686 0.536021 0.877167
Si Si3 0.405286 0.042874 0.205057
Si Si4 0.001031 0.669560 0.239040
Si Si5 0.241144 0.338439 0.142826
Si Si6 0.643724 0.787404 0.681437
Si Si7 0.068153 0.427942 0.615134
O O1 0.500000 0.565825 0.500000
O O2 0.232554 0.616990 0.697027
O O3 0.284253 0.764888 0.752075
O O4 0.130038 0.547131 0.940162
O O5 0.524701 0.671557 0.845567
O O6 0.723395 0.465499 0.642848
O O7 0.500000 0.546520 0.000000
O O8 0.363539 0.459161 0.024048
O O9 0.363570 0.111421 0.328256
O O10 0.362960 0.898010 0.251889
O O11 0.866124 0.758528 0.435420
O O12 0.059906 0.549274 0.221951
O O13 0.172334 0.748116 0.016353
O O14 0.034165 0.369483 0.342309
O O15 0.570720 0.832264 0.681554
#
# Coordination Sequence:
#
# PCOD8050306 Si02
#       7
#     4   4   4   4   4   4   4
#     4  10  23  38  63  91 119 165 205 257 316 368
#     4  11  26  41  66  96 131 172 210 263 331 374
#     4   9  21  41  64  88 126 156 218 253 303 389
#     4   9  20  41  61  95 116 166 208 262 311 370
#     4  11  24  38  66  93 125 161 212 265 314 377
#     4  10  21  44  68  88 128 172 206 266 322 373
#     4  10  23  42  66  93 126 164 218 261 321 382
#
# _framework density 20.356582
#
# number of rings (size 3 to 8) (size 9 to 14) (size 15 to 20)
#    0.000    2.000    1.429    0.000   12.000    0.000 
#    7.714    0.000    0.000    0.000    0.000    0.000 
#    0.000    0.000    0.000    0.000    0.000    0.000 
#
# Total GULP energy -173512.681087 kJ/mol
# GULP energy per Si atom -12393.762935 kJ/mol
# Density = 2.031025 g / cm^3
# Si number density = 20.356582 Si / 1000 Ang^3
#
#
#
# Elastic Constant Matrix: (Units=GPa)
#
#
# Indices 1 2 3 4 5 6 
#
# 1 105.7890 58.0439 44.3424 -0.0026 -4.4731 0.0001
# 2 58.0439 126.2282 42.7500 -0.0073 -1.8823 0.0016
# 3 44.3424 42.7500 89.1839 -0.0077 -8.0206 0.0018
# 4 -0.0026 -0.0073 -0.0077 29.0968 0.0040 6.7604
# 5 -4.4731 -1.8823 -8.0206 0.0040 32.9285 -0.0006
# 6 0.0001 0.0016 0.0018 6.7604 -0.0006 27.8862
#
#
#
# Elastic Compliance Matrix: (Units=1/GPa)
#
#
# Indices 1 2 3 4 5 6 
#
# 1 0.014104 -0.004917 -0.004610 -0.000001 0.000512 0.000001
# 2 -0.004917 0.011182 -0.002983 0.000002 -0.000755 -0.000001
# 3 -0.004610 -0.002983 0.015196 0.000003 0.002905 -0.000001
# 4 -0.000001 0.000002 0.000003 0.036419 -0.000004 -0.008829
# 5 0.000512 -0.000755 0.002905 -0.000004 0.031103 0.000001
# 6 0.000001 -0.000001 -0.000001 -0.008829 0.000001 0.038000
#
#
# Mechanical properties :
#
#
# Convention : Reuss Voigt Hill
#
# Bulk Modulus (GPa) = 64.67224 67.94153 66.30689
# Shear Modulus (GPa) = 28.38009 29.71994 29.05002
#
# Velocity S-wave (km/s) = 3.73788 3.82510 3.78174
# Velocity P-wave (km/s) = 7.10406 7.27713 7.19112
#
# Compressibility (1/GPa) = 0.01546258
#
# Stress axis : x y z
#
# Youngs Moduli (GPa) = 70.89982 89.42772 65.80618
#
# Poissons Ratio (x) = 0.43970 0.30336
# Poissons Ratio (y) = 0.34860 0.19633
# Poissons Ratio (z) = 0.32684 0.26680
#
# Static dielectric constant tensor:
#      x y z
#    x 3.721390 0.000000 0.253710 
#    y 0.000000 3.882670 0.000000 
#    z 0.253710 0.000000 3.683590 
# 
# 
# High freq. dielectric constant tensor:
#      x y z
#    x 1.787760 0.000000 0.014820 
#    y 0.000000 1.803000 0.000000 
#    z 0.014820 0.000000 1.793000 
# 
# From -- ./inp_files/62869.got.cif
#   From: 2010.03.12/outbox.cif.g09.slc.cpg/sg5_32_cif.got.tgz:62869.got - 2010.03.31 09:47:26.
