data_PCOD8050821
_publ_section_title
;
Structure prediction by ZEFSAII (Michael W. Deem and Ramdas Pophale) SiO2 
 PCOD8050821
Probable space group: C 2
;
_chemical_formula_sum "Si O2"
_cell_formula_units_Z 30
_cell_length_a 15.585552
_cell_length_b 9.503357
_cell_length_c 12.187227
_cell_angle_alpha 90.000000
_cell_angle_beta 56.362125
_cell_angle_gamma 90.000000
_cell_volume 1502.855389
_symmetry_space_group_name_H-M "C 2"
_symmetry_group_IT_number 5
_symmetry_cell_setting 'monoclinic'
loop_
_space_group_symop_operation_xyz
x,y,z
-x,y,-z
1/2+x,1/2+y,z
1/2-x,1/2+y,-z
loop_
_atom_site_type_symbol
_atom_site_label
_atom_site_fract_x
_atom_site_fract_y
_atom_site_fract_z
Si Si1 0.500000 0.096170 0.500000
Si Si2 0.946177 0.695135 0.928584
Si Si3 0.608284 0.413799 0.743681
Si Si4 0.380520 0.721685 0.336113
Si Si5 0.382301 0.621825 0.571593
Si Si6 0.661878 0.320084 0.464474
Si Si7 0.247971 0.299261 0.174454
Si Si8 0.945273 0.447849 0.757895
O O1 0.595291 0.187690 0.474187
O O2 0.464774 0.992153 0.619815
O O3 0.958499 0.580419 0.826416
O O4 0.001858 0.838722 0.851777
O O5 0.826720 0.726605 0.034718
O O6 0.000000 0.635161 0.000000
O O7 0.584668 0.579103 0.749332
O O8 0.649817 0.347738 0.601950
O O9 0.693252 0.394176 0.777903
O O10 0.342456 0.685648 0.485896
O O11 0.280672 0.789932 0.349894
O O12 0.474959 0.828471 0.261636
O O13 0.500000 0.668433 0.500000
O O14 0.373455 0.453521 0.581180
O O15 0.316638 0.678405 0.719140
O O16 0.171461 0.391517 0.153978
#
# Coordination Sequence:
#
# PCOD8050821 Si02
#       8
#     2   4   4   4   4   4   4   4
#     4  12  24  40  66 100 138 168 212 282 332 386
#     4  10  25  46  68  89 132 187 220 264 322 397
#     4  10  22  44  65  92 132 174 220 263 329 392
#     4  11  24  37  68  98 128 166 212 281 327 388
#     4  11  21  40  63  99 129 168 212 272 328 381
#     4  11  23  37  64 101 134 166 211 271 337 387
#     4  11  23  44  68  92 133 178 218 267 329 391
#     4  12  25  43  67 104 130 169 224 275 328 386
#
# _framework density 19.962
#
# number of rings (size 3 to 8) (size 9 to 14) (size 15 to 20)
#    0.000    1.067    4.667    1.600    7.467    1.067 
#    2.400    3.333    0.000    0.000    0.000    0.000 
#    0.000    0.000    0.000    0.000    0.000    0.000 
#
# Total GULP energy -186074.518183 kJ/mol
# GULP energy per Si atom -12404.967879 kJ/mol
# Density = 1.991657 g / cm^3
# Si number density = 19.962000 Si / 1000 Ang^3
#
#
#
# Elastic Constant Matrix: (Units=GPa)
#
#
# Indices 1 2 3 4 5 6 
#
# 1 108.8711 40.8995 31.2469 0.0000 -26.4255 0.0000
# 2 40.8995 91.2564 40.1977 0.0000 -14.8978 0.0000
# 3 31.2469 40.1977 91.6170 0.0000 -16.8765 0.0000
# 4 0.0000 0.0000 0.0000 15.0783 0.0000 -1.6321
# 5 -26.4255 -14.8978 -16.8765 0.0000 36.3582 0.0000
# 6 0.0000 0.0000 0.0000 -1.6321 0.0000 34.9857
#
#
#
# Elastic Compliance Matrix: (Units=1/GPa)
#
#
# Indices 1 2 3 4 5 6 
#
# 1 0.012770 -0.004000 -0.001304 0.000000 0.007037 0.000000
# 2 -0.004000 0.015155 -0.005114 0.000000 0.000929 0.000000
# 3 -0.001304 -0.005114 0.014263 0.000000 0.003577 0.000000
# 4 0.000000 0.000000 0.000000 0.066657 0.000000 0.003110
# 5 0.007037 0.000929 0.003577 0.000000 0.034660 0.000000
# 6 0.000000 0.000000 0.000000 0.003110 0.000000 0.028728
#
#
# Mechanical properties :
#
#
# Convention : Reuss Voigt Hill
#
# Bulk Modulus (GPa) = 46.83522 57.38140 52.10831
# Shear Modulus (GPa) = 24.97670 29.24448 27.11059
#
# Velocity S-wave (km/s) = 3.54109 3.83169 3.68925
# Velocity P-wave (km/s) = 6.34288 6.95583 6.65642
#
# Compressibility (1/GPa) = 0.02135145
#
# Stress axis : x y z
#
# Youngs Moduli (GPa) = 78.30695 65.98368 70.11376
#
# Poissons Ratio (x) = 0.26394 0.09143
# Poissons Ratio (y) = 0.31324 0.35857
# Poissons Ratio (z) = 0.10211 0.33745
#
# Static dielectric constant tensor:
#      x y z
#    x 3.765840 0.000000 -0.023040 
#    y 0.000000 3.642070 0.000000 
#    z -0.023040 0.000000 3.525440 
# 
# 
# High freq. dielectric constant tensor:
#      x y z
#    x 1.792390 0.000000 -0.006870 
#    y 0.000000 1.787120 0.000000 
#    z -0.006870 0.000000 1.763890 
# 
# From -- ./inp_files/41898.got.cif
#   From: 2010.03.12/outbox.cif.g09.slc.cpg/sg5_21_cif.got.tgz:41898.got - 2010.03.31 09:47:26.
