data_PCOD8050098
_publ_section_title
;
Structure prediction by ZEFSAII (Michael W. Deem and Ramdas Pophale) SiO2 
 PCOD8050098
Probable space group: C 2
;
_chemical_formula_sum "Si O2"
_cell_formula_units_Z 30
_cell_length_a 14.984648
_cell_length_b 8.126277
_cell_length_c 12.503612
_cell_angle_alpha 90.000000
_cell_angle_beta 60.470935
_cell_angle_gamma 90.000000
_cell_volume 1324.785950
_symmetry_space_group_name_H-M "C 2"
_symmetry_group_IT_number 5
_symmetry_cell_setting 'monoclinic'
loop_
_space_group_symop_operation_xyz
x,y,z
-x,y,-z
1/2+x,1/2+y,z
1/2-x,1/2+y,-z
loop_
_atom_site_type_symbol
_atom_site_label
_atom_site_fract_x
_atom_site_fract_y
_atom_site_fract_z
Si Si1 0.372080 0.965900 0.476483
Si Si2 0.727523 0.467634 0.912267
Si Si3 0.711462 0.847977 0.905089
Si Si4 0.624953 0.262583 0.788972
Si Si5 0.000000 0.538137 0.000000
Si Si6 0.656627 0.344113 0.547676
Si Si7 0.086357 0.348860 0.314129
Si Si8 0.817968 0.039579 0.665629
O O1 0.278228 0.871745 0.478916
O O2 0.469397 0.890452 0.356817
O O3 0.376190 0.928806 0.598388
O O4 0.369965 0.160867 0.470525
O O5 0.694048 0.654781 0.921460
O O6 0.654836 0.365110 0.876212
O O7 0.846479 0.432207 0.817527
O O8 0.715903 0.410028 0.041261
O O9 0.599346 0.931605 0.972172
O O10 0.776135 0.888394 0.760744
O O11 0.602909 0.376628 0.696475
O O12 0.527959 0.151616 0.880288
O O13 0.719402 0.149956 0.691685
O O14 0.621173 0.470574 0.474972
O O15 0.103105 0.151561 0.312600
#
# Coordination Sequence:
#
# PCOD8050098 Si02
#       8
#     4   4   4   4   2   4   4   4
#     4  11  22  39  66  93 137 176 218 270 340 396
#     4  11  22  44  67  95 136 174 229 267 355 392
#     4  11  24  41  71  96 131 185 219 289 327 412
#     4  10  22  41  69  96 138 180 214 289 325 408
#     4  10  24  44  66 100 136 174 242 270 342 388
#     4  12  21  40  68 102 132 178 214 275 344 403
#     4  10  22  42  64  93 136 180 218 285 325 413
#     4  10  21  40  65  98 135 172 224 270 349 391
#
# _framework density 22.645168999999999
#
# number of rings (size 3 to 8) (size 9 to 14) (size 15 to 20)
#    0.000    1.333    4.000    3.200    1.867    0.533 
#    0.000    9.333    8.800    0.000    0.000    0.000 
#    0.000    0.000    0.000    0.000    0.000    0.000 
#
# Total GULP energy -185947.192046 kJ/mol
# GULP energy per Si atom -12396.479470 kJ/mol
# Density = 2.259363 g / cm^3
# Si number density = 22.645169 Si / 1000 Ang^3
#
#
#
# Elastic Constant Matrix: (Units=GPa)
#
#
# Indices 1 2 3 4 5 6 
#
# 1 54.7652 44.7220 26.9438 0.0000 -7.0882 0.0000
# 2 44.7220 123.6957 48.9728 0.0000 -4.2295 0.0000
# 3 26.9438 48.9728 115.2600 0.0000 12.8629 0.0000
# 4 0.0000 0.0000 0.0000 43.0627 0.0000 1.5560
# 5 -7.0882 -4.2295 12.8629 0.0000 31.1606 0.0000
# 6 0.0000 0.0000 0.0000 1.5560 0.0000 21.1701
#
#
#
# Elastic Compliance Matrix: (Units=1/GPa)
#
#
# Indices 1 2 3 4 5 6 
#
# 1 0.027759 -0.008345 -0.003691 0.000000 0.006705 0.000000
# 2 -0.008345 0.012536 -0.003516 0.000000 0.001255 0.000000
# 3 -0.003691 -0.003516 0.011720 0.000000 -0.006155 0.000000
# 4 0.000000 0.000000 0.000000 0.023284 0.000000 -0.001711
# 5 0.006705 0.001255 -0.006155 0.000000 0.036328 0.000000
# 6 0.000000 0.000000 0.000000 -0.001711 0.000000 0.047362
#
#
# Mechanical properties :
#
#
# Convention : Reuss Voigt Hill
#
# Bulk Modulus (GPa) = 47.82486 59.44421 53.63454
# Shear Modulus (GPa) = 25.37250 30.61751 27.99501
#
# Velocity S-wave (km/s) = 3.35093 3.68102 3.51984
# Velocity P-wave (km/s) = 6.01138 6.66137 6.34470
#
# Compressibility (1/GPa) = 0.02090963
#
# Stress axis : x y z
#
# Youngs Moduli (GPa) = 36.02470 79.76753 85.32686
#
# Poissons Ratio (x) = 0.66569 0.31498
# Poissons Ratio (y) = 0.30064 0.29999
# Poissons Ratio (z) = 0.13298 0.28044
#
# Static dielectric constant tensor:
#      x y z
#    x 3.994740 0.000000 0.001800 
#    y 0.000000 4.139500 0.000000 
#    z 0.001800 0.000000 4.442740 
# 
# 
# High freq. dielectric constant tensor:
#      x y z
#    x 1.873060 0.000000 0.007000 
#    y 0.000000 1.894310 0.000000 
#    z 0.007000 0.000000 1.904930 
# 
# From -- ./inp_files/41934.got.cif
#   From: 2010.03.12/outbox.cif.g09.slc.cpg/sg5_21_cif.got.tgz:41934.got - 2010.03.31 09:47:26.
