data_PCOD8050033
_publ_section_title
;
Structure prediction by ZEFSAII (Michael W. Deem and Ramdas Pophale) SiO2 
 PCOD8050033
Probable space group: C 2
;
_chemical_formula_sum "Si O2"
_cell_formula_units_Z 28
_cell_length_a 7.702758
_cell_length_b 29.067421
_cell_length_c 6.981705
_cell_angle_alpha 90.000000
_cell_angle_beta 136.127046
_cell_angle_gamma 90.000000
_cell_volume 1083.393184
_symmetry_space_group_name_H-M "C 2"
_symmetry_group_IT_number 5
_symmetry_cell_setting 'monoclinic'
loop_
_space_group_symop_operation_xyz
x,y,z
-x,y,-z
1/2+x,1/2+y,z
1/2-x,1/2+y,-z
loop_
_atom_site_type_symbol
_atom_site_label
_atom_site_fract_x
_atom_site_fract_y
_atom_site_fract_z
Si Si1 0.736327 0.270330 0.059236
Si Si2 0.433454 0.690548 0.729598
Si Si3 0.000000 0.553925 0.000000
Si Si4 0.945825 0.363502 0.180084
Si Si5 0.463525 0.510564 0.246495
Si Si6 0.945622 0.908490 0.682193
Si Si7 0.727900 0.094703 0.538954
Si Si8 0.000000 0.744934 0.500000
O O1 0.663401 0.275596 0.774955
O O2 0.500000 0.280664 0.000000
O O3 0.943139 0.310465 0.247676
O O4 0.857306 0.220738 0.217489
O O5 0.428024 0.636484 0.680396
O O6 0.160539 0.712883 0.482768
O O7 0.500000 0.698716 0.000000
O O8 0.167128 0.521490 0.991502
O O9 0.147725 0.587879 0.256822
O O10 0.165685 0.386983 0.486079
O O11 0.663572 0.384328 0.983767
O O12 0.000000 0.370322 0.000000
O O13 0.500000 0.515193 0.500000
O O14 0.549819 0.461209 0.238710
O O15 0.628923 0.549274 0.268585
O O16 0.000000 0.906454 0.500000
O O17 0.500000 0.107445 0.500000
#
# Coordination Sequence:
#
# PCOD8050033 Si02
#       8
#     4   4   2   4   4   4   4   2
#     4  11  26  46  69 103 138 185 231 298 363 431
#     4  10  23  45  68  96 137 183 236 288 355 425
#     4  10  24  42  70 102 140 182 238 288 354 428
#     4  10  21  39  70 103 137 187 238 288 356 428
#     4   9  21  40  64 101 139 180 231 286 347 424
#     4   9  20  36  69 103 138 186 236 288 353 423
#     4  11  24  44  68  99 137 187 230 294 355 422
#     4  10  22  46  70  94 136 180 234 286 350 424
#
# _framework density 25.844725
#
# number of rings (size 3 to 8) (size 9 to 14) (size 15 to 20)
#    0.000    2.000    0.714    1.286   14.000    0.571 
#   10.286    1.429    0.000    0.000    0.000    0.000 
#    0.000    0.000    0.000    0.000    0.000    0.000 
#
# Total GULP energy -173519.987235 kJ/mol
# GULP energy per Si atom -12394.284803 kJ/mol
# Density = 2.578590 g / cm^3
# Si number density = 25.844725 Si / 1000 Ang^3
#
#
#
# Elastic Constant Matrix: (Units=GPa)
#
#
# Indices 1 2 3 4 5 6 
#
# 1 82.3249 42.2885 33.6787 0.0000 27.7215 0.0000
# 2 42.2885 202.0325 55.4344 0.0000 30.5723 0.0000
# 3 33.6787 55.4344 119.5418 0.0000 28.5079 0.0000
# 4 0.0000 0.0000 0.0000 30.0601 0.0000 13.1897
# 5 27.7215 30.5723 28.5079 0.0000 35.6739 0.0000
# 6 0.0000 0.0000 0.0000 13.1897 0.0000 24.9581
#
#
#
# Elastic Compliance Matrix: (Units=1/GPa)
#
#
# Indices 1 2 3 4 5 6 
#
# 1 0.017217 -0.001540 -0.001557 0.000000 -0.010815 0.000000
# 2 -0.001540 0.006166 -0.001792 0.000000 -0.002655 0.000000
# 3 -0.001557 -0.001792 0.011095 0.000000 -0.006120 0.000000
# 4 0.000000 0.000000 0.000000 0.043309 0.000000 -0.022888
# 5 -0.010815 -0.002655 -0.006120 0.000000 0.043601 0.000000
# 6 0.000000 0.000000 0.000000 -0.022888 0.000000 0.052163
#
#
# Mechanical properties :
#
#
# Convention : Reuss Voigt Hill
#
# Bulk Modulus (GPa) = 40.48907 74.07804 57.28356
# Shear Modulus (GPa) = 26.10124 36.30494 31.20309
#
# Velocity S-wave (km/s) = 3.18138 3.75204 3.47843
# Velocity P-wave (km/s) = 5.40326 6.89169 6.19236
#
# Compressibility (1/GPa) = 0.02469802
#
# Stress axis : x y z
#
# Youngs Moduli (GPa) = 58.08298 162.19229 90.13459
#
# Poissons Ratio (x) = 0.24976 0.14037
# Poissons Ratio (y) = 0.08944 0.16153
# Poissons Ratio (z) = 0.09046 0.29066
#
# Static dielectric constant tensor:
#      x y z
#    x 6.717300 0.000000 2.457110 
#    y 0.000000 4.707650 0.000000 
#    z 2.457110 0.000000 6.813950 
# 
# 
# High freq. dielectric constant tensor:
#      x y z
#    x 2.028490 0.000000 0.007650 
#    y 0.000000 2.029210 0.000000 
#    z 0.007650 0.000000 2.040270 
# 
# From -- ./inp_files/17577.got.cif
#   From: 2010.03.12/outbox.cif.g09.slc.cpg/sg5_9_cif.got.tgz:17577.got - 2010.03.31 09:47:26.
