data_PCOD8050617
_publ_section_title
;
Structure prediction by ZEFSAII (Michael W. Deem and Ramdas Pophale) SiO2 
 PCOD8050617
Probable space group: C 2
;
_chemical_formula_sum "Si O2"
_cell_formula_units_Z 28
_cell_length_a 11.273795
_cell_length_b 8.842900
_cell_length_c 21.143455
_cell_angle_alpha 90.000000
_cell_angle_beta 141.117640
_cell_angle_gamma 90.000000
_cell_volume 1323.150176
_symmetry_space_group_name_H-M "C 2"
_symmetry_group_IT_number 5
_symmetry_cell_setting 'monoclinic'
loop_
_space_group_symop_operation_xyz
x,y,z
-x,y,-z
1/2+x,1/2+y,z
1/2-x,1/2+y,-z
loop_
_atom_site_type_symbol
_atom_site_label
_atom_site_fract_x
_atom_site_fract_y
_atom_site_fract_z
Si Si1 0.841373 0.500000 0.056171
Si Si2 0.714595 0.293210 0.373384
Si Si3 0.307417 0.221290 0.156709
Si Si4 0.500000 0.552936 0.500000
Si Si5 0.500000 0.956050 0.000000
Si Si6 0.238671 0.621239 0.645458
Si Si7 0.501797 0.667374 0.133755
Si Si8 0.139351 0.781305 0.483567
O O1 0.869565 0.592968 0.132329
O O2 0.988322 0.553088 0.060390
O O3 0.882886 0.323050 0.084765
O O4 0.630698 0.528678 0.942455
O O5 0.495890 0.286953 0.265107
O O6 0.802388 0.445267 0.382084
O O7 0.746078 0.287026 0.461931
O O8 0.838311 0.154005 0.398589
O O9 0.188568 0.352712 0.073131
O O10 0.177271 0.158024 0.158673
O O11 0.593321 0.452801 0.483951
O O12 0.424790 0.643719 0.764838
O O13 0.272210 0.704822 0.592167
O O14 0.055759 0.688931 0.604067
#
# Coordination Sequence:
#
# PCOD8050617 Si02
#       8
#     4   4   4   2   2   4   4   4
#     4  11  22  42  68  95 134 169 224 280 331 401
#     4  12  23  41  69  93 133 180 218 273 334 398
#     4  11  22  40  69  93 133 179 214 277 342 388
#     4  10  24  38  64  98 124 170 230 264 322 392
#     4  10  22  44  64  94 136 170 220 276 340 394
#     4  10  22  41  67  94 131 177 224 267 336 396
#     4  11  23  45  68  97 137 181 225 277 343 397
#     4  10  23  44  63  93 138 172 217 287 324 383
#
# _framework density 21.161619000000002
#
# number of rings (size 3 to 8) (size 9 to 14) (size 15 to 20)
#    0.000    1.429    4.286    2.571    4.000    0.000 
#    2.571    2.857    0.000    0.000    0.000    0.000 
#    0.000    0.000    0.000    0.000    0.000    0.000 
#
# Total GULP energy -173540.868933 kJ/mol
# GULP energy per Si atom -12395.776352 kJ/mol
# Density = 2.111345 g / cm^3
# Si number density = 21.161619 Si / 1000 Ang^3
#
#
#
# Elastic Constant Matrix: (Units=GPa)
#
#
# Indices 1 2 3 4 5 6 
#
# 1 65.5523 48.0831 26.0844 0.0000 -5.6822 0.0000
# 2 48.0831 129.1117 48.1412 0.0000 2.6542 0.0000
# 3 26.0844 48.1412 121.6862 0.0000 -8.2739 0.0000
# 4 0.0000 0.0000 0.0000 26.7250 0.0000 -2.6691
# 5 -5.6822 2.6542 -8.2739 0.0000 35.1162 0.0000
# 6 0.0000 0.0000 0.0000 -2.6691 0.0000 24.0573
#
#
#
# Elastic Compliance Matrix: (Units=1/GPa)
#
#
# Indices 1 2 3 4 5 6 
#
# 1 0.021752 -0.007666 -0.001373 0.000000 0.003776 0.000000
# 2 -0.007666 0.011872 -0.003251 0.000000 -0.002904 0.000000
# 3 -0.001373 -0.003251 0.009959 0.000000 0.002370 0.000000
# 4 0.000000 0.000000 0.000000 0.037837 0.000000 0.004198
# 5 0.003776 -0.002904 0.002370 0.000000 0.029866 0.000000
# 6 0.000000 0.000000 0.000000 0.004198 0.000000 0.042033
#
#
# Mechanical properties :
#
#
# Convention : Reuss Voigt Hill
#
# Bulk Modulus (GPa) = 52.62356 62.32973 57.47665
# Shear Modulus (GPa) = 27.13927 30.11581 28.62754
#
# Velocity S-wave (km/s) = 3.58505 3.77654 3.68204
# Velocity P-wave (km/s) = 6.48523 6.96666 6.73025
#
# Compressibility (1/GPa) = 0.01900289
#
# Stress axis : x y z
#
# Youngs Moduli (GPa) = 45.97278 84.23061 100.40715
#
# Poissons Ratio (x) = 0.64575 0.13786
# Poissons Ratio (y) = 0.35245 0.32642
# Poissons Ratio (z) = 0.06312 0.27383
#
# Static dielectric constant tensor:
#      x y z
#    x 3.812880 0.000000 -0.156420 
#    y 0.000000 3.771410 0.000000 
#    z -0.156420 0.000000 3.914380 
# 
# 
# High freq. dielectric constant tensor:
#      x y z
#    x 1.828350 0.000000 -0.009620 
#    y 0.000000 1.823830 0.000000 
#    z -0.009620 0.000000 1.835320 
# 
# From -- ./inp_files/65172.got.cif
#   From: 2010.03.12/outbox.cif.g09.slc.cpg/sg5_33_cif.got.tgz:65172.got - 2010.03.31 09:47:26.
