data_PCOD8050120
_publ_section_title
;
Structure prediction by ZEFSAII (Michael W. Deem and Ramdas Pophale) SiO2 
 PCOD8050120
Probable space group: C 2
;
_chemical_formula_sum "Si O2"
_cell_formula_units_Z 28
_cell_length_a 12.295457
_cell_length_b 8.255791
_cell_length_c 14.751391
_cell_angle_alpha 90.000000
_cell_angle_beta 60.219978
_cell_angle_gamma 90.000000
_cell_volume 1299.646933
_symmetry_space_group_name_H-M "C 2"
_symmetry_group_IT_number 5
_symmetry_cell_setting 'monoclinic'
loop_
_space_group_symop_operation_xyz
x,y,z
-x,y,-z
1/2+x,1/2+y,z
1/2-x,1/2+y,-z
loop_
_atom_site_type_symbol
_atom_site_label
_atom_site_fract_x
_atom_site_fract_y
_atom_site_fract_z
Si Si1 0.590195 0.627190 0.335229
Si Si2 0.359390 0.121298 0.542020
Si Si3 0.052025 0.746015 0.885939
Si Si4 0.219697 0.450040 0.255335
Si Si5 0.666113 0.495698 0.487729
Si Si6 0.258322 0.004725 0.115176
Si Si7 0.796249 0.658970 0.911718
O O1 0.608239 0.819937 0.316117
O O2 0.676519 0.574180 0.384450
O O3 0.445508 0.583142 0.410921
O O4 0.635406 0.532962 0.227024
O O5 0.500000 0.058529 0.500000
O O6 0.361398 0.307109 0.512488
O O7 0.295748 0.018302 0.487839
O O8 0.285171 0.090321 0.666729
O O9 0.145702 0.863715 0.794149
O O10 0.120231 0.578279 0.885633
O O11 0.940587 0.708635 0.863705
O O12 0.000000 0.829270 0.000000
O O13 0.206320 0.519213 0.160943
O O14 0.281905 0.814588 0.089741
O O15 0.234450 0.093486 0.029312
#
# Coordination Sequence:
#
# PCOD8050120 Si02
#       7
#     4   4   4   4   4   4   4
#     4  10  22  45  69  98 134 177 227 282 343 401
#     4  12  27  45  69 100 136 181 233 281 345 410
#     4   9  21  43  65  96 137 177 220 274 330 398
#     4  11  25  42  69 105 132 178 228 271 346 407
#     4  11  25  47  71  95 139 177 229 293 340 403
#     4  10  21  40  68  96 132 176 222 268 334 402
#     4  11  22  42  68  95 141 175 216 279 331 403
#
# _framework density 21.544315000000001
#
# number of rings (size 3 to 8) (size 9 to 14) (size 15 to 20)
#    0.000    1.429    1.429    4.286    6.000    2.286 
#    2.571    6.429    0.000    0.000    0.000    0.000 
#    0.000    0.000    0.000    0.000    0.000    0.000 
#
# Total GULP energy -173641.656224 kJ/mol
# GULP energy per Si atom -12402.975445 kJ/mol
# Density = 2.149528 g / cm^3
# Si number density = 21.544315 Si / 1000 Ang^3
#
#
#
# Elastic Constant Matrix: (Units=GPa)
#
#
# Indices 1 2 3 4 5 6 
#
# 1 126.5138 27.8676 49.2552 0.0000 3.6326 0.0000
# 2 27.8676 92.1547 57.8855 0.0000 -7.3046 0.0000
# 3 49.2552 57.8855 140.8339 0.0000 2.5649 0.0000
# 4 0.0000 0.0000 0.0000 43.5908 0.0000 7.2759
# 5 3.6326 -7.3046 2.5649 0.0000 31.5129 0.0000
# 6 0.0000 0.0000 0.0000 7.2759 0.0000 24.9215
#
#
#
# Elastic Compliance Matrix: (Units=1/GPa)
#
#
# Indices 1 2 3 4 5 6 
#
# 1 0.009260 -0.001169 -0.002738 0.000000 -0.001116 0.000000
# 2 -0.001169 0.015267 -0.005942 0.000000 0.004157 0.000000
# 3 -0.002738 -0.005942 0.010535 0.000000 -0.001919 0.000000
# 4 0.000000 0.000000 0.000000 0.024116 0.000000 -0.007041
# 5 -0.001116 0.004157 -0.001919 0.000000 0.032981 0.000000
# 6 0.000000 0.000000 0.000000 -0.007041 0.000000 0.042182
#
#
# Mechanical properties :
#
#
# Convention : Reuss Voigt Hill
#
# Bulk Modulus (GPa) = 65.08447 69.94655 67.51551
# Shear Modulus (GPa) = 31.41524 34.97131 33.19328
#
# Velocity S-wave (km/s) = 3.82274 4.03330 3.92943
# Velocity P-wave (km/s) = 7.05405 7.36389 7.21063
#
# Compressibility (1/GPa) = 0.01536465
#
# Stress axis : x y z
#
# Youngs Moduli (GPa) = 107.99554 65.50288 94.92008
#
# Poissons Ratio (x) = 0.07657 0.25986
# Poissons Ratio (y) = 0.12623 0.56399
# Poissons Ratio (z) = 0.29566 0.38920
#
# Static dielectric constant tensor:
#      x y z
#    x 3.965360 0.000000 -0.077690 
#    y 0.000000 3.875150 0.000000 
#    z -0.077690 0.000000 4.269270 
# 
# 
# High freq. dielectric constant tensor:
#      x y z
#    x 1.836150 0.000000 0.006140 
#    y 0.000000 1.847660 0.000000 
#    z 0.006140 0.000000 1.860240 
# 
# From -- ./inp_files/52373.got.cif
#   From: 2010.03.12/outbox.cif.g09.slc.cpg/sg5_27_cif.got.tgz:52373.got - 2010.03.31 09:47:26.
