data_PCOD8050602
_publ_section_title
;
Structure prediction by ZEFSAII (Michael W. Deem and Ramdas Pophale) SiO2 
 PCOD8050602
Probable space group: C 2
;
_chemical_formula_sum "Si O2"
_cell_formula_units_Z 22
_cell_length_a 7.537345
_cell_length_b 13.472756
_cell_length_c 11.552609
_cell_angle_alpha 90.000000
_cell_angle_beta 85.119747
_cell_angle_gamma 90.000000
_cell_volume 1168.900635
_symmetry_space_group_name_H-M "C 2"
_symmetry_group_IT_number 5
_symmetry_cell_setting 'monoclinic'
loop_
_space_group_symop_operation_xyz
x,y,z
-x,y,-z
1/2+x,1/2+y,z
1/2-x,1/2+y,-z
loop_
_atom_site_type_symbol
_atom_site_label
_atom_site_fract_x
_atom_site_fract_y
_atom_site_fract_z
Si Si1 0.000000 0.901420 0.000000
Si Si2 0.304497 0.060781 0.982287
Si Si3 0.335929 0.666963 0.789044
Si Si4 0.531445 0.311542 0.752838
Si Si5 0.970191 0.019388 0.366346
Si Si6 0.271786 0.669587 0.244823
O O1 0.984796 0.832674 0.888896
O O2 0.174402 0.968094 0.978039
O O3 0.315345 0.118198 0.861399
O O4 0.500000 0.019363 0.000000
O O5 0.239803 0.137556 0.082584
O O6 0.208725 0.745298 0.732941
O O7 0.357611 0.567702 0.708120
O O8 0.532755 0.715354 0.795998
O O9 0.564675 0.409550 0.677588
O O10 0.362966 0.254693 0.705553
O O11 0.797172 0.086965 0.344826
O O12 0.000000 0.017583 0.500000
#
# Coordination Sequence:
#
# PCOD8050602 Si02
#       6
#     2   4   4   4   4   4
#     4  12  22  38  62  98 132 164 202 262 312 390
#     4  12  19  37  67  93 131 170 194 255 333 375
#     4  10  22  41  65  90 131 161 208 257 317 374
#     4  12  22  40  71  93 124 170 209 252 331 370
#     4  10  24  46  65  89 130 166 218 268 296 364
#     4  10  22  41  65  90 131 161 208 257 317 374
#
# _framework density 18.821104999999999
#
# number of rings (size 3 to 8) (size 9 to 14) (size 15 to 20)
#    1.091    0.000    7.273    1.091    0.000    2.909 
#    3.273    0.000    0.000    0.000    0.000    0.000 
#    0.000    0.000    0.000    0.000    0.000    0.000 
#
# Total GULP energy -136372.114397 kJ/mol
# GULP energy per Si atom -12397.464945 kJ/mol
# Density = 1.877827 g / cm^3
# Si number density = 18.821105 Si / 1000 Ang^3
#
#
#
# Elastic Constant Matrix: (Units=GPa)
#
#
# Indices 1 2 3 4 5 6 
#
# 1 127.6253 50.5608 9.2138 0.0000 5.6800 0.0000
# 2 50.5608 111.7818 20.7667 0.0000 14.2137 0.0000
# 3 9.2138 20.7667 78.5499 0.0000 33.1084 0.0000
# 4 0.0000 0.0000 0.0000 3.2406 0.0000 9.2154
# 5 5.6800 14.2137 33.1084 0.0000 21.3728 0.0000
# 6 0.0000 0.0000 0.0000 9.2154 0.0000 42.2200
#
#
#
# Elastic Compliance Matrix: (Units=1/GPa)
#
#
# Indices 1 2 3 4 5 6 
#
# 1 0.009552 -0.004371 -0.000346 0.000000 0.000905 0.000000
# 2 -0.004371 0.011778 0.000607 0.000000 -0.007612 0.000000
# 3 -0.000346 0.000607 0.036714 0.000000 -0.057186 0.000000
# 4 0.000000 0.000000 0.000000 0.813580 0.000000 -0.177581
# 5 0.000905 -0.007612 -0.057186 0.000000 0.140197 0.000000
# 6 0.000000 0.000000 0.000000 -0.177581 0.000000 0.062446
#
#
# Mechanical properties :
#
#
# Convention : Reuss Voigt Hill
#
# Bulk Modulus (GPa) = 20.07040 53.22662 36.64851
# Shear Modulus (GPa) = 4.54919 29.19438 16.87179
#
# Velocity S-wave (km/s) = 1.55638 3.94274 2.99729
# Velocity P-wave (km/s) = 3.73051 7.00490 5.61183
#
# Compressibility (1/GPa) = 0.04982462
#
# Stress axis : x y z
#
# Youngs Moduli (GPa) = 104.69137 84.90203 27.23722
#
# Poissons Ratio (x) = 0.37113 0.00943
# Poissons Ratio (y) = 0.45763 -0.01654
# Poissons Ratio (z) = 0.03623 -0.05156
#
# Static dielectric constant tensor:
#      x y z
#    x 3.658570 0.000000 0.060810 
#    y 0.000000 3.476000 0.000000 
#    z 0.060810 0.000000 3.212270 
# 
# 
# High freq. dielectric constant tensor:
#      x y z
#    x 1.735530 0.000000 0.008950 
#    y 0.000000 1.729250 0.000000 
#    z 0.008950 0.000000 1.711180 
# 
# From -- ./inp_files/35332.got.cif
#   From: 2010.03.12/outbox.cif.g09.slc.cpg/sg5_18_cif.got.tgz:35332.got - 2010.03.31 09:47:26.
