data_PCOD8050305
_publ_section_title
;
Structure prediction by ZEFSAII (Michael W. Deem and Ramdas Pophale) SiO2 
 PCOD8050305
Probable space group: C 2
;
_chemical_formula_sum "Si O2"
_cell_formula_units_Z 24
_cell_length_a 10.244858
_cell_length_b 25.814529
_cell_length_c 5.103738
_cell_angle_alpha 90.000000
_cell_angle_beta 58.334729
_cell_angle_gamma 90.000000
_cell_volume 1148.825703
_symmetry_space_group_name_H-M "C 2"
_symmetry_group_IT_number 5
_symmetry_cell_setting 'monoclinic'
loop_
_space_group_symop_operation_xyz
x,y,z
-x,y,-z
1/2+x,1/2+y,z
1/2-x,1/2+y,-z
loop_
_atom_site_type_symbol
_atom_site_label
_atom_site_fract_x
_atom_site_fract_y
_atom_site_fract_z
Si Si1 0.319953 0.296360 0.746886
Si Si2 0.604329 0.085092 0.142237
Si Si3 0.601189 0.397423 0.137926
Si Si4 0.895648 0.012283 0.865383
Si Si5 0.166990 0.697558 0.928516
Si Si6 0.400407 0.743850 0.356401
O O1 0.500000 0.297101 0.500000
O O2 0.277401 0.350569 0.938469
O O3 0.276700 0.244990 0.952783
O O4 0.212857 0.291882 0.601662
O O5 0.500000 0.073027 0.500000
O O6 0.500000 0.075202 0.000000
O O7 0.750348 0.048619 0.986114
O O8 0.665689 0.144006 0.087585
O O9 0.500000 0.404428 0.500000
O O10 0.673026 0.454241 0.010539
O O11 0.500000 0.379235 0.000000
O O12 0.000000 0.016208 0.500000
O O13 0.000000 0.029711 0.000000
O O14 0.291564 0.695320 0.560123
O O15 0.000000 0.711239 0.000000
O O16 0.500000 0.762611 0.500000
O O17 0.500000 0.726186 0.000000
#
# Coordination Sequence:
#
# PCOD8050305 Si02
#       6
#     4   4   4   4   4   4
#     4  11  21  39  69  92 125 170 218 255 315 378
#     4  11  25  42  67  95 129 169 214 265 316 381
#     4   9  20  35  66  98 122 160 218 270 302 371
#     4  10  21  44  67  96 127 164 218 267 319 370
#     4  11  23  41  67  92 125 170 222 253 309 385
#     4  12  26  41  59  91 137 169 201 264 322 377
#
# _framework density 20.890896000000001
#
# number of rings (size 3 to 8) (size 9 to 14) (size 15 to 20)
#    0.000    1.333    3.333    2.000    4.667    0.667 
#    3.000    0.833    3.667    0.000    0.000    0.000 
#    0.000    0.000    0.000    0.000    0.000    0.000 
#
# Total GULP energy -148703.322408 kJ/mol
# GULP energy per Si atom -12391.943534 kJ/mol
# Density = 2.084335 g / cm^3
# Si number density = 20.890896 Si / 1000 Ang^3
#
#
#
# Elastic Constant Matrix: (Units=GPa)
#
#
# Indices 1 2 3 4 5 6 
#
# 1 153.8644 70.6310 56.3947 0.0000 7.5927 0.0000
# 2 70.6310 142.0783 31.5054 0.0000 -5.5220 0.0000
# 3 56.3947 31.5054 124.7304 0.0000 -0.3719 0.0000
# 4 0.0000 0.0000 0.0000 3.6545 0.0000 -4.3511
# 5 7.5927 -5.5220 -0.3719 0.0000 40.0737 0.0000
# 6 0.0000 0.0000 0.0000 -4.3511 0.0000 19.8322
#
#
#
# Elastic Compliance Matrix: (Units=1/GPa)
#
#
# Indices 1 2 3 4 5 6 
#
# 1 0.009791 -0.004216 -0.003369 0.000000 -0.002467 0.000000
# 2 -0.004216 0.009313 -0.000440 0.000000 0.002078 0.000000
# 3 -0.003369 -0.000440 0.009654 0.000000 0.000667 0.000000
# 4 0.000000 0.000000 0.000000 0.370383 0.000000 0.081260
# 5 -0.002467 0.002078 0.000667 0.000000 0.025714 0.000000
# 6 0.000000 0.000000 0.000000 0.081260 0.000000 0.068251
#
#
# Mechanical properties :
#
#
# Convention : Reuss Voigt Hill
#
# Bulk Modulus (GPa) = 78.69694 81.97059 80.33376
# Shear Modulus (GPa) = 9.73913 30.18823 19.96368
#
# Velocity S-wave (km/s) = 2.16149 3.80550 3.09466
# Velocity P-wave (km/s) = 6.63186 7.65713 7.16287
#
# Compressibility (1/GPa) = 0.01270698
#
# Stress axis : x y z
#
# Youngs Moduli (GPa) = 102.13002 107.38025 103.58655
#
# Poissons Ratio (x) = 0.45275 0.34902
# Poissons Ratio (y) = 0.43061 0.04555
# Poissons Ratio (z) = 0.34412 0.04722
#
# Static dielectric constant tensor:
#      x y z
#    x 3.937330 0.000000 0.187270 
#    y 0.000000 4.161210 0.000000 
#    z 0.187270 0.000000 3.932420 
# 
# 
# High freq. dielectric constant tensor:
#      x y z
#    x 1.825020 0.000000 0.017400 
#    y 0.000000 1.807560 0.000000 
#    z 0.017400 0.000000 1.822500 
# 
# From -- ./inp_files/5915.got.cif
#   From: 2010.03.12/outbox.cif.g09.slc.cpg/sg5_3_cif.got.tgz:5915.got - 2010.03.31 09:47:26.
