data_PCOD8050330
_publ_section_title
;
Structure prediction by ZEFSAII (Michael W. Deem and Ramdas Pophale) SiO2 
 PCOD8050330
Probable space group: C 2
;
_chemical_formula_sum "Si O2"
_cell_formula_units_Z 26
_cell_length_a 22.062991
_cell_length_b 9.932546
_cell_length_c 17.335186
_cell_angle_alpha 90.000000
_cell_angle_beta 162.540328
_cell_angle_gamma 90.000000
_cell_volume 1139.789352
_symmetry_space_group_name_H-M "C 2"
_symmetry_group_IT_number 5
_symmetry_cell_setting 'monoclinic'
loop_
_space_group_symop_operation_xyz
x,y,z
-x,y,-z
1/2+x,1/2+y,z
1/2-x,1/2+y,-z
loop_
_atom_site_type_symbol
_atom_site_label
_atom_site_fract_x
_atom_site_fract_y
_atom_site_fract_z
Si Si1 0.276726 0.932790 0.650179
Si Si2 0.999263 0.091460 0.586000
Si Si3 0.417273 0.352477 0.111047
Si Si4 0.777899 0.487902 0.264631
Si Si5 0.062787 0.538426 0.881927
Si Si6 0.000000 0.201853 0.000000
Si Si7 0.002617 0.362561 0.335157
O O1 0.362899 0.787556 0.775384
O O2 0.107416 0.927736 0.378162
O O3 0.457725 0.025996 0.837795
O O4 0.189313 0.995492 0.623750
O O5 0.000000 0.158542 0.500000
O O6 0.001597 0.201275 0.657983
O O7 0.200883 0.000539 0.829404
O O8 0.453647 0.192987 0.165822
O O9 0.368519 0.391055 0.963396
O O10 0.222311 0.412546 0.918168
O O11 0.816139 0.413156 0.391242
O O12 0.000000 0.523195 0.500000
O O13 0.650735 0.620971 0.127531
O O14 0.951420 0.425792 0.692938
#
# Coordination Sequence:
#
# PCOD8050330 Si02
#       7
#     4   4   4   4   4   2   4
#     4  12  27  43  66 104 140 186 233 290 363 413
#     4  11  24  46  71  98 142 188 239 291 350 425
#     4  10  23  44  68 104 137 182 237 289 349 423
#     4  10  24  45  71 100 138 183 235 289 351 420
#     4  11  24  42  69 101 141 180 234 295 352 422
#     4  12  28  44  66 102 142 182 238 290 358 418
#     4  10  21  45  72 103 135 187 234 291 350 418
#
# _framework density 22.811233999999999
#
# number of rings (size 3 to 8) (size 9 to 14) (size 15 to 20)
#    0.000    1.231    1.538    4.154    6.462    1.846 
#    2.769    0.000    0.000    0.000    0.000    0.000 
#    0.000    0.000    0.000    0.000    0.000    0.000 
#
# Total GULP energy -161091.215553 kJ/mol
# GULP energy per Si atom -12391.631966 kJ/mol
# Density = 2.275931 g / cm^3
# Si number density = 22.811234 Si / 1000 Ang^3
#
#
#
# Elastic Constant Matrix: (Units=GPa)
#
#
# Indices 1 2 3 4 5 6 
#
# 1 109.2730 45.0243 42.0515 0.0018 9.9743 0.0021
# 2 45.0243 96.6877 43.5604 0.0010 7.3521 0.0016
# 3 42.0515 43.5604 120.6481 -0.0018 -6.8110 0.0001
# 4 0.0018 0.0010 -0.0018 40.8058 0.0009 -0.4575
# 5 9.9743 7.3521 -6.8110 0.0009 34.8903 0.0017
# 6 0.0021 0.0016 0.0001 -0.4575 0.0017 46.0129
#
#
#
# Elastic Compliance Matrix: (Units=1/GPa)
#
#
# Indices 1 2 3 4 5 6 
#
# 1 0.012296 -0.004142 -0.002972 -0.000001 -0.003223 0.000000
# 2 -0.004142 0.014188 -0.003823 0.000000 -0.002552 0.000000
# 3 -0.002972 -0.003823 0.010919 0.000001 0.003787 0.000000
# 4 -0.000001 0.000000 0.000001 0.024509 0.000000 0.000244
# 5 -0.003223 -0.002552 0.003787 0.000000 0.030859 -0.000001
# 6 0.000000 0.000000 0.000000 0.000244 -0.000001 0.021735
#
#
# Mechanical properties :
#
#
# Convention : Reuss Voigt Hill
#
# Bulk Modulus (GPa) = 64.39856 65.32013 64.85934
# Shear Modulus (GPa) = 35.32173 37.40666 36.36419
#
# Velocity S-wave (km/s) = 3.93929 4.05388 3.99699
# Velocity P-wave (km/s) = 6.99878 7.11401 7.05663
#
# Compressibility (1/GPa) = 0.01552830
#
# Stress axis : x y z
#
# Youngs Moduli (GPa) = 81.32820 70.48396 91.58676
#
# Poissons Ratio (x) = 0.29192 0.27222
# Poissons Ratio (y) = 0.33683 0.35014
# Poissons Ratio (z) = 0.24173 0.26946
#
# Static dielectric constant tensor:
#      x y z
#    x 4.143840 0.000000 0.051280 
#    y 0.000000 3.764200 0.000000 
#    z 0.051280 0.000000 4.278790 
# 
# 
# High freq. dielectric constant tensor:
#      x y z
#    x 1.897510 0.000000 0.006150 
#    y 0.000000 1.882830 0.000000 
#    z 0.006150 0.000000 1.918290 
# 
# From -- ./inp_files/63328.got.cif
#   From: 2010.03.12/outbox.cif.g09.slc.cpg/sg5_32_cif.got.tgz:63328.got - 2010.03.31 09:47:26.
