data_PCOD8050002
_publ_section_title
;
Structure prediction by ZEFSAII (Michael W. Deem and Ramdas Pophale) SiO2 
 PCOD8050002
Probable space group: C 2
;
_chemical_formula_sum "Si O2"
_cell_formula_units_Z 32
_cell_length_a 8.693325
_cell_length_b 20.126953
_cell_length_c 14.338239
_cell_angle_alpha 90.000000
_cell_angle_beta 41.028460
_cell_angle_gamma 90.000000
_cell_volume 1646.837384
_symmetry_space_group_name_H-M "C 2"
_symmetry_group_IT_number 5
_symmetry_cell_setting 'monoclinic'
loop_
_space_group_symop_operation_xyz
x,y,z
-x,y,-z
1/2+x,1/2+y,z
1/2-x,1/2+y,-z
loop_
_atom_site_type_symbol
_atom_site_label
_atom_site_fract_x
_atom_site_fract_y
_atom_site_fract_z
Si Si1 0.871169 0.952980 0.307859
Si Si2 0.966263 0.826717 0.858409
Si Si3 0.366624 0.195241 0.816879
Si Si4 0.941925 0.451495 0.372151
Si Si5 0.369961 0.825882 0.818575
Si Si6 0.049555 0.189388 0.134444
Si Si7 0.242353 0.068483 0.155271
Si Si8 0.268457 0.085241 0.355113
O O1 0.017434 0.889983 0.212828
O O2 0.685430 0.969273 0.311304
O O3 0.751898 0.936383 0.461220
O O4 0.061767 0.009458 0.226712
O O5 0.194729 0.809807 0.814326
O O6 0.934982 0.772316 0.790831
O O7 0.755348 0.842743 0.026253
O O8 0.579395 0.149135 0.684842
O O9 0.171289 0.178652 0.830369
O O10 0.279950 0.186444 0.963686
O O11 0.863362 0.517019 0.354398
O O12 0.966757 0.387999 0.289936
O O13 0.499244 0.756392 0.782694
O O14 0.095594 0.130520 0.184442
O O15 0.304713 0.081599 0.231043
O O16 0.500000 0.052451 0.000000
O O17 0.000000 0.098677 0.500000
#
# Coordination Sequence:
#
# PCOD8050002 Si02
#       8
#     4   4   4   4   4   4   4   4
#     4  10  22  42  61  90 124 163 203 250 304 366
#     4   9  19  37  62  90 123 157 206 249 299 366
#     4  10  21  40  62  93 124 158 202 258 306 359
#     4  10  22  42  62  87 127 163 201 249 307 365
#     4   9  19  36  64  90 119 163 200 250 306 360
#     4  10  21  39  64  93 123 156 205 257 305 358
#     4  12  24  40  64  91 122 163 207 255 305 359
#     4  12  24  42  62  89 125 166 204 253 307 363
#
# _framework density 19.431183000000001
#
# number of rings (size 3 to 8) (size 9 to 14) (size 15 to 20)
#    0.000    1.750    2.500    1.500    3.500    1.000 
#    9.000    0.000    0.000    0.000    0.000    0.000 
#    0.000    0.000    0.000    0.000    0.000    0.000 
#
# Total GULP energy -198227.642997 kJ/mol
# GULP energy per Si atom -12389.227687 kJ/mol
# Density = 1.938696 g / cm^3
# Si number density = 19.431183 Si / 1000 Ang^3
#
#
#
# Elastic Constant Matrix: (Units=GPa)
#
#
# Indices 1 2 3 4 5 6 
#
# 1 90.1023 91.8437 75.3440 0.0001 23.8494 -0.0001
# 2 91.8437 201.7849 119.5126 0.0000 21.3377 -0.0001
# 3 75.3440 119.5126 151.3191 0.0002 14.6880 -0.0003
# 4 0.0001 0.0000 0.0002 39.3211 0.0000 6.7843
# 5 23.8494 21.3377 14.6880 0.0000 41.0085 0.0001
# 6 -0.0001 -0.0001 -0.0003 6.7843 0.0001 44.8820
#
#
#
# Elastic Compliance Matrix: (Units=1/GPa)
#
#
# Indices 1 2 3 4 5 6 
#
# 1 0.026268 -0.007072 -0.006597 0.000000 -0.009234 0.000000
# 2 -0.007072 0.011428 -0.005518 0.000000 0.000143 0.000000
# 3 -0.006597 -0.005518 0.014091 0.000000 0.001661 0.000000
# 4 0.000000 0.000000 0.000000 0.026113 0.000000 -0.003947
# 5 -0.009234 0.000143 0.001661 0.000000 0.029086 0.000000
# 6 0.000000 0.000000 0.000000 -0.003947 0.000000 0.022877
#
#
# Mechanical properties :
#
#
# Convention : Reuss Voigt Hill
#
# Bulk Modulus (GPa) = 74.56583 112.95632 93.76107
# Shear Modulus (GPa) = 28.95031 35.47607 32.21319
#
# Velocity S-wave (km/s) = 3.86410 4.27749 4.07604
# Velocity P-wave (km/s) = 7.63976 9.09140 8.39701
#
# Compressibility (1/GPa) = 0.01341097
#
# Stress axis : x y z
#
# Youngs Moduli (GPa) = 38.06845 87.50374 70.96862
#
# Poissons Ratio (x) = 0.61885 0.46821
# Poissons Ratio (y) = 0.26923 0.39164
# Poissons Ratio (z) = 0.25115 0.48289
#
# Static dielectric constant tensor:
#      x y z
#    x 3.592340 0.000000 0.041910 
#    y 0.000000 3.562460 0.000000 
#    z 0.041910 0.000000 3.595660 
# 
# 
# High freq. dielectric constant tensor:
#      x y z
#    x 1.765160 0.000000 0.003650 
#    y 0.000000 1.765620 0.000000 
#    z 0.003650 0.000000 1.750260 
# 
# From -- ./inp_files/51551.got.cif
#   From: 2010.03.12/outbox.cif.g09.slc.cpg/sg5_26_cif.got.tgz:51551.got - 2010.03.31 09:47:26.
