data_PCOD8050639
_publ_section_title
;
Structure prediction by ZEFSAII (Michael W. Deem and Ramdas Pophale) SiO2 
 PCOD8050639
Probable space group: C 2
;
_chemical_formula_sum "Si O2"
_cell_formula_units_Z 28
_cell_length_a 20.523415
_cell_length_b 7.869018
_cell_length_c 16.057087
_cell_angle_alpha 90.000000
_cell_angle_beta 28.725668
_cell_angle_gamma 90.000000
_cell_volume 1246.337077
_symmetry_space_group_name_H-M "C 2"
_symmetry_group_IT_number 5
_symmetry_cell_setting 'monoclinic'
loop_
_space_group_symop_operation_xyz
x,y,z
-x,y,-z
1/2+x,1/2+y,z
1/2-x,1/2+y,-z
loop_
_atom_site_type_symbol
_atom_site_label
_atom_site_fract_x
_atom_site_fract_y
_atom_site_fract_z
Si Si1 0.080965 0.431240 0.656120
Si Si2 0.368033 0.378755 0.953461
Si Si3 0.707156 0.247893 0.789971
Si Si4 0.890758 0.561181 0.552901
Si Si5 0.159031 0.900423 0.329743
Si Si6 0.136466 0.758163 0.690193
Si Si7 0.700929 0.761666 0.987385
O O1 0.048580 0.532558 0.606801
O O2 0.113741 0.563437 0.691541
O O3 0.209254 0.308401 0.501973
O O4 0.951349 0.322086 0.826258
O O5 0.531638 0.380142 0.756302
O O6 0.289900 0.272786 0.970982
O O7 0.363398 0.264122 0.041954
O O8 0.305761 0.565278 0.032910
O O9 0.818168 0.394904 0.665958
O O10 0.609228 0.275972 0.820413
O O11 0.775090 0.064533 0.702120
O O12 0.804409 0.737858 0.651476
O O13 0.000000 0.606999 0.500000
O O14 0.224522 0.872296 0.165520
O O15 0.000000 0.939506 0.500000
#
# Coordination Sequence:
#
# PCOD8050639 Si02
#       7
#     4   4   4   4   4   4   4
#     4  11  25  45  71 107 143 195 238 308 360 444
#     4  12  25  46  71 106 148 185 250 306 365 436
#     4  11  23  45  67 102 143 194 237 295 359 441
#     4  10  22  41  70 100 144 184 236 301 363 424
#     4  11  25  42  73 109 141 190 242 301 370 435
#     4  11  26  43  71 100 149 190 239 296 371 435
#     4  12  26  46  75 107 142 191 245 310 368 425
#
# _framework density 22.465831999999999
#
# number of rings (size 3 to 8) (size 9 to 14) (size 15 to 20)
#    0.000    0.857    1.429    5.143    8.000    3.429 
#    0.000    0.000    0.000    0.000    0.000    0.000 
#    0.000    0.000    0.000    0.000    0.000    0.000 
#
# Total GULP energy -173583.712451 kJ/mol
# GULP energy per Si atom -12398.836604 kJ/mol
# Density = 2.241470 g / cm^3
# Si number density = 22.465832 Si / 1000 Ang^3
#
#
#
# Elastic Constant Matrix: (Units=GPa)
#
#
# Indices 1 2 3 4 5 6 
#
# 1 109.7442 40.5843 50.7274 0.0004 -14.0459 0.0004
# 2 40.5843 142.6705 29.6086 -0.0005 -8.9946 -0.0015
# 3 50.7274 29.6086 108.9186 0.0003 -9.9704 -0.0004
# 4 0.0004 -0.0005 0.0003 38.1464 0.0009 -4.9382
# 5 -14.0459 -8.9946 -9.9704 0.0009 34.9439 0.0006
# 6 0.0004 -0.0015 -0.0004 -4.9382 0.0006 18.5153
#
#
#
# Elastic Compliance Matrix: (Units=1/GPa)
#
#
# Indices 1 2 3 4 5 6 
#
# 1 0.012688 -0.002382 -0.004981 0.000000 0.003066 -0.000001
# 2 -0.002382 0.007940 -0.000975 0.000000 0.000808 0.000001
# 3 -0.004981 -0.000975 0.011870 0.000000 0.001134 0.000000
# 4 0.000000 0.000000 0.000000 0.027152 -0.000001 0.007242
# 5 0.003066 0.000808 0.001134 -0.000001 0.030381 -0.000001
# 6 -0.000001 0.000001 0.000000 0.007242 -0.000001 0.055941
#
#
# Mechanical properties :
#
#
# Convention : Reuss Voigt Hill
#
# Bulk Modulus (GPa) = 63.20577 67.01932 65.11255
# Shear Modulus (GPa) = 29.77573 34.34865 32.06219
#
# Velocity S-wave (km/s) = 3.64452 3.91439 3.78187
# Velocity P-wave (km/s) = 6.77535 7.09411 6.93656
#
# Compressibility (1/GPa) = 0.01582134
#
# Stress axis : x y z
#
# Youngs Moduli (GPa) = 78.81598 125.94310 84.24739
#
# Poissons Ratio (x) = 0.30002 0.41963
# Poissons Ratio (y) = 0.18776 0.08214
# Poissons Ratio (z) = 0.39258 0.12279
#
# Static dielectric constant tensor:
#      x y z
#    x 4.245310 -0.000010 0.119450 
#    y -0.000010 4.140070 0.000000 
#    z 0.119450 0.000000 4.147950 
# 
# 
# High freq. dielectric constant tensor:
#      x y z
#    x 1.889090 0.000000 0.001800 
#    y 0.000000 1.896660 0.000000 
#    z 0.001800 0.000000 1.892310 
# 
# From -- ./inp_files/62712.got.cif
#   From: 2010.03.12/outbox.cif.g09.slc.cpg/sg5_32_cif.got.tgz:62712.got - 2010.03.31 09:47:26.
