data_PCOD8050292
_publ_section_title
;
Structure prediction by ZEFSAII (Michael W. Deem and Ramdas Pophale) SiO2 
 PCOD8050292
Probable space group: C 2
;
_chemical_formula_sum "Si O2"
_cell_formula_units_Z 16
_cell_length_a 8.409478
_cell_length_b 10.924520
_cell_length_c 8.416149
_cell_angle_alpha 90.000000
_cell_angle_beta 118.353846
_cell_angle_gamma 90.000000
_cell_volume 680.429286
_symmetry_space_group_name_H-M "C 2"
_symmetry_group_IT_number 5
_symmetry_cell_setting 'monoclinic'
loop_
_space_group_symop_operation_xyz
x,y,z
-x,y,-z
1/2+x,1/2+y,z
1/2-x,1/2+y,-z
loop_
_atom_site_type_symbol
_atom_site_label
_atom_site_fract_x
_atom_site_fract_y
_atom_site_fract_z
Si Si1 0.005117 0.008930 0.326796
Si Si2 0.197161 0.663741 0.666840
Si Si3 0.656711 0.298178 0.956672
Si Si4 0.518732 0.779365 0.682140
O O1 0.902789 0.139757 0.296426
O O2 0.000000 0.948177 0.500000
O O3 0.203603 0.037578 0.341859
O O4 0.902222 0.918832 0.163193
O O5 0.191563 0.683125 0.854729
O O6 0.316981 0.778852 0.659644
O O7 0.000000 0.667612 0.500000
O O8 0.500000 0.254035 0.000000
O O9 0.836441 0.343869 0.135070
O O10 0.500000 0.842278 0.500000
#
# Coordination Sequence:
#
# PCOD8050292 Si02
#       4
#     4   4   4   4
#     4   9  23  45  73 102 139 184 236 287 347 416
#     4  10  21  43  72  98 143 185 225 291 343 410
#     4  12  24  38  74 107 142 181 234 286 349 419
#     4   9  21  44  71  98 143 185 230 290 346 411
#
# _framework density 23.514565000000001
#
# number of rings (size 3 to 8) (size 9 to 14) (size 15 to 20)
#    1.500    0.500    0.000    3.000    3.500    0.000 
#    0.000   11.250    0.000    0.000    0.000    0.000 
#    0.000    0.000    0.000    0.000    0.000    0.000 
#
# Total GULP energy -99110.489893 kJ/mol
# GULP energy per Si atom -12388.811237 kJ/mol
# Density = 2.346105 g / cm^3
# Si number density = 23.514565 Si / 1000 Ang^3
#
#
#
# Elastic Constant Matrix: (Units=GPa)
#
#
# Indices 1 2 3 4 5 6 
#
# 1 146.8878 37.8435 100.0572 0.0000 3.2318 0.0000
# 2 37.8435 48.6428 41.2823 0.0000 -0.8135 0.0000
# 3 100.0572 41.2823 226.3276 0.0000 5.9141 0.0000
# 4 0.0000 0.0000 0.0000 34.1616 0.0000 3.3795
# 5 3.2318 -0.8135 5.9141 0.0000 58.7777 0.0000
# 6 0.0000 0.0000 0.0000 3.3795 0.0000 19.2149
#
#
#
# Elastic Compliance Matrix: (Units=1/GPa)
#
#
# Indices 1 2 3 4 5 6 
#
# 1 0.010721 -0.005122 -0.003798 0.000000 -0.000278 0.000000
# 2 -0.005122 0.026807 -0.002649 0.000000 0.000919 0.000000
# 3 -0.003798 -0.002649 0.006593 0.000000 -0.000491 0.000000
# 4 0.000000 0.000000 0.000000 0.029791 0.000000 -0.005240
# 5 -0.000278 0.000919 -0.000491 0.000000 0.017091 0.000000
# 6 0.000000 0.000000 0.000000 -0.005240 0.000000 0.052965
#
#
# Mechanical properties :
#
#
# Convention : Reuss Voigt Hill
#
# Bulk Modulus (GPa) = 47.65882 86.69155 67.17518
# Shear Modulus (GPa) = 28.71922 38.60920 33.66421
#
# Velocity S-wave (km/s) = 3.49856 4.05647 3.78780
# Velocity P-wave (km/s) = 6.05241 7.67379 6.91082
#
# Compressibility (1/GPa) = 0.02098248
#
# Stress axis : x y z
#
# Youngs Moduli (GPa) = 93.27675 37.30433 151.66468
#
# Poissons Ratio (x) = 0.19107 0.57603
# Poissons Ratio (y) = 0.47776 0.40179
# Poissons Ratio (z) = 0.35427 0.09883
#
# Static dielectric constant tensor:
#      x y z
#    x 4.302430 0.000000 -0.305280 
#    y 0.000000 3.721310 0.000000 
#    z -0.305280 0.000000 4.341020 
# 
# 
# High freq. dielectric constant tensor:
#      x y z
#    x 1.934130 0.000000 -0.011260 
#    y 0.000000 1.895690 0.000000 
#    z -0.011260 0.000000 1.940480 
# 
# From -- ./inp_files/13879.got.cif
#   From: 2010.03.12/outbox.cif.g09.slc.cpg/sg5_7_cif.got.tgz:13879.got - 2010.03.31 09:47:26.
