data_PCOD8050852
_publ_section_title
;
Structure prediction by ZEFSAII (Michael W. Deem and Ramdas Pophale) SiO2 
 PCOD8050852
Probable space group: C 2
;
_chemical_formula_sum "Si O2"
_cell_formula_units_Z 32
_cell_length_a 24.768614
_cell_length_b 8.686204
_cell_length_c 14.164633
_cell_angle_alpha 90.000000
_cell_angle_beta 27.061888
_cell_angle_gamma 90.000000
_cell_volume 1386.446961
_symmetry_space_group_name_H-M "C 2"
_symmetry_group_IT_number 5
_symmetry_cell_setting 'monoclinic'
loop_
_space_group_symop_operation_xyz
x,y,z
-x,y,-z
1/2+x,1/2+y,z
1/2-x,1/2+y,-z
loop_
_atom_site_type_symbol
_atom_site_label
_atom_site_fract_x
_atom_site_fract_y
_atom_site_fract_z
Si Si1 0.135762 0.260870 0.319921
Si Si2 0.374171 0.846402 0.974806
Si Si3 0.573292 0.257898 0.621376
Si Si4 0.854281 0.630158 0.885895
Si Si5 0.715489 0.092663 0.556537
Si Si6 0.677863 0.108935 0.271471
Si Si7 0.786689 0.049226 0.640701
Si Si8 0.580684 0.791189 0.784404
O O1 0.192385 0.426496 0.251866
O O2 0.140544 0.167193 0.409469
O O3 0.000000 0.269405 0.500000
O O4 0.215918 0.171108 0.117727
O O5 0.306080 0.687926 0.063795
O O6 0.311202 0.952972 0.150762
O O7 0.503255 0.794360 0.810074
O O8 0.381399 0.949626 0.868431
O O9 0.430653 0.242583 0.835699
O O10 0.613548 0.176761 0.655535
O O11 0.614772 0.165807 0.463759
O O12 0.615572 0.432931 0.555316
O O13 0.890575 0.652896 0.719671
O O14 0.721137 0.142920 0.658496
O O15 0.847682 0.131065 0.309090
O O16 0.688310 0.911466 0.601873
O O17 0.500000 0.829365 0.000000
#
# Coordination Sequence:
#
# PCOD8050852 Si02
#       8
#     4   4   4   4   4   4   4   4
#     4  11  26  44  66 101 141 181 236 300 354 427
#     4  10  22  44  69  96 139 187 228 298 360 428
#     4  11  23  42  65  99 137 181 237 287 352 433
#     4  11  23  41  70  96 134 188 232 285 366 422
#     4  12  24  43  74 103 139 193 236 296 368 427
#     4  11  24  42  66  99 134 180 240 288 358 427
#     4  10  24  44  68 102 137 186 237 294 360 432
#     4  12  24  47  74 103 149 189 239 298 365 434
#
# _framework density 23.080580000000001
#
# number of rings (size 3 to 8) (size 9 to 14) (size 15 to 20)
#    0.000    1.000    3.750    2.625    1.750    7.000 
#    0.000    1.250    0.000    0.000    0.000    0.000 
#    0.000    0.000    0.000    0.000    0.000    0.000 
#
# Total GULP energy -198338.142774 kJ/mol
# GULP energy per Si atom -12396.133923 kJ/mol
# Density = 2.302805 g / cm^3
# Si number density = 23.080580 Si / 1000 Ang^3
#
#
#
# Elastic Constant Matrix: (Units=GPa)
#
#
# Indices 1 2 3 4 5 6 
#
# 1 156.1852 64.8651 47.5678 0.0000 -4.2537 0.0000
# 2 64.8651 111.6339 45.3646 0.0000 -8.2587 0.0000
# 3 47.5678 45.3646 87.7056 0.0000 -20.7162 0.0000
# 4 0.0000 0.0000 0.0000 31.2322 0.0000 -2.7982
# 5 -4.2537 -8.2587 -20.7162 0.0000 38.0897 0.0000
# 6 0.0000 0.0000 0.0000 -2.7982 0.0000 32.1550
#
#
#
# Elastic Compliance Matrix: (Units=1/GPa)
#
#
# Indices 1 2 3 4 5 6 
#
# 1 0.009012 -0.004071 -0.003159 0.000000 -0.001594 0.000000
# 2 -0.004071 0.013204 -0.004650 0.000000 -0.000121 0.000000
# 3 -0.003159 -0.004650 0.017439 0.000000 0.008124 0.000000
# 4 0.000000 0.000000 0.000000 0.032270 0.000000 0.002808
# 5 -0.001594 -0.000121 0.008124 0.000000 0.030468 0.000000
# 6 0.000000 0.000000 0.000000 0.002808 0.000000 0.031344
#
#
# Mechanical properties :
#
#
# Convention : Reuss Voigt Hill
#
# Bulk Modulus (GPa) = 62.91119 74.56885 68.74002
# Shear Modulus (GPa) = 30.71361 33.47719 32.09540
#
# Velocity S-wave (km/s) = 3.65185 3.81261 3.73309
# Velocity P-wave (km/s) = 6.71548 7.19441 6.95907
#
# Compressibility (1/GPa) = 0.01589542
#
# Stress axis : x y z
#
# Youngs Moduli (GPa) = 110.96520 75.73496 57.34248
#
# Poissons Ratio (x) = 0.30829 0.18113
# Poissons Ratio (y) = 0.45170 0.26666
# Poissons Ratio (z) = 0.35050 0.35219
#
# Static dielectric constant tensor:
#      x y z
#    x 4.485240 0.000000 -0.077870 
#    y 0.000000 4.130440 0.000000 
#    z -0.077870 0.000000 4.105430 
# 
# 
# High freq. dielectric constant tensor:
#      x y z
#    x 1.934880 0.000000 -0.006740 
#    y 0.000000 1.901990 0.000000 
#    z -0.006740 0.000000 1.900090 
# 
# From -- ./inp_files/57700.got.cif
#   From: 2010.03.12/outbox.cif.g09.slc.cpg/sg5_29_cif.got.tgz:57700.got - 2010.03.31 09:47:26.
