data_PCOD8050089
_publ_section_title
;
Structure prediction by ZEFSAII (Michael W. Deem and Ramdas Pophale) SiO2 
 PCOD8050089
Probable space group: C 2
;
_chemical_formula_sum "Si O2"
_cell_formula_units_Z 32
_cell_length_a 14.828824
_cell_length_b 21.137273
_cell_length_c 9.256779
_cell_angle_alpha 90.000000
_cell_angle_beta 32.648048
_cell_angle_gamma 90.000000
_cell_volume 1565.267452
_symmetry_space_group_name_H-M "C 2"
_symmetry_group_IT_number 5
_symmetry_cell_setting 'monoclinic'
loop_
_space_group_symop_operation_xyz
x,y,z
-x,y,-z
1/2+x,1/2+y,z
1/2-x,1/2+y,-z
loop_
_atom_site_type_symbol
_atom_site_label
_atom_site_fract_x
_atom_site_fract_y
_atom_site_fract_z
Si Si1 0.305217 0.829600 0.771014
Si Si2 0.331460 0.969087 0.817029
Si Si3 0.673749 0.259271 0.701100
Si Si4 0.408953 0.572460 0.983336
Si Si5 0.482400 0.262317 0.683991
Si Si6 0.590528 0.122822 0.510422
Si Si7 0.916182 0.546085 0.969019
Si Si8 0.127439 0.140570 0.454348
O O1 0.500000 0.812491 0.500000
O O2 0.264841 0.897401 0.894235
O O3 0.237499 0.822340 0.697659
O O4 0.200706 0.779114 0.007272
O O5 0.500000 0.972297 0.500000
O O6 0.191235 0.013666 0.942413
O O7 0.356244 0.987106 0.952310
O O8 0.637736 0.279809 0.582528
O O9 0.802475 0.201368 0.552586
O O10 0.500000 0.233838 0.000000
O O11 0.285651 0.628965 0.206062
O O12 0.500000 0.544960 0.000000
O O13 0.532752 0.598077 0.697400
O O14 0.500000 0.293166 0.500000
O O15 0.488933 0.187179 0.662983
O O16 0.500000 0.085043 0.500000
O O17 0.568316 0.082418 0.684765
O O18 0.769371 0.596537 0.192899
O O19 0.000000 0.518098 0.000000
O O20 0.000000 0.162886 0.500000
#
# Coordination Sequence:
#
# PCOD8050089 Si02
#       8
#     4   4   4   4   4   4   4   4
#     4  10  23  44  67  86 119 168 225 263 300 368
#     4  11  23  45  64  86 123 175 216 250 312 388
#     4  10  21  40  64  94 125 171 212 244 316 391
#     4  12  23  37  59  96 132 164 202 253 314 378
#     4  10  22  40  65  96 125 165 206 262 320 368
#     4  11  20  40  63  87 132 171 200 239 317 399
#     4  12  21  38  64  92 127 168 209 256 317 376
#     4  12  23  37  62 103 133 156 201 272 316 360
#
# _framework density 20.443788999999999
#
# number of rings (size 3 to 8) (size 9 to 14) (size 15 to 20)
#    0.000    1.000    3.750    4.500    0.000    5.500 
#    2.250    4.375    0.000    0.000    0.000    0.000 
#    0.000    0.000    0.000    0.000    0.000    0.000 
#
# Total GULP energy -198291.027123 kJ/mol
# GULP energy per Si atom -12393.189195 kJ/mol
# Density = 2.039726 g / cm^3
# Si number density = 20.443789 Si / 1000 Ang^3
#
#
#
# Elastic Constant Matrix: (Units=GPa)
#
#
# Indices 1 2 3 4 5 6 
#
# 1 192.1935 43.0127 43.8791 -0.0007 14.3257 0.0007
# 2 43.0127 97.3510 27.1027 -0.0009 0.3538 0.0006
# 3 43.8791 27.1027 89.4001 -0.0030 1.6324 0.0009
# 4 -0.0007 -0.0009 -0.0030 24.8033 0.0006 -0.3107
# 5 14.3257 0.3538 1.6324 0.0006 35.4454 -0.0001
# 6 0.0007 0.0006 0.0009 -0.3107 -0.0001 24.6977
#
#
#
# Elastic Compliance Matrix: (Units=1/GPa)
#
#
# Indices 1 2 3 4 5 6 
#
# 1 0.006429 -0.002147 -0.002460 0.000000 -0.002464 0.000000
# 2 -0.002147 0.011936 -0.002581 0.000000 0.000867 0.000000
# 3 -0.002460 -0.002581 0.013168 0.000001 0.000413 0.000000
# 4 0.000000 0.000000 0.000001 0.040324 -0.000001 0.000507
# 5 -0.002464 0.000867 0.000413 -0.000001 0.029180 0.000000
# 6 0.000000 0.000000 0.000000 0.000507 0.000000 0.040496
#
#
# Mechanical properties :
#
#
# Convention : Reuss Voigt Hill
#
# Bulk Modulus (GPa) = 58.28056 67.43708 62.85882
# Shear Modulus (GPa) = 30.93569 34.65261 32.79415
#
# Velocity S-wave (km/s) = 3.89422 4.12153 4.00948
# Velocity P-wave (km/s) = 6.98495 7.46375 7.22831
#
# Compressibility (1/GPa) = 0.01715838
#
# Stress axis : x y z
#
# Youngs Moduli (GPa) = 155.55314 83.78082 75.94357
#
# Poissons Ratio (x) = 0.17985 0.18678
# Poissons Ratio (y) = 0.33393 0.19599
# Poissons Ratio (z) = 0.38259 0.21621
#
# Static dielectric constant tensor:
#      x y z
#    x 4.328230 0.000000 0.142180 
#    y 0.000000 3.655230 0.000000 
#    z 0.142180 0.000000 3.840150 
# 
# 
# High freq. dielectric constant tensor:
#      x y z
#    x 1.821940 0.000000 0.000840 
#    y 0.000000 1.770610 0.000000 
#    z 0.000840 0.000000 1.801110 
# 
# From -- ./inp_files/25604.got.cif
#   From: 2010.03.12/outbox.cif.g09.slc.cpg/sg5_13_cif.got.tgz:25604.got - 2010.03.31 09:47:26.
