data_PCOD8050636
_publ_section_title
;
Structure prediction by ZEFSAII (Michael W. Deem and Ramdas Pophale) SiO2 
 PCOD8050636
Probable space group: C 2
;
_chemical_formula_sum "Si O2"
_cell_formula_units_Z 32
_cell_length_a 21.386466
_cell_length_b 16.761464
_cell_length_c 11.327828
_cell_angle_alpha 90.000000
_cell_angle_beta 21.637415
_cell_angle_gamma 90.000000
_cell_volume 1497.297213
_symmetry_space_group_name_H-M "C 2"
_symmetry_group_IT_number 5
_symmetry_cell_setting 'monoclinic'
loop_
_space_group_symop_operation_xyz
x,y,z
-x,y,-z
1/2+x,1/2+y,z
1/2-x,1/2+y,-z
loop_
_atom_site_type_symbol
_atom_site_label
_atom_site_fract_x
_atom_site_fract_y
_atom_site_fract_z
Si Si1 0.373488 0.432510 0.333535
Si Si2 0.262744 0.714922 0.817689
Si Si3 0.740409 0.566762 0.322659
Si Si4 0.699885 0.634477 0.635987
Si Si5 0.012688 0.367648 0.609567
Si Si6 0.101151 0.489437 0.646695
Si Si7 0.899986 0.762370 0.397041
Si Si8 0.683728 0.285248 0.203251
O O1 0.402422 0.503838 0.379113
O O2 0.181181 0.441906 0.618928
O O3 0.400630 0.354531 0.362559
O O4 0.500000 0.439356 0.000000
O O5 0.318996 0.624040 0.683065
O O6 0.398037 0.780915 0.539285
O O7 0.238908 0.724520 0.001291
O O8 0.089289 0.729396 0.050919
O O9 0.770525 0.624648 0.380165
O O10 0.908100 0.516168 0.000521
O O11 0.783283 0.568045 0.576278
O O12 0.765719 0.722061 0.547511
O O13 0.500000 0.629774 0.000000
O O14 0.111716 0.431202 0.515243
O O15 0.000000 0.401908 0.500000
O O16 0.818059 0.355740 0.990251
O O17 0.833860 0.739193 0.643291
O O18 0.500000 0.325177 0.500000
#
# Coordination Sequence:
#
# PCOD8050636 Si02
#       8
#     4   4   4   4   4   4   4   4
#     4  11  24  39  64  99 139 174 222 276 340 405
#     4  10  22  41  69  91 130 176 224 274 334 393
#     4  11  23  41  61  90 138 171 213 272 337 389
#     4  11  25  39  61  97 137 175 221 276 335 403
#     4  10  22  42  70  98 128 173 227 277 328 400
#     4  11  22  41  62  97 136 174 219 274 338 400
#     4  11  23  40  67  96 129 182 225 275 338 401
#     4   9  21  42  63  97 130 165 227 283 322 389
#
# _framework density 21.371842000000001
#
# number of rings (size 3 to 8) (size 9 to 14) (size 15 to 20)
#    0.000    1.500    1.250    4.500    5.250    1.000 
#    2.250    1.250    0.000   16.500    0.000    0.000 
#    0.000    0.000    0.000    0.000    0.000    0.000 
#
# Total GULP energy -198227.073385 kJ/mol
# GULP energy per Si atom -12389.192087 kJ/mol
# Density = 2.132320 g / cm^3
# Si number density = 21.371842 Si / 1000 Ang^3
#
#
#
# Elastic Constant Matrix: (Units=GPa)
#
#
# Indices 1 2 3 4 5 6 
#
# 1 72.5112 51.6983 27.5271 0.0023 9.7988 -0.0051
# 2 51.6983 113.1279 38.7527 -0.0011 16.0978 -0.0025
# 3 27.5271 38.7527 98.6578 -0.0004 8.8160 -0.0052
# 4 0.0023 -0.0011 -0.0004 25.0779 0.0006 -3.2188
# 5 9.7988 16.0978 8.8160 0.0006 25.0963 0.0030
# 6 -0.0051 -0.0025 -0.0052 -3.2188 0.0030 42.9224
#
#
#
# Elastic Compliance Matrix: (Units=1/GPa)
#
#
# Indices 1 2 3 4 5 6 
#
# 1 0.021022 -0.008532 -0.002343 -0.000002 -0.001912 0.000002
# 2 -0.008532 0.014411 -0.002841 0.000002 -0.004915 0.000000
# 3 -0.002343 -0.002841 0.012039 0.000000 -0.001492 0.000001
# 4 -0.000002 0.000002 0.000000 0.040263 -0.000002 0.003019
# 5 -0.001912 -0.004915 -0.001492 -0.000002 0.044270 -0.000004
# 6 0.000002 0.000000 0.000001 0.003019 -0.000004 0.023524
#
#
# Mechanical properties :
#
#
# Convention : Reuss Voigt Hill
#
# Bulk Modulus (GPa) = 49.90079 57.80590 53.85335
# Shear Modulus (GPa) = 26.36549 29.70723 28.03636
#
# Velocity S-wave (km/s) = 3.51615 3.73234 3.62586
# Velocity P-wave (km/s) = 6.31538 6.75871 6.54080
#
# Compressibility (1/GPa) = 0.02003976
#
# Stress axis : x y z
#
# Youngs Moduli (GPa) = 47.56920 69.39089 83.06287
#
# Poissons Ratio (x) = 0.59205 0.19464
# Poissons Ratio (y) = 0.40586 0.23598
# Poissons Ratio (z) = 0.11147 0.19713
#
# Static dielectric constant tensor:
#      x y z
#    x 3.974390 0.000000 0.001450 
#    y 0.000000 3.792510 0.000010 
#    z 0.001450 0.000010 4.107670 
# 
# 
# High freq. dielectric constant tensor:
#      x y z
#    x 1.828970 0.000000 0.003050 
#    y 0.000000 1.825310 0.000000 
#    z 0.003050 0.000000 1.850730 
# 
# From -- ./inp_files/47563.got.cif
#   From: 2010.03.12/outbox.cif.g09.slc.cpg/sg5_24_cif.got.tgz:47563.got - 2010.03.31 09:47:26.
