data_PCOD8050653
_publ_section_title
;
Structure prediction by ZEFSAII (Michael W. Deem and Ramdas Pophale) SiO2 
 PCOD8050653
Probable space group: C 2
;
_chemical_formula_sum "Si O2"
_cell_formula_units_Z 26
_cell_length_a 10.924666
_cell_length_b 8.515167
_cell_length_c 24.441549
_cell_angle_alpha 90.000000
_cell_angle_beta 150.563825
_cell_angle_gamma 90.000000
_cell_volume 1117.410345
_symmetry_space_group_name_H-M "C 2"
_symmetry_group_IT_number 5
_symmetry_cell_setting 'monoclinic'
loop_
_space_group_symop_operation_xyz
x,y,z
-x,y,-z
1/2+x,1/2+y,z
1/2-x,1/2+y,-z
loop_
_atom_site_type_symbol
_atom_site_label
_atom_site_fract_x
_atom_site_fract_y
_atom_site_fract_z
Si Si1 0.316234 0.647600 0.837314
Si Si2 0.381034 0.082903 0.038551
Si Si3 0.673499 0.798343 0.799804
Si Si4 0.848441 0.395533 0.766589
Si Si5 0.742614 0.216509 0.560717
Si Si6 0.428537 0.548384 0.529897
Si Si7 0.500000 0.831207 0.000000
O O1 0.194882 0.477076 0.785448
O O2 0.200909 0.768028 0.747315
O O3 0.288897 0.724539 0.887304
O O4 0.612817 0.652401 0.945014
O O5 0.556278 0.224250 0.085736
O O6 0.504154 0.024437 0.142283
O O7 0.352946 0.941451 0.984935
O O8 0.546794 0.795355 0.809461
O O9 0.502304 0.687175 0.693881
O O10 0.669448 0.484055 0.654874
O O11 0.500000 0.150897 0.500000
O O12 0.733551 0.403103 0.553433
O O13 0.759037 0.148631 0.505590
O O14 0.500000 0.639168 0.500000
#
# Coordination Sequence:
#
# PCOD8050653 Si02
#       7
#     4   4   4   4   4   4   2
#     4  11  25  40  65 100 137 175 228 274 345 412
#     4  11  23  42  65  97 138 177 227 275 341 410
#     4  12  23  42  70  98 133 182 228 285 351 408
#     4  11  23  42  67  98 134 181 224 289 347 414
#     4  11  25  46  71 102 138 178 235 295 352 416
#     4  11  24  47  71 102 140 178 237 295 352 420
#     4  10  22  42  58  94 134 174 216 274 320 400
#
# _framework density 23.268084999999999
#
# number of rings (size 3 to 8) (size 9 to 14) (size 15 to 20)
#    0.000    0.923    4.615    3.692    2.154    2.462 
#    0.000    0.000    0.000    0.000    0.000    0.000 
#    0.000    0.000    0.000    0.000    0.000    0.000 
#
# Total GULP energy -161149.771541 kJ/mol
# GULP energy per Si atom -12396.136272 kJ/mol
# Density = 2.321513 g / cm^3
# Si number density = 23.268085 Si / 1000 Ang^3
#
#
#
# Elastic Constant Matrix: (Units=GPa)
#
#
# Indices 1 2 3 4 5 6 
#
# 1 148.0890 36.7374 36.6201 -0.0001 -19.3266 0.0001
# 2 36.7374 52.7919 13.5908 0.0001 -7.1258 0.0000
# 3 36.6201 13.5908 98.4325 -0.0006 -7.8055 0.0003
# 4 -0.0001 0.0001 -0.0006 24.1012 0.0001 -7.7459
# 5 -19.3266 -7.1258 -7.8055 0.0001 35.1149 0.0000
# 6 0.0001 0.0000 0.0003 -7.7459 0.0000 37.4008
#
#
#
# Elastic Compliance Matrix: (Units=1/GPa)
#
#
# Indices 1 2 3 4 5 6 
#
# 1 0.009090 -0.005252 -0.002387 0.000000 0.003407 0.000000
# 2 -0.005252 0.023092 -0.001112 0.000000 0.001549 0.000000
# 3 -0.002387 -0.001112 0.011277 0.000000 0.000968 0.000000
# 4 0.000000 0.000000 0.000000 0.044450 0.000000 0.009206
# 5 0.003407 0.001549 0.000968 0.000000 0.030882 0.000000
# 6 0.000000 0.000000 0.000000 0.009206 0.000000 0.028644
#
#
# Mechanical properties :
#
#
# Convention : Reuss Voigt Hill
#
# Bulk Modulus (GPa) = 38.52125 52.57890 45.55007
# Shear Modulus (GPa) = 28.80353 33.48106 31.14230
#
# Velocity S-wave (km/s) = 3.52220 3.79743 3.66240
# Velocity P-wave (km/s) = 5.75608 6.47097 6.12396
#
# Compressibility (1/GPa) = 0.02595970
#
# Stress axis : x y z
#
# Youngs Moduli (GPa) = 110.00743 43.30493 88.67294
#
# Poissons Ratio (x) = 0.22742 0.21163
# Poissons Ratio (y) = 0.57771 0.09859
# Poissons Ratio (z) = 0.26255 0.04815
#
# Static dielectric constant tensor:
#      x y z
#    x 4.685770 0.000000 -0.336400 
#    y 0.000000 4.117130 0.000000 
#    z -0.336400 0.000000 4.120020 
# 
# 
# High freq. dielectric constant tensor:
#      x y z
#    x 1.933660 0.000000 -0.018560 
#    y 0.000000 1.908660 0.000000 
#    z -0.018560 0.000000 1.917000 
# 
# From -- ./inp_files/68257.got.cif
#   From: 2010.03.12/outbox.cif.g09.slc.cpg/sg5_35_cif.got.tgz:68257.got - 2010.03.31 09:47:26.
