data_PCOD8050134
_publ_section_title
;
Structure prediction by ZEFSAII (Michael W. Deem and Ramdas Pophale) SiO2 
 PCOD8050134
Probable space group: C 2
;
_chemical_formula_sum "Si O2"
_cell_formula_units_Z 20
_cell_length_a 11.841870
_cell_length_b 7.044938
_cell_length_c 8.721854
_cell_angle_alpha 90.000000
_cell_angle_beta 61.818481
_cell_angle_gamma 90.000000
_cell_volume 641.367326
_symmetry_space_group_name_H-M "C 2"
_symmetry_group_IT_number 5
_symmetry_cell_setting 'monoclinic'
loop_
_space_group_symop_operation_xyz
x,y,z
-x,y,-z
1/2+x,1/2+y,z
1/2-x,1/2+y,-z
loop_
_atom_site_type_symbol
_atom_site_label
_atom_site_fract_x
_atom_site_fract_y
_atom_site_fract_z
Si Si1 0.820832 0.898090 0.005415
Si Si2 0.624876 0.170203 0.744246
Si Si3 0.825312 0.065981 0.390341
Si Si4 0.898968 0.658217 0.691145
Si Si5 0.451144 0.794237 0.875224
O O1 0.876980 0.728470 0.075869
O O2 0.666254 0.911281 0.136215
O O3 0.839116 0.837698 0.817144
O O4 0.883547 0.102847 0.988641
O O5 0.602272 0.365883 0.663443
O O6 0.500051 0.050631 0.757996
O O7 0.720573 0.054174 0.318161
O O8 0.928623 0.234838 0.309946
O O9 0.758198 0.078626 0.601112
O O10 0.000000 0.723981 0.500000
O O11 0.500000 0.900745 0.000000
#
# Coordination Sequence:
#
# PCOD8050134 Si02
#       5
#     4   4   4   4   4
#     4  12  23  45  78 102 141 195 235 290 360 417
#     4  11  24  46  72 106 145 188 238 295 351 429
#     4  11  24  48  71 103 148 187 233 301 359 413
#     4  10  21  40  74  99 139 186 224 288 359 406
#     4  12  24  48  73 101 148 186 235 299 353 420
#
# _framework density 31.18338
#
# number of rings (size 3 to 8) (size 9 to 14) (size 15 to 20)
#    0.000    0.800    6.000    0.600    0.000    4.000 
#   18.000    1.000    0.000    0.000    0.000    0.000 
#    0.000    0.000    0.000    0.000    0.000    0.000 
#
# Total GULP energy -123949.644718 kJ/mol
# GULP energy per Si atom -12394.964472 kJ/mol
# Density = 3.111241 g / cm^3
# Si number density = 31.183380 Si / 1000 Ang^3
#
#
#
# Elastic Constant Matrix: (Units=GPa)
#
#
# Indices 1 2 3 4 5 6 
#
# 1 203.8503 68.7740 75.4995 0.0000 -21.0048 0.0000
# 2 68.7740 138.1094 47.0065 0.0000 -5.8434 0.0000
# 3 75.4995 47.0065 147.3400 0.0000 -6.9121 0.0000
# 4 0.0000 0.0000 0.0000 32.4273 0.0000 2.3170
# 5 -21.0048 -5.8434 -6.9121 0.0000 69.8148 0.0000
# 6 0.0000 0.0000 0.0000 2.3170 0.0000 60.9325
#
#
#
# Elastic Compliance Matrix: (Units=1/GPa)
#
#
# Indices 1 2 3 4 5 6 
#
# 1 0.006888 -0.002453 -0.002672 0.000000 0.001602 0.000000
# 2 -0.002453 0.009009 -0.001624 0.000000 -0.000145 0.000000
# 3 -0.002672 -0.001624 0.008670 0.000000 -0.000081 0.000000
# 4 0.000000 0.000000 0.000000 0.030922 0.000000 -0.001176
# 5 0.001602 -0.000145 -0.000081 0.000000 0.014786 0.000000
# 6 0.000000 0.000000 0.000000 -0.001176 0.000000 0.016456
#
#
# Mechanical properties :
#
#
# Convention : Reuss Voigt Hill
#
# Bulk Modulus (GPa) = 90.33605 96.87333 93.60469
# Shear Modulus (GPa) = 48.11505 52.50289 50.30897
#
# Velocity S-wave (km/s) = 3.93233 4.10772 4.02098
# Velocity P-wave (km/s) = 7.04626 7.32332 7.18612
#
# Compressibility (1/GPa) = 0.01106978
#
# Stress axis : x y z
#
# Youngs Moduli (GPa) = 145.18706 111.00455 115.33564
#
# Poissons Ratio (x) = 0.27226 0.30814
# Poissons Ratio (y) = 0.35610 0.18731
# Poissons Ratio (z) = 0.38789 0.18028
#
# Static dielectric constant tensor:
#      x y z
#    x 6.818640 0.000000 -0.147150 
#    y 0.000000 5.934270 0.000000 
#    z -0.147150 0.000000 6.558640 
# 
# 
# High freq. dielectric constant tensor:
#      x y z
#    x 2.325050 0.000000 -0.023530 
#    y 0.000000 2.313210 0.000000 
#    z -0.023530 0.000000 2.320130 
# 
# From -- ./inp_files/38057.got.cif
#   From: 2010.03.12/outbox.cif.g09.slc.cpg/sg5_20_cif.got.tgz:38057.got - 2010.03.31 09:47:26.
