data_PCOD8050060
_publ_section_title
;
Structure prediction by ZEFSAII (Michael W. Deem and Ramdas Pophale) SiO2 
 PCOD8050060
Probable space group: C 2
;
_chemical_formula_sum "Si O2"
_cell_formula_units_Z 32
_cell_length_a 9.093229
_cell_length_b 5.180799
_cell_length_c 26.280620
_cell_angle_alpha 90.000000
_cell_angle_beta 80.521558
_cell_angle_gamma 90.000000
_cell_volume 1221.182254
_symmetry_space_group_name_H-M "C 2"
_symmetry_group_IT_number 5
_symmetry_cell_setting 'monoclinic'
loop_
_space_group_symop_operation_xyz
x,y,z
-x,y,-z
1/2+x,1/2+y,z
1/2-x,1/2+y,-z
loop_
_atom_site_type_symbol
_atom_site_label
_atom_site_fract_x
_atom_site_fract_y
_atom_site_fract_z
Si Si1 0.247557 0.966230 0.638950
Si Si2 0.175760 0.516203 0.481273
Si Si3 0.175099 0.217847 0.982391
Si Si4 0.656528 0.405760 0.889076
Si Si5 0.277223 0.118969 0.787242
Si Si6 0.861561 0.991307 0.870760
Si Si7 0.517636 0.704227 0.231072
Si Si8 0.601287 0.467707 0.324356
O O1 0.298025 0.944846 0.578292
O O2 0.293331 0.697501 0.662415
O O3 0.069727 0.011925 0.649340
O O4 0.337344 0.197661 0.660300
O O5 0.257366 0.786406 0.488367
O O6 0.000000 0.547233 0.500000
O O7 0.204175 0.164247 0.919283
O O8 0.220780 0.952247 0.007351
O O9 0.000000 0.273998 0.000000
O O10 0.701703 0.392198 0.826829
O O11 0.477675 0.361776 0.903946
O O12 0.739238 0.157302 0.909596
O O13 0.423100 0.985373 0.753871
O O14 0.161343 0.193876 0.748498
O O15 0.296721 0.327896 0.829100
O O16 0.965695 0.188967 0.831182
O O17 0.599471 0.479615 0.261284
#
# Coordination Sequence:
#
# PCOD8050060 Si02
#       8
#     4   4   4   4   4   4   4   4
#     4  12  26  47  68 105 140 187 236 282 357 414
#     4  12  24  44  74 104 138 181 233 300 350 413
#     4  12  28  49  73 106 140 183 227 280 347 428
#     4  10  23  39  65  93 126 169 217 279 336 391
#     4  10  21  40  62  92 123 165 225 277 327 397
#     4  10  21  40  64  92 124 165 223 276 329 395
#     4  10  23  37  60  93 124 174 224 269 335 389
#     4  12  26  44  69  98 145 189 227 287 337 427
#
# _framework density 26.204115999999999
#
# number of rings (size 3 to 8) (size 9 to 14) (size 15 to 20)
#    0.000    1.000    0.000    6.000    7.000    0.000 
#    0.000    0.000    0.000    0.000    0.000    0.000 
#    0.000    0.000    0.000    0.000    0.000    0.000 
#
# Total GULP energy -198301.206561 kJ/mol
# GULP energy per Si atom -12393.825410 kJ/mol
# Density = 2.614447 g / cm^3
# Si number density = 26.204116 Si / 1000 Ang^3
#
#
#
# Elastic Constant Matrix: (Units=GPa)
#
#
# Indices 1 2 3 4 5 6 
#
# 1 170.0672 44.2994 -8.3904 0.0000 21.4079 0.0000
# 2 44.2994 105.7543 -6.4680 0.0000 14.0230 0.0000
# 3 -8.3904 -6.4680 96.7531 0.0000 3.7264 0.0000
# 4 0.0000 0.0000 0.0000 36.9285 0.0000 3.5096
# 5 21.4079 14.0230 3.7264 0.0000 30.1605 0.0000
# 6 0.0000 0.0000 0.0000 3.5096 0.0000 47.3504
#
#
#
# Elastic Compliance Matrix: (Units=1/GPa)
#
#
# Indices 1 2 3 4 5 6 
#
# 1 0.007028 -0.002383 0.000603 0.000000 -0.003955 0.000000
# 2 -0.002383 0.010956 0.000660 0.000000 -0.003484 0.000000
# 3 0.000603 0.000660 0.010510 0.000000 -0.002033 0.000000
# 4 0.000000 0.000000 0.000000 0.027271 0.000000 -0.002021
# 5 -0.003955 -0.003484 -0.002033 0.000000 0.037835 0.000000
# 6 0.000000 0.000000 0.000000 -0.002021 0.000000 0.021269
#
#
# Mechanical properties :
#
#
# Convention : Reuss Voigt Hill
#
# Bulk Modulus (GPa) = 38.08867 47.93961 43.01414
# Shear Modulus (GPa) = 39.72606 45.76346 42.74476
#
# Velocity S-wave (km/s) = 3.89784 4.18356 4.04322
# Velocity P-wave (km/s) = 5.90123 6.45528 6.18446
#
# Compressibility (1/GPa) = 0.02625453
#
# Stress axis : x y z
#
# Youngs Moduli (GPa) = 142.28172 91.27093 95.14507
#
# Poissons Ratio (x) = 0.21748 -0.05733
# Poissons Ratio (y) = 0.33902 -0.06280
# Poissons Ratio (z) = -0.08573 -0.06024
#
# Static dielectric constant tensor:
#      x y z
#    x 5.693640 0.000000 -0.302580 
#    y 0.000000 4.882130 0.000000 
#    z -0.302580 0.000000 6.137460 
# 
# 
# High freq. dielectric constant tensor:
#      x y z
#    x 2.075490 0.000000 0.003030 
#    y 0.000000 2.061080 0.000000 
#    z 0.003030 0.000000 2.057200 
# 
# From -- ./inp_files/71515.got.cif
#   From: 2010.03.12/outbox.cif.g09.slc.cpg/sg5_36_cif.got.tgz:71515.got - 2010.03.31 09:47:26.
