data_PCOD8050205
_publ_section_title
;
Structure prediction by ZEFSAII (Michael W. Deem and Ramdas Pophale) SiO2 
 PCOD8050205
Probable space group: C 2
;
_chemical_formula_sum "Si O2"
_cell_formula_units_Z 20
_cell_length_a 20.628592
_cell_length_b 9.188147
_cell_length_c 9.270678
_cell_angle_alpha 90.000000
_cell_angle_beta 31.402421
_cell_angle_gamma 90.000000
_cell_volume 915.555830
_symmetry_space_group_name_H-M "C 2"
_symmetry_group_IT_number 5
_symmetry_cell_setting 'monoclinic'
loop_
_space_group_symop_operation_xyz
x,y,z
-x,y,-z
1/2+x,1/2+y,z
1/2-x,1/2+y,-z
loop_
_atom_site_type_symbol
_atom_site_label
_atom_site_fract_x
_atom_site_fract_y
_atom_site_fract_z
Si Si1 0.626619 0.852870 0.177263
Si Si2 0.526207 0.285990 0.789955
Si Si3 0.296862 0.779442 0.271415
Si Si4 0.838642 0.057987 0.433530
Si Si5 0.198645 0.669758 0.963960
O O1 0.500000 0.816132 0.500000
O O2 0.654558 0.023664 0.125852
O O3 0.614405 0.793961 0.036223
O O4 0.744546 0.776636 0.026146
O O5 0.659347 0.219563 0.486203
O O6 0.535494 0.463733 0.779187
O O7 0.420672 0.246231 0.878651
O O8 0.500000 0.223908 0.000000
O O9 0.360940 0.671362 0.262413
O O10 0.272919 0.940117 0.388482
O O11 0.803730 0.143684 0.644425
#
# Coordination Sequence:
#
# PCOD8050205 Si02
#       5
#     4   4   4   4   4
#     4  11  28  45  68  99 139 186 224 279 333 413
#     4  10  21  41  75  96 134 178 215 288 343 388
#     4   9  21  43  68 105 132 176 228 272 341 397
#     4   9  20  40  71 100 129 177 223 275 335 398
#     4  11  24  47  67  99 139 179 229 274 344 398
#
# _framework density 21.844654999999999
#
# number of rings (size 3 to 8) (size 9 to 14) (size 15 to 20)
#    1.200    0.800    2.000    0.000    2.800    6.400 
#    0.000    0.000    0.000    0.000    0.000    0.000 
#    0.000    0.000    0.000    0.000    0.000    0.000 
#
# Total GULP energy -123931.009140 kJ/mol
# GULP energy per Si atom -12393.100914 kJ/mol
# Density = 2.179494 g / cm^3
# Si number density = 21.844655 Si / 1000 Ang^3
#
#
#
# Elastic Constant Matrix: (Units=GPa)
#
#
# Indices 1 2 3 4 5 6 
#
# 1 62.4377 49.5129 11.6669 0.0000 11.5560 0.0000
# 2 49.5129 111.5248 26.3626 0.0000 16.9016 0.0000
# 3 11.6669 26.3626 111.8368 0.0000 15.9082 0.0000
# 4 0.0000 0.0000 0.0000 25.2667 0.0000 4.9678
# 5 11.5560 16.9016 15.9082 0.0000 26.8857 0.0000
# 6 0.0000 0.0000 0.0000 4.9678 0.0000 51.2591
#
#
#
# Elastic Compliance Matrix: (Units=1/GPa)
#
#
# Indices 1 2 3 4 5 6 
#
# 1 0.025164 -0.010619 0.000510 0.000000 -0.004442 0.000000
# 2 -0.010619 0.014656 -0.001841 0.000000 -0.003560 0.000000
# 3 0.000510 -0.001841 0.010033 0.000000 -0.004999 0.000000
# 4 0.000000 0.000000 0.000000 0.040347 0.000000 -0.003910
# 5 -0.004442 -0.003560 -0.004999 0.000000 0.044299 0.000000
# 6 0.000000 0.000000 0.000000 -0.003910 0.000000 0.019888
#
#
# Mechanical properties :
#
#
# Convention : Reuss Voigt Hill
#
# Bulk Modulus (GPa) = 38.53077 51.20934 44.87006
# Shear Modulus (GPa) = 26.74699 33.89944 30.32322
#
# Velocity S-wave (km/s) = 3.50296 3.94362 3.72980
# Velocity P-wave (km/s) = 5.83420 6.65053 6.25569
#
# Compressibility (1/GPa) = 0.02595328
#
# Stress axis : x y z
#
# Youngs Moduli (GPa) = 39.73976 68.23291 99.66793
#
# Poissons Ratio (x) = 0.72457 -0.05082
# Poissons Ratio (y) = 0.42200 0.18344
# Poissons Ratio (z) = -0.02026 0.12558
#
# Static dielectric constant tensor:
#      x y z
#    x 3.517700 0.000000 0.122720 
#    y 0.000000 3.873440 0.000000 
#    z 0.122720 0.000000 3.986780 
# 
# 
# High freq. dielectric constant tensor:
#      x y z
#    x 1.831080 0.000000 0.007730 
#    y 0.000000 1.854800 0.000000 
#    z 0.007730 0.000000 1.871210 
# 
# From -- ./inp_files/28824.got.cif
#   From: 2010.03.12/outbox.cif.g09.slc.cpg/sg5_15_cif.got.tgz:28824.got - 2010.03.31 09:47:26.
