data_PCOD8050011
_publ_section_title
;
Structure prediction by ZEFSAII (Michael W. Deem and Ramdas Pophale) SiO2 
 PCOD8050011
Probable space group: C 2
;
_chemical_formula_sum "Si O2"
_cell_formula_units_Z 32
_cell_length_a 9.276214
_cell_length_b 26.840983
_cell_length_c 12.887568
_cell_angle_alpha 90.000000
_cell_angle_beta 29.479062
_cell_angle_gamma 90.000000
_cell_volume 1579.058922
_symmetry_space_group_name_H-M "C 2"
_symmetry_group_IT_number 5
_symmetry_cell_setting 'monoclinic'
loop_
_space_group_symop_operation_xyz
x,y,z
-x,y,-z
1/2+x,1/2+y,z
1/2-x,1/2+y,-z
loop_
_atom_site_type_symbol
_atom_site_label
_atom_site_fract_x
_atom_site_fract_y
_atom_site_fract_z
Si Si1 0.234088 0.527260 0.943245
Si Si2 0.282666 0.795601 0.884661
Si Si3 0.366664 0.882887 0.979103
Si Si4 0.263579 0.216660 0.910218
Si Si5 0.388980 0.716936 0.451911
Si Si6 0.788375 0.141446 0.884817
Si Si7 0.675934 0.970631 0.678358
Si Si8 0.299802 0.443357 0.374504
O O1 0.348414 0.583285 0.861684
O O2 0.529239 0.494779 0.753920
O O3 0.000000 0.514159 0.000000
O O4 0.056214 0.516578 0.163082
O O5 0.502467 0.768455 0.667641
O O6 0.416910 0.844553 0.853523
O O7 0.186930 0.757695 0.033256
O O8 0.000000 0.813590 0.000000
O O9 0.022674 0.897688 0.210046
O O10 0.500000 0.858576 0.000000
O O11 0.567098 0.930855 0.831735
O O12 0.542284 0.217672 0.662179
O O13 0.228208 0.163572 0.988963
O O14 0.000000 0.229576 0.000000
O O15 0.500000 0.711347 0.500000
O O16 0.462188 0.668233 0.338278
O O17 0.500000 0.152826 0.000000
O O18 0.676723 0.943816 0.567941
O O19 0.000000 0.990797 0.500000
O O20 0.000000 0.437437 0.500000
#
# Coordination Sequence:
#
# PCOD8050011 Si02
#       8
#     4   4   4   4   4   4   4   4
#     4  10  21  40  64  95 129 163 219 260 303 391
#     4  11  24  41  65  96 126 165 215 262 317 378
#     4  11  24  43  64  94 130 162 215 265 309 386
#     4  11  23  43  64  94 130 165 207 268 320 372
#     4  11  20  43  69  88 129 173 209 261 316 376
#     4  10  21  39  65  97 125 168 218 257 312 383
#     4  11  20  42  68  89 124 173 207 258 317 373
#     4  11  24  42  64  94 130 168 209 264 323 370
#
# _framework density 20.265232999999998
#
# number of rings (size 3 to 8) (size 9 to 14) (size 15 to 20)
#    0.000    1.250    5.000    1.875    1.750    5.500 
#    6.750    0.000    0.000    0.000    0.000    0.000 
#    0.000    0.000    0.000    0.000    0.000    0.000 
#
# Total GULP energy -198355.109386 kJ/mol
# GULP energy per Si atom -12397.194337 kJ/mol
# Density = 2.021911 g / cm^3
# Si number density = 20.265233 Si / 1000 Ang^3
#
#
#
# Elastic Constant Matrix: (Units=GPa)
#
#
# Indices 1 2 3 4 5 6 
#
# 1 104.0616 30.5334 40.8371 0.0000 -7.4831 0.0000
# 2 30.5334 104.2978 42.1498 0.0000 2.7386 0.0000
# 3 40.8371 42.1498 140.7035 0.0002 -1.7435 0.0000
# 4 0.0000 0.0000 0.0002 44.3987 -0.0001 5.6593
# 5 -7.4831 2.7386 -1.7435 -0.0001 39.1657 0.0000
# 6 0.0000 0.0000 0.0000 5.6593 0.0000 27.0947
#
#
#
# Elastic Compliance Matrix: (Units=1/GPa)
#
#
# Indices 1 2 3 4 5 6 
#
# 1 0.011486 -0.002373 -0.002595 0.000000 0.002245 0.000000
# 2 -0.002373 0.011431 -0.002753 0.000000 -0.001375 0.000000
# 3 -0.002595 -0.002753 0.008686 0.000000 0.000083 0.000000
# 4 0.000000 0.000000 0.000000 0.023139 0.000000 -0.004833
# 5 0.002245 -0.001375 0.000083 0.000000 0.026061 0.000000
# 6 0.000000 0.000000 0.000000 -0.004833 0.000000 0.037917
#
#
# Mechanical properties :
#
#
# Convention : Reuss Voigt Hill
#
# Bulk Modulus (GPa) = 61.87389 64.01152 62.94270
# Shear Modulus (GPa) = 35.82984 37.83465 36.83225
#
# Velocity S-wave (km/s) = 4.20937 4.32554 4.26785
# Velocity P-wave (km/s) = 7.36366 7.52346 7.44399
#
# Compressibility (1/GPa) = 0.01616191
#
# Stress axis : x y z
#
# Youngs Moduli (GPa) = 87.06516 87.48044 115.12839
#
# Poissons Ratio (x) = 0.20757 0.29875
# Poissons Ratio (y) = 0.20658 0.31692
# Poissons Ratio (z) = 0.22593 0.24081
#
# Static dielectric constant tensor:
#      x y z
#    x 3.655250 0.000000 0.063650 
#    y 0.000000 3.628420 0.000000 
#    z 0.063650 0.000000 3.628400 
# 
# 
# High freq. dielectric constant tensor:
#      x y z
#    x 1.786360 0.000000 0.007340 
#    y 0.000000 1.784180 0.000000 
#    z 0.007340 0.000000 1.803410 
# 
# From -- ./inp_files/37609.got.cif
#   From: 2010.03.12/outbox.cif.g09.slc.cpg/sg5_19_cif.got.tgz:37609.got - 2010.03.31 09:47:26.
