data_PCOD8050704
_publ_section_title
;
Structure prediction by ZEFSAII (Michael W. Deem and Ramdas Pophale) SiO2 
 PCOD8050704
Probable space group: C 2
;
_chemical_formula_sum "Si O2"
_cell_formula_units_Z 30
_cell_length_a 9.967145
_cell_length_b 10.065920
_cell_length_c 26.757649
_cell_angle_alpha 90.000000
_cell_angle_beta 145.838010
_cell_angle_gamma 90.000000
_cell_volume 1507.470079
_symmetry_space_group_name_H-M "C 2"
_symmetry_group_IT_number 5
_symmetry_cell_setting 'monoclinic'
loop_
_space_group_symop_operation_xyz
x,y,z
-x,y,-z
1/2+x,1/2+y,z
1/2-x,1/2+y,-z
loop_
_atom_site_type_symbol
_atom_site_label
_atom_site_fract_x
_atom_site_fract_y
_atom_site_fract_z
Si Si1 0.719886 0.424210 0.156492
Si Si2 0.313158 0.929452 0.762435
Si Si3 0.500000 0.266513 0.000000
Si Si4 0.630870 0.278849 0.407632
Si Si5 0.862892 0.203198 0.273222
Si Si6 0.259057 0.595942 0.677815
Si Si7 0.893699 0.306721 0.391863
Si Si8 0.007252 0.162912 0.148246
O O1 0.550404 0.360922 0.062573
O O2 0.727468 0.327964 0.207045
O O3 0.613477 0.567202 0.138647
O O4 0.985638 0.443445 0.217812
O O5 0.379252 0.811241 0.821787
O O6 0.062945 0.896082 0.658134
O O7 0.288420 0.068515 0.784137
O O8 0.721823 0.171327 0.055083
O O9 0.504799 0.148299 0.390843
O O10 0.747829 0.233328 0.390939
O O11 0.832312 0.330531 0.507725
O O12 0.884485 0.220810 0.339106
O O13 0.126488 0.184250 0.331177
O O14 0.240130 0.445401 0.655626
O O15 0.434390 0.607004 0.779062
#
# Coordination Sequence:
#
# PCOD8050704 Si02
#       8
#     4   4   2   4   4   4   4   4
#     4  11  23  44  66 100 127 169 214 264 327 393
#     4  10  23  40  65  92 131 171 212 270 319 374
#     4  10  22  42  66  98 130 164 208 276 320 388
#     4  10  23  42  57  91 134 172 212 276 318 356
#     4  12  23  39  69  94 122 174 222 255 323 387
#     4  11  22  43  64  91 129 176 212 267 328 374
#     4  11  25  38  62  96 129 170 228 267 311 389
#     4  10  22  45  68  90 136 164 209 265 329 384
#
# _framework density 19.900893
#
# number of rings (size 3 to 8) (size 9 to 14) (size 15 to 20)
#    0.000    1.333    6.667    0.000    5.600    2.667 
#    0.000    0.000    0.000    0.000    0.000    0.000 
#    0.000    0.000    0.000    0.000    0.000    0.000 
#
# Total GULP energy -186015.315995 kJ/mol
# GULP energy per Si atom -12401.021066 kJ/mol
# Density = 1.985560 g / cm^3
# Si number density = 19.900893 Si / 1000 Ang^3
#
#
#
# Elastic Constant Matrix: (Units=GPa)
#
#
# Indices 1 2 3 4 5 6 
#
# 1 124.3339 60.0932 57.2679 0.0000 -0.1273 0.0000
# 2 60.0932 109.4424 31.9074 0.0000 10.1114 0.0000
# 3 57.2679 31.9074 114.8725 0.0000 12.6410 0.0000
# 4 0.0000 0.0000 0.0000 17.1250 0.0000 0.5660
# 5 -0.1273 10.1114 12.6410 0.0000 31.8483 0.0000
# 6 0.0000 0.0000 0.0000 0.5660 0.0000 44.6307
#
#
#
# Elastic Compliance Matrix: (Units=1/GPa)
#
#
# Indices 1 2 3 4 5 6 
#
# 1 0.013610 -0.006257 -0.005513 0.000000 0.004229 0.000000
# 2 -0.006257 0.012962 -0.000027 0.000000 -0.004130 0.000000
# 3 -0.005513 -0.000027 0.011986 0.000000 -0.004771 0.000000
# 4 0.000000 0.000000 0.000000 0.058419 0.000000 -0.000741
# 5 0.004229 -0.004130 -0.004771 0.000000 0.034621 0.000000
# 6 0.000000 0.000000 0.000000 -0.000741 0.000000 0.022416
#
#
# Mechanical properties :
#
#
# Convention : Reuss Voigt Hill
#
# Bulk Modulus (GPa) = 66.81789 71.90953 69.36371
# Shear Modulus (GPa) = 27.38313 32.01281 29.69797
#
# Velocity S-wave (km/s) = 3.71344 4.01510 3.86721
# Velocity P-wave (km/s) = 7.21349 7.59651 7.40747
#
# Compressibility (1/GPa) = 0.01496605
#
# Stress axis : x y z
#
# Youngs Moduli (GPa) = 73.47356 77.14828 83.43058
#
# Poissons Ratio (x) = 0.48270 0.45993
# Poissons Ratio (y) = 0.45971 0.00223
# Poissons Ratio (z) = 0.40504 0.00206
#
# Static dielectric constant tensor:
#      x y z
#    x 3.716550 0.000000 0.100420 
#    y 0.000000 3.639630 0.000000 
#    z 0.100420 0.000000 3.554920 
# 
# 
# High freq. dielectric constant tensor:
#      x y z
#    x 1.784100 0.000000 0.009120 
#    y 0.000000 1.774840 0.000000 
#    z 0.009120 0.000000 1.766620 
# 
# From -- ./inp_files/59563.got.cif
#   From: 2010.03.12/outbox.cif.g09.slc.cpg/sg5_30_cif.got.tgz:59563.got - 2010.03.31 09:47:26.
