data_PCOD8050985
_publ_section_title
;
Structure prediction by ZEFSAII (Michael W. Deem and Ramdas Pophale) SiO2 
 PCOD8050985
Probable space group: C 2
;
_chemical_formula_sum "Si O2"
_cell_formula_units_Z 30
_cell_length_a 21.642502
_cell_length_b 5.406146
_cell_length_c 13.413252
_cell_angle_alpha 90.000000
_cell_angle_beta 118.353963
_cell_angle_gamma 90.000000
_cell_volume 1381.106028
_symmetry_space_group_name_H-M "C 2"
_symmetry_group_IT_number 5
_symmetry_cell_setting 'monoclinic'
loop_
_space_group_symop_operation_xyz
x,y,z
-x,y,-z
1/2+x,1/2+y,z
1/2-x,1/2+y,-z
loop_
_atom_site_type_symbol
_atom_site_label
_atom_site_fract_x
_atom_site_fract_y
_atom_site_fract_z
Si Si1 0.500000 0.956521 0.500000
Si Si2 0.741370 0.506563 0.241951
Si Si3 0.128353 0.799781 0.646524
Si Si4 0.663192 0.799192 0.329064
Si Si5 0.490520 0.854259 0.715146
Si Si6 0.430769 0.375069 0.197981
Si Si7 0.214587 0.822447 0.012744
Si Si8 0.289576 0.635773 0.427120
O O1 0.489161 0.800885 0.594326
O O2 0.571401 0.109320 0.562318
O O3 0.799809 0.698339 0.246908
O O4 0.671216 0.631905 0.235130
O O5 0.720454 0.321923 0.137575
O O6 0.788466 0.392046 0.367436
O O7 0.095535 0.952743 0.712362
O O8 0.147571 0.971047 0.568467
O O9 0.585401 0.886080 0.293492
O O10 0.695902 0.646844 0.445398
O O11 0.711083 0.037632 0.348314
O O12 0.522965 0.614501 0.796484
O O13 0.529392 0.111919 0.768606
O O14 0.367507 0.345478 0.072483
O O15 0.244709 0.560977 0.999145
#
# Coordination Sequence:
#
# PCOD8050985 Si02
#       8
#     2   4   4   4   4   4   4   4
#     4  10  24  38  64  98 138 184 220 276 350 422
#     4  11  24  43  70  99 134 179 235 287 341 407
#     4  10  23  40  61 104 132 176 226 279 347 411
#     4  11  25  41  65 100 139 189 227 279 343 411
#     4  11  27  43  67  96 145 181 225 275 345 414
#     4  11  25  45  68 102 137 174 225 288 342 408
#     4  12  25  46  77 105 135 176 230 298 349 398
#     4  11  23  40  67  96 140 177 234 285 334 415
#
# _framework density 21.721722
#
# number of rings (size 3 to 8) (size 9 to 14) (size 15 to 20)
#    0.000    1.067    2.667    2.400   16.800    0.533 
#    0.000    0.667    0.000    0.000    0.000    0.000 
#    0.000    0.000    0.000    0.000    0.000    0.000 
#
# Total GULP energy -185909.227156 kJ/mol
# GULP energy per Si atom -12393.948477 kJ/mol
# Density = 2.167228 g / cm^3
# Si number density = 21.721722 Si / 1000 Ang^3
#
#
#
# Elastic Constant Matrix: (Units=GPa)
#
#
# Indices 1 2 3 4 5 6 
#
# 1 126.9703 28.8713 27.9299 0.0000 13.4356 0.0000
# 2 28.8713 86.6460 10.0809 0.0000 6.5186 -0.0002
# 3 27.9299 10.0809 76.7164 0.0000 8.2253 0.0000
# 4 0.0000 0.0000 0.0000 26.0169 0.0000 2.2212
# 5 13.4356 6.5186 8.2253 0.0000 29.7930 0.0000
# 6 0.0000 -0.0002 0.0000 2.2212 0.0000 24.4380
#
#
#
# Elastic Compliance Matrix: (Units=1/GPa)
#
#
# Indices 1 2 3 4 5 6 
#
# 1 0.009379 -0.002585 -0.002764 0.000000 -0.002901 0.000000
# 2 -0.002585 0.012575 -0.000558 0.000000 -0.001432 0.000000
# 3 -0.002764 -0.000558 0.014394 0.000000 -0.002606 0.000000
# 4 0.000000 0.000000 0.000000 0.038737 0.000000 -0.003521
# 5 -0.002901 -0.001432 -0.002606 0.000000 0.035906 0.000000
# 6 0.000000 0.000000 0.000000 -0.003521 0.000000 0.041240
#
#
# Mechanical properties :
#
#
# Convention : Reuss Voigt Hill
#
# Bulk Modulus (GPa) = 40.75936 47.12187 43.94062
# Shear Modulus (GPa) = 29.03231 30.94628 29.98930
#
# Velocity S-wave (km/s) = 3.65986 3.77857 3.71969
# Velocity P-wave (km/s) = 6.05512 6.38572 6.22261
#
# Compressibility (1/GPa) = 0.02453424
#
# Stress axis : x y z
#
# Youngs Moduli (GPa) = 106.62581 79.52135 69.47414
#
# Poissons Ratio (x) = 0.20558 0.19201
# Poissons Ratio (y) = 0.27566 0.03875
# Poissons Ratio (z) = 0.29468 0.04435
#
# Static dielectric constant tensor:
#      x y z
#    x 4.033000 0.000000 -0.045420 
#    y 0.000000 3.857570 0.000000 
#    z -0.045420 0.000000 3.877490 
# 
# 
# High freq. dielectric constant tensor:
#      x y z
#    x 1.864120 0.000000 0.002470 
#    y 0.000000 1.856050 0.000000 
#    z 0.002470 0.000000 1.836860 
# 
# From -- ./inp_files/56563.got.cif
#   From: 2010.03.12/outbox.cif.g09.slc.cpg/sg5_29_cif.got.tgz:56563.got - 2010.03.31 09:47:26.
