data_PCOD8050533
_publ_section_title
;
Structure prediction by ZEFSAII (Michael W. Deem and Ramdas Pophale) SiO2 
 PCOD8050533
Probable space group: C 2
;
_chemical_formula_sum "Si O2"
_cell_formula_units_Z 28
_cell_length_a 13.167310
_cell_length_b 8.070124
_cell_length_c 12.222950
_cell_angle_alpha 90.000000
_cell_angle_beta 65.268927
_cell_angle_gamma 90.000000
_cell_volume 1179.705857
_symmetry_space_group_name_H-M "C 2"
_symmetry_group_IT_number 5
_symmetry_cell_setting 'monoclinic'
loop_
_space_group_symop_operation_xyz
x,y,z
-x,y,-z
1/2+x,1/2+y,z
1/2-x,1/2+y,-z
loop_
_atom_site_type_symbol
_atom_site_label
_atom_site_fract_x
_atom_site_fract_y
_atom_site_fract_z
Si Si1 0.500000 0.141920 0.000000
Si Si2 0.943712 0.424275 0.218890
Si Si3 0.177597 0.835131 0.067678
Si Si4 0.012486 0.069913 0.250912
Si Si5 0.732182 0.321573 0.430420
Si Si6 0.000000 0.998663 0.500000
Si Si7 0.177027 0.505786 0.168100
Si Si8 0.781292 0.951325 0.339579
O O1 0.412902 0.257402 0.974742
O O2 0.569677 0.017322 0.890488
O O3 0.985742 0.233892 0.193341
O O4 0.043099 0.516463 0.240234
O O5 0.824658 0.439287 0.331940
O O6 0.220026 0.695769 0.135384
O O7 0.127583 0.989207 0.158542
O O8 0.285976 0.901587 0.955067
O O9 0.915062 0.937434 0.267559
O O10 0.011069 0.107516 0.383427
O O11 0.608806 0.383123 0.457904
O O12 0.745000 0.135438 0.387513
O O13 0.757811 0.324816 0.549155
O O14 0.225883 0.407842 0.249457
#
# Coordination Sequence:
#
# PCOD8050533 Si02
#       8
#     2   4   4   4   4   2   4   4
#     4  10  24  42  62  92 126 170 216 260 310 366
#     4  10  24  41  61  91 127 165 209 259 313 372
#     4  11  23  41  64  93 126 167 213 260 313 374
#     4  10  22  41  64  91 124 163 207 259 315 371
#     4  10  23  41  62  89 123 162 208 257 312 373
#     4  10  22  40  66  92 120 162 210 260 316 372
#     4  11  24  40  63  94 125 165 209 257 315 374
#     4  10  23  40  62  91 122 161 205 254 313 371
#
# _framework density 23.734729999999999
#
# number of rings (size 3 to 8) (size 9 to 14) (size 15 to 20)
#    0.000    1.714    0.000    2.571    0.000   21.714 
#    0.000    0.000    0.000    0.000    0.000    0.000 
#    0.000    0.000    0.000    0.000    0.000    0.000 
#
# Total GULP energy -173560.211888 kJ/mol
# GULP energy per Si atom -12397.157992 kJ/mol
# Density = 2.368071 g / cm^3
# Si number density = 23.734730 Si / 1000 Ang^3
#
#
#
# Elastic Constant Matrix: (Units=GPa)
#
#
# Indices 1 2 3 4 5 6 
#
# 1 88.6036 -2.5563 46.2637 0.0000 -7.1133 0.0000
# 2 -2.5563 57.6789 20.3646 0.0000 -11.7378 0.0000
# 3 46.2637 20.3646 111.7004 0.0000 -5.6584 0.0000
# 4 0.0000 0.0000 0.0000 38.1202 0.0000 -0.5019
# 5 -7.1133 -11.7378 -5.6584 0.0000 43.7662 0.0000
# 6 0.0000 0.0000 0.0000 -0.5019 0.0000 29.4639
#
#
#
# Elastic Compliance Matrix: (Units=1/GPa)
#
#
# Indices 1 2 3 4 5 6 
#
# 1 0.015143 0.003589 -0.006797 0.000000 0.002545 0.000000
# 2 0.003589 0.020332 -0.004920 0.000000 0.005400 0.000000
# 3 -0.006797 -0.004920 0.012625 0.000000 -0.000792 0.000000
# 4 0.000000 0.000000 0.000000 0.026239 0.000000 0.000447
# 5 0.002545 0.005400 -0.000792 0.000000 0.024608 0.000000
# 6 0.000000 0.000000 0.000000 0.000447 0.000000 0.033947
#
#
# Mechanical properties :
#
#
# Convention : Reuss Voigt Hill
#
# Bulk Modulus (GPa) = 31.40311 42.90299 37.15305
# Shear Modulus (GPa) = 31.29577 35.19743 33.24660
#
# Velocity S-wave (km/s) = 3.63514 3.85509 3.74673
# Velocity P-wave (km/s) = 5.55685 6.15881 5.86556
#
# Compressibility (1/GPa) = 0.03184398
#
# Stress axis : x y z
#
# Youngs Moduli (GPa) = 66.03573 49.18247 79.20984
#
# Poissons Ratio (x) = -0.17652 0.53842
# Poissons Ratio (y) = -0.23700 0.38970
# Poissons Ratio (z) = 0.44887 0.24197
#
# Static dielectric constant tensor:
#      x y z
#    x 4.308800 0.000000 -0.026070 
#    y 0.000000 4.071880 0.000000 
#    z -0.026070 0.000000 4.588520 
# 
# 
# High freq. dielectric constant tensor:
#      x y z
#    x 1.942020 0.000000 -0.006340 
#    y 0.000000 1.930960 0.000000 
#    z -0.006340 0.000000 1.948490 
# 
# From -- ./inp_files/41903.got.cif
#   From: 2010.03.12/outbox.cif.g09.slc.cpg/sg5_21_cif.got.tgz:41903.got - 2010.03.31 09:47:26.
