data_PCOD8050034
_publ_section_title
;
Structure prediction by ZEFSAII (Michael W. Deem and Ramdas Pophale) SiO2 
 PCOD8050034
Probable space group: C 2
;
_chemical_formula_sum "Si O2"
_cell_formula_units_Z 30
_cell_length_a 21.645945
_cell_length_b 8.194462
_cell_length_c 19.650702
_cell_angle_alpha 90.000000
_cell_angle_beta 22.720955
_cell_angle_gamma 90.000000
_cell_volume 1346.282373
_symmetry_space_group_name_H-M "C 2"
_symmetry_group_IT_number 5
_symmetry_cell_setting 'monoclinic'
loop_
_space_group_symop_operation_xyz
x,y,z
-x,y,-z
1/2+x,1/2+y,z
1/2-x,1/2+y,-z
loop_
_atom_site_type_symbol
_atom_site_label
_atom_site_fract_x
_atom_site_fract_y
_atom_site_fract_z
Si Si1 0.326400 0.086950 0.651128
Si Si2 0.891314 0.673081 0.004185
Si Si3 0.143267 0.931746 0.311943
Si Si4 0.850632 0.285920 0.854010
Si Si5 0.911233 0.915335 0.787930
Si Si6 0.338148 0.961513 0.490959
Si Si7 0.129775 0.691132 0.654330
Si Si8 0.000000 0.904747 0.000000
O O1 0.500000 0.014160 0.500000
O O2 0.312463 0.273556 0.688704
O O3 0.314820 0.069145 0.581733
O O4 0.165793 0.001844 0.842544
O O5 0.802859 0.541735 0.142534
O O6 0.758911 0.782828 0.101742
O O7 0.001150 0.594954 0.832674
O O8 0.011762 0.788745 0.922699
O O9 0.077789 0.883592 0.304101
O O10 0.000000 0.022603 0.500000
O O11 0.976029 0.426229 0.709035
O O12 0.925922 0.107316 0.790349
O O13 0.758777 0.345024 0.014589
O O14 0.050762 0.820518 0.683463
O O15 0.276025 0.063092 0.488370
O O16 0.247738 0.788643 0.584674
#
# Coordination Sequence:
#
# PCOD8050034 Si02
#       8
#     4   4   4   4   4   4   4   2
#     4  11  25  45  70 100 136 183 235 286 346 419
#     4  10  23  43  63  95 133 176 225 279 344 408
#     4  10  22  42  68 101 132 179 232 281 343 416
#     4  10  21  39  70  96 133 175 223 285 342 410
#     4  10  21  40  66 101 132 175 222 280 346 414
#     4  12  23  43  65 101 131 181 224 286 347 408
#     4  11  23  42  64  98 139 170 228 283 348 413
#     4  12  24  44  66  96 140 184 228 284 346 420
#
# _framework density 22.283587000000001
#
# number of rings (size 3 to 8) (size 9 to 14) (size 15 to 20)
#    0.000    1.333    1.333    5.600    0.000    5.333 
#    9.600    0.000    0.000    0.000    0.000    0.000 
#    0.000    0.000    0.000    0.000    0.000    0.000 
#
# Total GULP energy -185892.156122 kJ/mol
# GULP energy per Si atom -12392.810408 kJ/mol
# Density = 2.223287 g / cm^3
# Si number density = 22.283587 Si / 1000 Ang^3
#
#
#
# Elastic Constant Matrix: (Units=GPa)
#
#
# Indices 1 2 3 4 5 6 
#
# 1 76.3628 29.6455 55.7405 -0.0007 17.6919 0.0003
# 2 29.6455 78.0222 35.5089 -0.0015 16.3098 0.0011
# 3 55.7405 35.5089 119.9243 -0.0010 17.7692 0.0010
# 4 -0.0007 -0.0015 -0.0010 40.5234 0.0006 -3.3233
# 5 17.6919 16.3098 17.7692 0.0006 45.1397 -0.0004
# 6 0.0003 0.0011 0.0010 -3.3233 -0.0004 37.2612
#
#
#
# Elastic Compliance Matrix: (Units=1/GPa)
#
#
# Indices 1 2 3 4 5 6 
#
# 1 0.021462 -0.003549 -0.008356 0.000000 -0.003840 0.000000
# 2 -0.003549 0.016058 -0.002603 0.000000 -0.003386 0.000000
# 3 -0.008356 -0.002603 0.013135 0.000000 -0.000955 0.000000
# 4 0.000000 0.000000 0.000000 0.024859 -0.000001 0.002217
# 5 -0.003840 -0.003386 -0.000955 -0.000001 0.025258 0.000000
# 6 0.000000 0.000000 0.000000 0.002217 0.000000 0.027035
#
#
# Mechanical properties :
#
#
# Convention : Reuss Voigt Hill
#
# Bulk Modulus (GPa) = 46.21408 57.34434 51.77921
# Shear Modulus (GPa) = 30.48110 34.81248 32.64679
#
# Velocity S-wave (km/s) = 3.70249 3.95682 3.83176
# Velocity P-wave (km/s) = 6.24996 6.83117 6.54702
#
# Compressibility (1/GPa) = 0.02163843
#
# Stress axis : x y z
#
# Youngs Moduli (GPa) = 46.59381 62.27389 76.13508
#
# Poissons Ratio (x) = 0.22103 0.63615
# Poissons Ratio (y) = 0.16538 0.19820
# Poissons Ratio (z) = 0.38932 0.16212
#
# Static dielectric constant tensor:
#      x y z
#    x 3.976550 0.000000 0.115700 
#    y 0.000000 3.847170 0.000000 
#    z 0.115700 0.000000 4.215430 
# 
# 
# High freq. dielectric constant tensor:
#      x y z
#    x 1.878100 0.000000 0.008620 
#    y 0.000000 1.863640 0.000000 
#    z 0.008620 0.000000 1.891670 
# 
# From -- ./inp_files/67361.got.cif
#   From: 2010.03.12/outbox.cif.g09.slc.cpg/sg5_34_cif.got.tgz:67361.got - 2010.03.31 09:47:26.
