data_PCOD8050008
_publ_section_title
;
Structure prediction by ZEFSAII (Michael W. Deem and Ramdas Pophale) SiO2 
 PCOD8050008
Probable space group: C 2
;
_chemical_formula_sum "Si O2"
_cell_formula_units_Z 28
_cell_length_a 10.756505
_cell_length_b 9.917457
_cell_length_c 13.747160
_cell_angle_alpha 90.000000
_cell_angle_beta 65.749628
_cell_angle_gamma 90.000000
_cell_volume 1337.102606
_symmetry_space_group_name_H-M "C 2"
_symmetry_group_IT_number 5
_symmetry_cell_setting 'monoclinic'
loop_
_space_group_symop_operation_xyz
x,y,z
-x,y,-z
1/2+x,1/2+y,z
1/2-x,1/2+y,-z
loop_
_atom_site_type_symbol
_atom_site_label
_atom_site_fract_x
_atom_site_fract_y
_atom_site_fract_z
Si Si1 0.515198 0.970020 0.688696
Si Si2 0.411898 0.265062 0.408464
Si Si3 0.273840 0.738793 0.362960
Si Si4 0.582788 0.030705 0.878795
Si Si5 0.772178 0.946451 0.319946
Si Si6 0.023886 0.831903 0.887254
Si Si7 0.334906 0.352736 0.780839
O O1 0.614682 0.844014 0.633327
O O2 0.499818 0.983154 0.810184
O O3 0.374125 0.940149 0.682570
O O4 0.569732 0.110222 0.628532
O O5 0.372291 0.270449 0.535947
O O6 0.280284 0.320272 0.391225
O O7 0.532905 0.366441 0.333352
O O8 0.306500 0.582251 0.370642
O O9 0.256244 0.745758 0.250709
O O10 0.740906 0.984026 0.824468
O O11 0.599683 0.190749 0.877949
O O12 0.500000 0.976477 0.000000
O O13 0.884851 0.937697 0.199344
O O14 0.883324 0.804292 0.871876
O O15 0.000000 0.898266 0.000000
#
# Coordination Sequence:
#
# PCOD8050008 Si02
#       7
#     4   4   4   4   4   4   4
#     4  11  23  43  63  93 133 166 212 268 314 380
#     4  11  22  42  66  91 130 174 211 258 323 372
#     4  11  23  39  67  94 128 172 211 262 319 375
#     4  10  21  40  67  94 127 173 210 259 329 373
#     4  11  23  41  65  95 128 163 220 263 310 385
#     4  10  22  42  65  94 128 170 210 264 324 375
#     4  10  21  39  65  93 126 162 215 258 309 380
#
# _framework density 20.940802999999999
#
# number of rings (size 3 to 8) (size 9 to 14) (size 15 to 20)
#    0.000    1.429    4.286    1.286    2.000    4.000 
#    0.000    2.857    0.000    0.000    0.000    0.000 
#    0.000    0.000    0.000    0.000    0.000    0.000 
#
# Total GULP energy -173434.149547 kJ/mol
# GULP energy per Si atom -12388.153539 kJ/mol
# Density = 2.089314 g / cm^3
# Si number density = 20.940803 Si / 1000 Ang^3
#
#
#
# Elastic Constant Matrix: (Units=GPa)
#
#
# Indices 1 2 3 4 5 6 
#
# 1 102.1506 54.5721 24.5328 0.0000 -1.9165 0.0000
# 2 54.5721 65.1699 16.9819 0.0000 -19.2897 0.0000
# 3 24.5328 16.9819 114.4952 0.0000 -1.2296 0.0000
# 4 0.0000 0.0000 0.0000 27.0057 0.0000 -2.2177
# 5 -1.9165 -19.2897 -1.2296 0.0000 30.7065 0.0000
# 6 0.0000 0.0000 0.0000 -2.2177 0.0000 30.1127
#
#
#
# Elastic Compliance Matrix: (Units=1/GPa)
#
#
# Indices 1 2 3 4 5 6 
#
# 1 0.020948 -0.020596 -0.001559 0.000000 -0.011693 0.000000
# 2 -0.020596 0.039952 -0.001257 0.000000 0.023762 0.000000
# 3 -0.001559 -0.001257 0.009249 0.000000 -0.000517 0.000000
# 4 0.000000 0.000000 0.000000 0.037255 0.000000 0.002744
# 5 -0.011693 0.023762 -0.000517 0.000000 0.046743 0.000000
# 6 0.000000 0.000000 0.000000 0.002744 0.000000 0.033411
#
#
# Mechanical properties :
#
#
# Convention : Reuss Voigt Hill
#
# Bulk Modulus (GPa) = 42.87504 52.66550 47.77027
# Shear Modulus (GPa) = 20.64781 29.94691 25.29736
#
# Velocity S-wave (km/s) = 3.14348 3.78574 3.47946
# Velocity P-wave (km/s) = 5.80467 6.65683 6.24530
#
# Compressibility (1/GPa) = 0.02332359
#
# Stress axis : x y z
#
# Youngs Moduli (GPa) = 47.73830 25.02997 108.11940
#
# Poissons Ratio (x) = 0.51551 0.16858
# Poissons Ratio (y) = 0.98321 0.13595
# Poissons Ratio (z) = 0.07443 0.03147
#
# Static dielectric constant tensor:
#      x y z
#    x 3.994290 0.000000 0.201500 
#    y 0.000000 3.703090 0.000000 
#    z 0.201500 0.000000 4.174220 
# 
# 
# High freq. dielectric constant tensor:
#      x y z
#    x 1.822460 0.000000 0.015110 
#    y 0.000000 1.804210 0.000000 
#    z 0.015110 0.000000 1.828140 
# 
# From -- ./inp_files/52239.got.cif
#   From: 2010.03.12/outbox.cif.g09.slc.cpg/sg5_27_cif.got.tgz:52239.got - 2010.03.31 09:47:26.
