data_PCOD8050243
_publ_section_title
;
Structure prediction by ZEFSAII (Michael W. Deem and Ramdas Pophale) SiO2 
 PCOD8050243
Probable space group: C 2
;
_chemical_formula_sum "Si O2"
_cell_formula_units_Z 30
_cell_length_a 21.002436
_cell_length_b 8.125351
_cell_length_c 9.139457
_cell_angle_alpha 90.000000
_cell_angle_beta 64.745469
_cell_angle_gamma 90.000000
_cell_volume 1410.597237
_symmetry_space_group_name_H-M "C 2"
_symmetry_group_IT_number 5
_symmetry_cell_setting 'monoclinic'
loop_
_space_group_symop_operation_xyz
x,y,z
-x,y,-z
1/2+x,1/2+y,z
1/2-x,1/2+y,-z
loop_
_atom_site_type_symbol
_atom_site_label
_atom_site_fract_x
_atom_site_fract_y
_atom_site_fract_z
Si Si1 0.129504 0.375000 0.990738
Si Si2 0.500000 0.442809 0.000000
Si Si3 0.278151 0.664674 0.289289
Si Si4 0.987580 0.184467 0.752606
Si Si5 0.364875 0.230586 0.140033
Si Si6 0.779488 0.372210 0.813525
Si Si7 0.825323 0.896113 0.464193
Si Si8 0.104013 0.146061 0.425540
O O1 0.152167 0.221209 0.867166
O O2 0.123682 0.539243 0.901606
O O3 0.051544 0.337992 0.130546
O O4 0.189421 0.388812 0.055468
O O5 0.515574 0.553290 0.842507
O O6 0.566713 0.331441 0.974813
O O7 0.224502 0.557670 0.243738
O O8 0.239904 0.828557 0.380029
O O9 0.302137 0.558702 0.402241
O O10 0.930908 0.106722 0.696455
O O11 0.053488 0.244576 0.589378
O O12 0.299097 0.297192 0.109779
O O13 0.353770 0.256827 0.325469
O O14 0.826908 0.257899 0.662193
O O15 0.881875 0.962942 0.525230
#
# Coordination Sequence:
#
# PCOD8050243 Si02
#       8
#     4   2   4   4   4   4   4   4
#     4  11  23  41  66  96 128 166 217 266 321 377
#     4  12  24  46  64  94 136 168 218 258 324 386
#     4  11  22  37  63  96 127 164 209 266 323 374
#     4  10  23  42  67  94 126 177 210 261 321 385
#     4  11  24  41  62  95 132 167 213 266 319 381
#     4  10  22  41  67  97 126 165 214 271 319 375
#     4  11  21  39  61  93 129 166 210 262 317 386
#     4  10  21  42  68  93 128 167 220 261 320 380
#
# _framework density 21.267586999999999
#
# number of rings (size 3 to 8) (size 9 to 14) (size 15 to 20)
#    0.000    1.333    1.333    5.600    0.000    4.800 
#    2.400    0.000    0.000    0.000    0.000    0.000 
#    0.000    0.000    0.000    0.000    0.000    0.000 
#
# Total GULP energy -186001.294223 kJ/mol
# GULP energy per Si atom -12400.086282 kJ/mol
# Density = 2.121918 g / cm^3
# Si number density = 21.267587 Si / 1000 Ang^3
#
#
#
# Elastic Constant Matrix: (Units=GPa)
#
#
# Indices 1 2 3 4 5 6 
#
# 1 95.9844 54.7623 35.7050 0.0000 -13.6469 0.0000
# 2 54.7623 114.5348 56.1603 0.0000 10.9695 0.0000
# 3 35.7050 56.1603 102.5626 0.0000 -7.9013 0.0000
# 4 0.0000 0.0000 0.0000 44.6050 0.0000 1.6191
# 5 -13.6469 10.9695 -7.9013 0.0000 32.1086 0.0000
# 6 0.0000 0.0000 0.0000 1.6191 0.0000 34.2720
#
#
#
# Elastic Compliance Matrix: (Units=1/GPa)
#
#
# Indices 1 2 3 4 5 6 
#
# 1 0.017152 -0.009098 -0.000192 0.000000 0.010351 0.000000
# 2 -0.009098 0.017923 -0.007560 0.000000 -0.011850 0.000000
# 3 -0.000192 -0.007560 0.014422 0.000000 0.006050 0.000000
# 4 0.000000 0.000000 0.000000 0.022458 0.000000 -0.001061
# 5 0.010351 -0.011850 0.006050 0.000000 0.041081 0.000000
# 6 0.000000 0.000000 0.000000 -0.001061 0.000000 0.029228
#
#
# Mechanical properties :
#
#
# Convention : Reuss Voigt Hill
#
# Bulk Modulus (GPa) = 63.29844 67.37079 65.33462
# Shear Modulus (GPa) = 27.58923 33.29407 30.44165
#
# Velocity S-wave (km/s) = 3.60563 3.96091 3.78744
# Velocity P-wave (km/s) = 6.86743 7.25706 7.06493
#
# Compressibility (1/GPa) = 0.01579818
#
# Stress axis : x y z
#
# Youngs Moduli (GPa) = 58.30104 55.79479 69.33666
#
# Poissons Ratio (x) = 0.50764 0.01330
# Poissons Ratio (y) = 0.53045 0.52415
# Poissons Ratio (z) = 0.01118 0.42178
#
# Static dielectric constant tensor:
#      x y z
#    x 3.936810 0.000000 0.009600 
#    y 0.000000 3.674940 0.000000 
#    z 0.009600 0.000000 4.050270 
# 
# 
# High freq. dielectric constant tensor:
#      x y z
#    x 1.840850 0.000000 0.001140 
#    y 0.000000 1.818290 0.000000 
#    z 0.001140 0.000000 1.848380 
# 
# From -- ./inp_files/30671.got.cif
#   From: 2010.03.12/outbox.cif.g09.slc.cpg/sg5_16_cif.got.tgz:30671.got - 2010.03.31 09:47:26.
