data_PCOD8050952
_publ_section_title
;
Structure prediction by ZEFSAII (Michael W. Deem and Ramdas Pophale) SiO2 
 PCOD8050952
Probable space group: C 2
;
_chemical_formula_sum "Si O2"
_cell_formula_units_Z 22
_cell_length_a 21.396634
_cell_length_b 8.804150
_cell_length_c 7.265560
_cell_angle_alpha 90.000000
_cell_angle_beta 150.229347
_cell_angle_gamma 90.000000
_cell_volume 679.589993
_symmetry_space_group_name_H-M "C 2"
_symmetry_group_IT_number 5
_symmetry_cell_setting 'monoclinic'
loop_
_space_group_symop_operation_xyz
x,y,z
-x,y,-z
1/2+x,1/2+y,z
1/2-x,1/2+y,-z
loop_
_atom_site_type_symbol
_atom_site_label
_atom_site_fract_x
_atom_site_fract_y
_atom_site_fract_z
Si Si1 0.573160 0.711540 0.940883
Si Si2 0.997681 0.553003 0.203017
Si Si3 0.000000 0.985482 0.500000
Si Si4 0.761517 0.743090 0.098894
Si Si5 0.798425 0.773694 0.816606
Si Si6 0.356349 0.459155 0.620778
O O1 0.472455 0.581641 0.623800
O O2 0.506927 0.871642 0.788485
O O3 0.659486 0.682912 0.982201
O O4 0.641833 0.645225 0.310861
O O5 0.866939 0.613202 0.953057
O O6 0.120791 0.624327 0.610708
O O7 0.000000 0.603540 0.000000
O O8 0.884966 0.877283 0.167070
O O9 0.698707 0.750595 0.732160
O O10 0.803294 0.910171 0.287932
O O11 0.767389 0.867737 0.547363
O O12 0.500000 0.399175 0.000000
#
# Coordination Sequence:
#
# PCOD8050952 Si02
#       6
#     4   4   2   4   4   4
#     4  11  29  43  74 117 149 195 259 316 376 456
#     4  12  24  46  73 109 151 200 249 320 378 445
#     4  10  22  48  64 104 152 190 244 304 376 438
#     4  12  24  45  78 105 148 202 246 305 385 455
#     4  11  21  44  76  96 144 202 240 299 386 445
#     4  11  22  48  72  99 145 195 243 307 377 440
#
# _framework density 32.372463000000003
#
# number of rings (size 3 to 8) (size 9 to 14) (size 15 to 20)
#    0.000    0.727    5.455    1.636    5.091    2.909 
#    0.000    1.818    0.000    0.000    0.000    0.000 
#    0.000    0.000    0.000    0.000    0.000    0.000 
#
# Total GULP energy -136279.145635 kJ/mol
# GULP energy per Si atom -12389.013240 kJ/mol
# Density = 3.229878 g / cm^3
# Si number density = 32.372463 Si / 1000 Ang^3
#
#
#
# Elastic Constant Matrix: (Units=GPa)
#
#
# Indices 1 2 3 4 5 6 
#
# 1 173.0233 66.8623 51.6562 0.0000 -60.9004 0.0000
# 2 66.8623 247.0164 46.4846 0.0000 -5.7037 0.0000
# 3 51.6562 46.4846 98.8935 0.0000 -40.1684 0.0000
# 4 0.0000 0.0000 0.0000 -4.4650 0.0000 110.2530
# 5 -60.9004 -5.7037 -40.1684 0.0000 64.3956 0.0000
# 6 0.0000 0.0000 0.0000 110.2530 0.0000 -236.2420
#
#
#
# Elastic Compliance Matrix: (Units=1/GPa)
#
#
# Indices 1 2 3 4 5 6 
#
# 1 0.010003 -0.002417 -0.000447 0.000000 0.008967 0.000000
# 2 -0.002417 0.005097 -0.002516 0.000000 -0.003403 0.000000
# 3 -0.000447 -0.002516 0.015089 0.000000 0.008767 0.000000
# 4 0.000000 0.000000 0.000000 0.021281 0.000000 0.009932
# 5 0.008967 -0.003403 0.008767 0.000000 0.029177 0.000000
# 6 0.000000 0.000000 0.000000 0.009932 0.000000 0.000402
#
#
# Mechanical properties :
#
#
# Convention : Reuss Voigt Hill
#
# Bulk Modulus (GPa) = 51.46576 94.32661 72.89618
# Shear Modulus (GPa) = 50.87246 -11.66693 19.60276
#
# Velocity S-wave (km/s) = 3.96848 -1.90047 2.46344
# Velocity P-wave (km/s) = 6.07709 4.93816 5.53699
#
# Compressibility (1/GPa) = 0.01943039
#
# Stress axis : x y z
#
# Youngs Moduli (GPa) = 99.96868 196.18160 66.27454
#
# Poissons Ratio (x) = 0.47407 0.02961
# Poissons Ratio (y) = 0.24157 0.16675
# Poissons Ratio (z) = 0.04467 0.49361
#
# Static dielectric constant tensor:
#      x y z
#    x 8.461850 0.000000 -1.589420 
#    y 0.000000 6.648860 0.000000 
#    z -1.589420 0.000000 8.051580 
# 
# 
# High freq. dielectric constant tensor:
#      x y z
#    x 2.376150 0.000000 -0.003210 
#    y 0.000000 2.369680 0.000000 
#    z -0.003210 0.000000 2.364230 
# 
# From -- ./inp_files/30635.got.cif
#   From: 2010.03.12/outbox.cif.g09.slc.cpg/sg5_16_cif.got.tgz:30635.got - 2010.03.31 09:47:26.
