data_PCOD8050824
_publ_section_title
;
Structure prediction by ZEFSAII (Michael W. Deem and Ramdas Pophale) SiO2 
 PCOD8050824
Probable space group: C 2
;
_chemical_formula_sum "Si O2"
_cell_formula_units_Z 28
_cell_length_a 7.793395
_cell_length_b 9.872470
_cell_length_c 23.016944
_cell_angle_alpha 90.000000
_cell_angle_beta 42.417368
_cell_angle_gamma 90.000000
_cell_volume 1194.535327
_symmetry_space_group_name_H-M "C 2"
_symmetry_group_IT_number 5
_symmetry_cell_setting 'monoclinic'
loop_
_space_group_symop_operation_xyz
x,y,z
-x,y,-z
1/2+x,1/2+y,z
1/2-x,1/2+y,-z
loop_
_atom_site_type_symbol
_atom_site_label
_atom_site_fract_x
_atom_site_fract_y
_atom_site_fract_z
Si Si1 0.493984 0.468050 0.569481
Si Si2 0.301084 0.222972 0.337190
Si Si3 0.000000 0.395140 0.500000
Si Si4 0.254550 0.224203 0.685158
Si Si5 0.000000 0.007654 0.000000
Si Si6 0.032835 0.964975 0.220382
Si Si7 0.702342 0.607058 0.064332
Si Si8 0.022180 0.370845 0.156453
O O1 0.500000 0.507191 0.500000
O O2 0.316150 0.575621 0.649375
O O3 0.770077 0.484808 0.530884
O O4 0.389944 0.311956 0.600257
O O5 0.547963 0.195665 0.313232
O O6 0.388786 0.318611 0.260958
O O7 0.085879 0.302128 0.425705
O O8 0.134784 0.076933 0.701171
O O9 0.034407 0.322836 0.764011
O O10 0.177123 0.080597 0.002307
O O11 0.802651 0.931283 0.090635
O O12 0.083073 0.998807 0.140069
O O13 0.302326 0.967022 0.186272
O O14 0.538901 0.742156 0.110253
O O15 0.000000 0.627926 0.000000
#
# Coordination Sequence:
#
# PCOD8050824 Si02
#       8
#     4   4   2   4   2   4   4   4
#     4  11  24  48  76 104 141 189 233 292 356 416
#     4  10  22  45  69 104 146 179 240 296 339 423
#     4  10  24  46  66 104 148 174 238 296 338 428
#     4   9  23  45  69 101 143 184 236 291 347 425
#     4  12  24  40  72 104 132 182 242 284 356 428
#     4  10  22  45  73  98 149 190 229 298 354 412
#     4  11  23  43  70  99 142 185 233 293 354 413
#     4  10  22  44  66 101 141 181 235 294 344 424
#
# _framework density 23.440076000000001
#
# number of rings (size 3 to 8) (size 9 to 14) (size 15 to 20)
#    0.000    1.714    2.857    0.000    2.000    4.571 
#   10.286    5.714    0.000    0.000    0.000    0.000 
#    0.000    0.000    0.000    0.000    0.000    0.000 
#
# Total GULP energy -173435.357877 kJ/mol
# GULP energy per Si atom -12388.239848 kJ/mol
# Density = 2.338673 g / cm^3
# Si number density = 23.440076 Si / 1000 Ang^3
#
#
#
# Elastic Constant Matrix: (Units=GPa)
#
#
# Indices 1 2 3 4 5 6 
#
# 1 101.7665 47.7868 34.9139 -0.0019 -9.4258 -0.0039
# 2 47.7868 113.9265 36.1391 -0.0007 -14.2747 -0.0007
# 3 34.9139 36.1391 94.8139 -0.0072 -20.8121 -0.0124
# 4 -0.0019 -0.0007 -0.0072 36.4349 0.0013 -27.5380
# 5 -9.4258 -14.2747 -20.8121 0.0013 36.9830 0.0031
# 6 -0.0039 -0.0007 -0.0124 -27.5380 0.0031 9.0750
#
#
#
# Elastic Compliance Matrix: (Units=1/GPa)
#
#
# Indices 1 2 3 4 5 6 
#
# 1 0.012981 -0.004480 -0.003110 -0.000001 -0.000171 -0.000001
# 2 -0.004480 0.011656 -0.002346 0.000003 0.002037 0.000005
# 3 -0.003110 -0.002346 0.013935 -0.000011 0.006144 -0.000017
# 4 -0.000001 0.000003 -0.000011 -0.021218 0.000001 -0.064387
# 5 -0.000171 0.002037 0.006144 0.000001 0.031240 0.000001
# 6 -0.000001 0.000005 -0.000017 -0.064387 0.000001 -0.085189
#
#
# Mechanical properties :
#
#
# Convention : Reuss Voigt Hill
#
# Bulk Modulus (GPa) = 53.47499 60.90961 57.19230
# Shear Modulus (GPa) = -476.62243 29.27639 -223.67302
#
# Velocity S-wave (km/s) = -14.27508 3.53794 -9.77908
# Velocity P-wave (km/s) = 15.77469 6.53689 10.15160
#
# Compressibility (1/GPa) = 0.01870033
#
# Stress axis : x y z
#
# Youngs Moduli (GPa) = 77.03436 85.79199 71.76159
#
# Poissons Ratio (x) = 0.38433 0.22319
# Poissons Ratio (y) = 0.34510 0.16836
# Poissons Ratio (z) = 0.23959 0.20127
#
# Static dielectric constant tensor:
#      x y z
#    x 4.089930 0.000000 -0.984050 
#    y 0.000000 4.252860 0.000000 
#    z -0.984050 0.000000 6.468810 
# 
# 
# High freq. dielectric constant tensor:
#      x y z
#    x 1.908330 0.000000 -0.021040 
#    y 0.000000 1.919800 0.000000 
#    z -0.021040 0.000000 1.946660 
# 
# From -- ./inp_files/70154.got.cif
#   From: 2010.03.12/outbox.cif.g09.slc.cpg/sg5_36_cif.got.tgz:70154.got - 2010.03.31 09:47:26.
