data_PCOD8050677
_publ_section_title
;
Structure prediction by ZEFSAII (Michael W. Deem and Ramdas Pophale) SiO2 
 PCOD8050677
Probable space group: C 2
;
_chemical_formula_sum "Si O2"
_cell_formula_units_Z 26
_cell_length_a 7.238550
_cell_length_b 16.903707
_cell_length_c 12.001848
_cell_angle_alpha 90.000000
_cell_angle_beta 61.137540
_cell_angle_gamma 90.000000
_cell_volume 1286.107196
_symmetry_space_group_name_H-M "C 2"
_symmetry_group_IT_number 5
_symmetry_cell_setting 'monoclinic'
loop_
_space_group_symop_operation_xyz
x,y,z
-x,y,-z
1/2+x,1/2+y,z
1/2-x,1/2+y,-z
loop_
_atom_site_type_symbol
_atom_site_label
_atom_site_fract_x
_atom_site_fract_y
_atom_site_fract_z
Si Si1 0.070013 0.562320 0.853116
Si Si2 0.000000 0.816625 0.000000
Si Si3 0.350818 0.439545 0.635638
Si Si4 0.364623 0.703652 0.825253
Si Si5 0.137780 0.081017 0.861246
Si Si6 0.897927 0.919460 0.230230
Si Si7 0.519427 0.831937 0.623966
O O1 0.185247 0.492538 0.752486
O O2 0.226374 0.635363 0.810970
O O3 0.874626 0.591617 0.835765
O O4 0.000000 0.536547 0.000000
O O5 0.209844 0.762453 0.937250
O O6 0.970305 0.873467 0.902438
O O7 0.500000 0.484749 0.500000
O O8 0.501352 0.396671 0.681254
O O9 0.238005 0.370299 0.598838
O O10 0.489360 0.747990 0.692016
O O11 0.543316 0.665766 0.852633
O O12 0.108211 0.015140 0.774317
O O13 0.000000 0.044811 0.000000
O O14 0.658238 0.893423 0.287860
O O15 0.500000 0.815017 0.500000
#
# Coordination Sequence:
#
# PCOD8050677 Si02
#       7
#     4   2   4   4   4   4   4
#     4  12  24  43  69 104 138 178 227 286 337 407
#     4  10  22  42  64 106 134 174 222 282 346 408
#     4  12  25  43  73 101 133 184 234 282 336 404
#     4  11  24  41  66  98 140 172 218 287 345 402
#     4  12  21  40  69  98 136 176 221 283 343 400
#     4  11  22  41  70  98 134 173 229 281 334 401
#     4  11  25  45  65  95 134 179 226 282 339 403
#
# _framework density 20.216045999999999
#
# number of rings (size 3 to 8) (size 9 to 14) (size 15 to 20)
#    0.000    0.615    7.692    0.000    0.000    4.308 
#    0.000    0.000    0.000    0.000    0.000    0.000 
#    0.000    0.000    0.000    0.000    0.000    0.000 
#
# Total GULP energy -161153.867968 kJ/mol
# GULP energy per Si atom -12396.451382 kJ/mol
# Density = 2.017003 g / cm^3
# Si number density = 20.216046 Si / 1000 Ang^3
#
#
#
# Elastic Constant Matrix: (Units=GPa)
#
#
# Indices 1 2 3 4 5 6 
#
# 1 136.0507 38.9973 46.2816 0.0000 20.7249 0.0000
# 2 38.9973 90.6543 56.1599 0.0000 5.4441 0.0000
# 3 46.2816 56.1599 135.3193 0.0000 9.9426 0.0000
# 4 0.0000 0.0000 0.0000 30.0918 0.0000 8.6867
# 5 20.7249 5.4441 9.9426 0.0000 30.4474 0.0000
# 6 0.0000 0.0000 0.0000 8.6867 0.0000 39.2473
#
#
#
# Elastic Compliance Matrix: (Units=1/GPa)
#
#
# Indices 1 2 3 4 5 6 
#
# 1 0.009547 -0.002699 -0.001745 0.000000 -0.005446 0.000000
# 2 -0.002699 0.015624 -0.005626 0.000000 0.000880 0.000000
# 3 -0.001745 -0.005626 0.010410 0.000000 -0.001206 0.000000
# 4 0.000000 0.000000 0.000000 0.035500 0.000000 -0.007857
# 5 -0.005446 0.000880 -0.001206 0.000000 0.036787 0.000000
# 6 0.000000 0.000000 0.000000 -0.007857 0.000000 0.027219
#
#
# Mechanical properties :
#
#
# Convention : Reuss Voigt Hill
#
# Bulk Modulus (GPa) = 64.75913 71.65574 68.20743
# Shear Modulus (GPa) = 31.17717 34.66299 32.92008
#
# Velocity S-wave (km/s) = 3.93134 4.14530 4.03974
# Velocity P-wave (km/s) = 7.26019 7.64417 7.45465
#
# Compressibility (1/GPa) = 0.01544184
#
# Stress axis : x y z
#
# Youngs Moduli (GPa) = 104.74480 64.00290 96.05910
#
# Poissons Ratio (x) = 0.17273 0.16763
# Poissons Ratio (y) = 0.28268 0.54043
# Poissons Ratio (z) = 0.18279 0.36008
#
# Static dielectric constant tensor:
#      x y z
#    x 3.818330 0.000000 -0.005360 
#    y 0.000000 3.568370 0.000000 
#    z -0.005360 0.000000 3.768270 
# 
# 
# High freq. dielectric constant tensor:
#      x y z
#    x 1.805770 0.000000 0.000130 
#    y 0.000000 1.778570 0.000000 
#    z 0.000130 0.000000 1.792170 
# 
# From -- ./inp_files/36032.got.cif
#   From: 2010.03.12/outbox.cif.g09.slc.cpg/sg5_19_cif.got.tgz:36032.got - 2010.03.31 09:47:26.
