data_PCOD8050279
_publ_section_title
;
Structure prediction by ZEFSAII (Michael W. Deem and Ramdas Pophale) SiO2 
 PCOD8050279
Probable space group: C 2
;
_chemical_formula_sum "Si O2"
_cell_formula_units_Z 24
_cell_length_a 11.703551
_cell_length_b 9.070604
_cell_length_c 22.026946
_cell_angle_alpha 90.000000
_cell_angle_beta 154.755871
_cell_angle_gamma 90.000000
_cell_volume 997.247149
_symmetry_space_group_name_H-M "C 2"
_symmetry_group_IT_number 5
_symmetry_cell_setting 'monoclinic'
loop_
_space_group_symop_operation_xyz
x,y,z
-x,y,-z
1/2+x,1/2+y,z
1/2-x,1/2+y,-z
loop_
_atom_site_type_symbol
_atom_site_label
_atom_site_fract_x
_atom_site_fract_y
_atom_site_fract_z
Si Si1 0.998318 0.043640 0.827508
Si Si2 0.730938 0.381487 0.838257
Si Si3 0.433934 0.875153 0.112617
Si Si4 0.584921 0.026224 0.474727
Si Si5 0.401179 0.694317 0.536461
Si Si6 0.414270 0.111849 0.724004
O O1 0.116588 0.205562 0.895181
O O2 0.012546 0.996304 0.761830
O O3 0.685900 0.033977 0.696729
O O4 0.170280 0.930063 0.950602
O O5 0.790920 0.392644 0.794979
O O6 0.662523 0.215807 0.826402
O O7 0.000000 0.431172 0.000000
O O8 0.472177 0.960838 0.194239
O O9 0.500000 0.080672 0.500000
O O10 0.706273 0.859686 0.530763
O O11 0.808631 0.140217 0.557969
O O12 0.722158 0.690167 0.682458
O O13 0.260774 0.583463 0.420648
#
# Coordination Sequence:
#
# PCOD8050279 Si02
#       6
#     4   4   4   4   4   4
#     4  11  24  44  71 105 135 183 235 287 349 419
#     4  10  21  43  68 100 138 183 227 286 351 410
#     4  11  25  44  73 100 143 180 231 294 355 412
#     4  12  26  48  71 101 145 188 239 288 347 413
#     4  11  26  44  70 101 142 189 234 288 346 412
#     4  11  23  46  69 101 143 186 232 288 349 416
#
# _framework density 24.066251999999999
#
# number of rings (size 3 to 8) (size 9 to 14) (size 15 to 20)
#    0.000    1.000    3.333    3.000    7.000    1.333 
#    0.000    9.167    0.000    0.000    0.000    0.000 
#    0.000    0.000    0.000    0.000    0.000    0.000 
#
# Total GULP energy -148797.600107 kJ/mol
# GULP energy per Si atom -12399.800009 kJ/mol
# Density = 2.401148 g / cm^3
# Si number density = 24.066252 Si / 1000 Ang^3
#
#
#
# Elastic Constant Matrix: (Units=GPa)
#
#
# Indices 1 2 3 4 5 6 
#
# 1 110.8723 38.2490 15.9171 0.0016 1.2959 0.0001
# 2 38.2490 111.3316 3.7920 0.0010 -11.6405 -0.0002
# 3 15.9171 3.7920 44.1078 0.0085 7.7231 -0.0040
# 4 0.0016 0.0010 0.0085 37.2147 -0.0014 -0.3130
# 5 1.2959 -11.6405 7.7231 -0.0014 35.5925 0.0006
# 6 0.0001 -0.0002 -0.0040 -0.3130 0.0006 46.3472
#
#
#
# Elastic Compliance Matrix: (Units=1/GPa)
#
#
# Indices 1 2 3 4 5 6 
#
# 1 0.010791 -0.003680 -0.003429 0.000000 -0.000852 0.000000
# 2 -0.003680 0.010637 -0.000228 0.000000 0.003662 0.000000
# 3 -0.003429 -0.000228 0.024864 -0.000006 -0.005345 0.000002
# 4 0.000000 0.000000 -0.000006 0.026873 0.000002 0.000181
# 5 -0.000852 0.003662 -0.005345 0.000002 0.030484 -0.000001
# 6 0.000000 0.000000 0.000002 0.000181 -0.000001 0.021578
#
#
# Mechanical properties :
#
#
# Convention : Reuss Voigt Hill
#
# Bulk Modulus (GPa) = 31.62520 42.46976 37.04748
# Shear Modulus (GPa) = 33.23600 37.72110 35.47855
#
# Velocity S-wave (km/s) = 3.72024 3.96332 3.84370
# Velocity P-wave (km/s) = 5.62343 6.21524 5.92673
#
# Compressibility (1/GPa) = 0.03162036
#
# Stress axis : x y z
#
# Youngs Moduli (GPa) = 92.66993 94.01109 40.21805
#
# Poissons Ratio (x) = 0.34593 0.13789
# Poissons Ratio (y) = 0.34100 0.00916
# Poissons Ratio (z) = 0.31772 0.02142
#
# Static dielectric constant tensor:
#      x y z
#    x 4.580420 0.000000 0.255310 
#    y 0.000000 3.990220 -0.000010 
#    z 0.255310 -0.000010 4.419380 
# 
# 
# High freq. dielectric constant tensor:
#      x y z
#    x 1.953940 0.000000 0.011660 
#    y 0.000000 1.933640 0.000000 
#    z 0.011660 0.000000 1.967060 
# 
# From -- ./inp_files/68310.got.cif
#   From: 2010.03.12/outbox.cif.g09.slc.cpg/sg5_35_cif.got.tgz:68310.got - 2010.03.31 09:47:26.
