data_PCOD8050838
_publ_section_title
;
Structure prediction by ZEFSAII (Michael W. Deem and Ramdas Pophale) SiO2 
 PCOD8050838
Probable space group: C 2
;
_chemical_formula_sum "Si O2"
_cell_formula_units_Z 26
_cell_length_a 20.950590
_cell_length_b 7.892113
_cell_length_c 13.981843
_cell_angle_alpha 90.000000
_cell_angle_beta 29.634917
_cell_angle_gamma 90.000000
_cell_volume 1143.129360
_symmetry_space_group_name_H-M "C 2"
_symmetry_group_IT_number 5
_symmetry_cell_setting 'monoclinic'
loop_
_space_group_symop_operation_xyz
x,y,z
-x,y,-z
1/2+x,1/2+y,z
1/2-x,1/2+y,-z
loop_
_atom_site_type_symbol
_atom_site_label
_atom_site_fract_x
_atom_site_fract_y
_atom_site_fract_z
Si Si1 0.225283 0.529600 0.913605
Si Si2 0.500000 0.176993 0.500000
Si Si3 0.232829 0.134627 0.927011
Si Si4 0.960835 0.029734 0.240064
Si Si5 0.371718 0.438127 0.550069
Si Si6 0.474025 0.173558 0.145228
Si Si7 0.376195 0.835942 0.227617
O O1 0.199347 0.330201 0.955083
O O2 0.337849 0.552779 0.687089
O O3 0.269694 0.602299 0.956771
O O4 0.101747 0.630412 0.038150
O O5 0.369307 0.074869 0.699717
O O6 0.478013 0.296358 0.436389
O O7 0.116370 0.036203 0.025561
O O8 0.911550 0.844498 0.270326
O O9 0.926429 0.058268 0.396105
O O10 0.882705 0.172602 0.285748
O O11 0.247969 0.328958 0.677677
O O12 0.374932 0.015444 0.287477
O O13 0.500000 0.209325 0.000000
O O14 0.500000 0.842262 0.000000
#
# Coordination Sequence:
#
# PCOD8050838 Si02
#       7
#     4   2   4   4   4   4   4
#     4  11  21  42  68  95 144 178 225 284 345 396
#     4  10  22  44  68 100 140 178 228 290 348 404
#     4  11  23  43  70  99 134 186 226 288 345 412
#     4  12  25  42  72 105 136 186 233 274 350 413
#     4  11  23  41  70 101 140 184 226 285 347 403
#     4  11  22  41  69  98 138 181 226 284 334 402
#     4  11  22  45  66 100 141 187 224 285 343 401
#
# _framework density 22.744582999999999
#
# number of rings (size 3 to 8) (size 9 to 14) (size 15 to 20)
#    0.000    0.923    4.615    5.077    2.154    0.000 
#    0.000    3.077    6.769    0.923    0.000    0.000 
#    0.000    0.000    0.000    0.000    0.000    0.000 
#
# Total GULP energy -161162.703172 kJ/mol
# GULP energy per Si atom -12397.131013 kJ/mol
# Density = 2.269282 g / cm^3
# Si number density = 22.744583 Si / 1000 Ang^3
#
#
#
# Elastic Constant Matrix: (Units=GPa)
#
#
# Indices 1 2 3 4 5 6 
#
# 1 88.0641 32.2140 16.3029 0.0000 1.2050 0.0000
# 2 32.2140 127.2190 21.1555 -0.0001 13.3842 0.0001
# 3 16.3029 21.1555 82.0497 -0.0002 7.9991 0.0001
# 4 0.0000 -0.0001 -0.0002 22.6877 0.0000 3.5182
# 5 1.2050 13.3842 7.9991 0.0000 43.0302 0.0000
# 6 0.0000 0.0001 0.0001 3.5182 0.0000 43.8699
#
#
#
# Elastic Compliance Matrix: (Units=1/GPa)
#
#
# Indices 1 2 3 4 5 6 
#
# 1 0.012794 -0.003029 -0.001851 0.000000 0.000928 0.000000
# 2 -0.003029 0.009140 -0.001513 0.000000 -0.002477 0.000000
# 3 -0.001851 -0.001513 0.013133 0.000000 -0.001919 0.000000
# 4 0.000000 0.000000 0.000000 0.044632 0.000000 -0.003579
# 5 0.000928 -0.002477 -0.001919 0.000000 0.024341 0.000000
# 6 0.000000 0.000000 0.000000 -0.003579 0.000000 0.023082
#
#
# Mechanical properties :
#
#
# Convention : Reuss Voigt Hill
#
# Bulk Modulus (GPa) = 44.88690 48.51973 46.70331
# Shear Modulus (GPa) = 33.93647 37.09491 35.51569
#
# Velocity S-wave (km/s) = 3.86692 4.04286 3.95587
# Velocity P-wave (km/s) = 6.30202 6.57052 6.43767
#
# Compressibility (1/GPa) = 0.02227822
#
# Stress axis : x y z
#
# Youngs Moduli (GPa) = 78.16442 109.41239 76.14501
#
# Poissons Ratio (x) = 0.33144 0.14098
# Poissons Ratio (y) = 0.23678 0.11522
# Poissons Ratio (z) = 0.14472 0.16556
#
# Static dielectric constant tensor:
#      x y z
#    x 4.451020 0.000000 -0.067050 
#    y 0.000000 4.156640 0.000000 
#    z -0.067050 0.000000 4.205270 
# 
# 
# High freq. dielectric constant tensor:
#      x y z
#    x 1.919660 0.000000 -0.006070 
#    y 0.000000 1.874250 0.000000 
#    z -0.006070 0.000000 1.896120 
# 
# From -- ./inp_files/56797.got.cif
#   From: 2010.03.12/outbox.cif.g09.slc.cpg/sg5_29_cif.got.tgz:56797.got - 2010.03.31 09:47:26.
