data_PCOD8050678
_publ_section_title
;
Structure prediction by ZEFSAII (Michael W. Deem and Ramdas Pophale) SiO2 
 PCOD8050678
Probable space group: C 2
;
_chemical_formula_sum "Si O2"
_cell_formula_units_Z 30
_cell_length_a 10.221406
_cell_length_b 9.414552
_cell_length_c 15.245991
_cell_angle_alpha 90.000000
_cell_angle_beta 77.324535
_cell_angle_gamma 90.000000
_cell_volume 1431.365278
_symmetry_space_group_name_H-M "C 2"
_symmetry_group_IT_number 5
_symmetry_cell_setting 'monoclinic'
loop_
_space_group_symop_operation_xyz
x,y,z
-x,y,-z
1/2+x,1/2+y,z
1/2-x,1/2+y,-z
loop_
_atom_site_type_symbol
_atom_site_label
_atom_site_fract_x
_atom_site_fract_y
_atom_site_fract_z
Si Si1 0.202146 0.656350 0.843940
Si Si2 0.500000 0.291567 0.000000
Si Si3 0.549104 0.311957 0.332460
Si Si4 0.738914 0.457402 0.758630
Si Si5 0.308528 0.820101 0.406306
Si Si6 0.471524 0.028298 0.273849
Si Si7 0.675459 0.502344 0.572779
Si Si8 0.951388 0.975277 0.844800
O O1 0.114580 0.692614 0.942043
O O2 0.223068 0.791572 0.779682
O O3 0.125586 0.539985 0.795928
O O4 0.346091 0.602919 0.856019
O O5 0.429635 0.390421 0.937831
O O6 0.689636 0.283896 0.357151
O O7 0.463613 0.166630 0.337932
O O8 0.468569 0.425145 0.403255
O O9 0.574173 0.367936 0.231098
O O10 0.752194 0.479567 0.652904
O O11 0.604784 0.536130 0.815625
O O12 0.874543 0.515556 0.783224
O O13 0.351458 0.669548 0.442484
O O14 0.431640 0.888385 0.334516
O O15 0.267278 0.934889 0.484608
#
# Coordination Sequence:
#
# PCOD8050678 Si02
#       8
#     4   2   4   4   4   4   4   4
#     4  11  23  44  72  96 136 175 222 271 340 403
#     4  10  22  42  64 108 130 170 214 286 334 400
#     4  11  22  45  65  92 131 180 222 277 333 395
#     4  10  24  41  66  97 134 174 225 274 329 388
#     4  12  26  40  65  98 135 179 232 276 328 394
#     4  12  23  41  71  96 131 179 227 272 332 395
#     4  11  24  43  62  95 139 175 224 283 326 383
#     4  10  22  44  70  93 137 174 215 272 338 403
#
# _framework density 20.959009999999999
#
# number of rings (size 3 to 8) (size 9 to 14) (size 15 to 20)
#    0.000    1.067    6.667    1.200    3.733    2.667 
#    2.400    0.000    0.000    0.000    0.000    0.000 
#    0.000    0.000    0.000    0.000    0.000    0.000 
#
# Total GULP energy -186013.534449 kJ/mol
# GULP energy per Si atom -12400.902297 kJ/mol
# Density = 2.091131 g / cm^3
# Si number density = 20.959010 Si / 1000 Ang^3
#
#
#
# Elastic Constant Matrix: (Units=GPa)
#
#
# Indices 1 2 3 4 5 6 
#
# 1 137.8981 47.5313 33.3230 0.0000 -19.4542 0.0000
# 2 47.5313 116.0293 41.5545 0.0000 -17.8837 0.0000
# 3 33.3230 41.5545 106.5526 0.0000 -10.9174 0.0000
# 4 0.0000 0.0000 0.0000 27.6578 0.0000 -7.3551
# 5 -19.4542 -17.8837 -10.9174 0.0000 20.9550 0.0000
# 6 0.0000 0.0000 0.0000 -7.3551 0.0000 41.2443
#
#
#
# Elastic Compliance Matrix: (Units=1/GPa)
#
#
# Indices 1 2 3 4 5 6 
#
# 1 0.009226 -0.002398 -0.001354 0.000000 0.005813 0.000000
# 2 -0.002398 0.011678 -0.003181 0.000000 0.006082 0.000000
# 3 -0.001354 -0.003181 0.011242 0.000000 0.001885 0.000000
# 4 0.000000 0.000000 0.000000 0.037956 0.000000 0.006769
# 5 0.005813 0.006082 0.001885 0.000000 0.059290 0.000000
# 6 0.000000 0.000000 0.000000 0.006769 0.000000 0.025453
#
#
# Mechanical properties :
#
#
# Convention : Reuss Voigt Hill
#
# Bulk Modulus (GPa) = 54.70944 67.25530 60.98237
# Shear Modulus (GPa) = 28.60328 33.84284 31.22306
#
# Velocity S-wave (km/s) = 3.69823 4.02271 3.86388
# Velocity P-wave (km/s) = 6.66300 7.33041 7.00466
#
# Compressibility (1/GPa) = 0.01827838
#
# Stress axis : x y z
#
# Youngs Moduli (GPa) = 108.39286 85.63334 88.95004
#
# Poissons Ratio (x) = 0.20538 0.12047
# Poissons Ratio (y) = 0.25997 0.28294
# Poissons Ratio (z) = 0.14680 0.27239
#
# Static dielectric constant tensor:
#      x y z
#    x 4.025730 0.000000 -0.002840 
#    y 0.000000 3.802870 0.000000 
#    z -0.002840 0.000000 3.666450 
# 
# 
# High freq. dielectric constant tensor:
#      x y z
#    x 1.827470 0.000000 -0.000690 
#    y 0.000000 1.819800 0.000000 
#    z -0.000690 0.000000 1.810140 
# 
# From -- ./inp_files/52412.got.cif
#   From: 2010.03.12/outbox.cif.g09.slc.cpg/sg5_27_cif.got.tgz:52412.got - 2010.03.31 09:47:26.
