data_PCOD8050996
_publ_section_title
;
Structure prediction by ZEFSAII (Michael W. Deem and Ramdas Pophale) SiO2 
 PCOD8050996
Probable space group: C 2
;
_chemical_formula_sum "Si O2"
_cell_formula_units_Z 20
_cell_length_a 6.922906
_cell_length_b 8.145380
_cell_length_c 17.339288
_cell_angle_alpha 90.000000
_cell_angle_beta 53.803912
_cell_angle_gamma 90.000000
_cell_volume 789.050722
_symmetry_space_group_name_H-M "C 2"
_symmetry_group_IT_number 5
_symmetry_cell_setting 'monoclinic'
loop_
_space_group_symop_operation_xyz
x,y,z
-x,y,-z
1/2+x,1/2+y,z
1/2-x,1/2+y,-z
loop_
_atom_site_type_symbol
_atom_site_label
_atom_site_fract_x
_atom_site_fract_y
_atom_site_fract_z
Si Si1 0.983366 0.063220 0.422935
Si Si2 0.158929 0.729777 0.797848
Si Si3 0.113431 0.727400 0.604485
Si Si4 0.376866 0.561641 0.263089
Si Si5 0.314315 0.531792 0.110175
O O1 0.250538 0.148545 0.351192
O O2 0.000000 0.959860 0.500000
O O3 0.781794 0.201958 0.488651
O O4 0.917615 0.925492 0.374605
O O5 0.416598 0.635312 0.728922
O O6 0.945709 0.597990 0.855057
O O7 0.187411 0.835855 0.871088
O O8 0.112657 0.862124 0.740294
O O9 0.869174 0.632762 0.645471
O O10 0.398684 0.624742 0.169015
O O11 0.500000 0.576570 0.000000
#
# Coordination Sequence:
#
# PCOD8050996 Si02
#       5
#     4   4   4   4   4
#     4   8  20  36  60  86 118 162 203 247 305 359
#     4  10  25  40  64  96 122 170 204 258 311 368
#     4   9  18  43  58  91 120 165 201 257 301 368
#     4  10  23  40  66  93 130 162 211 257 312 366
#     4  10  26  42  67  93 129 164 209 255 313 370
#
# _framework density 25.346914000000002
#
# number of rings (size 3 to 8) (size 9 to 14) (size 15 to 20)
#    2.400    0.000    0.000    1.200    5.600    0.000 
#   10.800    0.000    0.000    0.000    0.000    0.000 
#    0.000    0.000    0.000    0.000    0.000    0.000 
#
# Total GULP energy -123889.038115 kJ/mol
# GULP energy per Si atom -12388.903812 kJ/mol
# Density = 2.528922 g / cm^3
# Si number density = 25.346914 Si / 1000 Ang^3
#
#
#
# Elastic Constant Matrix: (Units=GPa)
#
#
# Indices 1 2 3 4 5 6 
#
# 1 187.0321 82.8702 76.7593 0.0000 -26.7319 0.0000
# 2 82.8702 160.6295 59.9975 0.0000 -22.5829 0.0000
# 3 76.7593 59.9975 105.5999 -0.0001 -26.9681 0.0000
# 4 0.0000 0.0000 -0.0001 33.7376 0.0000 -11.5982
# 5 -26.7319 -22.5829 -26.9681 0.0000 48.3361 0.0000
# 6 0.0000 0.0000 0.0000 -11.5982 0.0000 48.2908
#
#
#
# Elastic Compliance Matrix: (Units=1/GPa)
#
#
# Indices 1 2 3 4 5 6 
#
# 1 0.008440 -0.002561 -0.004424 0.000000 0.001003 0.000000
# 2 -0.002561 0.008760 -0.002836 0.000000 0.001094 0.000000
# 3 -0.004424 -0.002836 0.015549 0.000000 0.004904 0.000000
# 4 0.000000 0.000000 0.000000 0.032308 0.000000 0.007760
# 5 0.001003 0.001094 0.004904 0.000000 0.024490 0.000000
# 6 0.000000 0.000000 0.000000 0.007760 0.000000 0.022572
#
#
# Mechanical properties :
#
#
# Convention : Reuss Voigt Hill
#
# Bulk Modulus (GPa) = 76.29372 99.16838 87.73105
# Shear Modulus (GPa) = 36.72950 41.64854 39.18902
#
# Velocity S-wave (km/s) = 3.81080 4.05796 3.93632
# Velocity P-wave (km/s) = 7.03762 7.82084 7.43954
#
# Compressibility (1/GPa) = 0.01310724
#
# Stress axis : x y z
#
# Youngs Moduli (GPa) = 118.47742 114.15689 64.31267
#
# Poissons Ratio (x) = 0.29236 0.28452
# Poissons Ratio (y) = 0.30343 0.18239
# Poissons Ratio (z) = 0.52414 0.32375
#
# Static dielectric constant tensor:
#      x y z
#    x 4.635510 0.000000 0.179880 
#    y 0.000000 4.311690 0.000000 
#    z 0.179880 0.000000 4.312890 
# 
# 
# High freq. dielectric constant tensor:
#      x y z
#    x 2.036620 0.000000 0.025200 
#    y 0.000000 2.014290 0.000000 
#    z 0.025200 0.000000 2.016060 
# 
# From -- ./inp_files/64275.got.cif
#   From: 2010.03.12/outbox.cif.g09.slc.cpg/sg5_33_cif.got.tgz:64275.got - 2010.03.31 09:47:26.
