data_PCOD8050573
_publ_section_title
;
Structure prediction by ZEFSAII (Michael W. Deem and Ramdas Pophale) SiO2 
 PCOD8050573
Probable space group: C 2
;
_chemical_formula_sum "Si O2"
_cell_formula_units_Z 30
_cell_length_a 18.917344
_cell_length_b 5.308456
_cell_length_c 12.301081
_cell_angle_alpha 90.000000
_cell_angle_beta 90.435470
_cell_angle_gamma 90.000000
_cell_volume 1235.262103
_symmetry_space_group_name_H-M "C 2"
_symmetry_group_IT_number 5
_symmetry_cell_setting 'monoclinic'
loop_
_space_group_symop_operation_xyz
x,y,z
-x,y,-z
1/2+x,1/2+y,z
1/2-x,1/2+y,-z
loop_
_atom_site_type_symbol
_atom_site_label
_atom_site_fract_x
_atom_site_fract_y
_atom_site_fract_z
Si Si1 0.452186 0.087090 0.348696
Si Si2 0.090740 0.837854 0.856573
Si Si3 0.500000 0.039831 0.000000
Si Si4 0.474839 0.709998 0.794577
Si Si5 0.903158 0.715038 0.573612
Si Si6 0.780384 0.045398 0.547622
Si Si7 0.172565 0.335678 0.268159
Si Si8 0.761904 0.997515 0.068915
O O1 0.397592 0.183595 0.255432
O O2 0.411241 0.054462 0.461624
O O3 0.520625 0.273162 0.370147
O O4 0.484189 0.822300 0.309563
O O5 0.072313 0.680421 0.964098
O O6 0.158329 0.010287 0.882169
O O7 0.015822 0.970263 0.836401
O O8 0.471698 0.897025 0.895545
O O9 0.393245 0.654150 0.764814
O O10 0.863982 0.975419 0.539064
O O11 0.853231 0.557035 0.652733
O O12 0.737558 0.781348 0.532647
O O13 0.769987 0.158008 0.669537
O O14 0.207603 0.465195 0.165657
O O15 0.754094 0.762395 0.987660
#
# Coordination Sequence:
#
# PCOD8050573 Si02
#       8
#     4   4   2   4   4   4   4   4
#     4   9  22  42  72 109 144 184 246 307 375 429
#     4  11  24  42  73 106 144 194 251 315 368 452
#     4  10  22  40  72 106 138 190 254 314 376 438
#     4  10  22  43  75 105 143 192 252 314 371 444
#     4  10  22  46  72 108 148 193 241 310 366 451
#     4  12  26  45  73 107 144 198 248 296 360 456
#     4  11  26  48  77 107 153 199 254 306 381 454
#     4  12  32  51  75 110 157 200 247 318 387 450
#
# _framework density 24.286345000000001
#
# number of rings (size 3 to 8) (size 9 to 14) (size 15 to 20)
#    0.000    1.333    1.333    2.000   11.200    1.067 
#    2.400    2.667    0.000    0.000    0.000    0.000 
#    0.000    0.000    0.000    0.000    0.000    0.000 
#
# Total GULP energy -185865.834008 kJ/mol
# GULP energy per Si atom -12391.055601 kJ/mol
# Density = 2.423107 g / cm^3
# Si number density = 24.286345 Si / 1000 Ang^3
#
#
#
# Elastic Constant Matrix: (Units=GPa)
#
#
# Indices 1 2 3 4 5 6 
#
# 1 79.6620 10.2614 34.0823 0.0000 11.6715 0.0000
# 2 10.2614 69.0004 13.2101 0.0000 6.6488 0.0000
# 3 34.0823 13.2101 133.8021 0.0000 -15.6946 0.0000
# 4 0.0000 0.0000 0.0000 153.1628 0.0000 -5.9954
# 5 11.6715 6.6488 -15.6946 0.0000 44.8508 0.0000
# 6 0.0000 0.0000 0.0000 -5.9954 0.0000 36.7572
#
#
#
# Elastic Compliance Matrix: (Units=1/GPa)
#
#
# Indices 1 2 3 4 5 6 
#
# 1 0.015375 -0.000909 -0.004463 0.000000 -0.005428 0.000000
# 2 -0.000909 0.015175 -0.001567 0.000000 -0.002561 0.000000
# 3 -0.004463 -0.001567 0.009311 0.000000 0.004652 0.000000
# 4 0.000000 0.000000 0.000000 0.006571 0.000000 0.001072
# 5 -0.005428 -0.002561 0.004652 0.000000 0.025716 0.000000
# 6 0.000000 0.000000 0.000000 0.001072 0.000000 0.027380
#
#
# Mechanical properties :
#
#
# Convention : Reuss Voigt Hill
#
# Bulk Modulus (GPa) = 38.48823 44.17469 41.33146
# Shear Modulus (GPa) = 40.96092 61.94821 51.45456
#
# Velocity S-wave (km/s) = 4.11126 5.05597 4.60789
# Velocity P-wave (km/s) = 6.19828 7.23273 6.73539
#
# Compressibility (1/GPa) = 0.02598197
#
# Stress axis : x y z
#
# Youngs Moduli (GPa) = 65.04082 65.89928 107.39975
#
# Poissons Ratio (x) = 0.05990 0.47936
# Poissons Ratio (y) = 0.05912 0.16830
# Poissons Ratio (z) = 0.29030 0.10327
#
# Static dielectric constant tensor:
#      x y z
#    x 4.316540 0.000000 0.155490 
#    y 0.000000 4.191680 0.000000 
#    z 0.155490 0.000000 4.677240 
# 
# 
# High freq. dielectric constant tensor:
#      x y z
#    x 1.964040 0.000000 0.017980 
#    y 0.000000 1.947310 0.000000 
#    z 0.017980 0.000000 1.984180 
# 
# From -- ./inp_files/45676.got.cif
#   From: 2010.03.12/outbox.cif.g09.slc.cpg/sg5_23_cif.got.tgz:45676.got - 2010.03.31 09:47:26.
