data_PCOD8050660
_publ_section_title
;
Structure prediction by ZEFSAII (Michael W. Deem and Ramdas Pophale) SiO2 
 PCOD8050660
Probable space group: C 2
;
_chemical_formula_sum "Si O2"
_cell_formula_units_Z 28
_cell_length_a 8.252838
_cell_length_b 12.230240
_cell_length_c 13.530325
_cell_angle_alpha 90.000000
_cell_angle_beta 103.998188
_cell_angle_gamma 90.000000
_cell_volume 1325.116528
_symmetry_space_group_name_H-M "C 2"
_symmetry_group_IT_number 5
_symmetry_cell_setting 'monoclinic'
loop_
_space_group_symop_operation_xyz
x,y,z
-x,y,-z
1/2+x,1/2+y,z
1/2-x,1/2+y,-z
loop_
_atom_site_type_symbol
_atom_site_label
_atom_site_fract_x
_atom_site_fract_y
_atom_site_fract_z
Si Si1 0.000000 0.573000 0.500000
Si Si2 0.178573 0.375509 0.989619
Si Si3 0.730673 0.770572 0.797817
Si Si4 0.251954 0.198188 0.343874
Si Si5 0.098288 0.816420 0.810679
Si Si6 0.004445 0.363237 0.391242
Si Si7 0.467545 0.567400 0.210199
Si Si8 0.500000 0.524589 0.000000
O O1 0.153160 0.652977 0.546161
O O2 0.034670 0.494335 0.409583
O O3 0.250924 0.299820 0.089082
O O4 0.139272 0.308135 0.884857
O O5 0.325038 0.460230 0.985416
O O6 0.000000 0.426699 0.000000
O O7 0.666317 0.841891 0.694646
O O8 0.685294 0.643366 0.776328
O O9 0.927404 0.784029 0.839653
O O10 0.379666 0.233867 0.277029
O O11 0.155290 0.309768 0.353752
O O12 0.131521 0.099537 0.295236
O O13 0.084858 0.943170 0.775447
O O14 0.000000 0.308361 0.500000
O O15 0.512685 0.593252 0.102142
#
# Coordination Sequence:
#
# PCOD8050660 Si02
#       8
#     2   4   4   4   4   4   4   2
#     4  10  24  40  68  96 124 170 224 272 338 396
#     4  11  21  41  70  98 138 180 222 279 339 393
#     4  11  21  41  70  94 135 181 216 284 339 392
#     4  11  24  42  67  95 128 174 221 276 341 396
#     4  11  24  44  64 101 138 168 227 280 328 413
#     4   9  23  44  64  92 132 166 221 277 331 393
#     4  10  23  42  63  95 133 178 217 274 335 392
#     4  10  22  42  62 100 142 174 230 274 326 410
#
# _framework density 21.130216000000001
#
# number of rings (size 3 to 8) (size 9 to 14) (size 15 to 20)
#    0.429    1.143    2.857    2.571    5.000    1.143 
#    7.714    0.000    0.000    0.000    0.000    0.000 
#    0.000    0.000    0.000    0.000    0.000    0.000 
#
# Total GULP energy -173503.502371 kJ/mol
# GULP energy per Si atom -12393.107312 kJ/mol
# Density = 2.108212 g / cm^3
# Si number density = 21.130216 Si / 1000 Ang^3
#
#
#
# Elastic Constant Matrix: (Units=GPa)
#
#
# Indices 1 2 3 4 5 6 
#
# 1 115.5895 21.9997 36.3628 0.0000 14.2066 0.0000
# 2 21.9997 75.8795 20.8946 0.0000 8.8054 0.0000
# 3 36.3628 20.8946 106.5101 0.0000 19.9202 0.0000
# 4 0.0000 0.0000 0.0000 27.7036 0.0000 -9.2681
# 5 14.2066 8.8054 19.9202 0.0000 34.9719 0.0000
# 6 0.0000 0.0000 0.0000 -9.2681 0.0000 18.2992
#
#
#
# Elastic Compliance Matrix: (Units=1/GPa)
#
#
# Indices 1 2 3 4 5 6 
#
# 1 0.010124 -0.001954 -0.002682 0.000000 -0.002093 0.000000
# 2 -0.001954 0.014459 -0.001832 0.000000 -0.001803 0.000000
# 3 -0.002682 -0.001832 0.011611 0.000000 -0.005063 0.000000
# 4 0.000000 0.000000 0.000000 0.043460 0.000000 0.022012
# 5 -0.002093 -0.001803 -0.005063 0.000000 0.032783 0.000000
# 6 0.000000 0.000000 0.000000 0.022012 0.000000 0.065796
#
#
# Mechanical properties :
#
#
# Convention : Reuss Voigt Hill
#
# Bulk Modulus (GPa) = 42.99535 50.72149 46.85842
# Shear Modulus (GPa) = 25.13570 30.77640 27.95605
#
# Velocity S-wave (km/s) = 3.45274 3.82057 3.64130
# Velocity P-wave (km/s) = 6.02389 6.59687 6.31688
#
# Compressibility (1/GPa) = 0.02325833
#
# Stress axis : x y z
#
# Youngs Moduli (GPa) = 98.77473 69.16069 86.12830
#
# Poissons Ratio (x) = 0.13514 0.23096
# Poissons Ratio (y) = 0.19300 0.15780
# Poissons Ratio (z) = 0.26487 0.12672
#
# Static dielectric constant tensor:
#      x y z
#    x 3.632380 0.000000 0.074810 
#    y 0.000000 3.588350 0.000000 
#    z 0.074810 0.000000 4.070790 
# 
# 
# High freq. dielectric constant tensor:
#      x y z
#    x 1.823370 0.000000 0.011150 
#    y 0.000000 1.813970 0.000000 
#    z 0.011150 0.000000 1.837890 
# 
# From -- ./inp_files/50352.got.cif
#   From: 2010.03.12/outbox.cif.g09.slc.cpg/sg5_26_cif.got.tgz:50352.got - 2010.03.31 09:47:26.
