data_PCOD8050431
_publ_section_title
;
Structure prediction by ZEFSAII (Michael W. Deem and Ramdas Pophale) SiO2 
 PCOD8050431
Probable space group: C 2
;
_chemical_formula_sum "Si O2"
_cell_formula_units_Z 22
_cell_length_a 20.355489
_cell_length_b 5.078822
_cell_length_c 8.866670
_cell_angle_alpha 90.000000
_cell_angle_beta 80.173822
_cell_angle_gamma 90.000000
_cell_volume 903.205962
_symmetry_space_group_name_H-M "C 2"
_symmetry_group_IT_number 5
_symmetry_cell_setting 'monoclinic'
loop_
_space_group_symop_operation_xyz
x,y,z
-x,y,-z
1/2+x,1/2+y,z
1/2-x,1/2+y,-z
loop_
_atom_site_type_symbol
_atom_site_label
_atom_site_fract_x
_atom_site_fract_y
_atom_site_fract_z
Si Si1 0.000000 0.057200 0.000000
Si Si2 0.124832 0.068913 0.532333
Si Si3 0.511044 0.269183 0.697764
Si Si4 0.628325 0.086228 0.350336
Si Si5 0.611575 0.880461 0.807123
Si Si6 0.793810 0.551220 0.983775
O O1 0.064706 0.234560 0.945783
O O2 0.981295 0.874287 0.866596
O O3 0.136813 0.288548 0.400711
O O4 0.152361 0.171295 0.684765
O O5 0.046047 0.009200 0.593880
O O6 0.159818 0.800911 0.455929
O O7 0.450759 0.148019 0.625843
O O8 0.568575 0.053794 0.707088
O O9 0.661711 0.126113 0.176393
O O10 0.662059 0.060325 0.881488
O O11 0.735169 0.760122 0.026986
#
# Coordination Sequence:
#
# PCOD8050431 Si02
#       6
#     2   4   4   4   4   4
#     4  10  22  38  72 112 144 192 224 302 364 450
#     4  11  26  42  74 111 155 186 224 298 374 456
#     4  11  24  40  75 112 154 184 226 292 377 461
#     4  12  26  46  73 114 148 190 240 294 372 430
#     4  11  25  47  70 109 149 192 242 296 376 428
#     4  12  30  52  78 100 139 198 265 311 344 418
#
# _framework density 24.357680999999999
#
# number of rings (size 3 to 8) (size 9 to 14) (size 15 to 20)
#    0.000    0.727    1.818    4.364   17.818    0.000 
#    0.000    3.636    0.000    0.000    0.000    0.000 
#    0.000    0.000    0.000    0.000    0.000    0.000 
#
# Total GULP energy -136399.305714 kJ/mol
# GULP energy per Si atom -12399.936883 kJ/mol
# Density = 2.430224 g / cm^3
# Si number density = 24.357681 Si / 1000 Ang^3
#
#
#
# Elastic Constant Matrix: (Units=GPa)
#
#
# Indices 1 2 3 4 5 6 
#
# 1 41.0261 12.2541 17.5550 0.0000 1.1380 0.0000
# 2 12.2541 126.9484 39.7328 0.0000 1.1881 0.0000
# 3 17.5550 39.7328 115.6416 0.0000 -2.4395 0.0000
# 4 0.0000 0.0000 0.0000 61.1111 0.0000 -1.2154
# 5 1.1380 1.1881 -2.4395 0.0000 25.1018 0.0000
# 6 0.0000 0.0000 0.0000 -1.2154 0.0000 32.9065
#
#
#
# Elastic Compliance Matrix: (Units=1/GPa)
#
#
# Indices 1 2 3 4 5 6 
#
# 1 0.026356 -0.001421 -0.003544 0.000000 -0.001472 0.000000
# 2 -0.001421 0.008916 -0.002861 0.000000 -0.000636 0.000000
# 3 -0.003544 -0.002861 0.010196 0.000000 0.001287 0.000000
# 4 0.000000 0.000000 0.000000 0.016376 0.000000 0.000605
# 5 -0.001472 -0.000636 0.001287 0.000000 0.040060 0.000000
# 6 0.000000 0.000000 0.000000 0.000605 0.000000 0.030412
#
#
# Mechanical properties :
#
#
# Convention : Reuss Voigt Hill
#
# Bulk Modulus (GPa) = 33.53932 46.96667 40.25300
# Shear Modulus (GPa) = 31.66457 38.09548 34.88003
#
# Velocity S-wave (km/s) = 3.60944 3.95904 3.78827
# Velocity P-wave (km/s) = 5.58302 6.34213 5.97464
#
# Compressibility (1/GPa) = 0.02981575
#
# Stress axis : x y z
#
# Youngs Moduli (GPa) = 37.94136 112.16039 98.08232
#
# Poissons Ratio (x) = 0.15941 0.34758
# Poissons Ratio (y) = 0.05392 0.28061
# Poissons Ratio (z) = 0.13446 0.32089
#
# Static dielectric constant tensor:
#      x y z
#    x 3.870530 0.000000 0.018550 
#    y 0.000000 4.646010 0.000000 
#    z 0.018550 0.000000 4.705420 
# 
# 
# High freq. dielectric constant tensor:
#      x y z
#    x 1.917440 0.000000 -0.005670 
#    y 0.000000 1.983000 0.000000 
#    z -0.005670 0.000000 2.001620 
# 
# From -- ./inp_files/28335.got.cif
#   From: 2010.03.12/outbox.cif.g09.slc.cpg/sg5_15_cif.got.tgz:28335.got - 2010.03.31 09:47:26.
