data_PCOD8050969
_publ_section_title
;
Structure prediction by ZEFSAII (Michael W. Deem and Ramdas Pophale) SiO2 
 PCOD8050969
Probable space group: C 2
;
_chemical_formula_sum "Si O2"
_cell_formula_units_Z 20
_cell_length_a 11.200744
_cell_length_b 8.917733
_cell_length_c 9.808253
_cell_angle_alpha 90.000000
_cell_angle_beta 101.402301
_cell_angle_gamma 90.000000
_cell_volume 960.363645
_symmetry_space_group_name_H-M "C 2"
_symmetry_group_IT_number 5
_symmetry_cell_setting 'monoclinic'
loop_
_space_group_symop_operation_xyz
x,y,z
-x,y,-z
1/2+x,1/2+y,z
1/2-x,1/2+y,-z
loop_
_atom_site_type_symbol
_atom_site_label
_atom_site_fract_x
_atom_site_fract_y
_atom_site_fract_z
Si Si1 0.292515 0.456690 0.621568
Si Si2 0.697562 0.801367 0.354565
Si Si3 0.372395 0.430157 0.920703
Si Si4 0.531602 0.010413 0.652828
Si Si5 0.817785 0.690870 0.124402
O O1 0.323111 0.630884 0.602427
O O2 0.299530 0.371339 0.479381
O O3 0.382644 0.395199 0.760121
O O4 0.158591 0.424982 0.654803
O O5 0.571737 0.893070 0.326073
O O6 0.751132 0.804263 0.214273
O O7 0.269214 0.551666 0.930108
O O8 0.500000 0.498532 0.000000
O O9 0.346933 0.274722 0.991922
O O10 0.500000 0.089265 0.500000
O O11 0.556048 0.132312 0.777245
#
# Coordination Sequence:
#
# PCOD8050969 Si02
#       5
#     4   4   4   4   4
#     4   9  20  36  57  86 113 144 189 229 275 335
#     4   9  18  37  61  83 111 145 185 236 277 323
#     4  10  23  39  55  82 117 148 184 231 276 330
#     4   8  16  34  59  82 109 143 182 230 279 321
#     4  10  23  38  57  85 112 148 191 226 273 337
#
# _framework density 20.825444000000001
#
# number of rings (size 3 to 8) (size 9 to 14) (size 15 to 20)
#    0.000    3.200    0.000    0.000    0.000   14.400 
#    0.000    8.000    0.000    0.000    0.000    0.000 
#    0.000    0.000    0.000    0.000    0.000    0.000 
#
# Total GULP energy -123898.374950 kJ/mol
# GULP energy per Si atom -12389.837495 kJ/mol
# Density = 2.077804 g / cm^3
# Si number density = 20.825444 Si / 1000 Ang^3
#
#
#
# Elastic Constant Matrix: (Units=GPa)
#
#
# Indices 1 2 3 4 5 6 
#
# 1 70.9558 45.9302 33.8768 0.0000 20.1393 0.0000
# 2 45.9302 106.0888 57.3465 0.0000 6.4928 0.0000
# 3 33.8768 57.3465 113.9626 0.0000 35.6744 0.0000
# 4 0.0000 0.0000 0.0000 53.2407 0.0000 0.2485
# 5 20.1393 6.4928 35.6744 0.0000 29.0786 0.0000
# 6 0.0000 0.0000 0.0000 0.2485 0.0000 34.8660
#
#
#
# Elastic Compliance Matrix: (Units=1/GPa)
#
#
# Indices 1 2 3 4 5 6 
#
# 1 0.026108 -0.013066 0.005781 0.000000 -0.022257 0.000000
# 2 -0.013066 0.020845 -0.012957 0.000000 0.020291 0.000000
# 3 0.005781 -0.012957 0.022606 0.000000 -0.028844 0.000000
# 4 0.000000 0.000000 0.000000 0.018783 0.000000 -0.000134
# 5 -0.022257 0.020291 -0.028844 0.000000 0.080660 0.000000
# 6 0.000000 0.000000 0.000000 -0.000134 0.000000 0.028682
#
#
# Mechanical properties :
#
#
# Convention : Reuss Voigt Hill
#
# Bulk Modulus (GPa) = 34.39410 62.81270 48.60340
# Shear Modulus (GPa) = 20.17265 33.69396 26.93330
#
# Velocity S-wave (km/s) = 3.11570 4.02670 3.60013
# Velocity P-wave (km/s) = 5.43090 7.20043 6.37734
#
# Compressibility (1/GPa) = 0.02907476
#
# Stress axis : x y z
#
# Youngs Moduli (GPa) = 38.30216 47.97286 44.23701
#
# Poissons Ratio (x) = 0.62682 -0.25575
# Poissons Ratio (y) = 0.50047 0.57318
# Poissons Ratio (z) = -0.22144 0.62159
#
# Static dielectric constant tensor:
#      x y z
#    x 3.621950 0.000000 0.334600 
#    y 0.000000 3.485150 0.000000 
#    z 0.334600 0.000000 4.314910 
# 
# 
# High freq. dielectric constant tensor:
#      x y z
#    x 1.798300 0.000000 0.016380 
#    y 0.000000 1.796360 0.000000 
#    z 0.016380 0.000000 1.835430 
# 
# From -- ./inp_files/37914.got.cif
#   From: 2010.03.12/outbox.cif.g09.slc.cpg/sg5_19_cif.got.tgz:37914.got - 2010.03.31 09:47:26.
