data_PCOD8050418
_publ_section_title
;
Structure prediction by ZEFSAII (Michael W. Deem and Ramdas Pophale) SiO2 
 PCOD8050418
Probable space group: C 2
;
_chemical_formula_sum "Si O2"
_cell_formula_units_Z 30
_cell_length_a 11.390319
_cell_length_b 18.702316
_cell_length_c 14.549191
_cell_angle_alpha 90.000000
_cell_angle_beta 151.686181
_cell_angle_gamma 90.000000
_cell_volume 1470.021735
_symmetry_space_group_name_H-M "C 2"
_symmetry_group_IT_number 5
_symmetry_cell_setting 'monoclinic'
loop_
_space_group_symop_operation_xyz
x,y,z
-x,y,-z
1/2+x,1/2+y,z
1/2-x,1/2+y,-z
loop_
_atom_site_type_symbol
_atom_site_label
_atom_site_fract_x
_atom_site_fract_y
_atom_site_fract_z
Si Si1 0.352009 0.745720 0.596545
Si Si2 0.963471 0.914581 0.085386
Si Si3 0.737892 0.900250 0.224411
Si Si4 0.239342 0.642079 0.363784
Si Si5 0.970970 0.490442 0.761277
Si Si6 0.391468 0.256391 0.024043
Si Si7 0.726512 0.402712 0.443098
Si Si8 0.000000 0.779886 0.500000
O O1 0.333860 0.679040 0.519319
O O2 0.607291 0.732935 0.826451
O O3 0.333261 0.821981 0.530376
O O4 0.120787 0.732532 0.504514
O O5 0.757272 0.970900 0.977052
O O6 0.890335 0.834684 0.069576
O O7 0.000000 0.922109 0.000000
O O8 0.203087 0.925604 0.318424
O O9 0.702258 0.962650 0.275019
O O10 0.967662 0.915270 0.316694
O O11 0.775567 0.828163 0.307864
O O12 0.500000 0.889572 0.000000
O O13 0.500000 0.617675 0.500000
O O14 0.064986 0.575183 0.266381
O O15 0.069248 0.698239 0.192216
O O16 0.915523 0.455974 0.623497
O O17 0.500000 0.270470 0.000000
#
# Coordination Sequence:
#
# PCOD8050418 Si02
#       8
#     4   4   4   4   4   4   4   2
#     4  11  22  41  64  99 132 179 227 271 340 400
#     4  11  24  41  68  98 128 177 233 277 331 406
#     4  11  19  34  63  96 127 165 217 272 331 382
#     4  12  26  42  67 100 139 175 216 286 353 399
#     4  12  24  43  63 100 136 172 227 280 341 407
#     4  11  22  41  67  98 133 171 228 276 331 410
#     4  11  21  39  68  93 132 175 223 284 327 399
#     4  10  22  38  66  96 130 174 222 276 320 400
#
# _framework density 20.407862000000002
#
# number of rings (size 3 to 8) (size 9 to 14) (size 15 to 20)
#    0.000    0.800    8.000    0.800    0.000    2.133 
#    0.000    2.667    0.000    0.000    0.000    0.000 
#    0.000    0.000    0.000    0.000    0.000    0.000 
#
# Total GULP energy -185875.971203 kJ/mol
# GULP energy per Si atom -12391.731414 kJ/mol
# Density = 2.036141 g / cm^3
# Si number density = 20.407862 Si / 1000 Ang^3
#
#
#
# Elastic Constant Matrix: (Units=GPa)
#
#
# Indices 1 2 3 4 5 6 
#
# 1 53.8052 18.0844 8.5116 0.0004 -9.7028 -0.0001
# 2 18.0844 109.7074 28.3435 0.0004 5.0153 -0.0003
# 3 8.5116 28.3435 116.2485 -0.0023 -8.2022 -0.0010
# 4 0.0004 0.0004 -0.0023 21.5890 -0.0015 23.5034
# 5 -9.7028 5.0153 -8.2022 -0.0015 38.3204 -0.0005
# 6 -0.0001 -0.0003 -0.0010 23.5034 -0.0005 4.5765
#
#
#
# Elastic Compliance Matrix: (Units=1/GPa)
#
#
# Indices 1 2 3 4 5 6 
#
# 1 0.020877 -0.003641 -0.000238 0.000000 0.005712 0.000000
# 2 -0.003641 0.010488 -0.002490 0.000000 -0.002828 -0.000001
# 3 -0.000238 -0.002490 0.009387 0.000000 0.002275 0.000001
# 4 0.000000 0.000000 0.000000 -0.010089 0.000000 0.051814
# 5 0.005712 -0.002828 0.002275 0.000000 0.028399 0.000002
# 6 0.000000 -0.000001 0.000001 0.051814 0.000002 -0.047594
#
#
# Mechanical properties :
#
#
# Convention : Reuss Voigt Hill
#
# Bulk Modulus (GPa) = 35.69605 43.29336 39.49471
# Shear Modulus (GPa) = 149.05838 27.88529 88.47183
#
# Velocity S-wave (km/s) = 8.55560 3.70049 6.59135
# Velocity P-wave (km/s) = 10.72972 6.28636 8.79333
#
# Compressibility (1/GPa) = 0.02801430
#
# Stress axis : x y z
#
# Youngs Moduli (GPa) = 47.89966 95.34762 106.52669
#
# Poissons Ratio (x) = 0.34717 0.02533
# Poissons Ratio (y) = 0.17441 0.26526
# Poissons Ratio (z) = 0.01139 0.23742
#
# Static dielectric constant tensor:
#      x y z
#    x 3.775180 0.000000 -0.084000 
#    y 0.000000 3.449570 0.000000 
#    z -0.084000 0.000000 4.087780 
# 
# 
# High freq. dielectric constant tensor:
#      x y z
#    x 1.795720 0.000000 -0.005370 
#    y 0.000000 1.766230 0.000000 
#    z -0.005370 0.000000 1.818130 
# 
# From -- ./inp_files/53423.got.cif
#   From: 2010.03.12/outbox.cif.g09.slc.cpg/sg5_27_cif.got.tgz:53423.got - 2010.03.31 09:47:26.
