data_PCOD8050222
_publ_section_title
;
Structure prediction by ZEFSAII (Michael W. Deem and Ramdas Pophale) SiO2 
 PCOD8050222
Probable space group: C 2
;
_chemical_formula_sum "Si O2"
_cell_formula_units_Z 20
_cell_length_a 12.296520
_cell_length_b 5.069666
_cell_length_c 27.665073
_cell_angle_alpha 90.000000
_cell_angle_beta 151.872260
_cell_angle_gamma 90.000000
_cell_volume 813.052921
_symmetry_space_group_name_H-M "C 2"
_symmetry_group_IT_number 5
_symmetry_cell_setting 'monoclinic'
loop_
_space_group_symop_operation_xyz
x,y,z
-x,y,-z
1/2+x,1/2+y,z
1/2-x,1/2+y,-z
loop_
_atom_site_type_symbol
_atom_site_label
_atom_site_fract_x
_atom_site_fract_y
_atom_site_fract_z
Si Si1 0.604394 0.316150 0.932946
Si Si2 0.212308 0.040194 0.113468
Si Si3 0.568228 0.648915 0.214839
Si Si4 0.037576 0.721166 0.704681
Si Si5 0.764021 0.198094 0.613347
O O1 0.382432 0.352296 0.880161
O O2 0.534608 0.376158 0.848999
O O3 0.803769 0.520899 0.027230
O O4 0.359087 0.856261 0.135520
O O5 0.364181 0.261250 0.201329
O O6 0.000000 0.168943 0.000000
O O7 0.701076 0.622366 0.317094
O O8 0.753927 0.762825 0.250150
O O9 0.847312 0.940506 0.616956
O O10 0.916790 0.438082 0.654214
O O11 0.500000 0.262558 0.500000
#
# Coordination Sequence:
#
# PCOD8050222 Si02
#       5
#     4   4   4   4   4
#     4  11  24  41  63  94 130 178 225 264 325 390
#     4  10  21  42  64  98 134 185 221 266 324 395
#     4  10  24  44  67  96 141 173 223 282 323 393
#     4  10  25  44  67 103 133 173 228 273 336 405
#     4  11  25  46  72 100 131 174 226 280 342 400
#
# _framework density 24.598645999999999
#
# number of rings (size 3 to 8) (size 9 to 14) (size 15 to 20)
#    0.000    1.600    2.000    0.600    2.800   14.400 
#    0.000    0.000    0.000    0.000    0.000    0.000 
#    0.000    0.000    0.000    0.000    0.000    0.000 
#
# Total GULP energy -124004.410575 kJ/mol
# GULP energy per Si atom -12400.441057 kJ/mol
# Density = 2.454266 g / cm^3
# Si number density = 24.598646 Si / 1000 Ang^3
#
#
#
# Elastic Constant Matrix: (Units=GPa)
#
#
# Indices 1 2 3 4 5 6 
#
# 1 116.5812 24.3831 31.1656 0.0027 10.9528 0.0022
# 2 24.3831 75.1213 20.5459 -0.0113 8.0493 0.0041
# 3 31.1656 20.5459 137.2645 -0.0015 12.5139 0.0015
# 4 0.0027 -0.0113 -0.0015 34.7213 0.0023 5.3698
# 5 10.9528 8.0493 12.5139 0.0023 37.8305 -0.0007
# 6 0.0022 0.0041 0.0015 5.3698 -0.0007 19.0598
#
#
#
# Elastic Compliance Matrix: (Units=1/GPa)
#
#
# Indices 1 2 3 4 5 6 
#
# 1 0.009712 -0.002510 -0.001672 -0.000002 -0.001725 0.000000
# 2 -0.002510 0.014732 -0.001460 0.000006 -0.001925 -0.000004
# 3 -0.001672 -0.001460 0.008054 0.000000 -0.001869 0.000000
# 4 -0.000002 0.000006 0.000000 0.030113 -0.000003 -0.008484
# 5 -0.001725 -0.001925 -0.001869 -0.000003 0.027961 0.000003
# 6 0.000000 -0.000004 0.000000 -0.008484 0.000003 0.054857
#
#
# Mechanical properties :
#
#
# Convention : Reuss Voigt Hill
#
# Bulk Modulus (GPa) = 47.13936 53.46180 50.30058
# Shear Modulus (GPa) = 30.52815 35.18046 32.85431
#
# Velocity S-wave (km/s) = 3.52668 3.78587 3.65857
# Velocity P-wave (km/s) = 5.98233 6.39463 6.19191
#
# Compressibility (1/GPa) = 0.02121370
#
# Stress axis : x y z
#
# Youngs Moduli (GPa) = 102.96820 67.87916 124.16553
#
# Poissons Ratio (x) = 0.17039 0.20761
# Poissons Ratio (y) = 0.25847 0.18124
# Poissons Ratio (z) = 0.17217 0.09908
#
# Static dielectric constant tensor:
#      x y z
#    x 4.743640 -0.000010 -0.003170 
#    y -0.000010 4.026990 0.000020 
#    z -0.003170 0.000020 4.444160 
# 
# 
# High freq. dielectric constant tensor:
#      x y z
#    x 2.004220 0.000000 0.006340 
#    y 0.000000 1.966850 0.000000 
#    z 0.006340 0.000000 1.971880 
# 
# From -- ./inp_files/60024.got.cif
#   From: 2010.03.12/outbox.cif.g09.slc.cpg/sg5_31_cif.got.tgz:60024.got - 2010.03.31 09:47:26.
