data_PCOD8050696
_publ_section_title
;
Structure prediction by ZEFSAII (Michael W. Deem and Ramdas Pophale) SiO2 
 PCOD8050696
Probable space group: C 2
;
_chemical_formula_sum "Si O2"
_cell_formula_units_Z 20
_cell_length_a 15.193995
_cell_length_b 4.911835
_cell_length_c 19.409468
_cell_angle_alpha 90.000000
_cell_angle_beta 29.830028
_cell_angle_gamma 90.000000
_cell_volume 720.543492
_symmetry_space_group_name_H-M "C 2"
_symmetry_group_IT_number 5
_symmetry_cell_setting 'monoclinic'
loop_
_space_group_symop_operation_xyz
x,y,z
-x,y,-z
1/2+x,1/2+y,z
1/2-x,1/2+y,-z
loop_
_atom_site_type_symbol
_atom_site_label
_atom_site_fract_x
_atom_site_fract_y
_atom_site_fract_z
Si Si1 0.500000 0.760790 0.000000
Si Si2 0.000000 0.634481 0.500000
Si Si3 0.448211 0.415296 0.852529
Si Si4 0.637226 0.901161 0.551974
Si Si5 0.857057 0.424834 0.234563
Si Si6 0.807332 0.506304 0.854197
O O1 0.460105 0.944202 0.092541
O O2 0.335939 0.556202 0.106869
O O3 0.079688 0.463569 0.511112
O O4 0.153755 0.834939 0.367287
O O5 0.526540 0.720366 0.795800
O O6 0.375194 0.310542 0.829372
O O7 0.621922 0.228472 0.750858
O O8 0.288083 0.360182 0.015854
O O9 0.733986 0.144997 0.527669
O O10 0.460675 0.828600 0.715032
#
# Coordination Sequence:
#
# PCOD8050696 Si02
#       6
#     2   2   4   4   4   4
#     4  10  22  42  66 104 140 186 242 294 378 434
#     4  12  26  54  78 118 166 208 266 332 392 484
#     4  11  25  43  75 102 147 190 255 314 383 453
#     4  12  29  50  82 116 160 215 264 323 407 478
#     4  11  25  45  71 107 143 199 244 315 381 454
#     4  11  23  48  70 113 143 200 249 324 380 464
#
# _framework density 27.756824000000002
#
# number of rings (size 3 to 8) (size 9 to 14) (size 15 to 20)
#    0.000    0.800    2.000    4.800    0.000   11.200 
#    0.000    0.000    0.000    0.000    0.000    0.000 
#    0.000    0.000    0.000    0.000    0.000    0.000 
#
# Total GULP energy -123916.346156 kJ/mol
# GULP energy per Si atom -12391.634616 kJ/mol
# Density = 2.769365 g / cm^3
# Si number density = 27.756824 Si / 1000 Ang^3
#
#
#
# Elastic Constant Matrix: (Units=GPa)
#
#
# Indices 1 2 3 4 5 6 
#
# 1 114.2603 0.9489 -4.5239 0.0011 -15.8241 -0.0039
# 2 0.9489 75.0512 -0.4678 -0.0084 -7.0227 -0.0006
# 3 -4.5239 -0.4678 152.3847 -0.0032 -12.4038 0.0002
# 4 0.0011 -0.0084 -0.0032 30.8410 0.0012 1.5094
# 5 -15.8241 -7.0227 -12.4038 0.0012 41.4096 -0.0028
# 6 -0.0039 -0.0006 0.0002 1.5094 -0.0028 19.8499
#
#
#
# Elastic Compliance Matrix: (Units=1/GPa)
#
#
# Indices 1 2 3 4 5 6 
#
# 1 0.009295 0.000239 0.000583 0.000000 0.003767 0.000002
# 2 0.000239 0.013553 0.000249 0.000004 0.002464 0.000000
# 3 0.000583 0.000249 0.006767 0.000001 0.002292 0.000000
# 4 0.000000 0.000004 0.000001 0.032546 0.000000 -0.002475
# 5 0.003767 0.002464 0.002292 0.000000 0.026693 0.000005
# 6 0.000002 0.000000 0.000000 -0.002475 0.000005 0.050566
#
#
# Mechanical properties :
#
#
# Convention : Reuss Voigt Hill
#
# Bulk Modulus (GPa) = 31.48859 37.06784 34.27822
# Shear Modulus (GPa) = 33.81501 41.46937 37.64219
#
# Velocity S-wave (km/s) = 3.49414 3.86945 3.68658
# Velocity P-wave (km/s) = 5.25812 5.77469 5.52245
#
# Compressibility (1/GPa) = 0.03175753
#
# Stress axis : x y z
#
# Youngs Moduli (GPa) = 107.58743 73.78240 147.77601
#
# Poissons Ratio (x) = -0.01761 -0.08620
# Poissons Ratio (y) = -0.02567 -0.03684
# Poissons Ratio (z) = -0.06276 -0.01839
#
# Static dielectric constant tensor:
#      x y z
#    x 5.359430 0.000020 -0.173850 
#    y 0.000020 4.673030 0.000060 
#    z -0.173850 0.000060 5.430540 
# 
# 
# High freq. dielectric constant tensor:
#      x y z
#    x 2.131090 0.000000 -0.012290 
#    y 0.000000 2.100670 0.000000 
#    z -0.012290 0.000000 2.148690 
# 
# From -- ./inp_files/46847.got.cif
#   From: 2010.03.12/outbox.cif.g09.slc.cpg/sg5_24_cif.got.tgz:46847.got - 2010.03.31 09:47:26.
