data_PCOD8050018
_publ_section_title
;
Structure prediction by ZEFSAII (Michael W. Deem and Ramdas Pophale) SiO2 
 PCOD8050018
Probable space group: C 2
;
_chemical_formula_sum "Si O2"
_cell_formula_units_Z 30
_cell_length_a 14.540230
_cell_length_b 11.407623
_cell_length_c 9.285216
_cell_angle_alpha 90.000000
_cell_angle_beta 63.924895
_cell_angle_gamma 90.000000
_cell_volume 1383.376880
_symmetry_space_group_name_H-M "C 2"
_symmetry_group_IT_number 5
_symmetry_cell_setting 'monoclinic'
loop_
_space_group_symop_operation_xyz
x,y,z
-x,y,-z
1/2+x,1/2+y,z
1/2-x,1/2+y,-z
loop_
_atom_site_type_symbol
_atom_site_label
_atom_site_fract_x
_atom_site_fract_y
_atom_site_fract_z
Si Si1 0.117108 0.103690 0.787411
Si Si2 0.907862 0.196163 0.878005
Si Si3 0.797954 0.109897 0.699233
Si Si4 0.000000 0.968509 0.500000
Si Si5 0.588592 0.359748 0.696036
Si Si6 0.790589 0.275654 0.463425
Si Si7 0.007749 0.404980 0.667331
Si Si8 0.066316 0.602328 0.817120
O O1 0.212862 0.156784 0.632865
O O2 0.014975 0.133336 0.765375
O O3 0.117970 0.961753 0.793719
O O4 0.115394 0.174099 0.938766
O O5 0.816636 0.132183 0.855525
O O6 0.919632 0.331333 0.814117
O O7 0.801042 0.237322 0.622383
O O8 0.683966 0.056644 0.756020
O O9 0.892951 0.039239 0.564814
O O10 0.996405 0.892970 0.650710
O O11 0.684250 0.343362 0.521015
O O12 0.560822 0.242262 0.800421
O O13 0.883849 0.356067 0.351899
O O14 0.010832 0.539349 0.719454
O O15 0.000000 0.399050 0.500000
O O16 0.000000 0.566653 0.000000
#
# Coordination Sequence:
#
# PCOD8050018 Si02
#       8
#     4   4   4   2   4   4   4   4
#     4  10  21  39  70 100 133 167 235 286 342 397
#     4  10  21  39  72 101 122 168 239 290 335 384
#     4  11  20  44  69 102 129 175 230 294 332 410
#     4  12  20  40  74 102 122 170 250 282 326 400
#     4  11  24  41  67  96 142 180 224 284 341 417
#     4  10  21  39  67 100 129 170 225 288 342 387
#     4  11  22  43  70  96 135 175 233 288 331 414
#     4  11  29  46  61  95 156 188 213 275 372 411
#
# _framework density 21.686063000000001
#
# number of rings (size 3 to 8) (size 9 to 14) (size 15 to 20)
#    0.000    1.333    4.000    1.600    8.400    0.000 
#    4.800    0.000    0.000    0.000    0.000    0.000 
#    0.000    0.000    0.000    0.000    0.000    0.000 
#
# Total GULP energy -185845.273939 kJ/mol
# GULP energy per Si atom -12389.684929 kJ/mol
# Density = 2.163670 g / cm^3
# Si number density = 21.686063 Si / 1000 Ang^3
#
#
#
# Elastic Constant Matrix: (Units=GPa)
#
#
# Indices 1 2 3 4 5 6 
#
# 1 79.9617 31.2161 34.7991 0.0000 3.6747 0.0000
# 2 31.2161 118.8338 47.7830 0.0000 10.8153 0.0000
# 3 34.7991 47.7830 102.7022 0.0000 8.8020 0.0000
# 4 0.0000 0.0000 0.0000 29.4053 0.0000 3.3110
# 5 3.6747 10.8153 8.8020 0.0000 36.7688 0.0000
# 6 0.0000 0.0000 0.0000 3.3110 0.0000 27.1751
#
#
#
# Elastic Compliance Matrix: (Units=1/GPa)
#
#
# Indices 1 2 3 4 5 6 
#
# 1 0.015191 -0.002373 -0.004056 0.000000 0.000151 0.000000
# 2 -0.002373 0.010859 -0.004078 0.000000 -0.001981 0.000000
# 3 -0.004056 -0.004078 0.013141 0.000000 -0.001541 0.000000
# 4 0.000000 0.000000 0.000000 0.034481 0.000000 -0.004201
# 5 0.000151 -0.001981 -0.001541 0.000000 0.028133 0.000000
# 6 0.000000 0.000000 0.000000 -0.004201 0.000000 0.037310
#
#
# Mechanical properties :
#
#
# Convention : Reuss Voigt Hill
#
# Bulk Modulus (GPa) = 55.01976 58.78822 56.90399
# Shear Modulus (GPa) = 30.08659 31.18314 30.63486
#
# Velocity S-wave (km/s) = 3.72878 3.79612 3.76260
# Velocity P-wave (km/s) = 6.63057 6.81041 6.72109
#
# Compressibility (1/GPa) = 0.01817529
#
# Stress axis : x y z
#
# Youngs Moduli (GPa) = 65.82995 92.09267 76.09995
#
# Poissons Ratio (x) = 0.21856 0.30865
# Poissons Ratio (y) = 0.15623 0.31035
# Poissons Ratio (z) = 0.26700 0.37557
#
# Static dielectric constant tensor:
#      x y z
#    x 3.856200 0.000000 -0.033120 
#    y 0.000000 3.865250 0.000000 
#    z -0.033120 0.000000 3.692110 
# 
# 
# High freq. dielectric constant tensor:
#      x y z
#    x 1.835100 0.000000 0.006490 
#    y 0.000000 1.848680 0.000000 
#    z 0.006490 0.000000 1.846640 
# 
# From -- ./inp_files/23838.got.cif
#   From: 2010.03.12/outbox.cif.g09.slc.cpg/sg5_12_cif.got.tgz:23838.got - 2010.03.31 09:47:26.
