data_PCOD8050991
_publ_section_title
;
Structure prediction by ZEFSAII (Michael W. Deem and Ramdas Pophale) SiO2 
 PCOD8050991
Probable space group: C 2
;
_chemical_formula_sum "Si O2"
_cell_formula_units_Z 32
_cell_length_a 11.521997
_cell_length_b 7.457004
_cell_length_c 18.201416
_cell_angle_alpha 90.000000
_cell_angle_beta 96.830327
_cell_angle_gamma 90.000000
_cell_volume 1552.758803
_symmetry_space_group_name_H-M "C 2"
_symmetry_group_IT_number 5
_symmetry_cell_setting 'monoclinic'
loop_
_space_group_symop_operation_xyz
x,y,z
-x,y,-z
1/2+x,1/2+y,z
1/2-x,1/2+y,-z
loop_
_atom_site_type_symbol
_atom_site_label
_atom_site_fract_x
_atom_site_fract_y
_atom_site_fract_z
Si Si1 0.085148 0.174470 0.284467
Si Si2 0.136007 0.070662 0.645343
Si Si3 0.866076 0.345334 0.476107
Si Si4 0.713296 0.212089 0.595232
Si Si5 0.875052 0.046087 0.962828
Si Si6 0.224468 0.873649 0.901888
Si Si7 0.533569 0.370450 0.167378
Si Si8 0.661731 0.035676 0.225514
O O1 0.210887 0.134466 0.330975
O O2 0.084817 0.378387 0.255689
O O3 0.988828 0.145495 0.339538
O O4 0.058723 0.052476 0.212654
O O5 0.184267 0.201910 0.585740
O O6 0.223775 0.078928 0.719600
O O7 0.122574 0.864186 0.616767
O O8 0.796728 0.319594 0.546024
O O9 0.855126 0.549146 0.446907
O O10 0.000000 0.300953 0.500000
O O11 0.903456 0.887594 0.907060
O O12 0.797822 0.194282 0.917749
O O13 0.796962 0.969473 0.022510
O O14 0.000000 0.125886 0.000000
O O15 0.103186 0.830755 0.852460
O O16 0.301519 0.998855 0.855436
O O17 0.580775 0.208995 0.219464
#
# Coordination Sequence:
#
# PCOD8050991 Si02
#       8
#     4   4   4   4   4   4   4   4
#     4  11  23  44  65  95 133 165 213 267 317 379
#     4  11  24  44  66  95 131 167 213 265 319 380
#     4  12  24  42  66  95 125 170 218 258 323 382
#     4  11  25  42  66  93 129 169 212 266 318 379
#     4  10  23  40  64  93 133 168 212 269 310 375
#     4  11  22  42  64  97 128 170 219 256 321 379
#     4  11  23  42  65  95 131 167 216 265 315 378
#     4  11  24  41  67  96 128 170 214 262 321 378
#
# _framework density 20.608483
#
# number of rings (size 3 to 8) (size 9 to 14) (size 15 to 20)
#    0.000    1.000    5.000    1.500    0.000    4.500 
#    0.000    0.000    0.000    0.000    0.000    0.000 
#    0.000    0.000    0.000    0.000    0.000    0.000 
#
# Total GULP energy -198455.324583 kJ/mol
# GULP energy per Si atom -12403.457786 kJ/mol
# Density = 2.056158 g / cm^3
# Si number density = 20.608483 Si / 1000 Ang^3
#
#
#
# Elastic Constant Matrix: (Units=GPa)
#
#
# Indices 1 2 3 4 5 6 
#
# 1 72.2661 39.8701 19.6605 0.0000 -4.8600 0.0000
# 2 39.8701 106.8640 27.8959 0.0000 16.1851 0.0000
# 3 19.6605 27.8959 83.5650 0.0000 0.6729 0.0000
# 4 0.0000 0.0000 0.0000 44.3485 0.0000 4.4831
# 5 -4.8600 16.1851 0.6729 0.0000 27.9742 0.0000
# 6 0.0000 0.0000 0.0000 4.4831 0.0000 29.9725
#
#
#
# Elastic Compliance Matrix: (Units=1/GPa)
#
#
# Indices 1 2 3 4 5 6 
#
# 1 0.019250 -0.007873 -0.001965 0.000000 0.007947 0.000000
# 2 -0.007873 0.014526 -0.002919 0.000000 -0.009702 0.000000
# 3 -0.001965 -0.002919 0.013395 0.000000 0.001025 0.000000
# 4 0.000000 0.000000 0.000000 0.022895 0.000000 -0.003424
# 5 0.007947 -0.009702 0.001025 0.000000 0.042716 0.000000
# 6 0.000000 0.000000 0.000000 -0.003424 0.000000 0.033876
#
#
# Mechanical properties :
#
#
# Convention : Reuss Voigt Hill
#
# Bulk Modulus (GPa) = 46.17093 48.61646 47.39369
# Shear Modulus (GPa) = 27.87198 32.14362 30.00780
#
# Velocity S-wave (km/s) = 3.68156 3.95362 3.82001
# Velocity P-wave (km/s) = 6.36587 6.66958 6.51949
#
# Compressibility (1/GPa) = 0.02165865
#
# Stress axis : x y z
#
# Youngs Moduli (GPa) = 51.94743 68.84065 74.65391
#
# Poissons Ratio (x) = 0.54196 0.14669
# Poissons Ratio (y) = 0.40897 0.21790
# Poissons Ratio (z) = 0.10207 0.20094
#
# Static dielectric constant tensor:
#      x y z
#    x 3.664860 0.000000 -0.074070 
#    y 0.000000 3.606850 0.000000 
#    z -0.074070 0.000000 3.971060 
# 
# 
# High freq. dielectric constant tensor:
#      x y z
#    x 1.801460 0.000000 -0.001490 
#    y 0.000000 1.804420 0.000000 
#    z -0.001490 0.000000 1.828350 
# 
# From -- ./inp_files/64981.got.cif
#   From: 2010.03.12/outbox.cif.g09.slc.cpg/sg5_33_cif.got.tgz:64981.got - 2010.03.31 09:47:26.
