data_PCOD8050153
_publ_section_title
;
Structure prediction by ZEFSAII (Michael W. Deem and Ramdas Pophale) SiO2 
 PCOD8050153
Probable space group: C 2
;
_chemical_formula_sum "Si O2"
_cell_formula_units_Z 22
_cell_length_a 20.878027
_cell_length_b 8.278237
_cell_length_c 8.728222
_cell_angle_alpha 90.000000
_cell_angle_beta 137.493745
_cell_angle_gamma 90.000000
_cell_volume 1019.267499
_symmetry_space_group_name_H-M "C 2"
_symmetry_group_IT_number 5
_symmetry_cell_setting 'monoclinic'
loop_
_space_group_symop_operation_xyz
x,y,z
-x,y,-z
1/2+x,1/2+y,z
1/2-x,1/2+y,-z
loop_
_atom_site_type_symbol
_atom_site_label
_atom_site_fract_x
_atom_site_fract_y
_atom_site_fract_z
Si Si1 0.650461 0.266350 0.482649
Si Si2 0.663758 0.738428 0.706915
Si Si3 0.057480 0.677090 0.867535
Si Si4 0.265972 0.088649 0.625323
Si Si5 0.333932 0.379737 0.163896
Si Si6 0.000000 0.448782 0.500000
O O1 0.542372 0.234251 0.232385
O O2 0.718190 0.130288 0.525949
O O3 0.700395 0.431248 0.516468
O O4 0.645036 0.257328 0.656537
O O5 0.708272 0.726085 0.615857
O O6 0.649598 0.562355 0.756325
O O7 0.566498 0.831427 0.518280
O O8 0.725752 0.849459 0.928801
O O9 0.100222 0.839403 0.865376
O O10 0.051209 0.552255 0.718183
O O11 0.128692 0.588472 0.112047
#
# Coordination Sequence:
#
# PCOD8050153 Si02
#       6
#     4   4   4   4   4   2
#     4  11  22  40  67  87 131 170 204 267 318 378
#     4  10  23  38  63  94 126 162 214 266 318 385
#     4  11  23  42  66  94 125 169 215 267 319 385
#     4  10  25  41  63  94 128 169 214 255 325 388
#     4  10  21  41  63  92 125 165 215 263 318 382
#     4  12  22  36  68  94 122 168 212 270 322 370
#
# _framework density 21.584126999999999
#
# number of rings (size 3 to 8) (size 9 to 14) (size 15 to 20)
#    0.000    1.455    1.818    3.818    7.636    1.455 
#    0.000    0.000    8.000    0.000    0.000    0.000 
#    0.000    0.000    0.000    0.000    0.000    0.000 
#
# Total GULP energy -136282.141204 kJ/mol
# GULP energy per Si atom -12389.285564 kJ/mol
# Density = 2.153500 g / cm^3
# Si number density = 21.584127 Si / 1000 Ang^3
#
#
#
# Elastic Constant Matrix: (Units=GPa)
#
#
# Indices 1 2 3 4 5 6 
#
# 1 98.6217 32.7558 24.9216 0.0000 26.9690 0.0000
# 2 32.7558 75.3949 19.6026 0.0000 9.5102 0.0000
# 3 24.9216 19.6026 44.4042 0.0000 20.0498 0.0000
# 4 0.0000 0.0000 0.0000 21.5114 0.0000 13.7103
# 5 26.9690 9.5102 20.0498 0.0000 32.9944 0.0000
# 6 0.0000 0.0000 0.0000 13.7103 0.0000 36.1912
#
#
#
# Elastic Compliance Matrix: (Units=1/GPa)
#
#
# Indices 1 2 3 4 5 6 
#
# 1 0.014814 -0.004734 -0.001892 0.000000 -0.009594 0.000000
# 2 -0.004734 0.016500 -0.005825 0.000000 0.002653 0.000000
# 3 -0.001892 -0.005825 0.034036 0.000000 -0.017457 0.000000
# 4 0.000000 0.000000 0.000000 0.061284 0.000000 -0.023216
# 5 -0.009594 0.002653 -0.017457 0.000000 0.047994 0.000000
# 6 0.000000 0.000000 0.000000 -0.023216 0.000000 0.036426
#
#
# Mechanical properties :
#
#
# Convention : Reuss Voigt Hill
#
# Bulk Modulus (GPa) = 24.72343 41.44232 33.08287
# Shear Modulus (GPa) = 20.04499 27.54880 23.79689
#
# Velocity S-wave (km/s) = 3.05075 3.57647 3.32402
# Velocity P-wave (km/s) = 4.88761 6.02469 5.48569
#
# Compressibility (1/GPa) = 0.04044747
#
# Stress axis : x y z
#
# Youngs Moduli (GPa) = 67.50465 60.60604 29.38024
#
# Poissons Ratio (x) = 0.28689 0.05560
# Poissons Ratio (y) = 0.31955 0.17115
# Poissons Ratio (z) = 0.12774 0.35305
#
# Static dielectric constant tensor:
#      x y z
#    x 4.282120 0.000000 0.031220 
#    y 0.000000 3.723600 0.000000 
#    z 0.031220 0.000000 3.882440 
# 
# 
# High freq. dielectric constant tensor:
#      x y z
#    x 1.867170 0.000000 0.008980 
#    y 0.000000 1.838760 0.000000 
#    z 0.008980 0.000000 1.835510 
# 
# From -- ./inp_files/22654.got.cif
#   From: 2010.03.12/outbox.cif.g09.slc.cpg/sg5_12_cif.got.tgz:22654.got - 2010.03.31 09:47:26.
