data_PCOD8050419
_publ_section_title
;
Structure prediction by ZEFSAII (Michael W. Deem and Ramdas Pophale) SiO2 
 PCOD8050419
Probable space group: C 2
;
_chemical_formula_sum "Si O2"
_cell_formula_units_Z 30
_cell_length_a 19.508249
_cell_length_b 11.487860
_cell_length_c 6.316427
_cell_angle_alpha 90.000000
_cell_angle_beta 79.580436
_cell_angle_gamma 90.000000
_cell_volume 1392.219095
_symmetry_space_group_name_H-M "C 2"
_symmetry_group_IT_number 5
_symmetry_cell_setting 'monoclinic'
loop_
_space_group_symop_operation_xyz
x,y,z
-x,y,-z
1/2+x,1/2+y,z
1/2-x,1/2+y,-z
loop_
_atom_site_type_symbol
_atom_site_label
_atom_site_fract_x
_atom_site_fract_y
_atom_site_fract_z
Si Si1 0.680789 0.734900 0.543928
Si Si2 0.258820 0.876202 0.131482
Si Si3 0.599698 0.334096 0.254724
Si Si4 0.500000 0.460401 0.000000
Si Si5 0.931629 0.040489 0.425719
Si Si6 0.694199 0.097139 0.661192
Si Si7 0.573941 0.104698 0.068552
Si Si8 0.345853 0.947778 0.700020
O O1 0.694052 0.775050 0.780682
O O2 0.636486 0.619048 0.530011
O O3 0.756211 0.710182 0.393857
O O4 0.636821 0.837218 0.455394
O O5 0.180565 0.833258 0.158002
O O6 0.260658 0.991870 0.271117
O O7 0.281640 0.907105 0.881771
O O8 0.555385 0.384399 0.090038
O O9 0.583158 0.408744 0.476473
O O10 0.575551 0.199338 0.259353
O O11 0.451559 0.539570 0.170900
O O12 0.000000 0.094988 0.500000
O O13 0.670919 0.058944 0.438207
O O14 0.630354 0.131164 0.851222
O O15 0.591308 0.982469 0.175951
O O16 0.500000 0.092902 0.000000
#
# Coordination Sequence:
#
# PCOD8050419 Si02
#       8
#     4   4   4   2   4   4   4   4
#     4  11  22  43  68  97 130 171 220 273 327 390
#     4  10  22  38  67 100 129 169 218 269 327 390
#     4  11  21  42  67  98 131 170 217 271 335 388
#     4  10  24  40  64  96 132 174 216 264 330 402
#     4  10  24  44  66  98 133 172 219 272 332 389
#     4  10  22  42  66  98 129 170 217 271 328 383
#     4  11  24  44  66  99 133 174 216 268 329 400
#     4  10  24  43  64  99 131 170 220 266 333 389
#
# _framework density 21.548334000000001
#
# number of rings (size 3 to 8) (size 9 to 14) (size 15 to 20)
#    0.000    1.600    2.000    1.600    1.867    5.867 
#   12.000    0.000    0.000    0.000    0.000    0.000 
#    0.000    0.000    0.000    0.000    0.000    0.000 
#
# Total GULP energy -185847.961874 kJ/mol
# GULP energy per Si atom -12389.864125 kJ/mol
# Density = 2.149929 g / cm^3
# Si number density = 21.548334 Si / 1000 Ang^3
#
#
#
# Elastic Constant Matrix: (Units=GPa)
#
#
# Indices 1 2 3 4 5 6 
#
# 1 121.0513 46.1861 37.5812 0.0000 3.9608 0.0000
# 2 46.1861 90.9569 38.1878 0.0000 4.2409 0.0000
# 3 37.5812 38.1878 110.5690 0.0000 -4.2318 0.0000
# 4 0.0000 0.0000 0.0000 28.1033 0.0000 5.6922
# 5 3.9608 4.2409 -4.2318 0.0000 21.0512 0.0000
# 6 0.0000 0.0000 0.0000 5.6922 0.0000 28.5611
#
#
#
# Elastic Compliance Matrix: (Units=1/GPa)
#
#
# Indices 1 2 3 4 5 6 
#
# 1 0.010676 -0.004445 -0.002153 0.000000 -0.001546 0.000000
# 2 -0.004445 0.014972 -0.003773 0.000000 -0.002938 0.000000
# 3 -0.002153 -0.003773 0.011210 0.000000 0.003418 0.000000
# 4 0.000000 0.000000 0.000000 0.037080 0.000000 -0.007390
# 5 -0.001546 -0.002938 0.003418 0.000000 0.049073 0.000000
# 6 0.000000 0.000000 0.000000 -0.007390 0.000000 0.036485
#
#
# Mechanical properties :
#
#
# Convention : Reuss Voigt Hill
#
# Bulk Modulus (GPa) = 62.04621 62.94304 62.49463
# Shear Modulus (GPa) = 26.93833 28.91793 27.92813
#
# Velocity S-wave (km/s) = 3.53956 3.66731 3.60400
# Velocity P-wave (km/s) = 6.74990 6.87065 6.81054
#
# Compressibility (1/GPa) = 0.01611702
#
# Stress axis : x y z
#
# Youngs Moduli (GPa) = 93.66963 66.78992 89.20954
#
# Poissons Ratio (x) = 0.29689 0.19202
# Poissons Ratio (y) = 0.41638 0.33656
# Poissons Ratio (z) = 0.20163 0.25198
#
# Static dielectric constant tensor:
#      x y z
#    x 3.819890 0.000000 0.128190 
#    y 0.000000 3.906430 0.000000 
#    z 0.128190 0.000000 4.062530 
# 
# 
# High freq. dielectric constant tensor:
#      x y z
#    x 1.845300 0.000000 0.013620 
#    y 0.000000 1.839290 0.000000 
#    z 0.013620 0.000000 1.851150 
# 
# From -- ./inp_files/9592.got.cif
#   From: 2010.03.12/outbox.cif.g09.slc.cpg/sg5_5_cif.got.tgz:9592.got - 2010.03.31 09:47:26.
