data_PCOD8050054
_publ_section_title
;
Structure prediction by ZEFSAII (Michael W. Deem and Ramdas Pophale) SiO2 
 PCOD8050054
Probable space group: C 2
;
_chemical_formula_sum "Si O2"
_cell_formula_units_Z 28
_cell_length_a 8.734269
_cell_length_b 5.199291
_cell_length_c 31.742113
_cell_angle_alpha 90.000000
_cell_angle_beta 127.489665
_cell_angle_gamma 90.000000
_cell_volume 1143.755712
_symmetry_space_group_name_H-M "C 2"
_symmetry_group_IT_number 5
_symmetry_cell_setting 'monoclinic'
loop_
_space_group_symop_operation_xyz
x,y,z
-x,y,-z
1/2+x,1/2+y,z
1/2-x,1/2+y,-z
loop_
_atom_site_type_symbol
_atom_site_label
_atom_site_fract_x
_atom_site_fract_y
_atom_site_fract_z
Si Si1 0.897821 0.760020 0.561647
Si Si2 0.876919 0.237589 0.020230
Si Si3 0.400902 0.694489 0.857118
Si Si4 0.527753 0.760134 0.455959
Si Si5 0.086904 0.678125 0.343454
Si Si6 0.981331 0.695653 0.818139
Si Si7 0.660676 0.678044 0.695211
O O1 0.764179 0.793303 0.497573
O O2 0.045376 0.523390 0.578508
O O3 0.794731 0.720332 0.591303
O O4 0.025094 0.022446 0.584363
O O5 0.023891 0.202805 0.082962
O O6 0.766008 0.971607 0.993572
O O7 0.000000 0.310796 0.000000
O O8 0.168805 0.698193 0.819547
O O9 0.481291 0.934955 0.844716
O O10 0.482399 0.437474 0.849457
O O11 0.500000 0.713507 0.500000
O O12 0.914664 0.885057 0.316789
O O13 0.220531 0.739570 0.326823
O O14 0.008503 0.388340 0.328921
O O15 0.794810 0.714085 0.757907
#
# Coordination Sequence:
#
# PCOD8050054 Si02
#       7
#     4   4   4   4   4   4   4
#     4  10  23  38  61  92 119 167 210 264 316 405
#     4  12  25  44  67 101 144 180 225 279 335 399
#     4  12  25  44  72 101 133 186 227 278 335 398
#     4  10  21  40  62  87 123 160 213 259 320 377
#     4  12  27  45  71 100 137 175 223 272 354 399
#     4  12  25  45  71  98 136 174 239 278 335 398
#     4  12  26  48  69 102 134 179 220 291 335 399
#
# _framework density 24.480753
#
# number of rings (size 3 to 8) (size 9 to 14) (size 15 to 20)
#    0.000    0.571    0.000    8.571    4.000    0.000 
#    0.000    0.000    0.000    0.000    0.000    0.000 
#    0.000    0.000    0.000    0.000    0.000    0.000 
#
# Total GULP energy -173613.790333 kJ/mol
# GULP energy per Si atom -12400.985024 kJ/mol
# Density = 2.442503 g / cm^3
# Si number density = 24.480753 Si / 1000 Ang^3
#
#
#
# Elastic Constant Matrix: (Units=GPa)
#
#
# Indices 1 2 3 4 5 6 
#
# 1 91.6442 30.0795 3.2841 0.0000 -19.0286 0.0000
# 2 30.0795 119.4037 11.3879 0.0000 6.1019 -0.0002
# 3 3.2841 11.3879 102.7893 0.0000 -7.4360 0.0000
# 4 0.0000 0.0000 0.0000 24.2562 0.0000 -8.5594
# 5 -19.0286 6.1019 -7.4360 0.0000 29.9348 0.0001
# 6 0.0000 -0.0002 0.0000 -8.5594 0.0001 24.6472
#
#
#
# Elastic Compliance Matrix: (Units=1/GPa)
#
#
# Indices 1 2 3 4 5 6 
#
# 1 0.014384 -0.004215 0.000744 0.000000 0.010187 0.000000
# 2 -0.004215 0.009818 -0.001315 0.000000 -0.005007 0.000000
# 3 0.000744 -0.001315 0.010085 0.000000 0.003247 0.000000
# 4 0.000000 0.000000 0.000000 0.046984 0.000000 0.016317
# 5 0.010187 -0.005007 0.003247 0.000000 0.041709 0.000000
# 6 0.000000 0.000000 0.000000 0.016317 0.000000 0.046239
#
#
# Mechanical properties :
#
#
# Convention : Reuss Voigt Hill
#
# Bulk Modulus (GPa) = 40.46058 44.81556 42.63807
# Shear Modulus (GPa) = 26.73365 33.70667 30.22016
#
# Velocity S-wave (km/s) = 3.30817 3.71464 3.51728
# Velocity P-wave (km/s) = 5.58170 6.06170 5.82665
#
# Compressibility (1/GPa) = 0.02471541
#
# Stress axis : x y z
#
# Youngs Moduli (GPa) = 69.52237 101.85224 99.15281
#
# Poissons Ratio (x) = 0.42932 -0.07381
# Poissons Ratio (y) = 0.29304 0.13042
# Poissons Ratio (z) = -0.05175 0.13397
#
# Static dielectric constant tensor:
#      x y z
#    x 4.648660 0.000000 0.534480 
#    y 0.000000 5.092810 0.000000 
#    z 0.534480 0.000000 5.555040 
# 
# 
# High freq. dielectric constant tensor:
#      x y z
#    x 1.987780 0.000000 -0.001440 
#    y 0.000000 1.999790 0.000000 
#    z -0.001440 0.000000 1.983190 
# 
# From -- ./inp_files/71521.got.cif
#   From: 2010.03.12/outbox.cif.g09.slc.cpg/sg5_36_cif.got.tgz:71521.got - 2010.03.31 09:47:26.
