data_PCOD8050311
_publ_section_title
;
Structure prediction by ZEFSAII (Michael W. Deem and Ramdas Pophale) SiO2 
 PCOD8050311
Probable space group: C 2
;
_chemical_formula_sum "Si O2"
_cell_formula_units_Z 30
_cell_length_a 6.099044
_cell_length_b 17.693790
_cell_length_c 15.312539
_cell_angle_alpha 90.000000
_cell_angle_beta 56.331753
_cell_angle_gamma 90.000000
_cell_volume 1375.275291
_symmetry_space_group_name_H-M "C 2"
_symmetry_group_IT_number 5
_symmetry_cell_setting 'monoclinic'
loop_
_space_group_symop_operation_xyz
x,y,z
-x,y,-z
1/2+x,1/2+y,z
1/2-x,1/2+y,-z
loop_
_atom_site_type_symbol
_atom_site_label
_atom_site_fract_x
_atom_site_fract_y
_atom_site_fract_z
Si Si1 0.437550 0.090550 0.862609
Si Si2 0.529527 0.546395 0.721090
Si Si3 0.333694 0.781347 0.801068
Si Si4 0.680731 0.946589 0.205917
Si Si5 0.675384 0.182585 0.284827
Si Si6 0.755609 0.793252 0.384846
Si Si7 0.082523 0.927851 0.383838
Si Si8 0.500000 0.178435 0.000000
O O1 0.362306 0.147492 0.802333
O O2 0.753103 0.084562 0.807707
O O3 0.332171 0.006237 0.870133
O O4 0.315670 0.123258 0.980522
O O5 0.614142 0.479537 0.768993
O O6 0.737377 0.614890 0.670711
O O7 0.516858 0.509429 0.628011
O O8 0.246146 0.865430 0.851425
O O9 0.624441 0.753723 0.763791
O O10 0.312254 0.780740 0.701262
O O11 0.139286 0.726347 0.894711
O O12 0.398176 0.929419 0.312740
O O13 0.403400 0.216525 0.382398
O O14 0.500000 0.805827 0.500000
O O15 0.952948 0.863759 0.351755
O O16 0.000000 0.912964 0.500000
#
# Coordination Sequence:
#
# PCOD8050311 Si02
#       8
#     4   4   4   4   4   4   4   2
#     4  10  23  45  66 101 134 186 229 292 363 430
#     4  10  21  44  69  91 143 179 228 298 348 433
#     4  12  24  46  68 107 138 182 242 303 357 428
#     4  10  22  43  69  96 140 184 231 289 357 434
#     4  11  22  45  70  97 140 185 234 290 366 424
#     4  12  25  42  70 102 146 188 237 292 359 430
#     4  11  23  40  70 103 134 187 240 284 360 433
#     4  12  24  46  72  98 144 180 242 298 360 422
#
# _framework density 21.813814000000001
#
# number of rings (size 3 to 8) (size 9 to 14) (size 15 to 20)
#    0.000    1.067    5.333    0.800    0.000    0.533 
#    2.400   16.000    0.000    0.000    0.000    0.000 
#    0.000    0.000    0.000    0.000    0.000    0.000 
#
# Total GULP energy -185866.052692 kJ/mol
# GULP energy per Si atom -12391.070179 kJ/mol
# Density = 2.176417 g / cm^3
# Si number density = 21.813814 Si / 1000 Ang^3
#
#
#
# Elastic Constant Matrix: (Units=GPa)
#
#
# Indices 1 2 3 4 5 6 
#
# 1 111.1546 47.1070 28.6762 0.0000 10.1292 0.0000
# 2 47.1070 145.6272 34.4095 0.0000 13.1264 0.0000
# 3 28.6762 34.4095 86.4096 0.0000 21.8293 0.0000
# 4 0.0000 0.0000 0.0000 21.1405 0.0000 7.9566
# 5 10.1292 13.1264 21.8293 0.0000 20.1614 0.0000
# 6 0.0000 0.0000 0.0000 7.9566 0.0000 49.8070
#
#
#
# Elastic Compliance Matrix: (Units=1/GPa)
#
#
# Indices 1 2 3 4 5 6 
#
# 1 0.010895 -0.002905 -0.002139 0.000000 -0.001267 0.000000
# 2 -0.002905 0.008432 -0.001894 0.000000 -0.001980 0.000000
# 3 -0.002139 -0.001894 0.017143 0.000000 -0.016253 0.000000
# 4 0.000000 0.000000 0.000000 0.050329 0.000000 -0.008040
# 5 -0.001267 -0.001980 -0.016253 0.000000 0.069123 0.000000
# 6 0.000000 0.000000 0.000000 -0.008040 0.000000 0.021362
#
#
# Mechanical properties :
#
#
# Convention : Reuss Voigt Hill
#
# Bulk Modulus (GPa) = 44.25680 62.61965 53.43823
# Shear Modulus (GPa) = 25.16488 33.75503 29.45995
#
# Velocity S-wave (km/s) = 3.40018 3.93799 3.67893
# Velocity P-wave (km/s) = 5.97892 7.03177 6.52661
#
# Compressibility (1/GPa) = 0.02259540
#
# Stress axis : x y z
#
# Youngs Moduli (GPa) = 91.78793 118.59057 58.33391
#
# Poissons Ratio (x) = 0.34446 0.12477
# Poissons Ratio (y) = 0.26661 0.11046
# Poissons Ratio (z) = 0.19633 0.22457
#
# Static dielectric constant tensor:
#      x y z
#    x 4.323960 0.000000 0.091370 
#    y 0.000000 4.494040 0.000000 
#    z 0.091370 0.000000 3.522060 
# 
# 
# High freq. dielectric constant tensor:
#      x y z
#    x 1.874730 0.000000 0.010480 
#    y 0.000000 1.886740 0.000000 
#    z 0.010480 0.000000 1.816960 
# 
# From -- ./inp_files/49299.got.cif
#   From: 2010.03.12/outbox.cif.g09.slc.cpg/sg5_25_cif.got.tgz:49299.got - 2010.03.31 09:47:26.
