data_PCOD8050190
_publ_section_title
;
Structure prediction by ZEFSAII (Michael W. Deem and Ramdas Pophale) SiO2 
 PCOD8050190
Probable space group: C 2
;
_chemical_formula_sum "Si O2"
_cell_formula_units_Z 28
_cell_length_a 21.366594
_cell_length_b 7.914033
_cell_length_c 25.459177
_cell_angle_alpha 90.000000
_cell_angle_beta 161.607499
_cell_angle_gamma 90.000000
_cell_volume 1358.348085
_symmetry_space_group_name_H-M "C 2"
_symmetry_group_IT_number 5
_symmetry_cell_setting 'monoclinic'
loop_
_space_group_symop_operation_xyz
x,y,z
-x,y,-z
1/2+x,1/2+y,z
1/2-x,1/2+y,-z
loop_
_atom_site_type_symbol
_atom_site_label
_atom_site_fract_x
_atom_site_fract_y
_atom_site_fract_z
Si Si1 0.336281 0.455720 0.626554
Si Si2 0.123438 0.479315 0.748568
Si Si3 0.676275 0.654685 0.859675
Si Si4 0.690381 0.252351 0.183364
Si Si5 0.439198 0.338569 0.288451
Si Si6 0.405906 0.215532 0.776269
Si Si7 0.463164 0.484496 0.528583
O O1 0.478918 0.621240 0.737169
O O2 0.384143 0.333459 0.614607
O O3 0.385033 0.366267 0.719463
O O4 0.109442 0.507585 0.445896
O O5 0.165336 0.340001 0.825935
O O6 0.234624 0.426260 0.783682
O O7 0.194006 0.667429 0.822375
O O8 0.692340 0.507239 0.827659
O O9 0.872081 0.640643 0.051369
O O10 0.626987 0.293521 0.192108
O O11 0.871525 0.123694 0.327428
O O12 0.500000 0.180322 0.000000
O O13 0.526527 0.345164 0.417419
O O14 0.253020 0.067568 0.640995
O O15 0.500000 0.404180 0.500000
#
# Coordination Sequence:
#
# PCOD8050190 Si02
#       7
#     4   4   4   4   4   4   4
#     4  10  23  41  63  98 128 174 215 271 327 396
#     4  12  21  42  71  92 130 175 226 267 328 397
#     4  10  23  42  67  93 133 174 212 274 330 390
#     4  11  20  40  70  93 130 178 216 272 329 390
#     4  10  23  42  65  96 126 173 220 266 328 390
#     4  11  21  41  69  97 132 174 219 266 341 390
#     4  10  21  41  68  95 131 175 219 274 328 392
#
# _framework density 20.613273
#
# number of rings (size 3 to 8) (size 9 to 14) (size 15 to 20)
#    0.857    0.571    4.286    0.857    2.000    1.143 
#    5.143    3.571    0.000    0.000    0.000    0.000 
#    0.000    0.000    0.000    0.000    0.000    0.000 
#
# Total GULP energy -173505.055849 kJ/mol
# GULP energy per Si atom -12393.218275 kJ/mol
# Density = 2.056636 g / cm^3
# Si number density = 20.613273 Si / 1000 Ang^3
#
#
#
# Elastic Constant Matrix: (Units=GPa)
#
#
# Indices 1 2 3 4 5 6 
#
# 1 84.9821 13.6345 10.5536 -0.1450 -14.9934 0.0116
# 2 13.6345 91.7788 18.5383 -0.2515 -10.4507 0.0212
# 3 10.5536 18.5383 119.8904 -0.2874 7.6965 -0.0048
# 4 -0.1450 -0.2515 -0.2874 2.4481 -0.0598 1.1507
# 5 -14.9934 -10.4507 7.6965 -0.0598 36.1019 0.0114
# 6 0.0116 0.0212 -0.0048 1.1507 0.0114 24.0828
#
#
#
# Elastic Compliance Matrix: (Units=1/GPa)
#
#
# Indices 1 2 3 4 5 6 
#
# 1 0.013056 -0.001054 -0.001332 0.000659 0.005402 -0.000040
# 2 -0.001054 0.011838 -0.001954 0.001037 0.003407 -0.000061
# 3 -0.001332 -0.001954 0.008956 0.000711 -0.003027 -0.000028
# 4 0.000659 0.001037 0.000711 0.418130 0.001121 -0.019981
# 5 0.005402 0.003407 -0.003027 0.001121 0.031576 -0.000075
# 6 -0.000040 -0.000061 -0.000028 -0.019981 -0.000075 0.042478
#
#
# Mechanical properties :
#
#
# Convention : Reuss Voigt Hill
#
# Bulk Modulus (GPa) = 39.72728 42.45601 41.09165
# Shear Modulus (GPa) = 9.20635 29.45489 19.33062
#
# Velocity S-wave (km/s) = 2.11564 3.78422 3.06563
# Velocity P-wave (km/s) = 5.02816 6.30356 5.70164
#
# Compressibility (1/GPa) = 0.02517162
#
# Stress axis : x y z
#
# Youngs Moduli (GPa) = 76.59425 84.47494 111.65306
#
# Poissons Ratio (x) = 0.08901 0.14867
# Poissons Ratio (y) = 0.08070 0.21817
# Poissons Ratio (z) = 0.10199 0.16506
#
# Static dielectric constant tensor:
#      x y z
#    x 4.043830 -0.000190 0.112240 
#    y -0.000190 3.462200 -0.000250 
#    z 0.112240 -0.000250 3.840820 
# 
# 
# High freq. dielectric constant tensor:
#      x y z
#    x 1.813610 0.000000 0.001350 
#    y 0.000000 1.779950 -0.000010 
#    z 0.001350 -0.000010 1.807450 
# 
# From -- ./inp_files/69449.got.cif
#   From: 2010.03.12/outbox.cif.g09.slc.cpg/sg5_35_cif.got.tgz:69449.got - 2010.03.31 09:47:26.
