data_PCOD8050362
_publ_section_title
;
Structure prediction by ZEFSAII (Michael W. Deem and Ramdas Pophale) SiO2 
 PCOD8050362
Probable space group: C 2
;
_chemical_formula_sum "Si O2"
_cell_formula_units_Z 22
_cell_length_a 16.166005
_cell_length_b 14.528834
_cell_length_c 8.473462
_cell_angle_alpha 90.000000
_cell_angle_beta 149.050376
_cell_angle_gamma 90.000000
_cell_volume 1023.522903
_symmetry_space_group_name_H-M "C 2"
_symmetry_group_IT_number 5
_symmetry_cell_setting 'monoclinic'
loop_
_space_group_symop_operation_xyz
x,y,z
-x,y,-z
1/2+x,1/2+y,z
1/2-x,1/2+y,-z
loop_
_atom_site_type_symbol
_atom_site_label
_atom_site_fract_x
_atom_site_fract_y
_atom_site_fract_z
Si Si1 0.992352 0.007580 0.169023
Si Si2 0.596825 0.705011 0.425389
Si Si3 0.753953 0.237972 0.015560
Si Si4 0.000000 0.328630 0.000000
Si Si5 0.774622 0.909287 0.239280
Si Si6 0.825731 0.542458 0.179520
O O1 0.100648 0.097716 0.383415
O O2 0.068044 0.924100 0.395085
O O3 0.000000 0.980325 0.000000
O O4 0.803424 0.019653 0.896345
O O5 0.429211 0.724005 0.233212
O O6 0.735973 0.737432 0.775949
O O7 0.614265 0.764908 0.295533
O O8 0.684425 0.330981 0.824298
O O9 0.645841 0.151673 0.787486
O O10 0.118104 0.390127 0.088768
O O11 0.741259 0.004290 0.094398
O O12 0.000000 0.496518 0.500000
#
# Coordination Sequence:
#
# PCOD8050362 Si02
#       6
#     4   4   4   2   4   4
#     4  11  23  42  69  98 135 177 223 276 336 394
#     4   9  17  38  65  93 128 179 219 268 335 394
#     4   9  20  39  65  92 130 174 223 271 326 393
#     4  10  22  36  62 104 134 174 226 272 334 394
#     4  11  24  40  68  98 136 176 227 272 333 397
#     4  11  25  42  65  98 132 176 225 275 331 397
#
# _framework density 21.494389000000002
#
# number of rings (size 3 to 8) (size 9 to 14) (size 15 to 20)
#    0.000    1.818    2.727    0.545    7.636    1.455 
#    0.000    0.000    0.000    0.000    0.000    0.000 
#    0.000    0.000    0.000    0.000    0.000    0.000 
#
# Total GULP energy -136369.103615 kJ/mol
# GULP energy per Si atom -12397.191238 kJ/mol
# Density = 2.144547 g / cm^3
# Si number density = 21.494389 Si / 1000 Ang^3
#
#
#
# Elastic Constant Matrix: (Units=GPa)
#
#
# Indices 1 2 3 4 5 6 
#
# 1 99.1681 29.8928 53.6512 0.0000 -17.6308 0.0000
# 2 29.8928 95.6259 42.0790 0.0000 -9.4046 0.0000
# 3 53.6512 42.0790 131.3749 0.0000 -22.4863 0.0000
# 4 0.0000 0.0000 0.0000 26.1299 0.0000 -0.9001
# 5 -17.6308 -9.4046 -22.4863 0.0000 38.6116 0.0000
# 6 0.0000 0.0000 0.0000 -0.9001 0.0000 20.7299
#
#
#
# Elastic Compliance Matrix: (Units=1/GPa)
#
#
# Indices 1 2 3 4 5 6 
#
# 1 0.013624 -0.002022 -0.004371 0.000000 0.003183 0.000000
# 2 -0.002022 0.012494 -0.003125 0.000000 0.000300 0.000000
# 3 -0.004371 -0.003125 0.011025 0.000000 0.003663 0.000000
# 4 0.000000 0.000000 0.000000 0.038328 0.000000 0.001664
# 5 0.003183 0.000300 0.003663 0.000000 0.029559 0.000000
# 6 0.000000 0.000000 0.000000 0.001664 0.000000 0.048312
#
#
# Mechanical properties :
#
#
# Convention : Reuss Voigt Hill
#
# Bulk Modulus (GPa) = 55.22866 64.15721 59.69294
# Shear Modulus (GPa) = 28.02477 30.46401 29.24439
#
# Velocity S-wave (km/s) = 3.61476 3.76879 3.69258
# Velocity P-wave (km/s) = 6.57056 6.98939 6.78320
#
# Compressibility (1/GPa) = 0.01810654
#
# Stress axis : x y z
#
# Youngs Moduli (GPa) = 73.39792 80.03813 90.70427
#
# Poissons Ratio (x) = 0.16187 0.39651
# Poissons Ratio (y) = 0.14844 0.28341
# Poissons Ratio (z) = 0.32085 0.25008
#
# Static dielectric constant tensor:
#      x y z
#    x 3.854650 0.000000 -0.392500 
#    y 0.000000 3.966160 0.000000 
#    z -0.392500 0.000000 3.875860 
# 
# 
# High freq. dielectric constant tensor:
#      x y z
#    x 1.831980 0.000000 -0.020190 
#    y 0.000000 1.843770 0.000000 
#    z -0.020190 0.000000 1.838180 
# 
# From -- ./inp_files/14874.got.cif
#   From: 2010.03.12/outbox.cif.g09.slc.cpg/sg5_8_cif.got.tgz:14874.got - 2010.03.31 09:47:26.
