data_PCOD8050193
_publ_section_title
;
Structure prediction by ZEFSAII (Michael W. Deem and Ramdas Pophale) SiO2 
 PCOD8050193
Probable space group: C 2
;
_chemical_formula_sum "Si O2"
_cell_formula_units_Z 20
_cell_length_a 12.854930
_cell_length_b 7.903255
_cell_length_c 13.356711
_cell_angle_alpha 90.000000
_cell_angle_beta 43.793094
_cell_angle_gamma 90.000000
_cell_volume 939.110264
_symmetry_space_group_name_H-M "C 2"
_symmetry_group_IT_number 5
_symmetry_cell_setting 'monoclinic'
loop_
_space_group_symop_operation_xyz
x,y,z
-x,y,-z
1/2+x,1/2+y,z
1/2-x,1/2+y,-z
loop_
_atom_site_type_symbol
_atom_site_label
_atom_site_fract_x
_atom_site_fract_y
_atom_site_fract_z
Si Si1 0.000000 0.566150 0.000000
Si Si2 0.321664 0.558115 0.310361
Si Si3 0.000000 0.121527 0.500000
Si Si4 0.726753 0.813205 0.213056
Si Si5 0.967695 0.349110 0.830371
Si Si6 0.223237 0.887570 0.462160
O O1 0.862485 0.682357 0.129662
O O2 0.058976 0.446934 0.047858
O O3 0.269708 0.486077 0.239953
O O4 0.482297 0.652780 0.183495
O O5 0.201314 0.694286 0.438971
O O6 0.328147 0.404291 0.386260
O O7 0.926711 0.237637 0.635670
O O8 0.872883 0.010347 0.538901
O O9 0.687906 0.855322 0.124309
O O10 0.101738 0.439408 0.674366
#
# Coordination Sequence:
#
# PCOD8050193 Si02
#       6
#     2   4   2   4   4   4
#     4  12  28  46  66 100 146 184 234 278 340 418
#     4  10  22  42  69 102 138 174 233 283 348 400
#     4  12  20  44  74 106 140 174 234 296 346 402
#     4  12  24  46  72 101 139 185 227 291 343 407
#     4  10  25  45  68  98 139 184 233 283 337 422
#     4  10  21  41  69 103 139 172 229 291 339 404
#
# _framework density 21.296752999999999
#
# number of rings (size 3 to 8) (size 9 to 14) (size 15 to 20)
#    1.200    0.000    4.000    2.400    0.000    6.400 
#    0.000    0.000    0.000    0.000    0.000    0.000 
#    0.000    0.000    0.000    0.000    0.000    0.000 
#
# Total GULP energy -123961.066928 kJ/mol
# GULP energy per Si atom -12396.106693 kJ/mol
# Density = 2.124828 g / cm^3
# Si number density = 21.296753 Si / 1000 Ang^3
#
#
#
# Elastic Constant Matrix: (Units=GPa)
#
#
# Indices 1 2 3 4 5 6 
#
# 1 133.9283 54.9215 21.9576 0.0000 29.7162 0.0000
# 2 54.9215 116.6239 40.1948 0.0000 18.7286 0.0000
# 3 21.9576 40.1948 64.1791 0.0000 10.5408 0.0000
# 4 0.0000 0.0000 0.0000 32.5030 0.0000 11.2010
# 5 29.7162 18.7286 10.5408 0.0000 35.2473 0.0000
# 6 0.0000 0.0000 0.0000 11.2010 0.0000 29.1615
#
#
#
# Elastic Compliance Matrix: (Units=1/GPa)
#
#
# Indices 1 2 3 4 5 6 
#
# 1 0.010580 -0.003855 -0.000081 0.000000 -0.006847 0.000000
# 2 -0.003855 0.012891 -0.006482 0.000000 -0.001661 0.000000
# 3 -0.000081 -0.006482 0.020078 0.000000 -0.002492 0.000000
# 4 0.000000 0.000000 0.000000 0.035460 0.000000 -0.013620
# 5 -0.006847 -0.001661 -0.002492 0.000000 0.035772 0.000000
# 6 0.000000 0.000000 0.000000 -0.013620 0.000000 0.039523
#
#
# Mechanical properties :
#
#
# Convention : Reuss Voigt Hill
#
# Bulk Modulus (GPa) = 44.02635 60.98655 52.50645
# Shear Modulus (GPa) = 27.36582 32.55952 29.96267
#
# Velocity S-wave (km/s) = 3.58855 3.91429 3.75495
# Velocity P-wave (km/s) = 6.15531 7.00911 6.59604
#
# Compressibility (1/GPa) = 0.02271367
#
# Stress axis : x y z
#
# Youngs Moduli (GPa) = 94.51720 77.57567 49.80651
#
# Poissons Ratio (x) = 0.29905 0.00403
# Poissons Ratio (y) = 0.36436 0.32282
# Poissons Ratio (z) = 0.00764 0.50281
#
# Static dielectric constant tensor:
#      x y z
#    x 3.855050 0.000000 0.145520 
#    y 0.000000 3.764920 0.000000 
#    z 0.145520 0.000000 3.650380 
# 
# 
# High freq. dielectric constant tensor:
#      x y z
#    x 1.837540 0.000000 0.013680 
#    y 0.000000 1.832640 0.000000 
#    z 0.013680 0.000000 1.817470 
# 
# From -- ./inp_files/18285.got.cif
#   From: 2010.03.12/outbox.cif.g09.slc.cpg/sg5_10_cif.got.tgz:18285.got - 2010.03.31 09:47:26.
