data_PCOD8050374
_publ_section_title
;
Structure prediction by ZEFSAII (Michael W. Deem and Ramdas Pophale) SiO2 
 PCOD8050374
Probable space group: C 2
;
_chemical_formula_sum "Si O2"
_cell_formula_units_Z 28
_cell_length_a 22.200551
_cell_length_b 10.652609
_cell_length_c 11.061042
_cell_angle_alpha 90.000000
_cell_angle_beta 151.162688
_cell_angle_gamma 90.000000
_cell_volume 1261.696413
_symmetry_space_group_name_H-M "C 2"
_symmetry_group_IT_number 5
_symmetry_cell_setting 'monoclinic'
loop_
_space_group_symop_operation_xyz
x,y,z
-x,y,-z
1/2+x,1/2+y,z
1/2-x,1/2+y,-z
loop_
_atom_site_type_symbol
_atom_site_label
_atom_site_fract_x
_atom_site_fract_y
_atom_site_fract_z
Si Si1 0.325052 0.791540 0.516502
Si Si2 0.463593 0.034435 0.807127
Si Si3 0.030654 0.233115 0.682956
Si Si4 0.529559 0.455734 0.424352
Si Si5 0.917029 0.928914 0.973655
Si Si6 0.273047 0.670250 0.660015
Si Si7 0.805997 0.399490 0.880897
O O1 0.385276 0.907932 0.694661
O O2 0.415836 0.751018 0.570632
O O3 0.193681 0.829115 0.227845
O O4 0.307081 0.674725 0.576882
O O5 0.372026 0.130494 0.575824
O O6 0.500000 0.093852 0.000000
O O7 0.587437 0.005452 0.947234
O O8 0.000000 0.294370 0.500000
O O9 0.156314 0.303047 0.946333
O O10 0.049261 0.084294 0.702797
O O11 0.500000 0.381352 0.500000
O O12 0.679080 0.473356 0.684621
O O13 0.487926 0.393384 0.223601
O O14 0.865944 0.072462 0.888781
O O15 0.000000 0.910634 0.000000
O O16 0.290964 0.811276 0.737542
#
# Coordination Sequence:
#
# PCOD8050374 Si02
#       7
#     4   4   4   4   4   4   4
#     4  10  22  38  63  93 129 168 211 270 323 379
#     4  10  22  37  60  97 127 160 212 256 318 389
#     4  10  23  43  65  88 123 178 217 259 324 381
#     4  11  25  44  67  97 129 173 218 269 323 389
#     4  11  23  39  64  99 130 165 222 268 323 393
#     4  11  22  38  66  93 131 168 208 268 329 379
#     4  11  23  44  65  90 132 166 209 268 316 389
#
# _framework density 22.192343000000001
#
# number of rings (size 3 to 8) (size 9 to 14) (size 15 to 20)
#    0.000    1.429    2.857    1.714    8.000    1.714 
#    0.000    0.000    0.000    0.000    0.000    0.000 
#    0.000    0.000    0.000    0.000    0.000    0.000 
#
# Total GULP energy -173545.676423 kJ/mol
# GULP energy per Si atom -12396.119745 kJ/mol
# Density = 2.214183 g / cm^3
# Si number density = 22.192343 Si / 1000 Ang^3
#
#
#
# Elastic Constant Matrix: (Units=GPa)
#
#
# Indices 1 2 3 4 5 6 
#
# 1 119.2366 7.6669 53.4287 0.0000 -23.3822 0.0000
# 2 7.6669 36.9226 7.7323 0.0000 -4.9444 0.0000
# 3 53.4287 7.7323 140.3008 0.0000 -4.6250 0.0000
# 4 0.0000 0.0000 0.0000 21.7026 0.0000 6.7286
# 5 -23.3822 -4.9444 -4.6250 0.0000 31.0709 0.0000
# 6 0.0000 0.0000 0.0000 6.7286 0.0000 9.4544
#
#
#
# Elastic Compliance Matrix: (Units=1/GPa)
#
#
# Indices 1 2 3 4 5 6 
#
# 1 0.011946 -0.000482 -0.004250 0.000000 0.008280 0.000000
# 2 -0.000482 0.027964 -0.001229 0.000000 0.003905 0.000000
# 3 -0.004250 -0.001229 0.008745 0.000000 -0.002092 0.000000
# 4 0.000000 0.000000 0.000000 0.059123 0.000000 -0.042077
# 5 0.008280 0.003905 -0.002092 0.000000 0.038726 0.000000
# 6 0.000000 0.000000 0.000000 -0.042077 0.000000 0.135717
#
#
# Mechanical properties :
#
#
# Convention : Reuss Voigt Hill
#
# Bulk Modulus (GPa) = 27.22298 48.23509 37.72903
# Shear Modulus (GPa) = 16.31933 27.62104 21.97019
#
# Velocity S-wave (km/s) = 2.71469 3.53175 3.14982
# Velocity P-wave (km/s) = 4.70314 6.19784 5.50149
#
# Compressibility (1/GPa) = 0.03673367
#
# Stress axis : x y z
#
# Youngs Moduli (GPa) = 83.71274 35.76029 114.35603
#
# Poissons Ratio (x) = 0.01723 0.48596
# Poissons Ratio (y) = 0.04032 0.14054
# Poissons Ratio (z) = 0.35574 0.04395
#
# Static dielectric constant tensor:
#      x y z
#    x 4.020630 0.000000 -0.128540 
#    y 0.000000 3.857090 0.000000 
#    z -0.128540 0.000000 4.252180 
# 
# 
# High freq. dielectric constant tensor:
#      x y z
#    x 1.861700 0.000000 -0.005460 
#    y 0.000000 1.852040 0.000000 
#    z -0.005460 0.000000 1.889380 
# 
# From -- ./inp_files/46437.got.cif
#   From: 2010.03.12/outbox.cif.g09.slc.cpg/sg5_24_cif.got.tgz:46437.got - 2010.03.31 09:47:26.
