data_PCOD8050748
_publ_section_title
;
Structure prediction by ZEFSAII (Michael W. Deem and Ramdas Pophale) SiO2 
 PCOD8050748
Probable space group: C 2
;
_chemical_formula_sum "Si O2"
_cell_formula_units_Z 18
_cell_length_a 16.806085
_cell_length_b 8.387917
_cell_length_c 5.401263
_cell_angle_alpha 90.000000
_cell_angle_beta 66.280385
_cell_angle_gamma 90.000000
_cell_volume 697.085713
_symmetry_space_group_name_H-M "C 2"
_symmetry_group_IT_number 5
_symmetry_cell_setting 'monoclinic'
loop_
_space_group_symop_operation_xyz
x,y,z
-x,y,-z
1/2+x,1/2+y,z
1/2-x,1/2+y,-z
loop_
_atom_site_type_symbol
_atom_site_label
_atom_site_fract_x
_atom_site_fract_y
_atom_site_fract_z
Si Si1 0.223717 0.409160 0.355426
Si Si2 0.048454 0.278424 0.674816
Si Si3 0.163277 0.681429 0.068305
Si Si4 0.500000 0.230358 0.000000
Si Si5 0.881648 0.942516 0.487658
O O1 0.135589 0.379008 0.619149
O O2 0.203891 0.538833 0.170292
O O3 0.293499 0.483309 0.452167
O O4 0.260354 0.239779 0.210653
O O5 0.000000 0.362986 0.500000
O O6 0.071932 0.108969 0.522139
O O7 0.000000 0.265364 0.000000
O O8 0.139939 0.845492 0.238667
O O9 0.073882 0.622307 0.043677
O O10 0.449669 0.337893 0.254457
#
# Coordination Sequence:
#
# PCOD8050748 Si02
#       5
#     4   4   4   2   4
#     4  11  27  46  74 109 150 198 253 315 378 453
#     4  12  28  50  76 114 154 199 252 313 386 452
#     4  11  24  46  75 109 149 195 257 308 383 447
#     4  10  22  42  72 110 140 194 240 314 366 456
#     4  11  23  45  78 105 147 194 257 304 382 445
#
# _framework density 25.821787
#
# number of rings (size 3 to 8) (size 9 to 14) (size 15 to 20)
#    0.000    0.889    1.111    4.667    9.333    3.556 
#    4.000    0.000    0.000    0.000    0.000    0.000 
#    0.000    0.000    0.000    0.000    0.000    0.000 
#
# Total GULP energy -111562.985887 kJ/mol
# GULP energy per Si atom -12395.887321 kJ/mol
# Density = 2.576302 g / cm^3
# Si number density = 25.821787 Si / 1000 Ang^3
#
#
#
# Elastic Constant Matrix: (Units=GPa)
#
#
# Indices 1 2 3 4 5 6 
#
# 1 205.5054 36.2800 40.4814 0.0000 -14.0736 0.0000
# 2 36.2800 61.9065 8.1600 0.0000 -4.7541 0.0000
# 3 40.4814 8.1600 107.5796 0.0000 -17.8457 0.0000
# 4 0.0000 0.0000 0.0000 39.3693 0.0000 -5.5765
# 5 -14.0736 -4.7541 -17.8457 0.0000 37.6394 0.0000
# 6 0.0000 0.0000 0.0000 -5.5765 0.0000 -6.6607
#
#
#
# Elastic Compliance Matrix: (Units=1/GPa)
#
#
# Indices 1 2 3 4 5 6 
#
# 1 0.005834 -0.003110 -0.001805 0.000000 0.000933 0.000000
# 2 -0.003110 0.018063 -0.000016 0.000000 0.001111 0.000000
# 3 -0.001805 -0.000016 0.010705 0.000000 0.004399 0.000000
# 4 0.000000 0.000000 0.000000 0.022708 0.000000 -0.019011
# 5 0.000933 0.001111 0.004399 0.000000 0.029143 0.000000
# 6 0.000000 0.000000 0.000000 -0.019011 0.000000 -0.134217
#
#
# Mechanical properties :
#
#
# Convention : Reuss Voigt Hill
#
# Bulk Modulus (GPa) = 40.41555 60.53714 50.47634
# Shear Modulus (GPa) = -168.60151 33.40760 -67.59695
#
# Velocity S-wave (km/s) = -8.08925 3.60081 -5.12202
# Velocity P-wave (km/s) = 8.45945 6.38615 3.92297
#
# Compressibility (1/GPa) = 0.02474295
#
# Stress axis : x y z
#
# Youngs Moduli (GPa) = 171.39550 55.36108 93.41019
#
# Poissons Ratio (x) = 0.17216 0.16859
# Poissons Ratio (y) = 0.53299 0.00146
# Poissons Ratio (z) = 0.30934 0.00086
#
# Static dielectric constant tensor:
#      x y z
#    x 5.178450 0.000000 -0.087470 
#    y 0.000000 4.386150 0.000000 
#    z -0.087470 0.000000 4.546950 
# 
# 
# High freq. dielectric constant tensor:
#      x y z
#    x 2.059930 0.000000 -0.014180 
#    y 0.000000 2.028560 0.000000 
#    z -0.014180 0.000000 2.038680 
# 
# From -- ./inp_files/7986.got.cif
#   From: 2010.03.12/outbox.cif.g09.slc.cpg/sg5_4_cif.got.tgz:7986.got - 2010.03.31 09:47:26.
