data_PCOD8050629
_publ_section_title
;
Structure prediction by ZEFSAII (Michael W. Deem and Ramdas Pophale) SiO2 
 PCOD8050629
Probable space group: C 2
;
_chemical_formula_sum "Si O2"
_cell_formula_units_Z 26
_cell_length_a 25.511611
_cell_length_b 7.816235
_cell_length_c 10.037371
_cell_angle_alpha 90.000000
_cell_angle_beta 38.992550
_cell_angle_gamma 90.000000
_cell_volume 1259.382137
_symmetry_space_group_name_H-M "C 2"
_symmetry_group_IT_number 5
_symmetry_cell_setting 'monoclinic'
loop_
_space_group_symop_operation_xyz
x,y,z
-x,y,-z
1/2+x,1/2+y,z
1/2-x,1/2+y,-z
loop_
_atom_site_type_symbol
_atom_site_label
_atom_site_fract_x
_atom_site_fract_y
_atom_site_fract_z
Si Si1 0.241793 0.457430 0.657002
Si Si2 0.200120 0.735521 0.215012
Si Si3 0.679437 0.311814 0.760224
Si Si4 0.500000 0.679318 0.500000
Si Si5 0.651606 0.493719 0.087658
Si Si6 0.561583 0.023809 0.991077
Si Si7 0.454412 0.006222 0.463234
O O1 0.287954 0.364097 0.685974
O O2 0.287105 0.419048 0.429338
O O3 0.245825 0.663275 0.671578
O O4 0.143502 0.401543 0.843463
O O5 0.135121 0.589041 0.387578
O O6 0.166532 0.833382 0.153380
O O7 0.285521 0.647007 0.003204
O O8 0.664019 0.442105 0.910360
O O9 0.593158 0.215691 0.890814
O O10 0.558303 0.560830 0.294251
O O11 0.444720 0.802174 0.511870
O O12 0.514358 0.035742 0.222069
O O13 0.500000 0.951238 0.000000
O O14 0.500000 0.095258 0.500000
#
# Coordination Sequence:
#
# PCOD8050629 Si02
#       7
#     4   4   4   2   4   4   4
#     4  10  23  42  65 100 130 179 225 275 332 404
#     4  12  24  41  72  96 136 181 228 276 340 402
#     4  10  23  41  68  96 137 175 227 275 331 403
#     4  10  26  44  66 100 142 166 230 282 336 398
#     4  12  25  41  69  99 134 180 228 281 334 404
#     4  10  22  41  68  94 132 177 222 269 346 387
#     4  10  23  43  68  95 136 179 225 278 341 397
#
# _framework density 20.645045
#
# number of rings (size 3 to 8) (size 9 to 14) (size 15 to 20)
#    1.385    0.000    0.000    5.538    7.538    0.000 
#    0.000    0.000    0.000    1.846    0.000    0.000 
#    0.000    0.000    0.000    0.000    0.000    0.000 
#
# Total GULP energy -161150.261656 kJ/mol
# GULP energy per Si atom -12396.173974 kJ/mol
# Density = 2.059806 g / cm^3
# Si number density = 20.645045 Si / 1000 Ang^3
#
#
#
# Elastic Constant Matrix: (Units=GPa)
#
#
# Indices 1 2 3 4 5 6 
#
# 1 59.4343 -2.7511 25.3515 0.0000 6.1036 0.0000
# 2 -2.7511 75.5255 29.6290 0.0000 -2.9862 0.0000
# 3 25.3515 29.6290 159.5511 0.0000 10.2320 0.0000
# 4 0.0000 0.0000 0.0000 44.9656 0.0000 -8.1599
# 5 6.1036 -2.9862 10.2320 0.0000 25.9364 0.0000
# 6 0.0000 0.0000 0.0000 -8.1599 0.0000 41.5850
#
#
#
# Elastic Compliance Matrix: (Units=1/GPa)
#
#
# Indices 1 2 3 4 5 6 
#
# 1 0.018524 0.001768 -0.003083 0.000000 -0.002939 0.000000
# 2 0.001768 0.014645 -0.003162 0.000000 0.002517 0.000000
# 3 -0.003083 -0.003162 0.007512 0.000000 -0.002602 0.000000
# 4 0.000000 0.000000 0.000000 0.023060 0.000000 0.004525
# 5 -0.002939 0.002517 -0.002602 0.000000 0.040564 0.000000
# 6 0.000000 0.000000 0.000000 0.004525 0.000000 0.024935
#
#
# Mechanical properties :
#
#
# Convention : Reuss Voigt Hill
#
# Bulk Modulus (GPa) = 31.51945 44.32998 37.92472
# Shear Modulus (GPa) = 33.60903 38.64950 36.12927
#
# Velocity S-wave (km/s) = 4.03916 4.33147 4.18786
# Velocity P-wave (km/s) = 6.08716 6.82162 6.46483
#
# Compressibility (1/GPa) = 0.03172644
#
# Stress axis : x y z
#
# Youngs Moduli (GPa) = 53.98369 68.28289 133.12886
#
# Poissons Ratio (x) = -0.12073 0.41046
# Poissons Ratio (y) = -0.09545 0.42095
# Poissons Ratio (z) = 0.16644 0.21591
#
# Static dielectric constant tensor:
#      x y z
#    x 3.124560 0.000000 -0.023960 
#    y 0.000000 3.647880 0.000000 
#    z -0.023960 0.000000 3.744060 
# 
# 
# High freq. dielectric constant tensor:
#      x y z
#    x 1.790400 0.000000 0.001880 
#    y 0.000000 1.800420 0.000000 
#    z 0.001880 0.000000 1.826630 
# 
# From -- ./inp_files/30543.got.cif
#   From: 2010.03.12/outbox.cif.g09.slc.cpg/sg5_16_cif.got.tgz:30543.got - 2010.03.31 09:47:26.
