data_PCOD8050649
_publ_section_title
;
Structure prediction by ZEFSAII (Michael W. Deem and Ramdas Pophale) SiO2 
 PCOD8050649
Probable space group: C 2
;
_chemical_formula_sum "Si O2"
_cell_formula_units_Z 20
_cell_length_a 15.679572
_cell_length_b 10.625836
_cell_length_c 8.063362
_cell_angle_alpha 90.000000
_cell_angle_beta 142.665423
_cell_angle_gamma 90.000000
_cell_volume 814.744818
_symmetry_space_group_name_H-M "C 2"
_symmetry_group_IT_number 5
_symmetry_cell_setting 'monoclinic'
loop_
_space_group_symop_operation_xyz
x,y,z
-x,y,-z
1/2+x,1/2+y,z
1/2-x,1/2+y,-z
loop_
_atom_site_type_symbol
_atom_site_label
_atom_site_fract_x
_atom_site_fract_y
_atom_site_fract_z
Si Si1 0.776560 0.834760 0.415012
Si Si2 0.954624 0.445197 0.170867
Si Si3 0.000000 0.863699 0.500000
Si Si4 0.799798 0.056618 0.036950
Si Si5 0.500000 0.752398 0.500000
Si Si6 0.237537 0.566282 0.559506
O O1 0.893627 0.789529 0.458767
O O2 0.746008 0.711055 0.482402
O O3 0.826595 0.959526 0.596298
O O4 0.631959 0.875721 0.105530
O O5 0.040864 0.340990 0.408851
O O6 0.073725 0.534728 0.281245
O O7 0.854847 0.529559 0.132881
O O8 0.903397 0.941708 0.226854
O O9 0.861676 0.174774 0.234589
O O10 0.793948 0.077620 0.833018
#
# Coordination Sequence:
#
# PCOD8050649 Si02
#       6
#     4   4   2   4   2   4
#     4  11  27  48  72 106 151 189 245 296 367 433
#     4  11  23  45  72 107 141 193 241 301 359 433
#     4   9  24  47  68 104 136 194 244 298 354 438
#     4  10  22  41  73 105 141 186 246 294 363 431
#     4  11  20  39  76 108 140 194 242 304 350 432
#     4  12  25  46  72 108 147 191 236 305 365 427
#
# _framework density 24.547561999999999
#
# number of rings (size 3 to 8) (size 9 to 14) (size 15 to 20)
#    0.000    1.200    4.000    0.600    2.800    5.600 
#   10.800    0.000    0.000    0.000    0.000    0.000 
#    0.000    0.000    0.000    0.000    0.000    0.000 
#
# Total GULP energy -123917.003184 kJ/mol
# GULP energy per Si atom -12391.700318 kJ/mol
# Density = 2.449169 g / cm^3
# Si number density = 24.547562 Si / 1000 Ang^3
#
#
#
# Elastic Constant Matrix: (Units=GPa)
#
#
# Indices 1 2 3 4 5 6 
#
# 1 83.8547 45.3404 31.5566 0.0000 4.4957 0.0000
# 2 45.3404 166.3795 28.4158 0.0000 -22.7362 0.0000
# 3 31.5566 28.4158 104.9508 0.0000 -6.7547 0.0000
# 4 0.0000 0.0000 0.0000 39.1747 0.0000 -7.1224
# 5 4.4957 -22.7362 -6.7547 0.0000 31.1305 0.0000
# 6 0.0000 0.0000 0.0000 -7.1224 0.0000 31.9476
#
#
#
# Elastic Compliance Matrix: (Units=1/GPa)
#
#
# Indices 1 2 3 4 5 6 
#
# 1 0.016339 -0.004665 -0.004078 0.000000 -0.006652 0.000000
# 2 -0.004665 0.008255 -0.000407 0.000000 0.006615 0.000000
# 3 -0.004078 -0.000407 0.011037 0.000000 0.002687 0.000000
# 4 0.000000 0.000000 0.000000 0.026605 0.000000 0.005931
# 5 -0.006652 0.006615 0.002687 0.000000 0.038497 0.000000
# 6 0.000000 0.000000 0.000000 0.005931 0.000000 0.032624
#
#
# Mechanical properties :
#
#
# Convention : Reuss Voigt Hill
#
# Bulk Modulus (GPa) = 57.69575 62.86785 60.28180
# Shear Modulus (GPa) = 31.75936 37.10871 34.43403
#
# Velocity S-wave (km/s) = 3.60083 3.89229 3.74939
# Velocity P-wave (km/s) = 6.39083 6.77245 6.58440
#
# Compressibility (1/GPa) = 0.01733230
#
# Stress axis : x y z
#
# Youngs Moduli (GPa) = 61.20325 121.13889 90.60087
#
# Poissons Ratio (x) = 0.56512 0.36945
# Poissons Ratio (y) = 0.28552 0.03684
# Poissons Ratio (z) = 0.24958 0.04926
#
# Static dielectric constant tensor:
#      x y z
#    x 4.673950 0.000000 -0.104690 
#    y 0.000000 4.802290 0.000000 
#    z -0.104690 0.000000 4.464670 
# 
# 
# High freq. dielectric constant tensor:
#      x y z
#    x 1.959020 0.000000 -0.003590 
#    y 0.000000 1.982900 0.000000 
#    z -0.003590 0.000000 1.984350 
# 
# From -- ./inp_files/27435.got.cif
#   From: 2010.03.12/outbox.cif.g09.slc.cpg/sg5_14_cif.got.tgz:27435.got - 2010.03.31 09:47:26.
