data_PCOD8050902
_publ_section_title
;
Structure prediction by ZEFSAII (Michael W. Deem and Ramdas Pophale) SiO2 
 PCOD8050902
Probable space group: C 2
;
_chemical_formula_sum "Si O2"
_cell_formula_units_Z 22
_cell_length_a 25.570392
_cell_length_b 8.709527
_cell_length_c 20.510700
_cell_angle_alpha 90.000000
_cell_angle_beta 167.844209
_cell_angle_gamma 90.000000
_cell_volume 961.856101
_symmetry_space_group_name_H-M "C 2"
_symmetry_group_IT_number 5
_symmetry_cell_setting 'monoclinic'
loop_
_space_group_symop_operation_xyz
x,y,z
-x,y,-z
1/2+x,1/2+y,z
1/2-x,1/2+y,-z
loop_
_atom_site_type_symbol
_atom_site_label
_atom_site_fract_x
_atom_site_fract_y
_atom_site_fract_z
Si Si1 0.235787 0.777600 0.205294
Si Si2 0.173523 0.186157 0.341056
Si Si3 0.039052 0.937386 0.839398
Si Si4 0.568053 0.009590 0.454500
Si Si5 0.500000 0.036019 0.000000
Si Si6 0.188261 0.803550 0.677509
O O1 0.500000 0.715218 0.500000
O O2 0.044585 0.639251 0.989689
O O3 0.277834 0.874215 0.322928
O O4 0.110588 0.882677 0.998872
O O5 0.364357 0.320348 0.589390
O O6 0.303096 0.053942 0.455733
O O7 0.092420 0.102466 0.309404
O O8 0.946361 0.260998 0.026142
O O9 0.285946 0.957110 0.096645
O O10 0.554357 0.155047 0.485855
O O11 0.746088 0.925426 0.300545
O O12 0.000000 0.879055 0.500000
#
# Coordination Sequence:
#
# PCOD8050902 Si02
#       6
#     4   4   4   4   2   4
#     4  10  22  45  70 100 137 189 235 284 347 430
#     4  12  25  44  71 104 139 184 234 295 359 411
#     4  11  26  44  71 102 145 182 228 299 361 410
#     4  11  22  49  75  95 133 200 242 272 348 450
#     4  12  24  36  68 106 130 166 242 306 324 392
#     4  12  23  44  73  98 133 190 249 280 338 428
#
# _framework density 22.872444999999999
#
# number of rings (size 3 to 8) (size 9 to 14) (size 15 to 20)
#    0.000    0.727    5.455    2.182    2.545    1.455 
#    6.545    0.000    0.000    0.000    0.000    0.000 
#    0.000    0.000    0.000    0.000    0.000    0.000 
#
# Total GULP energy -136369.927870 kJ/mol
# GULP energy per Si atom -12397.266170 kJ/mol
# Density = 2.282039 g / cm^3
# Si number density = 22.872445 Si / 1000 Ang^3
#
#
#
# Elastic Constant Matrix: (Units=GPa)
#
#
# Indices 1 2 3 4 5 6 
#
# 1 62.4640 23.6909 27.1673 0.0474 24.9087 0.0055
# 2 23.6909 101.1548 43.7521 0.0814 17.9831 0.0258
# 3 27.1673 43.7521 108.7974 0.0885 13.9986 0.0242
# 4 0.0474 0.0814 0.0885 34.7559 0.0304 11.0773
# 5 24.9087 17.9831 13.9986 0.0304 38.0871 0.0143
# 6 0.0055 0.0258 0.0242 11.0773 0.0143 43.1052
#
#
#
# Elastic Compliance Matrix: (Units=1/GPa)
#
#
# Indices 1 2 3 4 5 6 
#
# 1 0.023438 -0.001617 -0.003493 -0.000010 -0.013281 0.000007
# 2 -0.001617 0.012713 -0.004275 -0.000014 -0.003374 0.000000
# 3 -0.003493 -0.004275 0.011786 -0.000015 -0.000029 0.000000
# 4 -0.000010 -0.000014 -0.000015 0.031339 -0.000004 -0.008054
# 5 -0.013281 -0.003374 -0.000029 -0.000004 0.036545 -0.000007
# 6 0.000007 0.000000 0.000000 -0.008054 -0.000007 0.025269
#
#
# Mechanical properties :
#
#
# Convention : Reuss Voigt Hill
#
# Bulk Modulus (GPa) = 34.28516 51.29298 42.78907
# Shear Modulus (GPa) = 29.48406 35.04335 32.26371
#
# Velocity S-wave (km/s) = 3.59425 3.91848 3.75986
# Velocity P-wave (km/s) = 5.67865 6.55339 6.13164
#
# Compressibility (1/GPa) = 0.02916714
#
# Stress axis : x y z
#
# Youngs Moduli (GPa) = 42.66593 78.65773 84.84305
#
# Poissons Ratio (x) = 0.12721 0.29639
# Poissons Ratio (y) = 0.06900 0.36267
# Poissons Ratio (z) = 0.14905 0.33623
#
# Static dielectric constant tensor:
#      x y z
#    x 4.020960 -0.000110 0.397780 
#    y -0.000110 4.307680 -0.000120 
#    z 0.397780 -0.000120 4.125540 
# 
# 
# High freq. dielectric constant tensor:
#      x y z
#    x 1.894010 0.000000 0.036340 
#    y 0.000000 1.911740 0.000000 
#    z 0.036340 0.000000 1.896620 
# 
# From -- ./inp_files/70021.got.cif
#   From: 2010.03.12/outbox.cif.g09.slc.cpg/sg5_36_cif.got.tgz:70021.got - 2010.03.31 09:47:26.
