data_PCOD8050823
_publ_section_title
;
Structure prediction by ZEFSAII (Michael W. Deem and Ramdas Pophale) SiO2 
 PCOD8050823
Probable space group: C 2
;
_chemical_formula_sum "Si O2"
_cell_formula_units_Z 24
_cell_length_a 11.367147
_cell_length_b 10.123387
_cell_length_c 19.772358
_cell_angle_alpha 90.000000
_cell_angle_beta 30.990904
_cell_angle_gamma 90.000000
_cell_volume 1171.548710
_symmetry_space_group_name_H-M "C 2"
_symmetry_group_IT_number 5
_symmetry_cell_setting 'monoclinic'
loop_
_space_group_symop_operation_xyz
x,y,z
-x,y,-z
1/2+x,1/2+y,z
1/2-x,1/2+y,-z
loop_
_atom_site_type_symbol
_atom_site_label
_atom_site_fract_x
_atom_site_fract_y
_atom_site_fract_z
Si Si1 0.632841 0.587610 0.660877
Si Si2 0.757507 0.579053 0.860560
Si Si3 0.681692 0.814358 0.227712
Si Si4 0.233091 0.472262 0.927405
Si Si5 0.128880 0.711856 0.067055
Si Si6 0.051397 0.548155 0.371563
O O1 0.518859 0.727582 0.703210
O O2 0.444699 0.473281 0.769902
O O3 0.802746 0.606025 0.639493
O O4 0.781100 0.554135 0.520895
O O5 0.750756 0.418997 0.864646
O O6 0.919078 0.634199 0.839708
O O7 0.870473 0.629106 0.734289
O O8 0.500000 0.634657 0.000000
O O9 0.894843 0.724676 0.141921
O O10 0.604602 0.892892 0.333159
O O11 0.253245 0.352534 0.972082
O O12 0.271693 0.611836 0.948399
O O13 0.000000 0.459856 0.000000
#
# Coordination Sequence:
#
# PCOD8050823 Si02
#       6
#     4   4   4   4   4   4
#     4  11  21  43  67  94 131 179 220 267 335 394
#     4  10  22  44  65  97 133 173 219 275 334 384
#     4  10  23  42  67  95 130 180 217 278 332 390
#     4  12  26  40  69 103 135 175 225 275 331 402
#     4  12  24  42  67 103 133 175 222 279 333 393
#     4   9  23  43  64  96 132 180 212 277 333 392
#
# _framework density 20.485703999999998
#
# number of rings (size 3 to 8) (size 9 to 14) (size 15 to 20)
#    1.000    0.333    3.333    2.500    4.667    1.333 
#    0.000    5.000    0.000    0.000    0.000    0.000 
#    0.000    0.000    0.000    0.000    0.000    0.000 
#
# Total GULP energy -148676.122549 kJ/mol
# GULP energy per Si atom -12389.676879 kJ/mol
# Density = 2.043908 g / cm^3
# Si number density = 20.485704 Si / 1000 Ang^3
#
#
#
# Elastic Constant Matrix: (Units=GPa)
#
#
# Indices 1 2 3 4 5 6 
#
# 1 92.1312 46.9284 41.4417 -0.0009 -4.4451 0.0002
# 2 46.9284 111.3394 36.8831 -0.0021 -5.4466 0.0002
# 3 41.4417 36.8831 138.7121 -0.0045 7.5926 0.0009
# 4 -0.0009 -0.0021 -0.0045 6.4138 -0.0008 -2.7761
# 5 -4.4451 -5.4466 7.5926 -0.0008 29.5885 -0.0003
# 6 0.0002 0.0002 0.0009 -2.7761 -0.0003 45.4513
#
#
#
# Elastic Compliance Matrix: (Units=1/GPa)
#
#
# Indices 1 2 3 4 5 6 
#
# 1 0.015044 -0.005163 -0.003239 -0.000001 0.002141 0.000000
# 2 -0.005163 0.011810 -0.001698 0.000002 0.001834 0.000000
# 3 -0.003239 -0.001698 0.008796 0.000005 -0.003056 0.000000
# 4 -0.000001 0.000002 0.000005 0.160147 0.000003 0.009782
# 5 0.002141 0.001834 -0.003056 0.000003 0.035240 0.000000
# 6 0.000000 0.000000 0.000000 0.009782 0.000000 0.022599
#
#
# Mechanical properties :
#
#
# Convention : Reuss Voigt Hill
#
# Bulk Modulus (GPa) = 64.72744 65.85435 65.29090
# Shear Modulus (GPa) = 17.92199 30.75270 24.33734
#
# Velocity S-wave (km/s) = 2.96100 3.87871 3.45050
# Velocity P-wave (km/s) = 6.58445 7.23018 6.91486
#
# Compressibility (1/GPa) = 0.01544940
#
# Stress axis : x y z
#
# Youngs Moduli (GPa) = 66.47040 84.67360 113.69294
#
# Poissons Ratio (x) = 0.43720 0.36824
# Poissons Ratio (y) = 0.34321 0.19305
# Poissons Ratio (z) = 0.21529 0.14378
#
# Static dielectric constant tensor:
#      x y z
#    x 3.722250 0.000000 0.111730 
#    y 0.000000 3.628970 0.000000 
#    z 0.111730 0.000000 3.901670 
# 
# 
# High freq. dielectric constant tensor:
#      x y z
#    x 1.804330 0.000000 0.005660 
#    y 0.000000 1.790750 0.000000 
#    z 0.005660 0.000000 1.795720 
# 
# From -- ./inp_files/65186.got.cif
#   From: 2010.03.12/outbox.cif.g09.slc.cpg/sg5_33_cif.got.tgz:65186.got - 2010.03.31 09:47:26.
