data_PCOD8050062
_publ_section_title
;
Structure prediction by ZEFSAII (Michael W. Deem and Ramdas Pophale) SiO2 
 PCOD8050062
Probable space group: C 2
;
_chemical_formula_sum "Si O2"
_cell_formula_units_Z 28
_cell_length_a 9.530161
_cell_length_b 32.069329
_cell_length_c 5.079869
_cell_angle_alpha 90.000000
_cell_angle_beta 119.848824
_cell_angle_gamma 90.000000
_cell_volume 1346.582059
_symmetry_space_group_name_H-M "C 2"
_symmetry_group_IT_number 5
_symmetry_cell_setting 'monoclinic'
loop_
_space_group_symop_operation_xyz
x,y,z
-x,y,-z
1/2+x,1/2+y,z
1/2-x,1/2+y,-z
loop_
_atom_site_type_symbol
_atom_site_label
_atom_site_fract_x
_atom_site_fract_y
_atom_site_fract_z
Si Si1 0.318930 0.110750 0.236742
Si Si2 0.815193 0.473876 0.769709
Si Si3 0.184673 0.153079 0.596885
Si Si4 0.892964 0.822161 0.641750
Si Si5 0.393054 0.884594 0.657529
Si Si6 0.106026 0.728295 0.355761
Si Si7 0.686371 0.014880 0.730982
O O1 0.500000 0.120516 0.500000
O O2 0.198027 0.122643 0.359380
O O3 0.290676 0.062165 0.154110
O O4 0.288517 0.136236 0.940324
O O5 0.800181 0.425898 0.669991
O O6 0.730339 0.503336 0.469963
O O7 0.731932 0.484681 0.971997
O O8 0.000000 0.487161 0.000000
O O9 0.242525 0.198475 0.554995
O O10 0.000000 0.157049 0.500000
O O11 0.735384 0.849796 0.539507
O O12 0.832649 0.775059 0.523334
O O13 0.000000 0.839197 0.500000
O O14 0.000000 0.824403 0.000000
O O15 0.500000 0.895073 0.500000
O O16 0.500000 0.867551 0.000000
O O17 0.000000 0.710748 0.500000
O O18 0.000000 0.729475 0.000000
O O19 0.500000 0.003481 0.500000
#
# Coordination Sequence:
#
# PCOD8050062 Si02
#       7
#     4   4   4   4   4   4   4
#     4  11  22  38  61  86 112 152 200 239 279 339
#     4   9  16  29  50  81 114 142 182 237 282 316
#     4  12  24  38  58  87 120 151 183 237 298 346
#     4  10  22  40  61  85 116 154 190 234 286 341
#     4  11  21  35  59  90 120 152 189 237 289 340
#     4  10  21  40  63  83 110 151 197 235 276 338
#     4   9  17  30  52  80 107 142 192 239 271 316
#
# _framework density 20.793385000000001
#
# number of rings (size 3 to 8) (size 9 to 14) (size 15 to 20)
#    0.000    1.714    0.000    6.857    0.000    2.857 
#    0.000    1.429    0.000    8.571    0.000    0.000 
#    0.000    0.000    0.000    0.000    0.000    0.000 
#
# Total GULP energy -173563.392898 kJ/mol
# GULP energy per Si atom -12397.385207 kJ/mol
# Density = 2.074606 g / cm^3
# Si number density = 20.793385 Si / 1000 Ang^3
#
#
#
# Elastic Constant Matrix: (Units=GPa)
#
#
# Indices 1 2 3 4 5 6 
#
# 1 92.9773 52.2329 37.3299 0.0000 -18.4304 0.0000
# 2 52.2329 126.5990 52.6106 0.0000 -3.8996 0.0000
# 3 37.3299 52.6106 100.3242 0.0000 -29.9859 0.0000
# 4 0.0000 0.0000 0.0000 40.0988 0.0000 -10.0390
# 5 -18.4304 -3.8996 -29.9859 0.0000 38.8704 0.0000
# 6 0.0000 0.0000 0.0000 -10.0390 0.0000 24.1476
#
#
#
# Elastic Compliance Matrix: (Units=1/GPa)
#
#
# Indices 1 2 3 4 5 6 
#
# 1 0.015641 -0.005891 -0.000897 0.000000 0.006133 0.000000
# 2 -0.005891 0.012820 -0.006474 0.000000 -0.006501 0.000000
# 3 -0.000897 -0.006474 0.017383 0.000000 0.012335 0.000000
# 4 0.000000 0.000000 0.000000 0.027836 0.000000 0.011572
# 5 0.006133 -0.006501 0.012335 0.000000 0.037498 0.000000
# 6 0.000000 0.000000 0.000000 0.011572 0.000000 0.046223
#
#
# Mechanical properties :
#
#
# Convention : Reuss Voigt Hill
#
# Bulk Modulus (GPa) = 51.76269 67.13858 59.45064
# Shear Modulus (GPa) = 26.26529 32.47182 29.36856
#
# Velocity S-wave (km/s) = 3.55795 3.95605 3.76227
# Velocity P-wave (km/s) = 6.46734 7.29559 6.89392
#
# Compressibility (1/GPa) = 0.01931893
#
# Stress axis : x y z
#
# Youngs Moduli (GPa) = 63.93462 78.00484 57.52638
#
# Poissons Ratio (x) = 0.45956 0.05162
# Poissons Ratio (y) = 0.37667 0.37241
# Poissons Ratio (z) = 0.05737 0.50499
#
# Static dielectric constant tensor:
#      x y z
#    x 3.589950 0.000000 -0.515440 
#    y 0.000000 3.845570 0.000000 
#    z -0.515440 0.000000 3.947480 
# 
# 
# High freq. dielectric constant tensor:
#      x y z
#    x 1.788430 0.000000 -0.039110 
#    y 0.000000 1.820070 0.000000 
#    z -0.039110 0.000000 1.821090 
# 
# From -- ./inp_files/3882.got.cif
#   From: 2010.03.12/outbox.cif.g09.slc.cpg/sg5_2_cif.got.tgz:3882.got - 2010.03.31 09:47:26.
