data_PCOD8050809
_publ_section_title
;
Structure prediction by ZEFSAII (Michael W. Deem and Ramdas Pophale) SiO2 
 PCOD8050809
Probable space group: C 2
;
_chemical_formula_sum "Si O2"
_cell_formula_units_Z 28
_cell_length_a 9.210297
_cell_length_b 9.007902
_cell_length_c 28.775669
_cell_angle_alpha 90.000000
_cell_angle_beta 31.555918
_cell_angle_gamma 90.000000
_cell_volume 1249.392009
_symmetry_space_group_name_H-M "C 2"
_symmetry_group_IT_number 5
_symmetry_cell_setting 'monoclinic'
loop_
_space_group_symop_operation_xyz
x,y,z
-x,y,-z
1/2+x,1/2+y,z
1/2-x,1/2+y,-z
loop_
_atom_site_type_symbol
_atom_site_label
_atom_site_fract_x
_atom_site_fract_y
_atom_site_fract_z
Si Si1 0.760169 0.703660 0.319466
Si Si2 0.910719 0.141901 0.331270
Si Si3 0.693117 0.508280 0.072766
Si Si4 0.635870 0.450426 0.412516
Si Si5 0.228611 0.846136 0.975639
Si Si6 0.559217 0.911406 0.532086
Si Si7 0.659995 0.452749 0.184509
O O1 0.647892 0.615858 0.305272
O O2 0.819401 0.592202 0.346397
O O3 0.520583 0.818199 0.400785
O O4 0.041298 0.792280 0.231895
O O5 0.841654 0.314929 0.348579
O O6 0.623044 0.060834 0.421465
O O7 0.036763 0.085715 0.248655
O O8 0.687786 0.674132 0.052661
O O9 0.549581 0.492629 0.162488
O O10 0.580604 0.388568 0.065462
O O11 0.000000 0.455417 0.000000
O O12 0.500000 0.466988 0.500000
O O13 0.382134 0.448701 0.445381
O O14 0.507940 0.946466 0.897770
O O15 0.000000 0.892914 0.000000
O O16 0.500000 0.822362 0.500000
#
# Coordination Sequence:
#
# PCOD8050809 Si02
#       7
#     4   4   4   4   4   4   4
#     4  11  24  40  62  97 131 180 222 279 343 380
#     4  11  24  42  61  95 136 176 219 283 342 376
#     4   9  21  43  68  97 128 168 214 262 323 399
#     4  12  23  41  70  92 126 184 238 280 327 393
#     4  10  22  43  74 102 125 173 219 264 328 399
#     4  11  21  42  66  87 128 174 230 287 330 389
#     4  10  25  44  65  97 145 173 214 274 332 405
#
# _framework density 22.410900999999999
#
# number of rings (size 3 to 8) (size 9 to 14) (size 15 to 20)
#    0.000    1.429    2.857    1.714    0.000    8.571 
#    0.000    0.000    0.000    0.000    0.000    0.000 
#    0.000    0.000    0.000    0.000    0.000    0.000 
#
# Total GULP energy -173515.602840 kJ/mol
# GULP energy per Si atom -12393.971631 kJ/mol
# Density = 2.235989 g / cm^3
# Si number density = 22.410901 Si / 1000 Ang^3
#
#
#
# Elastic Constant Matrix: (Units=GPa)
#
#
# Indices 1 2 3 4 5 6 
#
# 1 123.0031 44.0011 54.4578 -0.0065 25.7344 -0.0086
# 2 44.0011 121.1844 50.6431 0.0066 28.6210 -0.0066
# 3 54.4578 50.6431 110.7548 -0.0245 30.6022 -0.0261
# 4 -0.0065 0.0066 -0.0245 37.8260 -0.0062 7.4709
# 5 25.7344 28.6210 30.6022 -0.0062 44.2158 0.0002
# 6 -0.0086 -0.0066 -0.0261 7.4709 0.0002 34.6870
#
#
#
# Elastic Compliance Matrix: (Units=1/GPa)
#
#
# Indices 1 2 3 4 5 6 
#
# 1 0.011028 -0.001765 -0.003904 -0.000001 -0.002574 0.000000
# 2 -0.001765 0.011147 -0.003115 -0.000005 -0.004032 0.000000
# 3 -0.003904 -0.003115 0.013834 0.000006 -0.005285 0.000007
# 4 -0.000001 -0.000005 0.000006 0.027611 0.000003 -0.005947
# 5 -0.002574 -0.004032 -0.005285 0.000003 0.030383 -0.000006
# 6 0.000000 0.000000 0.000007 -0.005947 -0.000006 0.030110
#
#
# Mechanical properties :
#
#
# Convention : Reuss Voigt Hill
#
# Bulk Modulus (GPa) = 54.22929 72.57179 63.40054
# Shear Modulus (GPa) = 33.82309 37.06847 35.44578
#
# Velocity S-wave (km/s) = 3.88909 4.07140 3.98129
# Velocity P-wave (km/s) = 6.66460 7.38609 7.03460
#
# Compressibility (1/GPa) = 0.01844022
#
# Stress axis : x y z
#
# Youngs Moduli (GPa) = 90.67567 89.71229 72.28802
#
# Poissons Ratio (x) = 0.15831 0.28224
# Poissons Ratio (y) = 0.16001 0.22518
# Poissons Ratio (z) = 0.35404 0.27946
#
# Static dielectric constant tensor:
#      x y z
#    x 4.208510 -0.000010 0.349340 
#    y -0.000010 3.873400 -0.000070 
#    z 0.349340 -0.000070 4.161640 
# 
# 
# High freq. dielectric constant tensor:
#      x y z
#    x 1.888460 0.000000 0.016580 
#    y 0.000000 1.876150 0.000000 
#    z 0.016580 0.000000 1.879700 
# 
# From -- ./inp_files/59360.got.cif
#   From: 2010.03.12/outbox.cif.g09.slc.cpg/sg5_30_cif.got.tgz:59360.got - 2010.03.31 09:47:26.
