data_PCOD8050541
_publ_section_title
;
Structure prediction by ZEFSAII (Michael W. Deem and Ramdas Pophale) SiO2 
 PCOD8050541
Probable space group: C 2
;
_chemical_formula_sum "Si O2"
_cell_formula_units_Z 20
_cell_length_a 24.465182
_cell_length_b 4.800339
_cell_length_c 11.498503
_cell_angle_alpha 90.000000
_cell_angle_beta 31.919043
_cell_angle_gamma 90.000000
_cell_volume 713.982865
_symmetry_space_group_name_H-M "C 2"
_symmetry_group_IT_number 5
_symmetry_cell_setting 'monoclinic'
loop_
_space_group_symop_operation_xyz
x,y,z
-x,y,-z
1/2+x,1/2+y,z
1/2-x,1/2+y,-z
loop_
_atom_site_type_symbol
_atom_site_label
_atom_site_fract_x
_atom_site_fract_y
_atom_site_fract_z
Si Si1 0.500000 0.206151 0.500000
Si Si2 0.962065 0.070600 0.365132
Si Si3 0.346342 0.368529 0.095552
Si Si4 0.364170 0.063369 0.443679
Si Si5 0.000000 0.600635 0.000000
Si Si6 0.197882 0.514441 0.037952
O O1 0.436924 0.418013 0.531167
O O2 0.576407 0.007160 0.289641
O O3 0.895654 0.887679 0.391428
O O4 0.917873 0.384536 0.450881
O O5 0.085854 0.072420 0.111512
O O6 0.259037 0.533705 0.325469
O O7 0.427442 0.268570 0.043584
O O8 0.292884 0.127252 0.112070
O O9 0.417187 0.930690 0.229886
O O10 0.244806 0.208341 0.968842
#
# Coordination Sequence:
#
# PCOD8050541 Si02
#       6
#     2   4   4   4   2   4
#     4  10  22  40  66  96 134 168 210 268 318 382
#     4  10  24  41  65  98 129 169 216 261 322 386
#     4  10  24  44  68  96 132 170 215 268 320 382
#     4  11  24  44  65  92 130 170 215 268 320 378
#     4  10  26  44  66  98 128 172 222 264 322 382
#     4  11  24  42  68  99 130 170 214 261 324 386
#
# _framework density 28.011875
#
# number of rings (size 3 to 8) (size 9 to 14) (size 15 to 20)
#    0.000    1.600    0.000    2.400    0.000   22.400 
#    0.000    0.000    0.000    0.000    0.000    0.000 
#    0.000    0.000    0.000    0.000    0.000    0.000 
#
# Total GULP energy -123971.467831 kJ/mol
# GULP energy per Si atom -12397.146783 kJ/mol
# Density = 2.794812 g / cm^3
# Si number density = 28.011875 Si / 1000 Ang^3
#
#
#
# Elastic Constant Matrix: (Units=GPa)
#
#
# Indices 1 2 3 4 5 6 
#
# 1 100.8852 -13.0804 12.8765 -0.0001 -15.0606 0.0018
# 2 -13.0804 63.9136 6.7109 -0.0055 -14.3786 0.0006
# 3 12.8765 6.7109 180.8580 -0.0038 -1.5373 -0.0019
# 4 -0.0001 -0.0055 -0.0038 31.8571 -0.0013 -1.2171
# 5 -15.0606 -14.3786 -1.5373 -0.0013 35.1473 -0.0016
# 6 0.0018 0.0006 -0.0019 -1.2171 -0.0016 17.6903
#
#
#
# Elastic Compliance Matrix: (Units=1/GPa)
#
#
# Indices 1 2 3 4 5 6 
#
# 1 0.011504 0.003910 -0.000909 0.000001 0.006489 -0.000001
# 2 0.003910 0.018622 -0.000891 0.000004 0.009254 0.000000
# 3 -0.000909 -0.000891 0.005623 0.000001 -0.000508 0.000001
# 4 0.000001 0.000004 0.000001 0.031473 0.000003 0.002165
# 5 0.006489 0.009254 -0.000508 0.000003 0.034996 0.000002
# 6 -0.000001 0.000000 0.000001 0.002165 0.000002 0.056677
#
#
# Mechanical properties :
#
#
# Convention : Reuss Voigt Hill
#
# Bulk Modulus (GPa) = 25.01983 39.85232 32.43607
# Shear Modulus (GPa) = 29.76244 39.54892 34.65568
#
# Velocity S-wave (km/s) = 3.26313 3.76155 3.52117
# Velocity P-wave (km/s) = 4.81130 5.75530 5.30434
#
# Compressibility (1/GPa) = 0.03996830
#
# Stress axis : x y z
#
# Youngs Moduli (GPa) = 86.92699 53.70070 177.85220
#
# Poissons Ratio (x) = -0.20995 0.16166
# Poissons Ratio (y) = -0.33985 0.15841
# Poissons Ratio (z) = 0.07901 0.04783
#
# Static dielectric constant tensor:
#      x y z
#    x 5.065540 -0.000010 0.198400 
#    y -0.000010 4.565740 0.000000 
#    z 0.198400 0.000000 5.566050 
# 
# 
# High freq. dielectric constant tensor:
#      x y z
#    x 2.135090 0.000000 -0.006740 
#    y 0.000000 2.103750 0.000000 
#    z -0.006740 0.000000 2.153270 
# 
# From -- ./inp_files/40984.got.cif
#   From: 2010.03.12/outbox.cif.g09.slc.cpg/sg5_21_cif.got.tgz:40984.got - 2010.03.31 09:47:26.
