data_PCOD8050009
_publ_section_title
;
Structure prediction by ZEFSAII (Michael W. Deem and Ramdas Pophale) SiO2 
 PCOD8050009
Probable space group: C 2
;
_chemical_formula_sum "Si O2"
_cell_formula_units_Z 30
_cell_length_a 22.067782
_cell_length_b 8.709218
_cell_length_c 8.005903
_cell_angle_alpha 90.000000
_cell_angle_beta 63.720554
_cell_angle_gamma 90.000000
_cell_volume 1379.649778
_symmetry_space_group_name_H-M "C 2"
_symmetry_group_IT_number 5
_symmetry_cell_setting 'monoclinic'
loop_
_space_group_symop_operation_xyz
x,y,z
-x,y,-z
1/2+x,1/2+y,z
1/2-x,1/2+y,-z
loop_
_atom_site_type_symbol
_atom_site_label
_atom_site_fract_x
_atom_site_fract_y
_atom_site_fract_z
Si Si1 0.607885 0.829070 0.080924
Si Si2 0.377696 0.141313 0.090855
Si Si3 0.420924 0.005945 0.577863
Si Si4 0.034855 0.043495 0.276178
Si Si5 0.500000 0.359868 0.000000
Si Si6 0.765260 0.242843 0.273635
Si Si7 0.640458 0.298719 0.216422
Si Si8 0.688697 0.992672 0.542455
O O1 0.546329 0.711215 0.182380
O O2 0.624014 0.902818 0.241493
O O3 0.670617 0.735377 0.926807
O O4 0.588135 0.974145 0.988313
O O5 0.320123 0.117001 0.299048
O O6 0.434337 0.255709 0.085526
O O7 0.338960 0.212955 0.979718
O O8 0.500000 0.963195 0.500000
O O9 0.413065 0.187795 0.623219
O O10 0.386733 0.966088 0.441939
O O11 0.000000 0.055181 0.500000
O O12 0.106339 0.961388 0.220981
O O13 0.993638 0.955075 0.181004
O O14 0.705848 0.331254 0.248496
O O15 0.741078 0.069585 0.347006
O O16 0.782020 0.333741 0.423618
#
# Coordination Sequence:
#
# PCOD8050009 Si02
#       8
#     4   4   4   4   2   4   4   4
#     4  10  23  42  59  95 132 175 208 270 346 389
#     4   9  21  40  64  94 122 177 220 270 326 394
#     4  10  21  39  65  93 126 171 227 265 325 413
#     4  11  24  42  64 101 136 173 216 282 352 400
#     4  10  24  42  68  92 136 170 230 278 322 418
#     4  10  23  43  62  93 129 170 224 269 326 401
#     4   9  21  39  66  90 125 174 218 270 328 394
#     4  10  23  39  67  99 124 173 222 278 328 389
#
# _framework density 21.744648999999999
#
# number of rings (size 3 to 8) (size 9 to 14) (size 15 to 20)
#    0.000    2.133    0.000    0.800    9.333    9.067 
#    7.200    0.000    0.000    0.000    0.000    0.000 
#    0.000    0.000    0.000    0.000    0.000    0.000 
#
# Total GULP energy -185902.322779 kJ/mol
# GULP energy per Si atom -12393.488185 kJ/mol
# Density = 2.169516 g / cm^3
# Si number density = 21.744649 Si / 1000 Ang^3
#
#
#
# Elastic Constant Matrix: (Units=GPa)
#
#
# Indices 1 2 3 4 5 6 
#
# 1 120.2500 32.4577 37.6424 0.0000 16.7247 0.0000
# 2 32.4577 92.1602 36.5879 0.0000 -0.6754 0.0000
# 3 37.6424 36.5879 120.1570 0.0000 1.5938 0.0000
# 4 0.0000 0.0000 0.0000 32.8986 0.0000 0.0206
# 5 16.7247 -0.6754 1.5938 0.0000 28.3999 0.0000
# 6 0.0000 0.0000 0.0000 0.0206 0.0000 18.6095
#
#
#
# Elastic Compliance Matrix: (Units=1/GPa)
#
#
# Indices 1 2 3 4 5 6 
#
# 1 0.010708 -0.002864 -0.002400 0.000000 -0.006239 0.000000
# 2 -0.002864 0.013116 -0.003125 0.000000 0.002174 0.000000
# 3 -0.002400 -0.003125 0.010016 0.000000 0.000777 0.000000
# 4 0.000000 0.000000 0.000000 0.030396 0.000000 -0.000034
# 5 -0.006239 0.002174 0.000777 0.000000 0.038894 0.000000
# 6 0.000000 0.000000 0.000000 -0.000034 0.000000 0.053736
#
#
# Mechanical properties :
#
#
# Convention : Reuss Voigt Hill
#
# Bulk Modulus (GPa) = 58.61279 60.66037 59.63658
# Shear Modulus (GPa) = 27.88123 31.04021 29.46072
#
# Velocity S-wave (km/s) = 3.58468 3.78231 3.68482
# Velocity P-wave (km/s) = 6.64431 6.85797 6.75198
#
# Compressibility (1/GPa) = 0.01706112
#
# Stress axis : x y z
#
# Youngs Moduli (GPa) = 93.38704 76.24168 99.84442
#
# Poissons Ratio (x) = 0.21838 0.23959
# Poissons Ratio (y) = 0.26749 0.31205
# Poissons Ratio (z) = 0.22410 0.23829
#
# Static dielectric constant tensor:
#      x y z
#    x 3.703200 0.000000 0.251870 
#    y 0.000000 3.875900 0.000000 
#    z 0.251870 0.000000 4.083100 
# 
# 
# High freq. dielectric constant tensor:
#      x y z
#    x 1.836120 0.000000 0.017240 
#    y 0.000000 1.853100 0.000000 
#    z 0.017240 0.000000 1.862230 
# 
# From -- ./inp_files/30675.got.cif
#   From: 2010.03.12/outbox.cif.g09.slc.cpg/sg5_16_cif.got.tgz:30675.got - 2010.03.31 09:47:26.
