data_PCOD8050575
_publ_section_title
;
Structure prediction by ZEFSAII (Michael W. Deem and Ramdas Pophale) SiO2 
 PCOD8050575
Probable space group: C 2
;
_chemical_formula_sum "Si O2"
_cell_formula_units_Z 30
_cell_length_a 18.223764
_cell_length_b 5.171315
_cell_length_c 14.772513
_cell_angle_alpha 90.000000
_cell_angle_beta 102.538165
_cell_angle_gamma 90.000000
_cell_volume 1358.972708
_symmetry_space_group_name_H-M "C 2"
_symmetry_group_IT_number 5
_symmetry_cell_setting 'monoclinic'
loop_
_space_group_symop_operation_xyz
x,y,z
-x,y,-z
1/2+x,1/2+y,z
1/2-x,1/2+y,-z
loop_
_atom_site_type_symbol
_atom_site_label
_atom_site_fract_x
_atom_site_fract_y
_atom_site_fract_z
Si Si1 0.684215 0.043000 0.170816
Si Si2 0.642913 0.541696 0.266378
Si Si3 0.702084 0.147605 0.984183
Si Si4 0.746099 0.870207 0.554184
Si Si5 0.511411 0.632237 0.686392
Si Si6 0.000000 0.840278 0.500000
Si Si7 0.843929 0.860149 0.209680
Si Si8 0.114176 0.519278 0.625309
O O1 0.644199 0.260132 0.219946
O O2 0.673288 0.755030 0.205492
O O3 0.775883 0.070614 0.189217
O O4 0.652846 0.063816 0.059237
O O5 0.689912 0.511404 0.370424
O O6 0.560005 0.644440 0.267995
O O7 0.652741 0.187752 0.880728
O O8 0.739250 0.420792 0.021220
O O9 0.727657 0.089286 0.473450
O O10 0.670236 0.814153 0.592730
O O11 0.486221 0.505217 0.585781
O O12 0.575128 0.489180 0.760450
O O13 0.546322 0.908156 0.668305
O O14 0.923934 0.677384 0.466422
O O15 0.831855 0.687838 0.296141
#
# Coordination Sequence:
#
# PCOD8050575 Si02
#       8
#     4   4   4   4   4   2   4   4
#     4  11  23  45  71 100 136 175 226 289 339 405
#     4  12  26  44  68 100 139 181 224 280 357 396
#     4  10  22  40  74 105 132 171 231 282 337 405
#     4  12  27  42  67  98 135 175 232 288 338 399
#     4  11  26  42  69  94 141 184 229 282 341 420
#     4  10  24  42  64  94 130 178 240 274 336 390
#     4  10  23  43  70 100 129 179 228 282 337 421
#     4  11  24  42  69  96 135 181 234 280 344 410
#
# _framework density 22.075496999999999
#
# number of rings (size 3 to 8) (size 9 to 14) (size 15 to 20)
#    0.000    1.067    1.333    4.400   14.933    0.000 
#    0.000    0.667    0.000    0.000    0.000    0.000 
#    0.000    0.000    0.000    0.000    0.000    0.000 
#
# Total GULP energy -185924.366293 kJ/mol
# GULP energy per Si atom -12394.957753 kJ/mol
# Density = 2.202525 g / cm^3
# Si number density = 22.075497 Si / 1000 Ang^3
#
#
#
# Elastic Constant Matrix: (Units=GPa)
#
#
# Indices 1 2 3 4 5 6 
#
# 1 97.7832 8.8231 26.6358 0.0000 -8.8541 0.0000
# 2 8.8231 82.6605 14.9548 0.0000 1.3260 0.0000
# 3 26.6358 14.9548 106.9712 0.0000 10.1574 0.0000
# 4 0.0000 0.0000 0.0000 21.9275 0.0000 -14.2927
# 5 -8.8541 1.3260 10.1574 0.0000 24.3051 0.0000
# 6 0.0000 0.0000 0.0000 -14.2927 0.0000 29.5863
#
#
#
# Elastic Compliance Matrix: (Units=1/GPa)
#
#
# Indices 1 2 3 4 5 6 
#
# 1 0.011726 -0.000735 -0.003360 0.000000 0.005716 0.000000
# 2 -0.000735 0.012458 -0.001529 0.000000 -0.000309 0.000000
# 3 -0.003360 -0.001529 0.010941 0.000000 -0.005713 0.000000
# 4 0.000000 0.000000 0.000000 0.066565 0.000000 0.032156
# 5 0.005716 -0.000309 -0.005713 0.000000 0.045630 0.000000
# 6 0.000000 0.000000 0.000000 0.032156 0.000000 0.049334
#
#
# Mechanical properties :
#
#
# Convention : Reuss Voigt Hill
#
# Bulk Modulus (GPa) = 41.88295 43.13804 42.51050
# Shear Modulus (GPa) = 23.16311 30.96389 27.06350
#
# Velocity S-wave (km/s) = 3.24275 3.74924 3.50516
# Velocity P-wave (km/s) = 5.74756 6.19080 5.97329
#
# Compressibility (1/GPa) = 0.02387606
#
# Stress axis : x y z
#
# Youngs Moduli (GPa) = 85.28223 80.27111 91.39851
#
# Poissons Ratio (x) = 0.05904 0.30706
# Poissons Ratio (y) = 0.06272 0.13977
# Poissons Ratio (z) = 0.28652 0.12275
#
# Static dielectric constant tensor:
#      x y z
#    x 3.869810 0.000000 -0.073460 
#    y 0.000000 3.983350 0.000000 
#    z -0.073460 0.000000 4.282920 
# 
# 
# High freq. dielectric constant tensor:
#      x y z
#    x 1.846870 0.000000 -0.006020 
#    y 0.000000 1.872770 0.000000 
#    z -0.006020 0.000000 1.880280 
# 
# From -- ./inp_files/55481.got.cif
#   From: 2010.03.12/outbox.cif.g09.slc.cpg/sg5_28_cif.got.tgz:55481.got - 2010.03.31 09:47:26.
