data_PCOD8050760
_publ_section_title
;
Structure prediction by ZEFSAII (Michael W. Deem and Ramdas Pophale) SiO2 
 PCOD8050760
Probable space group: C 2
;
_chemical_formula_sum "Si O2"
_cell_formula_units_Z 20
_cell_length_a 10.720930
_cell_length_b 10.376453
_cell_length_c 11.133885
_cell_angle_alpha 90.000000
_cell_angle_beta 137.732915
_cell_angle_gamma 90.000000
_cell_volume 833.061202
_symmetry_space_group_name_H-M "C 2"
_symmetry_group_IT_number 5
_symmetry_cell_setting 'monoclinic'
loop_
_space_group_symop_operation_xyz
x,y,z
-x,y,-z
1/2+x,1/2+y,z
1/2-x,1/2+y,-z
loop_
_atom_site_type_symbol
_atom_site_label
_atom_site_fract_x
_atom_site_fract_y
_atom_site_fract_z
Si Si1 0.278967 0.358740 0.969477
Si Si2 0.702827 0.219436 0.622746
Si Si3 0.468584 0.706569 0.614484
Si Si4 0.500000 0.576888 0.000000
Si Si5 0.500000 0.158369 0.000000
Si Si6 0.692704 0.465842 0.756969
O O1 0.350380 0.492446 0.965161
O O2 0.090307 0.306891 0.777842
O O3 0.431346 0.247141 0.060561
O O4 0.244928 0.379756 0.085507
O O5 0.500000 0.150894 0.500000
O O6 0.760604 0.216532 0.522307
O O7 0.875268 0.160955 0.820452
O O8 0.669767 0.369236 0.630766
O O9 0.500000 0.752145 0.500000
O O10 0.513053 0.553431 0.657076
O O11 0.655128 0.071313 0.171820
#
# Coordination Sequence:
#
# PCOD8050760 Si02
#       6
#     4   4   4   2   2   4
#     4  10  22  42  76 104 142 199 252 305 376 459
#     4  12  27  47  76 110 154 203 253 316 383 460
#     4  11  25  49  71 111 155 198 255 320 385 450
#     4  11  23  48  72 112 151 199 262 306 378 463
#     4   9  21  36  68 106 131 183 242 304 360 435
#     4  11  22  45  72 104 145 195 251 309 378 452
#
# _framework density 24.007842
#
# number of rings (size 3 to 8) (size 9 to 14) (size 15 to 20)
#    0.000    1.200    2.000    3.600    2.800    5.600 
#   10.800    0.000    0.000    0.000    0.000    0.000 
#    0.000    0.000    0.000    0.000    0.000    0.000 
#
# Total GULP energy -123928.633518 kJ/mol
# GULP energy per Si atom -12392.863352 kJ/mol
# Density = 2.395320 g / cm^3
# Si number density = 24.007842 Si / 1000 Ang^3
#
#
#
# Elastic Constant Matrix: (Units=GPa)
#
#
# Indices 1 2 3 4 5 6 
#
# 1 188.7871 41.3171 58.8083 0.0000 1.4339 0.0000
# 2 41.3171 116.1329 34.3987 0.0000 4.5162 0.0000
# 3 58.8083 34.3987 78.0186 0.0000 3.6328 0.0000
# 4 0.0000 0.0000 0.0000 88.8573 0.0000 1.4329
# 5 1.4339 4.5162 3.6328 0.0000 38.6019 0.0000
# 6 0.0000 0.0000 0.0000 1.4329 0.0000 21.5783
#
#
#
# Elastic Compliance Matrix: (Units=1/GPa)
#
#
# Indices 1 2 3 4 5 6 
#
# 1 0.007041 -0.001082 -0.004845 0.000000 0.000321 0.000000
# 2 -0.001082 0.010092 -0.003597 0.000000 -0.000802 0.000000
# 3 -0.004845 -0.003597 0.018106 0.000000 -0.001103 0.000000
# 4 0.000000 0.000000 0.000000 0.011266 0.000000 -0.000748
# 5 0.000321 -0.000802 -0.001103 0.000000 0.026091 0.000000
# 6 0.000000 0.000000 0.000000 -0.000748 0.000000 0.046393
#
#
# Mechanical properties :
#
#
# Convention : Reuss Voigt Hill
#
# Bulk Modulus (GPa) = 61.75868 72.44296 67.10082
# Shear Modulus (GPa) = 34.85924 46.36844 40.61384
#
# Velocity S-wave (km/s) = 3.81464 4.39952 4.11748
# Velocity P-wave (km/s) = 6.72177 7.48652 7.11443
#
# Compressibility (1/GPa) = 0.01619206
#
# Stress axis : x y z
#
# Youngs Moduli (GPa) = 142.03388 99.08446 55.22900
#
# Poissons Ratio (x) = 0.10724 0.26757
# Poissons Ratio (y) = 0.15373 0.19864
# Poissons Ratio (z) = 0.68812 0.35637
#
# Static dielectric constant tensor:
#      x y z
#    x 0.744080 0.000000 -0.023600 
#    y 0.000000 4.429860 0.000000 
#    z -0.023600 0.000000 4.224970 
# 
# 
# High freq. dielectric constant tensor:
#      x y z
#    x 1.964740 0.000000 0.007470 
#    y 0.000000 1.959780 0.000000 
#    z 0.007470 0.000000 1.936410 
# 
# From -- ./inp_files/39352.got.cif
#   From: 2010.03.12/outbox.cif.g09.slc.cpg/sg5_20_cif.got.tgz:39352.got - 2010.03.31 09:47:26.
