data_PCOD8050822
_publ_section_title
;
Structure prediction by ZEFSAII (Michael W. Deem and Ramdas Pophale) SiO2 
 PCOD8050822
Probable space group: C 2
;
_chemical_formula_sum "Si O2"
_cell_formula_units_Z 32
_cell_length_a 27.926802
_cell_length_b 11.820324
_cell_length_c 8.222590
_cell_angle_alpha 90.000000
_cell_angle_beta 33.647191
_cell_angle_gamma 90.000000
_cell_volume 1503.937017
_symmetry_space_group_name_H-M "C 2"
_symmetry_group_IT_number 5
_symmetry_cell_setting 'monoclinic'
loop_
_space_group_symop_operation_xyz
x,y,z
-x,y,-z
1/2+x,1/2+y,z
1/2-x,1/2+y,-z
loop_
_atom_site_type_symbol
_atom_site_label
_atom_site_fract_x
_atom_site_fract_y
_atom_site_fract_z
Si Si1 0.484183 0.604010 0.226752
Si Si2 0.596661 0.740075 0.289261
Si Si3 0.798798 0.629637 0.187968
Si Si4 0.215130 0.875691 0.902095
Si Si5 0.145144 0.479175 0.262728
Si Si6 0.045000 0.871772 0.547078
Si Si7 0.168326 0.088224 0.841008
Si Si8 0.510335 0.137120 0.280957
O O1 0.406870 0.680537 0.522006
O O2 0.461422 0.472248 0.306273
O O3 0.500000 0.642537 0.000000
O O4 0.573346 0.624143 0.062804
O O5 0.500000 0.720045 0.500000
O O6 0.614809 0.872820 0.242971
O O7 0.677247 0.680768 0.962585
O O8 0.770456 0.758212 0.232253
O O9 0.729298 0.588770 0.513255
O O10 0.800166 0.559840 0.013947
O O11 0.889160 0.608163 0.029989
O O12 0.300314 0.933862 0.737984
O O13 0.173127 0.961458 0.892896
O O14 0.146746 0.849529 0.236203
O O15 0.059255 0.542380 0.578740
O O16 0.000000 0.900507 0.500000
O O17 0.008247 0.760462 0.742899
O O18 0.500000 0.158433 0.500000
#
# Coordination Sequence:
#
# PCOD8050822 Si02
#       8
#     4   4   4   4   4   4   4   4
#     4  11  23  39  67  97 128 169 223 280 335 408
#     4  10  22  44  65  92 133 181 214 269 348 410
#     4  11  24  43  68  98 134 182 232 273 340 410
#     4  12  24  41  68  99 135 176 224 291 337 392
#     4  11  25  40  70  96 135 174 232 273 344 401
#     4  11  17  41  69  89 124 173 220 266 343 398
#     4  11  25  40  65  97 139 171 226 280 339 402
#     4   9  18  42  68  89 125 180 223 266 333 403
#
# _framework density 21.277486
#
# number of rings (size 3 to 8) (size 9 to 14) (size 15 to 20)
#    0.000    1.250    6.250    1.500    7.000    0.000 
#    0.000    3.125    0.000    0.000    0.000    0.000 
#    0.000    0.000    0.000    0.000    0.000    0.000 
#
# Total GULP energy -198217.761696 kJ/mol
# GULP energy per Si atom -12388.610106 kJ/mol
# Density = 2.122906 g / cm^3
# Si number density = 21.277486 Si / 1000 Ang^3
#
#
#
# Elastic Constant Matrix: (Units=GPa)
#
#
# Indices 1 2 3 4 5 6 
#
# 1 62.7304 21.9131 17.2657 0.0000 -3.1371 0.0000
# 2 21.9131 126.9894 24.6330 0.0000 6.2259 0.0000
# 3 17.2657 24.6330 59.6345 0.0000 -3.7311 0.0000
# 4 0.0000 0.0000 0.0000 35.1087 0.0000 -0.0549
# 5 -3.1371 6.2259 -3.7311 0.0000 29.3541 0.0000
# 6 0.0000 0.0000 0.0000 -0.0549 0.0000 29.0362
#
#
#
# Elastic Compliance Matrix: (Units=1/GPa)
#
#
# Indices 1 2 3 4 5 6 
#
# 1 0.018006 -0.002406 -0.004100 0.000000 0.001913 0.000000
# 2 -0.002406 0.009037 -0.003198 0.000000 -0.002580 0.000000
# 3 -0.004100 -0.003198 0.019446 0.000000 0.002712 0.000000
# 4 0.000000 0.000000 0.000000 0.028483 0.000000 0.000054
# 5 0.001913 -0.002580 0.002712 0.000000 0.035163 0.000000
# 6 0.000000 0.000000 0.000000 0.000054 0.000000 0.034440
#
#
# Mechanical properties :
#
#
# Convention : Reuss Voigt Hill
#
# Bulk Modulus (GPa) = 36.92405 41.88641 39.40523
# Shear Modulus (GPa) = 28.90039 31.06929 29.98484
#
# Velocity S-wave (km/s) = 3.68946 3.82540 3.75804
# Velocity P-wave (km/s) = 5.96160 6.26419 6.11477
#
# Compressibility (1/GPa) = 0.02708262
#
# Stress axis : x y z
#
# Youngs Moduli (GPa) = 55.53815 110.66179 51.42368
#
# Poissons Ratio (x) = 0.26621 0.21082
# Poissons Ratio (y) = 0.13360 0.16443
# Poissons Ratio (z) = 0.22769 0.35386
#
# Static dielectric constant tensor:
#      x y z
#    x 3.579440 0.000000 -0.441120 
#    y 0.000000 4.010120 0.000000 
#    z -0.441120 0.000000 3.581510 
# 
# 
# High freq. dielectric constant tensor:
#      x y z
#    x 1.805680 0.000000 -0.013720 
#    y 0.000000 1.847850 0.000000 
#    z -0.013720 0.000000 1.830150 
# 
# From -- ./inp_files/32625.got.cif
#   From: 2010.03.12/outbox.cif.g09.slc.cpg/sg5_17_cif.got.tgz:32625.got - 2010.03.31 09:47:26.
