data_PCOD8050927
_publ_section_title
;
Structure prediction by ZEFSAII (Michael W. Deem and Ramdas Pophale) SiO2 
 PCOD8050927
Probable space group: C 2
;
_chemical_formula_sum "Si O2"
_cell_formula_units_Z 24
_cell_length_a 10.959317
_cell_length_b 11.418419
_cell_length_c 11.536597
_cell_angle_alpha 90.000000
_cell_angle_beta 50.492995
_cell_angle_gamma 90.000000
_cell_volume 1113.857073
_symmetry_space_group_name_H-M "C 2"
_symmetry_group_IT_number 5
_symmetry_cell_setting 'monoclinic'
loop_
_space_group_symop_operation_xyz
x,y,z
-x,y,-z
1/2+x,1/2+y,z
1/2-x,1/2+y,-z
loop_
_atom_site_type_symbol
_atom_site_label
_atom_site_fract_x
_atom_site_fract_y
_atom_site_fract_z
Si Si1 0.831725 0.354610 0.141870
Si Si2 0.201587 0.094005 0.180930
Si Si3 0.308230 0.255974 0.323048
Si Si4 0.576155 0.755562 0.673616
Si Si5 0.121880 0.451099 0.327832
Si Si6 0.151198 0.662143 0.138806
O O1 0.701431 0.457762 0.217720
O O2 0.832117 0.294058 0.267057
O O3 0.789313 0.255887 0.073940
O O4 0.000000 0.406216 0.000000
O O5 0.258680 0.163397 0.257503
O O6 0.026610 0.136444 0.247872
O O7 0.327395 0.108525 0.000940
O O8 0.204545 0.229864 0.498338
O O9 0.274616 0.387821 0.295044
O O10 0.488738 0.234230 0.247527
O O11 0.458793 0.859258 0.709316
O O12 0.171627 0.562964 0.224027
O O13 0.000000 0.492443 0.500000
#
# Coordination Sequence:
#
# PCOD8050927 Si02
#       6
#     4   4   4   4   4   4
#     4  12  25  44  66  99 140 175 226 281 330 401
#     4  11  23  45  72  93 132 180 220 275 340 392
#     4  10  23  44  69  97 130 172 228 276 326 404
#     4  10  22  46  68  97 132 173 225 272 335 400
#     4   9  21  42  66  93 132 174 217 277 334 390
#     4  12  25  41  68  99 133 177 224 273 339 397
#
# _framework density 21.546751
#
# number of rings (size 3 to 8) (size 9 to 14) (size 15 to 20)
#    0.000    1.333    1.667    5.000    4.667    1.333 
#    9.000    0.000    0.000    0.000    0.000    0.000 
#    0.000    0.000    0.000    0.000    0.000    0.000 
#
# Total GULP energy -148818.022735 kJ/mol
# GULP energy per Si atom -12401.501895 kJ/mol
# Density = 2.149771 g / cm^3
# Si number density = 21.546751 Si / 1000 Ang^3
#
#
#
# Elastic Constant Matrix: (Units=GPa)
#
#
# Indices 1 2 3 4 5 6 
#
# 1 85.9268 66.0571 43.4818 0.0000 1.6741 0.0000
# 2 66.0571 118.5296 54.8110 0.0000 8.8564 0.0000
# 3 43.4818 54.8110 121.0166 0.0000 12.0380 0.0000
# 4 0.0000 0.0000 0.0000 28.9226 0.0000 5.0870
# 5 1.6741 8.8564 12.0380 0.0000 33.3871 0.0000
# 6 0.0000 0.0000 0.0000 5.0870 0.0000 41.0349
#
#
#
# Elastic Compliance Matrix: (Units=1/GPa)
#
#
# Indices 1 2 3 4 5 6 
#
# 1 0.021378 -0.010682 -0.003130 0.000000 0.002890 0.000000
# 2 -0.010682 0.016051 -0.003175 0.000000 -0.002577 0.000000
# 3 -0.003130 -0.003175 0.011126 0.000000 -0.003012 0.000000
# 4 0.000000 0.000000 0.000000 0.035346 0.000000 -0.004382
# 5 0.002890 -0.002577 -0.003012 0.000000 0.031576 0.000000
# 6 0.000000 0.000000 0.000000 -0.004382 0.000000 0.024913
#
#
# Mechanical properties :
#
#
# Convention : Reuss Voigt Hill
#
# Bulk Modulus (GPa) = 68.59352 72.68586 70.63969
# Shear Modulus (GPa) = 27.89796 31.41047 29.65422
#
# Velocity S-wave (km/s) = 3.60219 3.82223 3.71384
# Velocity P-wave (km/s) = 7.01462 7.29976 7.15861
#
# Compressibility (1/GPa) = 0.01457864
#
# Stress axis : x y z
#
# Youngs Moduli (GPa) = 46.77777 62.30192 89.88080
#
# Poissons Ratio (x) = 0.66553 0.28136
# Poissons Ratio (y) = 0.49969 0.28539
# Poissons Ratio (z) = 0.14643 0.19782
#
# Static dielectric constant tensor:
#      x y z
#    x 3.955740 0.000000 0.072100 
#    y 0.000000 3.915860 0.000000 
#    z 0.072100 0.000000 3.912490 
# 
# 
# High freq. dielectric constant tensor:
#      x y z
#    x 1.845880 0.000000 0.013960 
#    y 0.000000 1.846790 0.000000 
#    z 0.013960 0.000000 1.851100 
# 
# From -- ./inp_files/39088.got.cif
#   From: 2010.03.12/outbox.cif.g09.slc.cpg/sg5_20_cif.got.tgz:39088.got - 2010.03.31 09:47:26.
