data_PCOD8050561
_publ_section_title
;
Structure prediction by ZEFSAII (Michael W. Deem and Ramdas Pophale) SiO2 
 PCOD8050561
Probable space group: C 2
;
_chemical_formula_sum "Si O2"
_cell_formula_units_Z 26
_cell_length_a 16.232811
_cell_length_b 13.732824
_cell_length_c 5.301590
_cell_angle_alpha 90.000000
_cell_angle_beta 102.896487
_cell_angle_gamma 90.000000
_cell_volume 1152.030703
_symmetry_space_group_name_H-M "C 2"
_symmetry_group_IT_number 5
_symmetry_cell_setting 'monoclinic'
loop_
_space_group_symop_operation_xyz
x,y,z
-x,y,-z
1/2+x,1/2+y,z
1/2-x,1/2+y,-z
loop_
_atom_site_type_symbol
_atom_site_label
_atom_site_fract_x
_atom_site_fract_y
_atom_site_fract_z
Si Si1 0.240302 0.154140 0.298911
Si Si2 0.050649 0.370474 0.775839
Si Si3 0.656907 0.306556 0.380504
Si Si4 0.768484 0.442984 0.175042
Si Si5 0.135903 0.174430 0.725565
Si Si6 0.500000 0.337266 0.000000
Si Si7 0.388332 0.460714 0.278474
O O1 0.322614 0.223368 0.400128
O O2 0.176588 0.184899 0.476729
O O3 0.265335 0.040563 0.345939
O O4 0.205923 0.177217 0.996974
O O5 0.137451 0.429984 0.866169
O O6 0.067581 0.257171 0.731969
O O7 0.000000 0.413064 0.500000
O O8 0.000000 0.383917 0.000000
O O9 0.742459 0.341560 0.295786
O O10 0.620556 0.408622 0.459824
O O11 0.578176 0.269792 0.152813
O O12 0.704931 0.455992 0.902327
O O13 0.084757 0.073081 0.686894
O O14 0.537443 0.407100 0.814026
#
# Coordination Sequence:
#
# PCOD8050561 Si02
#       7
#     4   4   4   4   4   2   4
#     4  11  23  41  74  96 127 176 230 272 322 407
#     4  12  27  42  67  98 140 180 220 280 335 400
#     4  11  21  41  69  93 136 172 219 280 333 414
#     4  10  23  43  67  97 129 178 230 269 339 398
#     4  11  23  42  66 105 127 172 223 272 340 392
#     4  10  24  38  60 104 130 176 212 272 354 390
#     4  10  22  40  69  93 135 168 217 281 332 407
#
# _framework density 22.568846000000001
#
# number of rings (size 3 to 8) (size 9 to 14) (size 15 to 20)
#    0.000    1.231    3.077    2.308    5.385    1.231 
#    0.000    1.538    3.385    0.000    0.000    0.000 
#    0.000    0.000    0.000    0.000    0.000    0.000 
#
# Total GULP energy -161131.397009 kJ/mol
# GULP energy per Si atom -12394.722847 kJ/mol
# Density = 2.251748 g / cm^3
# Si number density = 22.568846 Si / 1000 Ang^3
#
#
#
# Elastic Constant Matrix: (Units=GPa)
#
#
# Indices 1 2 3 4 5 6 
#
# 1 135.2400 21.0413 38.9697 0.0000 1.3596 0.0000
# 2 21.0413 65.3051 18.5934 0.0000 16.3047 0.0000
# 3 38.9697 18.5934 79.4444 0.0000 -6.0561 0.0000
# 4 0.0000 0.0000 0.0000 27.8063 0.0000 1.4650
# 5 1.3596 16.3047 -6.0561 0.0000 41.2882 0.0000
# 6 0.0000 0.0000 0.0000 1.4650 0.0000 21.5993
#
#
#
# Elastic Compliance Matrix: (Units=1/GPa)
#
#
# Indices 1 2 3 4 5 6 
#
# 1 0.008790 -0.001657 -0.003940 0.000000 -0.000213 0.000000
# 2 -0.001657 0.019088 -0.004273 0.000000 -0.008110 0.000000
# 3 -0.003940 -0.004273 0.015836 0.000000 0.004140 0.000000
# 4 0.000000 0.000000 0.000000 0.036092 0.000000 -0.002448
# 5 -0.000213 -0.008110 0.004140 0.000000 0.028037 0.000000
# 6 0.000000 0.000000 0.000000 -0.002448 0.000000 0.046464
#
#
# Mechanical properties :
#
#
# Convention : Reuss Voigt Hill
#
# Bulk Modulus (GPa) = 41.71251 48.57759 45.14505
# Shear Modulus (GPa) = 27.46700 31.56444 29.51572
#
# Velocity S-wave (km/s) = 3.49238 3.74382 3.62029
# Velocity P-wave (km/s) = 5.89786 6.34501 6.12552
#
# Compressibility (1/GPa) = 0.02397362
#
# Stress axis : x y z
#
# Youngs Moduli (GPa) = 113.77201 52.38892 63.14866
#
# Poissons Ratio (x) = 0.08681 0.24880
# Poissons Ratio (y) = 0.18853 0.26982
# Poissons Ratio (z) = 0.44825 0.22385
#
# Static dielectric constant tensor:
#      x y z
#    x 4.433180 0.000000 -0.051680 
#    y 0.000000 4.201230 0.000000 
#    z -0.051680 0.000000 4.146680 
# 
# 
# High freq. dielectric constant tensor:
#      x y z
#    x 1.888940 0.000000 0.005140 
#    y 0.000000 1.879400 0.000000 
#    z 0.005140 0.000000 1.897310 
# 
# From -- ./inp_files/6905.got.cif
#   From: 2010.03.12/outbox.cif.g09.slc.cpg/sg5_4_cif.got.tgz:6905.got - 2010.03.31 09:47:26.
