data_PCOD8050768
_publ_section_title
;
Structure prediction by ZEFSAII (Michael W. Deem and Ramdas Pophale) SiO2 
 PCOD8050768
Probable space group: C 2
;
_chemical_formula_sum "Si O2"
_cell_formula_units_Z 28
_cell_length_a 19.262959
_cell_length_b 12.120436
_cell_length_c 16.434924
_cell_angle_alpha 90.000000
_cell_angle_beta 159.726490
_cell_angle_gamma 90.000000
_cell_volume 1329.580632
_symmetry_space_group_name_H-M "C 2"
_symmetry_group_IT_number 5
_symmetry_cell_setting 'monoclinic'
loop_
_space_group_symop_operation_xyz
x,y,z
-x,y,-z
1/2+x,1/2+y,z
1/2-x,1/2+y,-z
loop_
_atom_site_type_symbol
_atom_site_label
_atom_site_fract_x
_atom_site_fract_y
_atom_site_fract_z
Si Si1 0.699503 0.191700 0.404810
Si Si2 0.654151 0.850998 0.311412
Si Si3 0.511717 0.522976 0.350777
Si Si4 0.124976 0.561435 0.561018
Si Si5 0.500000 0.720432 0.000000
Si Si6 0.500000 0.649365 0.500000
Si Si7 0.566728 0.021504 0.823010
Si Si8 0.217807 0.822048 0.265168
O O1 0.730511 0.246178 0.526137
O O2 0.492474 0.120869 0.179504
O O3 0.696557 0.286326 0.334802
O O4 0.888457 0.112631 0.597671
O O5 0.490591 0.805977 0.066225
O O6 0.830765 0.923408 0.463688
O O7 0.543434 0.912619 0.264150
O O8 0.449470 0.571316 0.369272
O O9 0.301820 0.491696 0.077048
O O10 0.158372 0.432066 0.610049
O O11 0.000000 0.605031 0.500000
O O12 0.008914 0.565258 0.347586
O O13 0.316276 0.640487 0.777133
O O14 0.308066 0.724596 0.309186
O O15 0.000000 0.854252 0.000000
#
# Coordination Sequence:
#
# PCOD8050768 Si02
#       8
#     4   4   4   4   2   2   4   4
#     4  10  22  43  64  98 127 178 229 276 351 402
#     4  11  25  44  70  96 135 188 231 279 346 409
#     4  10  25  41  69  97 135 175 236 283 335 418
#     4  12  26  41  68 104 134 176 229 281 353 411
#     4  12  28  48  68  98 152 184 230 290 344 420
#     4  10  22  44  62 104 128 166 230 284 344 394
#     4  11  24  45  68  97 136 182 232 284 338 422
#     4  11  21  39  68  93 129 170 215 289 341 399
#
# _framework density 21.059270999999999
#
# number of rings (size 3 to 8) (size 9 to 14) (size 15 to 20)
#    0.000    1.143    4.286    0.857    4.000    3.429 
#    2.571    0.000    0.000    0.000    0.000    0.000 
#    0.000    0.000    0.000    0.000    0.000    0.000 
#
# Total GULP energy -173489.308292 kJ/mol
# GULP energy per Si atom -12392.093449 kJ/mol
# Density = 2.101134 g / cm^3
# Si number density = 21.059271 Si / 1000 Ang^3
#
#
#
# Elastic Constant Matrix: (Units=GPa)
#
#
# Indices 1 2 3 4 5 6 
#
# 1 100.1488 33.7385 29.3790 -0.0038 -9.4301 -0.0008
# 2 33.7385 86.5684 31.6132 0.0212 -13.7516 0.0251
# 3 29.3790 31.6132 102.4265 0.0037 -4.0785 0.0048
# 4 -0.0038 0.0212 0.0037 30.9511 0.0068 -5.9393
# 5 -9.4301 -13.7516 -4.0785 0.0068 26.3177 0.0065
# 6 -0.0008 0.0251 0.0048 -5.9393 0.0065 14.1386
#
#
#
# Elastic Compliance Matrix: (Units=1/GPa)
#
#
# Indices 1 2 3 4 5 6 
#
# 1 0.012041 -0.003523 -0.002282 0.000005 0.002120 0.000009
# 2 -0.003523 0.015146 -0.003421 -0.000019 0.006122 -0.000037
# 3 -0.002282 -0.003421 0.011440 0.000001 -0.000832 0.000003
# 4 0.000005 -0.000019 0.000001 0.035142 -0.000020 0.014762
# 5 0.002120 0.006122 -0.000832 -0.000020 0.041827 -0.000038
# 6 0.000009 -0.000037 0.000003 0.014762 -0.000038 0.076930
#
#
# Mechanical properties :
#
#
# Convention : Reuss Voigt Hill
#
# Bulk Modulus (GPa) = 49.56180 53.17834 51.37007
# Shear Modulus (GPa) = 22.96719 27.24234 25.10476
#
# Velocity S-wave (km/s) = 3.30600 3.60057 3.45643
# Velocity P-wave (km/s) = 6.17725 6.52626 6.35415
#
# Compressibility (1/GPa) = 0.02017683
#
# Stress axis : x y z
#
# Youngs Moduli (GPa) = 83.05003 66.02387 87.41057
#
# Poissons Ratio (x) = 0.23257 0.19948
# Poissons Ratio (y) = 0.29255 0.29899
# Poissons Ratio (z) = 0.18953 0.22584
#
# Static dielectric constant tensor:
#      x y z
#    x 3.843030 -0.000020 -0.008080 
#    y -0.000020 3.894150 -0.000030 
#    z -0.008080 -0.000030 3.625560 
# 
# 
# High freq. dielectric constant tensor:
#      x y z
#    x 1.831240 0.000000 -0.002390 
#    y 0.000000 1.837310 0.000000 
#    z -0.002390 0.000000 1.816490 
# 
# From -- ./inp_files/62925.got.cif
#   From: 2010.03.12/outbox.cif.g09.slc.cpg/sg5_32_cif.got.tgz:62925.got - 2010.03.31 09:47:26.
