data_PCOD8050220
_publ_section_title
;
Structure prediction by ZEFSAII (Michael W. Deem and Ramdas Pophale) SiO2 
 PCOD8050220
Probable space group: C 2
;
_chemical_formula_sum "Si O2"
_cell_formula_units_Z 28
_cell_length_a 24.537317
_cell_length_b 7.732710
_cell_length_c 9.178769
_cell_angle_alpha 90.000000
_cell_angle_beta 130.924028
_cell_angle_gamma 90.000000
_cell_volume 1315.900390
_symmetry_space_group_name_H-M "C 2"
_symmetry_group_IT_number 5
_symmetry_cell_setting 'monoclinic'
loop_
_space_group_symop_operation_xyz
x,y,z
-x,y,-z
1/2+x,1/2+y,z
1/2-x,1/2+y,-z
loop_
_atom_site_type_symbol
_atom_site_label
_atom_site_fract_x
_atom_site_fract_y
_atom_site_fract_z
Si Si1 0.435056 0.026010 0.693225
Si Si2 0.685356 0.751856 0.159114
Si Si3 0.907802 0.580787 0.972152
Si Si4 0.648838 0.331059 0.581358
Si Si5 0.851727 0.172263 0.592375
Si Si6 0.224687 0.737709 0.169305
Si Si7 0.303198 0.523491 0.075070
O O1 0.521106 0.029073 0.812579
O O2 0.400132 0.159694 0.517985
O O3 0.405951 0.828132 0.637858
O O4 0.424084 0.109016 0.832060
O O5 0.771236 0.768052 0.318428
O O6 0.653681 0.646356 0.242892
O O7 0.658737 0.670615 0.957449
O O8 0.654009 0.940424 0.115581
O O9 0.862050 0.744986 0.950795
O O10 0.622531 0.489974 0.431404
O O11 0.642162 0.399940 0.737623
O O12 0.771771 0.222837 0.397671
O O13 0.246500 0.588820 0.094276
O O14 0.243432 0.918257 0.125209
#
# Coordination Sequence:
#
# PCOD8050220 Si02
#       7
#     4   4   4   4   4   4   4
#     4  10  23  42  65  95 134 160 212 270 325 375
#     4  11  21  39  64  96 126 164 220 266 315 380
#     4  10  21  42  64  94 127 169 204 268 331 376
#     4  11  22  40  65  96 129 167 214 268 316 379
#     4  10  23  37  67  96 125 164 216 269 319 372
#     4  11  20  38  62  93 121 164 215 259 317 375
#     4  11  22  36  62  92 130 164 216 264 314 378
#
# _framework density 21.278206999999998
#
# number of rings (size 3 to 8) (size 9 to 14) (size 15 to 20)
#    0.000    1.429    4.286    1.714    6.000    0.000 
#    2.571    2.143    3.143    0.000    0.000    0.000 
#    0.000    0.000    0.000    0.000    0.000    0.000 
#
# Total GULP energy -173457.904658 kJ/mol
# GULP energy per Si atom -12389.850333 kJ/mol
# Density = 2.122978 g / cm^3
# Si number density = 21.278207 Si / 1000 Ang^3
#
#
#
# Elastic Constant Matrix: (Units=GPa)
#
#
# Indices 1 2 3 4 5 6 
#
# 1 60.4268 -0.5364 41.3203 0.0000 1.8621 0.0000
# 2 -0.5364 52.4585 21.8184 0.0000 -2.5880 0.0000
# 3 41.3203 21.8184 73.9633 0.0000 4.1252 0.0000
# 4 0.0000 0.0000 0.0000 41.3504 0.0000 -11.3798
# 5 1.8621 -2.5880 4.1252 0.0000 45.2908 0.0000
# 6 0.0000 0.0000 0.0000 -11.3798 0.0000 22.7835
#
#
#
# Elastic Compliance Matrix: (Units=1/GPa)
#
#
# Indices 1 2 3 4 5 6 
#
# 1 0.029608 0.008269 -0.019035 0.000000 0.000989 0.000000
# 2 0.008269 0.024191 -0.011874 0.000000 0.002124 0.000000
# 3 -0.019035 -0.011874 0.027793 0.000000 -0.002427 0.000000
# 4 0.000000 0.000000 0.000000 0.028038 0.000000 0.014004
# 5 0.000989 0.002124 -0.002427 0.000000 0.022381 0.000000
# 6 0.000000 0.000000 0.000000 0.014004 0.000000 0.050886
#
#
# Mechanical properties :
#
#
# Convention : Reuss Voigt Hill
#
# Bulk Modulus (GPa) = 27.54022 34.67257 31.10640
# Shear Modulus (GPa) = 20.80897 30.16802 25.48849
#
# Velocity S-wave (km/s) = 3.13061 3.76944 3.46478
# Velocity P-wave (km/s) = 5.10281 5.93929 5.53687
#
# Compressibility (1/GPa) = 0.03631053
#
# Stress axis : x y z
#
# Youngs Moduli (GPa) = 33.77420 41.33853 35.98090
#
# Poissons Ratio (x) = -0.34181 0.68491
# Poissons Ratio (y) = -0.27927 0.42723
# Poissons Ratio (z) = 0.64290 0.49084
#
# Static dielectric constant tensor:
#      x y z
#    x 3.897660 0.000000 -0.180770 
#    y 0.000000 4.079860 0.000000 
#    z -0.180770 0.000000 3.900250 
# 
# 
# High freq. dielectric constant tensor:
#      x y z
#    x 1.813820 0.000000 -0.021510 
#    y 0.000000 1.845810 0.000000 
#    z -0.021510 0.000000 1.818920 
# 
# From -- ./inp_files/31773.got.cif
#   From: 2010.03.12/outbox.cif.g09.slc.cpg/sg5_16_cif.got.tgz:31773.got - 2010.03.31 09:47:26.
