data_PCOD8050027
_publ_section_title
;
Structure prediction by ZEFSAII (Michael W. Deem and Ramdas Pophale) SiO2 
 PCOD8050027
Probable space group: C 2
;
_chemical_formula_sum "Si O2"
_cell_formula_units_Z 32
_cell_length_a 15.039165
_cell_length_b 11.597092
_cell_length_c 17.702885
_cell_angle_alpha 90.000000
_cell_angle_beta 149.533768
_cell_angle_gamma 90.000000
_cell_volume 1565.492270
_symmetry_space_group_name_H-M "C 2"
_symmetry_group_IT_number 5
_symmetry_cell_setting 'monoclinic'
loop_
_space_group_symop_operation_xyz
x,y,z
-x,y,-z
1/2+x,1/2+y,z
1/2-x,1/2+y,-z
loop_
_atom_site_type_symbol
_atom_site_label
_atom_site_fract_x
_atom_site_fract_y
_atom_site_fract_z
Si Si1 0.098610 0.497370 0.686891
Si Si2 0.392602 0.584064 0.137343
Si Si3 0.809027 0.434518 0.892112
Si Si4 0.949916 0.732007 0.817247
Si Si5 0.824875 0.091376 0.323876
Si Si6 0.776146 0.266992 0.156567
Si Si7 0.239454 0.960206 0.349030
Si Si8 0.700308 0.191249 0.866528
O O1 0.181513 0.401256 0.802770
O O2 0.208781 0.520725 0.691504
O O3 0.100559 0.619403 0.729989
O O4 0.899838 0.461043 0.524592
O O5 0.243374 0.506886 0.070844
O O6 0.404833 0.707464 0.188854
O O7 0.579192 0.522882 0.273565
O O8 0.336849 0.608014 0.010087
O O9 0.679064 0.474993 0.729134
O O10 0.797504 0.298814 0.898499
O O11 0.000000 0.467580 0.000000
O O12 0.846222 0.609225 0.747509
O O13 0.803749 0.830028 0.704098
O O14 0.058888 0.739693 0.820723
O O15 0.075428 0.753995 0.981195
O O16 0.809324 0.204721 0.260161
O O17 0.000000 0.089900 0.500000
#
# Coordination Sequence:
#
# PCOD8050027 Si02
#       8
#     4   4   4   4   4   4   4   4
#     4  11  25  40  62  95 129 169 204 259 320 384
#     4  10  23  43  67  92 123 162 212 269 306 378
#     4  11  24  45  64  94 126 165 214 263 313 377
#     4  11  21  41  68  95 122 164 217 267 299 376
#     4  11  22  40  67  95 125 166 211 260 320 373
#     4  10  21  39  68  94 121 160 220 258 311 364
#     4  11  23  42  62  93 132 162 212 257 318 379
#     4  11  25  41  65  93 126 166 211 259 318 371
#
# _framework density 20.440854999999999
#
# number of rings (size 3 to 8) (size 9 to 14) (size 15 to 20)
#    0.000    1.250    2.500    4.125    3.500    4.000 
#    2.250    0.000    0.000    0.000    0.000    0.000 
#    0.000    0.000    0.000    0.000    0.000    0.000 
#
# Total GULP energy -198370.767147 kJ/mol
# GULP energy per Si atom -12398.172947 kJ/mol
# Density = 2.039433 g / cm^3
# Si number density = 20.440855 Si / 1000 Ang^3
#
#
#
# Elastic Constant Matrix: (Units=GPa)
#
#
# Indices 1 2 3 4 5 6 
#
# 1 87.4831 33.0665 48.1702 0.0006 10.2928 0.0002
# 2 33.0665 96.2958 50.4905 0.0012 -6.3992 0.0005
# 3 48.1702 50.4905 141.8781 0.0019 -1.5599 0.0004
# 4 0.0006 0.0012 0.0019 29.2226 0.0007 -0.8770
# 5 10.2928 -6.3992 -1.5599 0.0007 33.0260 0.0001
# 6 0.0002 0.0005 0.0004 -0.8770 0.0001 30.4127
#
#
#
# Elastic Compliance Matrix: (Units=1/GPa)
#
#
# Indices 1 2 3 4 5 6 
#
# 1 0.015757 -0.003637 -0.004119 0.000000 -0.005810 0.000000
# 2 -0.003637 0.013777 -0.003628 0.000000 0.003632 0.000000
# 3 -0.004119 -0.003628 0.009750 0.000000 0.001041 0.000000
# 4 0.000000 0.000000 0.000000 0.034250 -0.000001 0.000988
# 5 -0.005810 0.003632 0.001041 -0.000001 0.032843 0.000000
# 6 0.000000 0.000000 0.000000 0.000988 0.000000 0.032909
#
#
# Mechanical properties :
#
#
# Convention : Reuss Voigt Hill
#
# Bulk Modulus (GPa) = 60.55156 65.45681 63.00419
# Shear Modulus (GPa) = 29.83997 31.46091 30.65044
#
# Velocity S-wave (km/s) = 3.82490 3.92742 3.87650
# Velocity P-wave (km/s) = 7.01382 7.25660 7.13624
#
# Compressibility (1/GPa) = 0.01651485
#
# Stress axis : x y z
#
# Youngs Moduli (GPa) = 63.46243 72.58346 102.56867
#
# Poissons Ratio (x) = 0.26398 0.42253
# Poissons Ratio (y) = 0.23081 0.37214
# Poissons Ratio (z) = 0.26143 0.26335
#
# Static dielectric constant tensor:
#      x y z
#    x 3.815750 0.000000 -0.032560 
#    y 0.000000 3.644760 0.000000 
#    z -0.032560 0.000000 3.603600 
# 
# 
# High freq. dielectric constant tensor:
#      x y z
#    x 1.807220 0.000000 -0.001570 
#    y 0.000000 1.792610 0.000000 
#    z -0.001570 0.000000 1.792870 
# 
# From -- ./inp_files/23904.got.cif
#   From: 2010.03.12/outbox.cif.g09.slc.cpg/sg5_12_cif.got.tgz:23904.got - 2010.03.31 09:47:26.
