data_PCOD8050168
_publ_section_title
;
Structure prediction by ZEFSAII (Michael W. Deem and Ramdas Pophale) SiO2 
 PCOD8050168
Probable space group: C 2
;
_chemical_formula_sum "Si O2"
_cell_formula_units_Z 24
_cell_length_a 13.773502
_cell_length_b 11.184052
_cell_length_c 19.156647
_cell_angle_alpha 90.000000
_cell_angle_beta 21.046078
_cell_angle_gamma 90.000000
_cell_volume 1059.744051
_symmetry_space_group_name_H-M "C 2"
_symmetry_group_IT_number 5
_symmetry_cell_setting 'monoclinic'
loop_
_space_group_symop_operation_xyz
x,y,z
-x,y,-z
1/2+x,1/2+y,z
1/2-x,1/2+y,-z
loop_
_atom_site_type_symbol
_atom_site_label
_atom_site_fract_x
_atom_site_fract_y
_atom_site_fract_z
Si Si1 0.611273 0.619070 0.323244
Si Si2 0.953719 0.180576 0.917467
Si Si3 0.373381 0.229490 0.264128
Si Si4 0.558411 0.412206 0.038795
Si Si5 0.972177 0.245600 0.281484
Si Si6 0.927380 0.846845 0.629588
O O1 0.874256 0.637176 0.196662
O O2 0.374104 0.696159 0.519999
O O3 0.635772 0.672790 0.229936
O O4 0.573416 0.478725 0.337836
O O5 0.047754 0.164536 0.774410
O O6 0.146160 0.275383 0.829143
O O7 0.974029 0.053654 0.940801
O O8 0.643472 0.223136 0.128954
O O9 0.359323 0.357752 0.232576
O O10 0.500000 0.364945 0.000000
O O11 0.864242 0.366634 0.849588
O O12 0.667502 0.277948 0.509337
O O13 0.000000 0.857899 0.500000
#
# Coordination Sequence:
#
# PCOD8050168 Si02
#       6
#     4   4   4   4   4   4
#     4  11  21  41  70  98 129 169 222 268 327 392
#     4  10  24  40  64  95 131 175 216 264 331 379
#     4  10  22  39  67  97 127 173 217 264 326 382
#     4  11  22  42  65  94 134 171 218 271 320 387
#     4  10  23  42  66  98 126 177 216 268 330 381
#     4  10  21  41  65  93 132 171 209 271 326 385
#
# _framework density 22.646978000000001
#
# number of rings (size 3 to 8) (size 9 to 14) (size 15 to 20)
#    0.000    1.667    3.333    1.000    4.667    4.000 
#    9.000    1.667    7.333    0.000    0.000    0.000 
#    0.000    0.000    0.000    0.000    0.000    0.000 
#
# Total GULP energy -148686.259649 kJ/mol
# GULP energy per Si atom -12390.521637 kJ/mol
# Density = 2.259543 g / cm^3
# Si number density = 22.646978 Si / 1000 Ang^3
#
#
#
# Elastic Constant Matrix: (Units=GPa)
#
#
# Indices 1 2 3 4 5 6 
#
# 1 63.7922 29.8527 22.7192 0.0210 -8.5530 -0.0046
# 2 29.8527 123.1930 44.5183 -0.0317 0.0439 0.0363
# 3 22.7192 44.5183 92.8936 -0.1176 -17.5994 0.0533
# 4 0.0210 -0.0317 -0.1176 28.9804 -0.0093 1.5371
# 5 -8.5530 0.0439 -17.5994 -0.0093 33.0190 -0.0276
# 6 -0.0046 0.0363 0.0533 1.5371 -0.0276 32.4308
#
#
#
# Elastic Compliance Matrix: (Units=1/GPa)
#
#
# Indices 1 2 3 4 5 6 
#
# 1 0.018680 -0.003791 -0.002040 -0.000026 0.003756 0.000015
# 2 -0.003791 0.010826 -0.004950 -0.000006 -0.003635 -0.000007
# 3 -0.002040 -0.004950 0.015058 0.000060 0.007504 -0.000016
# 4 -0.000026 -0.000006 0.000060 0.034593 0.000034 -0.001640
# 5 0.003756 -0.003635 0.007504 0.000034 0.035263 0.000021
# 6 0.000015 -0.000007 -0.000016 -0.001640 0.000021 0.030913
#
#
# Mechanical properties :
#
#
# Convention : Reuss Voigt Hill
#
# Bulk Modulus (GPa) = 43.47376 52.67327 48.07351
# Shear Modulus (GPa) = 28.64311 31.07193 29.85752
#
# Velocity S-wave (km/s) = 3.56021 3.70809 3.63490
# Velocity P-wave (km/s) = 6.01150 6.45307 6.23619
#
# Compressibility (1/GPa) = 0.02300238
#
# Stress axis : x y z
#
# Youngs Moduli (GPa) = 53.53283 92.37122 66.41039
#
# Poissons Ratio (x) = 0.35015 0.13550
# Poissons Ratio (y) = 0.20293 0.32871
# Poissons Ratio (z) = 0.10923 0.45721
#
# Static dielectric constant tensor:
#      x y z
#    x 4.196130 0.000030 -0.265990 
#    y 0.000030 3.830610 0.000220 
#    z -0.265990 0.000220 4.073690 
# 
# 
# High freq. dielectric constant tensor:
#      x y z
#    x 1.903990 0.000000 -0.010220 
#    y 0.000000 1.877080 0.000020 
#    z -0.010220 0.000020 1.882960 
# 
# From -- ./inp_files/66071.got.cif
#   From: 2010.03.12/outbox.cif.g09.slc.cpg/sg5_34_cif.got.tgz:66071.got - 2010.03.31 09:47:26.
