data_PCOD8050521
_publ_section_title
;
Structure prediction by ZEFSAII (Michael W. Deem and Ramdas Pophale) SiO2 
 PCOD8050521
Probable space group: C 2
;
_chemical_formula_sum "Si O2"
_cell_formula_units_Z 24
_cell_length_a 7.798117
_cell_length_b 28.117918
_cell_length_c 7.392558
_cell_angle_alpha 90.000000
_cell_angle_beta 142.087481
_cell_angle_gamma 90.000000
_cell_volume 996.000524
_symmetry_space_group_name_H-M "C 2"
_symmetry_group_IT_number 5
_symmetry_cell_setting 'monoclinic'
loop_
_space_group_symop_operation_xyz
x,y,z
-x,y,-z
1/2+x,1/2+y,z
1/2-x,1/2+y,-z
loop_
_atom_site_type_symbol
_atom_site_label
_atom_site_fract_x
_atom_site_fract_y
_atom_site_fract_z
Si Si1 0.307892 0.086930 0.686125
Si Si2 0.786887 0.002116 0.655812
Si Si3 0.405082 0.266235 0.125909
Si Si4 0.696097 0.165089 0.824809
Si Si5 0.780065 0.418025 0.661407
Si Si6 0.914585 0.320015 0.631041
O O1 0.237921 0.053379 0.459010
O O2 0.526576 0.127230 0.805235
O O3 0.000000 0.105459 0.500000
O O4 0.500000 0.060608 0.000000
O O5 0.500000 0.985331 0.500000
O O6 0.847058 0.963186 0.553354
O O7 0.000000 0.004134 0.000000
O O8 0.156638 0.302692 0.965913
O O9 0.500000 0.270934 0.000000
O O10 0.280395 0.213371 0.044033
O O11 0.650680 0.286056 0.459037
O O12 0.500000 0.179153 0.500000
O O13 0.000000 0.147255 0.000000
O O14 0.500000 0.393596 0.500000
O O15 0.901749 0.377044 0.636229
O O16 0.000000 0.433899 0.000000
O O17 0.000000 0.308361 0.500000
#
# Coordination Sequence:
#
# PCOD8050521 Si02
#       6
#     4   4   4   4   4   4
#     4  12  26  47  73 101 138 182 233 287 348 415
#     4  12  26  47  73 101 138 178 226 284 347 411
#     4  10  22  41  64  93 133 180 228 281 341 403
#     4  12  26  43  68 102 139 179 231 286 345 411
#     4  12  25  42  67 101 138 178 227 278 340 412
#     4  10  22  40  64  94 132 179 229 278 336 404
#
# _framework density 24.096371999999999
#
# number of rings (size 3 to 8) (size 9 to 14) (size 15 to 20)
#    0.000    0.667    0.000    7.500    0.000    9.333 
#    0.000    0.000    0.000    0.000    0.000    0.000 
#    0.000    0.000    0.000    0.000    0.000    0.000 
#
# Total GULP energy -148661.269510 kJ/mol
# GULP energy per Si atom -12388.439126 kJ/mol
# Density = 2.404153 g / cm^3
# Si number density = 24.096372 Si / 1000 Ang^3
#
#
#
# Elastic Constant Matrix: (Units=GPa)
#
#
# Indices 1 2 3 4 5 6 
#
# 1 85.5255 32.0903 57.2093 0.0000 24.6318 0.0000
# 2 32.0903 123.8144 48.0318 0.0000 1.6127 0.0000
# 3 57.2093 48.0318 202.2231 0.0000 11.3146 0.0000
# 4 0.0000 0.0000 0.0000 43.3885 0.0000 -0.3939
# 5 24.6318 1.6127 11.3146 0.0000 42.7352 0.0000
# 6 0.0000 0.0000 0.0000 -0.3939 0.0000 25.3246
#
#
#
# Elastic Compliance Matrix: (Units=1/GPa)
#
#
# Indices 1 2 3 4 5 6 
#
# 1 0.018115 -0.003071 -0.003875 0.000000 -0.009299 0.000000
# 2 -0.003071 0.009419 -0.001469 0.000000 0.001803 0.000000
# 3 -0.003875 -0.001469 0.006356 0.000000 0.000606 0.000000
# 4 0.000000 0.000000 0.000000 0.023051 0.000000 0.000359
# 5 -0.009299 0.001803 0.000606 0.000000 0.028531 0.000000
# 6 0.000000 0.000000 0.000000 0.000359 0.000000 0.039493
#
#
# Mechanical properties :
#
#
# Convention : Reuss Voigt Hill
#
# Bulk Modulus (GPa) = 58.61656 76.24731 67.43194
# Shear Modulus (GPa) = 33.90238 40.57176 37.23707
#
# Velocity S-wave (km/s) = 3.75500 4.10778 3.93535
# Velocity P-wave (km/s) = 6.57105 7.36273 6.97813
#
# Compressibility (1/GPa) = 0.01706002
#
# Stress axis : x y z
#
# Youngs Moduli (GPa) = 55.20317 106.16837 157.32157
#
# Poissons Ratio (x) = 0.32600 0.60964
# Poissons Ratio (y) = 0.16951 0.23117
# Poissons Ratio (z) = 0.21392 0.15600
#
# Static dielectric constant tensor:
#      x y z
#    x 4.519320 0.000000 0.207500 
#    y 0.000000 3.968180 0.000000 
#    z 0.207500 0.000000 4.854050 
# 
# 
# High freq. dielectric constant tensor:
#      x y z
#    x 1.971360 0.000000 0.006920 
#    y 0.000000 1.950480 0.000000 
#    z 0.006920 0.000000 1.976830 
# 
# From -- ./inp_files/17657.got.cif
#   From: 2010.03.12/outbox.cif.g09.slc.cpg/sg5_9_cif.got.tgz:17657.got - 2010.03.31 09:47:26.
