data_PCOD8050238
_publ_section_title
;
Structure prediction by ZEFSAII (Michael W. Deem and Ramdas Pophale) SiO2 
 PCOD8050238
Probable space group: C 2
;
_chemical_formula_sum "Si O2"
_cell_formula_units_Z 22
_cell_length_a 11.212098
_cell_length_b 9.614789
_cell_length_c 9.906348
_cell_angle_alpha 90.000000
_cell_angle_beta 118.663664
_cell_angle_gamma 90.000000
_cell_volume 937.050221
_symmetry_space_group_name_H-M "C 2"
_symmetry_group_IT_number 5
_symmetry_cell_setting 'monoclinic'
loop_
_space_group_symop_operation_xyz
x,y,z
-x,y,-z
1/2+x,1/2+y,z
1/2-x,1/2+y,-z
loop_
_atom_site_type_symbol
_atom_site_label
_atom_site_fract_x
_atom_site_fract_y
_atom_site_fract_z
Si Si1 0.500000 0.564780 0.000000
Si Si2 0.762291 0.225109 0.752395
Si Si3 0.895004 0.238364 0.330479
Si Si4 0.399373 0.448520 0.200959
Si Si5 0.344259 0.262719 0.605634
Si Si6 0.469690 0.023082 0.327506
O O1 0.413157 0.665891 0.854535
O O2 0.587076 0.459634 0.953526
O O3 0.733117 0.361834 0.826688
O O4 0.733587 0.258862 0.579991
O O5 0.667260 0.107794 0.765336
O O6 0.759056 0.297336 0.330525
O O7 0.952305 0.364200 0.265221
O O8 0.000000 0.188661 0.500000
O O9 0.867348 0.105188 0.226760
O O10 0.537067 0.379495 0.338783
O O11 0.407029 0.109578 0.672573
O O12 0.500000 0.003160 0.500000
#
# Coordination Sequence:
#
# PCOD8050238 Si02
#       6
#     2   4   4   4   4   4
#     4  12  26  42  64  96 140 176 208 274 336 380
#     4  10  22  42  66  94 131 173 217 268 331 392
#     4  11  21  34  63 100 126 160 217 270 322 384
#     4  11  25  43  66  93 129 178 227 264 318 396
#     4  10  21  42  67  94 131 170 215 277 327 376
#     4   8  18  36  60  92 127 161 206 262 317 377
#
# _framework density 23.477931000000002
#
# number of rings (size 3 to 8) (size 9 to 14) (size 15 to 20)
#    0.000    1.818    0.000    4.909    0.000   11.636 
#    0.000    3.636    0.000    5.455    0.000    0.000 
#    0.000    0.000    0.000    0.000    0.000    0.000 
#
# Total GULP energy -136341.712969 kJ/mol
# GULP energy per Si atom -12394.701179 kJ/mol
# Density = 2.342449 g / cm^3
# Si number density = 23.477931 Si / 1000 Ang^3
#
#
#
# Elastic Constant Matrix: (Units=GPa)
#
#
# Indices 1 2 3 4 5 6 
#
# 1 72.8826 22.3540 11.8111 0.0000 -7.1241 0.0000
# 2 22.3540 158.9727 23.5984 0.0000 -11.1628 0.0000
# 3 11.8111 23.5984 67.2573 0.0000 -4.5426 0.0000
# 4 0.0000 0.0000 0.0000 340.2256 0.0000 -93.4908
# 5 -7.1241 -11.1628 -4.5426 0.0000 33.9197 0.0000
# 6 0.0000 0.0000 0.0000 -93.4908 0.0000 61.1346
#
#
#
# Elastic Compliance Matrix: (Units=1/GPa)
#
#
# Indices 1 2 3 4 5 6 
#
# 1 0.014750 -0.001636 -0.001860 0.000000 0.002310 0.000000
# 2 -0.001636 0.006940 -0.002035 0.000000 0.001668 0.000000
# 3 -0.001860 -0.002035 0.015982 0.000000 0.001080 0.000000
# 4 0.000000 0.000000 0.000000 0.005070 0.000000 0.007753
# 5 0.002310 0.001668 0.001080 0.000000 0.030660 0.000000
# 6 0.000000 0.000000 0.000000 0.007753 0.000000 0.028213
#
#
# Mechanical properties :
#
#
# Convention : Reuss Voigt Hill
#
# Bulk Modulus (GPa) = 37.58078 46.07107 41.82592
# Shear Modulus (GPa) = 41.13675 103.14591 72.14133
#
# Velocity S-wave (km/s) = 4.19040 6.63540 5.54923
# Velocity P-wave (km/s) = 6.28126 8.85271 7.67544
#
# Compressibility (1/GPa) = 0.02660935
#
# Stress axis : x y z
#
# Youngs Moduli (GPa) = 67.79809 144.10116 62.57080
#
# Poissons Ratio (x) = 0.23570 0.11640
# Poissons Ratio (y) = 0.11089 0.12733
# Poissons Ratio (z) = 0.12612 0.29324
#
# Static dielectric constant tensor:
#      x y z
#    x 4.274490 0.000000 0.103760 
#    y 0.000000 4.720510 0.000000 
#    z 0.103760 0.000000 2.879410 
# 
# 
# High freq. dielectric constant tensor:
#      x y z
#    x 1.930000 0.000000 0.002480 
#    y 0.000000 1.945170 0.000000 
#    z 0.002480 0.000000 1.889430 
# 
# From -- ./inp_files/38427.got.cif
#   From: 2010.03.12/outbox.cif.g09.slc.cpg/sg5_20_cif.got.tgz:38427.got - 2010.03.31 09:47:26.
