data_PCOD8050962
_publ_section_title
;
Structure prediction by ZEFSAII (Michael W. Deem and Ramdas Pophale) SiO2 
 PCOD8050962
Probable space group: C 2
;
_chemical_formula_sum "Si O2"
_cell_formula_units_Z 32
_cell_length_a 12.111766
_cell_length_b 8.325360
_cell_length_c 14.131937
_cell_angle_alpha 90.000000
_cell_angle_beta 88.193910
_cell_angle_gamma 90.000000
_cell_volume 1424.283300
_symmetry_space_group_name_H-M "C 2"
_symmetry_group_IT_number 5
_symmetry_cell_setting 'monoclinic'
loop_
_space_group_symop_operation_xyz
x,y,z
-x,y,-z
1/2+x,1/2+y,z
1/2-x,1/2+y,-z
loop_
_atom_site_type_symbol
_atom_site_label
_atom_site_fract_x
_atom_site_fract_y
_atom_site_fract_z
Si Si1 0.611027 0.320940 0.248383
Si Si2 0.609870 0.181971 0.446712
Si Si3 0.986959 0.325417 0.818035
Si Si4 0.796957 0.209061 0.121126
Si Si5 0.037984 0.128774 0.351347
Si Si6 0.542181 0.165881 0.892447
Si Si7 0.660017 0.533455 0.522893
Si Si8 0.261400 0.846863 0.923888
O O1 0.582463 0.203547 0.336838
O O2 0.736413 0.282948 0.214547
O O3 0.596000 0.504639 0.278073
O O4 0.535774 0.290929 0.158812
O O5 0.500000 0.111981 0.500000
O O6 0.642923 0.351602 0.491173
O O7 0.711592 0.060348 0.458267
O O8 0.972838 0.296433 0.705250
O O9 0.872559 0.289046 0.871751
O O10 0.073695 0.197228 0.858280
O O11 0.036918 0.500640 0.834869
O O12 0.753934 0.033256 0.097647
O O13 0.774016 0.330269 0.035617
O O14 0.116744 0.151615 0.440403
O O15 0.915831 0.065515 0.383272
O O16 0.664915 0.235303 0.886097
O O17 0.500000 0.139007 0.000000
#
# Coordination Sequence:
#
# PCOD8050962 Si02
#       8
#     4   4   4   4   4   4   4   4
#     4  11  23  46  75 100 142 192 235 288 362 425
#     4  11  23  47  74 104 143 182 229 292 356 427
#     4  12  26  44  69 104 138 186 246 291 352 428
#     4  12  25  45  69 100 142 187 244 293 359 417
#     4  10  23  46  72 105 144 187 235 296 353 438
#     4  12  25  48  68  99 146 186 243 303 351 420
#     4  10  22  49  73 104 148 179 230 293 362 420
#     4  12  26  46  69 100 142 190 238 305 351 417
#
# _framework density 22.467438999999999
#
# number of rings (size 3 to 8) (size 9 to 14) (size 15 to 20)
#    0.000    0.750    5.000    3.375    3.500    3.000 
#    9.000    0.000    0.000    0.000    0.000    0.000 
#    0.000    0.000    0.000    0.000    0.000    0.000 
#
# Total GULP energy -198458.556580 kJ/mol
# GULP energy per Si atom -12403.659786 kJ/mol
# Density = 2.241630 g / cm^3
# Si number density = 22.467439 Si / 1000 Ang^3
#
#
#
# Elastic Constant Matrix: (Units=GPa)
#
#
# Indices 1 2 3 4 5 6 
#
# 1 161.0208 38.8917 29.2033 0.0000 -13.9118 0.0000
# 2 38.8917 73.5064 48.0519 0.0000 -14.4615 0.0000
# 3 29.2033 48.0519 90.4820 0.0000 -13.4527 0.0000
# 4 0.0000 0.0000 0.0000 32.5306 0.0000 1.9895
# 5 -13.9118 -14.4615 -13.4527 0.0000 39.0390 0.0000
# 6 0.0000 0.0000 0.0000 1.9895 0.0000 37.0906
#
#
#
# Elastic Compliance Matrix: (Units=1/GPa)
#
#
# Indices 1 2 3 4 5 6 
#
# 1 0.007184 -0.003317 -0.000378 0.000000 0.001201 0.000000
# 2 -0.003317 0.023018 -0.010605 0.000000 0.003690 0.000000
# 3 -0.000378 -0.010605 0.017077 0.000000 0.001821 0.000000
# 4 0.000000 0.000000 0.000000 0.030841 0.000000 -0.001654
# 5 0.001201 0.003690 0.001821 0.000000 0.028038 0.000000
# 6 0.000000 0.000000 0.000000 -0.001654 0.000000 0.027050
#
#
# Mechanical properties :
#
#
# Convention : Reuss Voigt Hill
#
# Bulk Modulus (GPa) = 53.54004 61.92256 57.73130
# Shear Modulus (GPa) = 29.75585 35.65619 32.70602
#
# Velocity S-wave (km/s) = 3.64318 3.98806 3.81951
# Velocity P-wave (km/s) = 6.44816 6.98763 6.72331
#
# Compressibility (1/GPa) = 0.01867761
#
# Stress axis : x y z
#
# Youngs Moduli (GPa) = 139.19803 43.44463 58.55979
#
# Poissons Ratio (x) = 0.14412 0.02216
# Poissons Ratio (y) = 0.46178 0.62100
# Poissons Ratio (z) = 0.05267 0.46071
#
# Static dielectric constant tensor:
#      x y z
#    x 4.307540 0.000000 0.049180 
#    y 0.000000 3.815090 0.000000 
#    z 0.049180 0.000000 4.256750 
# 
# 
# High freq. dielectric constant tensor:
#      x y z
#    x 1.898640 0.000000 0.000360 
#    y 0.000000 1.873950 0.000000 
#    z 0.000360 0.000000 1.894100 
# 
# From -- ./inp_files/52459.got.cif
#   From: 2010.03.12/outbox.cif.g09.slc.cpg/sg5_27_cif.got.tgz:52459.got - 2010.03.31 09:47:26.
