data_PCOD8050730
_publ_section_title
;
Structure prediction by ZEFSAII (Michael W. Deem and Ramdas Pophale) SiO2 
 PCOD8050730
Probable space group: C 2
;
_chemical_formula_sum "Si O2"
_cell_formula_units_Z 28
_cell_length_a 15.373304
_cell_length_b 8.921121
_cell_length_c 10.897298
_cell_angle_alpha 90.000000
_cell_angle_beta 117.642380
_cell_angle_gamma 90.000000
_cell_volume 1323.947864
_symmetry_space_group_name_H-M "C 2"
_symmetry_group_IT_number 5
_symmetry_cell_setting 'monoclinic'
loop_
_space_group_symop_operation_xyz
x,y,z
-x,y,-z
1/2+x,1/2+y,z
1/2-x,1/2+y,-z
loop_
_atom_site_type_symbol
_atom_site_label
_atom_site_fract_x
_atom_site_fract_y
_atom_site_fract_z
Si Si1 0.369193 0.954250 0.528632
Si Si2 0.349723 0.305950 0.246710
Si Si3 0.142247 0.364219 0.005159
Si Si4 0.907152 0.467312 0.280819
Si Si5 0.000000 0.114592 0.000000
Si Si6 0.034543 0.868290 0.218418
Si Si7 0.695543 0.286770 0.509585
Si Si8 0.000000 0.615989 0.000000
O O1 0.379673 0.898857 0.394912
O O2 0.475370 0.979449 0.658523
O O3 0.309788 0.830277 0.566603
O O4 0.310079 0.108545 0.498351
O O5 0.443896 0.387477 0.251826
O O6 0.344131 0.347248 0.386467
O O7 0.358788 0.128967 0.234441
O O8 0.255596 0.366937 0.114012
O O9 0.134882 0.360699 0.852542
O O10 0.092521 0.214787 0.023724
O O11 0.093153 0.513352 0.028515
O O12 0.960924 0.013759 0.863508
O O13 0.134287 0.863685 0.360907
O O14 0.025744 0.716981 0.133661
#
# Coordination Sequence:
#
# PCOD8050730 Si02
#       8
#     4   4   4   4   2   4   4   2
#     4  10  23  43  71  95 125 172 222 267 331 390
#     4  11  24  39  68  96 126 173 223 262 323 388
#     4  11  24  42  68  95 132 173 220 271 323 392
#     4  10  22  46  68  92 130 174 217 268 325 397
#     4  10  28  40  64 100 136 166 220 280 324 372
#     4  11  23  44  65  97 136 169 216 274 326 390
#     4  11  24  41  69  93 128 172 219 268 323 387
#     4  10  22  42  70  92 128 180 222 256 336 398
#
# _framework density 21.148869000000001
#
# number of rings (size 3 to 8) (size 9 to 14) (size 15 to 20)
#    0.000    1.429    2.857    0.429   12.000    1.143 
#    2.571    0.000    0.000    0.000    0.000    0.000 
#    0.000    0.000    0.000    0.000    0.000    0.000 
#
# Total GULP energy -173679.704713 kJ/mol
# GULP energy per Si atom -12405.693194 kJ/mol
# Density = 2.110073 g / cm^3
# Si number density = 21.148869 Si / 1000 Ang^3
#
#
#
# Elastic Constant Matrix: (Units=GPa)
#
#
# Indices 1 2 3 4 5 6 
#
# 1 105.4769 39.9180 41.3976 0.0000 -5.4067 0.0000
# 2 39.9180 83.0961 38.3359 0.0000 -6.4846 0.0000
# 3 41.3976 38.3359 123.3934 0.0000 -9.2288 0.0000
# 4 0.0000 0.0000 0.0000 29.2838 0.0000 -1.6380
# 5 -5.4067 -6.4846 -9.2288 0.0000 38.6850 0.0000
# 6 0.0000 0.0000 0.0000 -1.6380 0.0000 31.5199
#
#
#
# Elastic Compliance Matrix: (Units=1/GPa)
#
#
# Indices 1 2 3 4 5 6 
#
# 1 0.012303 -0.004661 -0.002657 0.000000 0.000304 0.000000
# 2 -0.004661 0.015882 -0.003279 0.000000 0.001229 0.000000
# 3 -0.002657 -0.003279 0.010126 0.000000 0.001495 0.000000
# 4 0.000000 0.000000 0.000000 0.034248 0.000000 0.001780
# 5 0.000304 0.001229 0.001495 0.000000 0.026455 0.000000
# 6 0.000000 0.000000 0.000000 0.001780 0.000000 0.031818
#
#
# Mechanical properties :
#
#
# Convention : Reuss Voigt Hill
#
# Bulk Modulus (GPa) = 58.41699 61.25216 59.83457
# Shear Modulus (GPa) = 31.69972 32.71874 32.20923
#
# Velocity S-wave (km/s) = 3.87574 3.93755 3.90677
# Velocity P-wave (km/s) = 6.90726 7.04965 6.97882
#
# Compressibility (1/GPa) = 0.01711831
#
# Stress axis : x y z
#
# Youngs Moduli (GPa) = 81.28141 62.96589 98.75678
#
# Poissons Ratio (x) = 0.29346 0.26238
# Poissons Ratio (y) = 0.37883 0.32378
# Poissons Ratio (z) = 0.21595 0.20644
#
# Static dielectric constant tensor:
#      x y z
#    x 3.952630 0.000000 -0.220610 
#    y 0.000000 3.657230 0.000000 
#    z -0.220610 0.000000 3.937720 
# 
# 
# High freq. dielectric constant tensor:
#      x y z
#    x 1.839190 0.000000 -0.009380 
#    y 0.000000 1.813860 0.000000 
#    z -0.009380 0.000000 1.841720 
# 
# From -- ./inp_files/41657.got.cif
#   From: 2010.03.12/outbox.cif.g09.slc.cpg/sg5_21_cif.got.tgz:41657.got - 2010.03.31 09:47:26.
