data_PCOD8050918
_publ_section_title
;
Structure prediction by ZEFSAII (Michael W. Deem and Ramdas Pophale) SiO2 
 PCOD8050918
Probable space group: C 2
;
_chemical_formula_sum "Si O2"
_cell_formula_units_Z 28
_cell_length_a 25.387799
_cell_length_b 4.899186
_cell_length_c 9.083742
_cell_angle_alpha 90.000000
_cell_angle_beta 78.561293
_cell_angle_gamma 90.000000
_cell_volume 1107.390365
_symmetry_space_group_name_H-M "C 2"
_symmetry_group_IT_number 5
_symmetry_cell_setting 'monoclinic'
loop_
_space_group_symop_operation_xyz
x,y,z
-x,y,-z
1/2+x,1/2+y,z
1/2-x,1/2+y,-z
loop_
_atom_site_type_symbol
_atom_site_label
_atom_site_fract_x
_atom_site_fract_y
_atom_site_fract_z
Si Si1 0.127061 0.791530 0.603114
Si Si2 0.732563 0.969868 0.594148
Si Si3 0.564983 0.768035 0.697196
Si Si4 0.100203 0.897462 0.296584
Si Si5 0.500000 0.470156 0.500000
Si Si6 0.000000 0.350216 0.000000
Si Si7 0.609392 0.920244 0.092768
Si Si8 0.773864 0.385641 0.070739
O O1 0.177844 0.635981 0.634453
O O2 0.076665 0.588553 0.667570
O O3 0.135380 0.862474 0.425872
O O4 0.117210 0.074466 0.698866
O O5 0.773816 0.183049 0.491550
O O6 0.749630 0.906274 0.751054
O O7 0.543685 0.660206 0.553917
O O8 0.520326 0.690371 0.845084
O O9 0.125206 0.700577 0.161945
O O10 0.099726 0.199144 0.226733
O O11 0.038039 0.800863 0.366914
O O12 0.943583 0.492062 0.978652
O O13 0.661105 0.840497 0.964596
O O14 0.741417 0.150211 0.010655
#
# Coordination Sequence:
#
# PCOD8050918 Si02
#       8
#     4   4   4   4   2   2   4   4
#     4  11  26  46  74 104 149 191 254 310 384 443
#     4  12  28  50  81 114 148 197 264 333 394 460
#     4  11  25  43  71 100 151 190 241 300 371 453
#     4  11  25  43  76 109 146 197 253 311 366 464
#     4  10  22  46  64 108 140 188 242 296 358 432
#     4  12  28  46  74 112 156 198 248 308 382 474
#     4  12  28  47  76 111 155 200 252 307 396 448
#     4  12  29  54  81 115 160 204 262 326 394 469
#
# _framework density 25.284669000000001
#
# number of rings (size 3 to 8) (size 9 to 14) (size 15 to 20)
#    0.000    0.571    1.429    5.143   10.000    5.714 
#    0.000    0.000    0.000    0.000    0.000    0.000 
#    0.000    0.000    0.000    0.000    0.000    0.000 
#
# Total GULP energy -173449.250037 kJ/mol
# GULP energy per Si atom -12389.232146 kJ/mol
# Density = 2.522712 g / cm^3
# Si number density = 25.284669 Si / 1000 Ang^3
#
#
#
# Elastic Constant Matrix: (Units=GPa)
#
#
# Indices 1 2 3 4 5 6 
#
# 1 86.9214 1.6641 38.8674 0.0000 -8.1841 0.0000
# 2 1.6641 105.6267 42.9635 0.0000 12.9384 0.0000
# 3 38.8674 42.9635 150.4603 0.0000 -0.8317 0.0000
# 4 0.0000 0.0000 0.0000 24.1100 0.0000 -4.2837
# 5 -8.1841 12.9384 -0.8317 0.0000 46.1064 0.0000
# 6 0.0000 0.0000 0.0000 -4.2837 0.0000 30.3325
#
#
#
# Elastic Compliance Matrix: (Units=1/GPa)
#
#
# Indices 1 2 3 4 5 6 
#
# 1 0.013345 0.001066 -0.003741 0.000000 0.002002 0.000000
# 2 0.001066 0.011247 -0.003504 0.000000 -0.003030 0.000000
# 3 -0.003741 -0.003504 0.008616 0.000000 0.000475 0.000000
# 4 0.000000 0.000000 0.000000 0.042544 0.000000 0.006008
# 5 0.002002 -0.003030 0.000475 0.000000 0.022903 0.000000
# 6 0.000000 0.000000 0.000000 0.006008 0.000000 0.033816
#
#
# Mechanical properties :
#
#
# Convention : Reuss Voigt Hill
#
# Bulk Modulus (GPa) = 47.95886 56.66648 52.31267
# Shear Modulus (GPa) = 32.94268 37.41066 35.17667
#
# Velocity S-wave (km/s) = 3.61345 3.85070 3.73396
# Velocity P-wave (km/s) = 6.03474 6.49851 6.27091
#
# Compressibility (1/GPa) = 0.02085120
#
# Stress axis : x y z
#
# Youngs Moduli (GPa) = 74.93171 88.91457 116.06754
#
# Poissons Ratio (x) = -0.09479 0.43418
# Poissons Ratio (y) = -0.07988 0.40666
# Poissons Ratio (z) = 0.28030 0.31152
#
# Static dielectric constant tensor:
#      x y z
#    x 4.691050 0.000000 -0.174960 
#    y 0.000000 4.561670 0.000000 
#    z -0.174960 0.000000 4.776490 
# 
# 
# High freq. dielectric constant tensor:
#      x y z
#    x 2.019350 0.000000 -0.011830 
#    y 0.000000 1.998400 0.000000 
#    z -0.011830 0.000000 2.020490 
# 
# From -- ./inp_files/31387.got.cif
#   From: 2010.03.12/outbox.cif.g09.slc.cpg/sg5_16_cif.got.tgz:31387.got - 2010.03.31 09:47:26.
