data_PCOD8050500
_publ_section_title
;
Structure prediction by ZEFSAII (Michael W. Deem and Ramdas Pophale) SiO2 
 PCOD8050500
Probable space group: C 2
;
_chemical_formula_sum "Si O2"
_cell_formula_units_Z 32
_cell_length_a 30.674937
_cell_length_b 8.547365
_cell_length_c 11.265006
_cell_angle_alpha 90.000000
_cell_angle_beta 31.839045
_cell_angle_gamma 90.000000
_cell_volume 1558.111408
_symmetry_space_group_name_H-M "C 2"
_symmetry_group_IT_number 5
_symmetry_cell_setting 'monoclinic'
loop_
_space_group_symop_operation_xyz
x,y,z
-x,y,-z
1/2+x,1/2+y,z
1/2-x,1/2+y,-z
loop_
_atom_site_type_symbol
_atom_site_label
_atom_site_fract_x
_atom_site_fract_y
_atom_site_fract_z
Si Si1 0.370779 0.869880 0.788015
Si Si2 0.873718 0.202921 0.546147
Si Si3 0.223777 0.197987 0.652400
Si Si4 0.056599 0.193334 0.167906
Si Si5 0.750474 0.844631 0.342814
Si Si6 0.913872 0.697443 0.583842
Si Si7 0.417524 0.340990 0.822837
Si Si8 0.702337 0.373358 0.308516
O O1 0.353386 0.734549 0.731465
O O2 0.433614 0.808610 0.742706
O O3 0.410233 0.018677 0.632469
O O4 0.284934 0.916750 0.046948
O O5 0.822017 0.321234 0.584706
O O6 0.971095 0.230944 0.299425
O O7 0.854457 0.025317 0.555635
O O8 0.236093 0.230484 0.486184
O O9 0.277863 0.319125 0.603935
O O10 0.253644 0.023496 0.609338
O O11 0.127820 0.217890 0.906614
O O12 0.056958 0.019252 0.218714
O O13 0.838503 0.795554 0.084175
O O14 0.896122 0.814954 0.734213
O O15 0.845391 0.730048 0.643056
O O16 0.005696 0.729083 0.319082
#
# Coordination Sequence:
#
# PCOD8050500 Si02
#       8
#     4   4   4   4   4   4   4   4
#     4  11  23  36  60  98 132 164 200 258 309 366
#     4  12  23  38  63  92 127 164 208 252 309 373
#     4  10  24  45  68  87 120 164 212 262 310 365
#     4  10  23  42  63  91 127 167 206 250 312 373
#     4  11  23  44  66  90 119 163 215 259 311 365
#     4  11  22  37  62  96 131 163 207 252 309 370
#     4  10  22  40  62  89 127 169 201 249 308 376
#     4  11  21  40  64  93 124 167 211 251 306 372
#
# _framework density 20.537683999999999
#
# number of rings (size 3 to 8) (size 9 to 14) (size 15 to 20)
#    0.000    1.250    1.250    4.875    5.250    3.500 
#    0.000    0.625    2.750    0.000    0.000    0.000 
#    0.000    0.000    0.000    0.000    0.000    0.000 
#
# Total GULP energy -198483.553397 kJ/mol
# GULP energy per Si atom -12405.222087 kJ/mol
# Density = 2.049094 g / cm^3
# Si number density = 20.537684 Si / 1000 Ang^3
#
#
#
# Elastic Constant Matrix: (Units=GPa)
#
#
# Indices 1 2 3 4 5 6 
#
# 1 95.3200 37.3168 72.5401 0.0000 -15.3079 0.0000
# 2 37.3168 99.6559 56.3019 0.0000 -11.9094 0.0000
# 3 72.5401 56.3019 119.8700 0.0000 -11.0169 0.0000
# 4 0.0000 0.0000 0.0000 32.8883 0.0000 -2.2581
# 5 -15.3079 -11.9094 -11.0169 0.0000 35.0072 0.0000
# 6 0.0000 0.0000 0.0000 -2.2581 0.0000 36.7046
#
#
#
# Elastic Compliance Matrix: (Units=1/GPa)
#
#
# Indices 1 2 3 4 5 6 
#
# 1 0.020328 -0.000434 -0.011631 0.000000 0.005081 0.000000
# 2 -0.000434 0.013922 -0.006033 0.000000 0.002648 0.000000
# 3 -0.011631 -0.006033 0.018082 0.000000 -0.001448 0.000000
# 4 0.000000 0.000000 0.000000 0.030535 0.000000 0.001879
# 5 0.005081 0.002648 -0.001448 0.000000 0.031233 0.000000
# 6 0.000000 0.000000 0.000000 0.001879 0.000000 0.027360
#
#
# Mechanical properties :
#
#
# Convention : Reuss Voigt Hill
#
# Bulk Modulus (GPa) = 61.97371 71.90707 66.94039
# Shear Modulus (GPa) = 27.31736 30.83249 29.07493
#
# Velocity S-wave (km/s) = 3.65102 3.87882 3.76664
# Velocity P-wave (km/s) = 6.92924 7.42621 7.18203
#
# Compressibility (1/GPa) = 0.01613587
#
# Stress axis : x y z
#
# Youngs Moduli (GPa) = 49.19271 71.82931 55.30480
#
# Poissons Ratio (x) = 0.03115 0.64325
# Poissons Ratio (y) = 0.02133 0.33366
# Poissons Ratio (z) = 0.57216 0.43336
#
# Static dielectric constant tensor:
#      x y z
#    x 3.772590 0.000000 -0.168420 
#    y 0.000000 3.682080 0.000000 
#    z -0.168420 0.000000 3.792040 
# 
# 
# High freq. dielectric constant tensor:
#      x y z
#    x 1.799000 0.000000 -0.016220 
#    y 0.000000 1.812940 0.000000 
#    z -0.016220 0.000000 1.804440 
# 
# From -- ./inp_files/48398.got.cif
#   From: 2010.03.12/outbox.cif.g09.slc.cpg/sg5_25_cif.got.tgz:48398.got - 2010.03.31 09:47:26.
