data_PCOD8050352
_publ_section_title
;
Structure prediction by ZEFSAII (Michael W. Deem and Ramdas Pophale) SiO2 
 PCOD8050352
Probable space group: C 2
;
_chemical_formula_sum "Si O2"
_cell_formula_units_Z 24
_cell_length_a 9.790225
_cell_length_b 16.532728
_cell_length_c 8.511633
_cell_angle_alpha 90.000000
_cell_angle_beta 70.364449
_cell_angle_gamma 90.000000
_cell_volume 1297.571877
_symmetry_space_group_name_H-M "C 2"
_symmetry_group_IT_number 5
_symmetry_cell_setting 'monoclinic'
loop_
_space_group_symop_operation_xyz
x,y,z
-x,y,-z
1/2+x,1/2+y,z
1/2-x,1/2+y,-z
loop_
_atom_site_type_symbol
_atom_site_label
_atom_site_fract_x
_atom_site_fract_y
_atom_site_fract_z
Si Si1 0.138866 0.484590 0.838601
Si Si2 0.082856 0.189154 0.316836
Si Si3 0.135313 0.061596 0.038843
Si Si4 0.639667 0.141545 0.639318
Si Si5 0.408894 0.805802 0.192266
Si Si6 0.184754 0.667361 0.266923
O O1 0.282362 0.493994 0.891190
O O2 0.138924 0.550148 0.701383
O O3 0.140397 0.397352 0.754386
O O4 0.000000 0.497702 0.000000
O O5 0.062636 0.129858 0.177265
O O6 0.252794 0.196964 0.296370
O O7 0.000000 0.152829 0.500000
O O8 0.010330 0.274713 0.296600
O O9 0.248483 0.101553 0.875311
O O10 0.000000 0.020720 0.000000
O O11 0.695577 0.134835 0.439944
O O12 0.482397 0.182336 0.715186
O O13 0.265215 0.752801 0.225323
O O14 0.500000 0.802135 0.000000
#
# Coordination Sequence:
#
# PCOD8050352 Si02
#       6
#     4   4   4   4   4   4
#     4  10  22  38  57  87 121 151 193 245 300 335
#     4  11  19  35  60  90 110 152 202 236 283 352
#     4  11  19  36  63  86 113 158 198 238 282 357
#     4  10  22  35  61  86 114 157 196 241 280 353
#     4  11  21  39  59  85 119 153 189 252 292 339
#     4  11  19  38  60  86 117 152 201 237 287 344
#
# _framework density 18.496085000000001
#
# number of rings (size 3 to 8) (size 9 to 14) (size 15 to 20)
#    0.000    1.333    6.667    0.000    0.000    0.000 
#    3.000    3.333   22.000    0.000    0.000    0.000 
#    0.000    0.000    0.000    0.000    0.000    0.000 
#
# Total GULP energy -148799.448883 kJ/mol
# GULP energy per Si atom -12399.954074 kJ/mol
# Density = 1.845399 g / cm^3
# Si number density = 18.496085 Si / 1000 Ang^3
#
#
#
# Elastic Constant Matrix: (Units=GPa)
#
#
# Indices 1 2 3 4 5 6 
#
# 1 142.9312 70.7076 22.7351 0.0000 14.4340 0.0000
# 2 70.7076 121.0508 34.8335 0.0000 2.4664 0.0000
# 3 22.7351 34.8335 80.0565 0.0000 -2.1288 0.0000
# 4 0.0000 0.0000 0.0000 2.0503 0.0000 5.9971
# 5 14.4340 2.4664 -2.1288 0.0000 26.7754 0.0000
# 6 0.0000 0.0000 0.0000 5.9971 0.0000 30.1592
#
#
#
# Elastic Compliance Matrix: (Units=1/GPa)
#
#
# Indices 1 2 3 4 5 6 
#
# 1 0.010514 -0.005873 -0.000568 0.000000 -0.005172 0.000000
# 2 -0.005873 0.012762 -0.003840 0.000000 0.001685 0.000000
# 3 -0.000568 -0.003840 0.014371 0.000000 0.001803 0.000000
# 4 0.000000 0.000000 0.000000 1.165778 0.000000 -0.231814
# 5 -0.005172 0.001685 0.001803 0.000000 0.040124 0.000000
# 6 0.000000 0.000000 0.000000 -0.231814 0.000000 0.079254
#
#
# Mechanical properties :
#
#
# Convention : Reuss Voigt Hill
#
# Bulk Modulus (GPa) = 58.52960 66.73232 62.63096
# Shear Modulus (GPa) = 3.70628 26.18114 14.94371
#
# Velocity S-wave (km/s) = 1.41710 3.76639 2.84551
# Velocity P-wave (km/s) = 5.86435 7.42103 6.68814
#
# Compressibility (1/GPa) = 0.01708537
#
# Stress axis : x y z
#
# Youngs Moduli (GPa) = 95.10902 78.35728 69.58234
#
# Poissons Ratio (x) = 0.46016 0.03954
# Poissons Ratio (y) = 0.55854 0.26722
# Poissons Ratio (z) = 0.05404 0.30092
#
# Static dielectric constant tensor:
#      x y z
#    x 4.049400 0.000000 -0.065630 
#    y 0.000000 3.218640 0.000000 
#    z -0.065630 0.000000 3.556380 
# 
# 
# High freq. dielectric constant tensor:
#      x y z
#    x 1.739640 0.000000 0.001350 
#    y 0.000000 1.678290 0.000000 
#    z 0.001350 0.000000 1.729330 
# 
# From -- ./inp_files/15665.got.cif
#   From: 2010.03.12/outbox.cif.g09.slc.cpg/sg5_8_cif.got.tgz:15665.got - 2010.03.31 09:47:26.
