data_PCOD8050156
_publ_section_title
;
Structure prediction by ZEFSAII (Michael W. Deem and Ramdas Pophale) SiO2 
 PCOD8050156
Probable space group: C 2
;
_chemical_formula_sum "Si O2"
_cell_formula_units_Z 24
_cell_length_a 14.688655
_cell_length_b 9.956802
_cell_length_c 11.914759
_cell_angle_alpha 90.000000
_cell_angle_beta 137.516972
_cell_angle_gamma 90.000000
_cell_volume 1176.874292
_symmetry_space_group_name_H-M "C 2"
_symmetry_group_IT_number 5
_symmetry_cell_setting 'monoclinic'
loop_
_space_group_symop_operation_xyz
x,y,z
-x,y,-z
1/2+x,1/2+y,z
1/2-x,1/2+y,-z
loop_
_atom_site_type_symbol
_atom_site_label
_atom_site_fract_x
_atom_site_fract_y
_atom_site_fract_z
Si Si1 0.583558 0.560620 0.468797
Si Si2 0.023357 0.347949 0.404539
Si Si3 0.871369 0.055122 0.080898
Si Si4 0.500000 0.713453 0.000000
Si Si5 0.000000 0.652230 0.000000
Si Si6 0.728159 0.271241 0.071710
Si Si7 0.626474 0.939853 0.268369
O O1 0.500000 0.509124 0.500000
O O2 0.621122 0.718975 0.516274
O O3 0.502070 0.547277 0.278831
O O4 0.715110 0.467458 0.587734
O O5 0.081679 0.435215 0.357354
O O6 0.000000 0.431682 0.500000
O O7 0.879717 0.285369 0.248479
O O8 0.741479 0.141257 0.003476
O O9 0.909447 0.115822 0.994045
O O10 0.818968 0.903818 0.033401
O O11 0.407390 0.805227 0.833408
O O12 0.874102 0.743940 0.919748
O O13 0.957258 0.563100 0.856036
#
# Coordination Sequence:
#
# PCOD8050156 Si02
#       7
#     4   4   4   2   2   4   4
#     4  10  22  39  65  94 132 175 221 273 338 394
#     4  10  21  41  63  93 131 174 215 283 333 391
#     4  11  24  42  68  98 133 180 225 285 335 397
#     4  11  23  42  66  94 134 180 226 286 330 400
#     4  11  23  38  68  96 128 184 226 272 332 412
#     4  11  23  42  66  98 133 174 227 273 337 405
#     4  11  22  40  69  97 133 179 229 273 342 399
#
# _framework density 20.393000000000001
#
# number of rings (size 3 to 8) (size 9 to 14) (size 15 to 20)
#    0.000    1.333    3.333    4.500    4.667    4.000 
#    0.000    0.000    0.000    0.000    0.000    0.000 
#    0.000    0.000    0.000    0.000    0.000    0.000 
#
# Total GULP energy -148714.787089 kJ/mol
# GULP energy per Si atom -12392.898924 kJ/mol
# Density = 2.034658 g / cm^3
# Si number density = 20.393000 Si / 1000 Ang^3
#
#
#
# Elastic Constant Matrix: (Units=GPa)
#
#
# Indices 1 2 3 4 5 6 
#
# 1 175.0614 48.5455 50.8204 0.0000 -5.0598 0.0000
# 2 48.5455 80.2462 41.3864 0.0000 4.9173 0.0000
# 3 50.8204 41.3864 74.1877 0.0000 -5.3122 0.0000
# 4 0.0000 0.0000 0.0000 15.7468 0.0000 1.5498
# 5 -5.0598 4.9173 -5.3122 0.0000 40.3130 0.0000
# 6 0.0000 0.0000 0.0000 1.5498 0.0000 33.5865
#
#
#
# Elastic Compliance Matrix: (Units=1/GPa)
#
#
# Indices 1 2 3 4 5 6 
#
# 1 0.007538 -0.002776 -0.003557 0.000000 0.000816 0.000000
# 2 -0.002776 0.019007 -0.008977 0.000000 -0.003850 0.000000
# 3 -0.003557 -0.008977 0.021170 0.000000 0.003438 0.000000
# 4 0.000000 0.000000 0.000000 0.063794 0.000000 -0.002944
# 5 0.000816 -0.003850 0.003438 0.000000 0.025831 0.000000
# 6 0.000000 0.000000 0.000000 -0.002944 0.000000 0.029910
#
#
# Mechanical properties :
#
#
# Convention : Reuss Voigt Hill
#
# Bulk Modulus (GPa) = 58.49626 67.88887 63.19256
# Shear Modulus (GPa) = 24.56174 30.51215 27.53694
#
# Velocity S-wave (km/s) = 3.47424 3.87228 3.67865
# Velocity P-wave (km/s) = 6.69631 7.30447 7.00699
#
# Compressibility (1/GPa) = 0.01709511
#
# Stress axis : x y z
#
# Youngs Moduli (GPa) = 132.65790 52.61272 47.23635
#
# Poissons Ratio (x) = 0.14605 0.16801
# Poissons Ratio (y) = 0.36824 0.42405
# Poissons Ratio (z) = 0.47185 0.47232
#
# Static dielectric constant tensor:
#      x y z
#    x 4.029560 0.000000 -0.145910 
#    y 0.000000 3.802440 0.000000 
#    z -0.145910 0.000000 3.902320 
# 
# 
# High freq. dielectric constant tensor:
#      x y z
#    x 1.811230 0.000000 -0.006620 
#    y 0.000000 1.785070 0.000000 
#    z -0.006620 0.000000 1.794290 
# 
# From -- ./inp_files/39302.got.cif
#   From: 2010.03.12/outbox.cif.g09.slc.cpg/sg5_20_cif.got.tgz:39302.got - 2010.03.31 09:47:26.
