data_PCOD8050023
_publ_section_title
;
Structure prediction by ZEFSAII (Michael W. Deem and Ramdas Pophale) SiO2 
 PCOD8050023
Probable space group: C 2
;
_chemical_formula_sum "Si O2"
_cell_formula_units_Z 30
_cell_length_a 16.678242
_cell_length_b 9.288740
_cell_length_c 13.915457
_cell_angle_alpha 90.000000
_cell_angle_beta 137.608295
_cell_angle_gamma 90.000000
_cell_volume 1453.417490
_symmetry_space_group_name_H-M "C 2"
_symmetry_group_IT_number 5
_symmetry_cell_setting 'monoclinic'
loop_
_space_group_symop_operation_xyz
x,y,z
-x,y,-z
1/2+x,1/2+y,z
1/2-x,1/2+y,-z
loop_
_atom_site_type_symbol
_atom_site_label
_atom_site_fract_x
_atom_site_fract_y
_atom_site_fract_z
Si Si1 0.881655 0.427880 0.694681
Si Si2 0.721005 0.198743 0.088696
Si Si3 0.634985 0.775573 0.128572
Si Si4 0.794401 0.147549 0.521222
Si Si5 0.319219 0.495475 0.731432
Si Si6 0.000000 0.812605 0.000000
Si Si7 0.132586 0.252141 0.603016
Si Si8 0.660494 0.908760 0.949288
O O1 0.858698 0.406228 0.788443
O O2 0.800189 0.311106 0.565510
O O3 0.838843 0.587533 0.623060
O O4 0.021561 0.409049 0.795906
O O5 0.591309 0.214396 0.021609
O O6 0.816332 0.172925 0.257716
O O7 0.762343 0.339176 0.067038
O O8 0.713931 0.067718 0.008426
O O9 0.708990 0.636512 0.229186
O O10 0.500000 0.722759 0.000000
O O11 0.684161 0.826708 0.070149
O O12 0.866535 0.139282 0.484983
O O13 0.850209 0.042957 0.650337
O O14 0.205519 0.394058 0.638925
O O15 0.435404 0.411612 0.865944
O O16 0.000000 0.306475 0.500000
#
# Coordination Sequence:
#
# PCOD8050023 Si02
#       8
#     4   4   4   4   4   2   4   4
#     4  10  22  38  67  95 133 171 224 272 331 399
#     4  11  27  41  69  96 139 176 227 280 343 388
#     4   9  19  37  65  92 127 168 223 277 330 387
#     4  11  21  40  64  96 125 179 220 260 333 403
#     4  10  21  39  67  93 127 175 221 272 328 400
#     4  10  24  42  64 100 132 174 230 284 332 402
#     4  11  24  42  62  96 137 172 217 274 336 395
#     4  11  25  43  65  99 135 178 223 287 337 393
#
# _framework density 20.641006999999998
#
# number of rings (size 3 to 8) (size 9 to 14) (size 15 to 20)
#    0.000    1.600    2.000    1.600   10.267    1.067 
#    0.000    0.000    0.000    7.200    0.000    0.000 
#    0.000    0.000    0.000    0.000    0.000    0.000 
#
# Total GULP energy -185944.882685 kJ/mol
# GULP energy per Si atom -12396.325512 kJ/mol
# Density = 2.059403 g / cm^3
# Si number density = 20.641007 Si / 1000 Ang^3
#
#
#
# Elastic Constant Matrix: (Units=GPa)
#
#
# Indices 1 2 3 4 5 6 
#
# 1 109.9788 37.7459 59.5917 0.0000 -2.3383 0.0000
# 2 37.7459 94.8483 55.1653 0.0000 2.7127 0.0000
# 3 59.5917 55.1653 121.4487 0.0000 -3.1599 0.0000
# 4 0.0000 0.0000 0.0000 30.0239 0.0000 -17.1102
# 5 -2.3383 2.7127 -3.1599 0.0000 35.3888 0.0000
# 6 0.0000 0.0000 0.0000 -17.1102 0.0000 16.1529
#
#
#
# Elastic Compliance Matrix: (Units=1/GPa)
#
#
# Indices 1 2 3 4 5 6 
#
# 1 0.012651 -0.001966 -0.005301 0.000000 0.000513 0.000000
# 2 -0.001966 0.014735 -0.005774 0.000000 -0.001775 0.000000
# 3 -0.005301 -0.005774 0.013492 0.000000 0.001297 0.000000
# 4 0.000000 0.000000 0.000000 0.084035 0.000000 0.089015
# 5 0.000513 -0.001775 0.001297 0.000000 0.028543 0.000000
# 6 0.000000 0.000000 0.000000 0.089015 0.000000 0.156199
#
#
# Mechanical properties :
#
#
# Convention : Reuss Voigt Hill
#
# Bulk Modulus (GPa) = 67.59397 70.14239 68.86818
# Shear Modulus (GPa) = 14.67701 27.89798 21.28749
#
# Velocity S-wave (km/s) = 2.66946 3.68037 3.21490
# Velocity P-wave (km/s) = 6.50537 7.21914 6.87153
#
# Compressibility (1/GPa) = 0.01479422
#
# Stress axis : x y z
#
# Youngs Moduli (GPa) = 79.04733 67.86638 74.11999
#
# Poissons Ratio (x) = 0.13343 0.39291
# Poissons Ratio (y) = 0.15541 0.42800
# Poissons Ratio (z) = 0.41903 0.39189
#
# Static dielectric constant tensor:
#      x y z
#    x 3.605490 0.000000 -0.276860 
#    y 0.000000 3.702380 0.000000 
#    z -0.276860 0.000000 4.102260 
# 
# 
# High freq. dielectric constant tensor:
#      x y z
#    x 1.789580 0.000000 -0.025720 
#    y 0.000000 1.804230 0.000000 
#    z -0.025720 0.000000 1.823340 
# 
# From -- ./inp_files/44337.got.cif
#   From: 2010.03.12/outbox.cif.g09.slc.cpg/sg5_23_cif.got.tgz:44337.got - 2010.03.31 09:47:26.
