data_PCOD8050812
_publ_section_title
;
Structure prediction by ZEFSAII (Michael W. Deem and Ramdas Pophale) SiO2 
 PCOD8050812
Probable space group: C 2
;
_chemical_formula_sum "Si O2"
_cell_formula_units_Z 24
_cell_length_a 8.688600
_cell_length_b 17.342665
_cell_length_c 8.458510
_cell_angle_alpha 90.000000
_cell_angle_beta 123.063024
_cell_angle_gamma 90.000000
_cell_volume 1068.169821
_symmetry_space_group_name_H-M "C 2"
_symmetry_group_IT_number 5
_symmetry_cell_setting 'monoclinic'
loop_
_space_group_symop_operation_xyz
x,y,z
-x,y,-z
1/2+x,1/2+y,z
1/2-x,1/2+y,-z
loop_
_atom_site_type_symbol
_atom_site_label
_atom_site_fract_x
_atom_site_fract_y
_atom_site_fract_z
Si Si1 0.696042 0.838400 0.195898
Si Si2 0.457005 0.477077 0.296475
Si Si3 0.813686 0.387779 0.447689
Si Si4 0.813753 0.227485 0.316416
Si Si5 0.649953 0.627081 0.955433
Si Si6 0.953372 0.689007 0.299810
O O1 0.794370 0.915551 0.188622
O O2 0.675071 0.847320 0.373532
O O3 0.833190 0.767653 0.237269
O O4 0.500000 0.828396 0.000000
O O5 0.500000 0.500975 0.500000
O O6 0.644434 0.444543 0.327850
O O7 0.395861 0.550862 0.165342
O O8 0.797810 0.319639 0.309932
O O9 0.000000 0.432793 0.500000
O O10 0.822478 0.201135 0.140649
O O11 0.639158 0.193309 0.306433
O O12 0.000000 0.196373 0.500000
O O13 0.500000 0.649518 0.000000
O O14 0.840849 0.619031 0.156730
O O15 0.000000 0.661405 0.500000
#
# Coordination Sequence:
#
# PCOD8050812 Si02
#       6
#     4   4   4   4   4   4
#     4  11  23  42  74 110 147 187 247 306 361 435
#     4  10  23  51  75 103 151 195 237 305 373 440
#     4  10  22  43  76 111 142 190 243 302 370 427
#     4  11  23  44  72 107 144 186 246 303 363 432
#     4  12  28  45  68 109 150 202 241 298 370 437
#     4  12  23  45  72 105 146 191 247 306 366 424
#
# _framework density 22.468337999999999
#
# number of rings (size 3 to 8) (size 9 to 14) (size 15 to 20)
#    0.000    1.000    3.333    3.000    7.000    2.667 
#    0.000    7.500    0.000    0.000    0.000    0.000 
#    0.000    0.000    0.000    0.000    0.000    0.000 
#
# Total GULP energy -148781.816080 kJ/mol
# GULP energy per Si atom -12398.484673 kJ/mol
# Density = 2.241720 g / cm^3
# Si number density = 22.468338 Si / 1000 Ang^3
#
#
#
# Elastic Constant Matrix: (Units=GPa)
#
#
# Indices 1 2 3 4 5 6 
#
# 1 191.0683 61.9121 66.7242 0.0000 16.5658 0.0000
# 2 61.9121 110.1786 74.4363 0.0000 -1.7811 0.0000
# 3 66.7242 74.4363 159.8385 0.0000 16.1644 0.0000
# 4 0.0000 0.0000 0.0000 43.1265 0.0000 -5.3617
# 5 16.5658 -1.7811 16.1644 0.0000 42.4510 0.0000
# 6 0.0000 0.0000 0.0000 -5.3617 0.0000 34.8460
#
#
#
# Elastic Compliance Matrix: (Units=1/GPa)
#
#
# Indices 1 2 3 4 5 6 
#
# 1 0.006852 -0.003088 -0.001184 0.000000 -0.002353 0.000000
# 2 -0.003088 0.015018 -0.006126 0.000000 0.004168 0.000000
# 3 -0.001184 -0.006126 0.009967 0.000000 -0.003590 0.000000
# 4 0.000000 0.000000 0.000000 0.023640 0.000000 0.003637
# 5 -0.002353 0.004168 -0.003590 0.000000 0.026016 0.000000
# 6 0.000000 0.000000 0.000000 0.003637 0.000000 0.029257
#
#
# Mechanical properties :
#
#
# Convention : Reuss Voigt Hill
#
# Bulk Modulus (GPa) = 90.58612 96.35894 93.47253
# Shear Modulus (GPa) = 36.97504 41.28554 39.13029
#
# Velocity S-wave (km/s) = 4.06106 4.29126 4.17775
# Velocity P-wave (km/s) = 7.89901 8.21784 8.06000
#
# Compressibility (1/GPa) = 0.01103922
#
# Stress axis : x y z
#
# Youngs Moduli (GPa) = 145.94421 66.58861 100.33551
#
# Poissons Ratio (x) = 0.20564 0.11882
# Poissons Ratio (y) = 0.45071 0.61465
# Poissons Ratio (z) = 0.17283 0.40792
#
# Static dielectric constant tensor:
#      x y z
#    x 4.472600 0.000000 0.173570 
#    y 0.000000 3.757210 0.000000 
#    z 0.173570 0.000000 4.331340 
# 
# 
# High freq. dielectric constant tensor:
#      x y z
#    x 1.913490 0.000000 0.005610 
#    y 0.000000 1.865280 0.000000 
#    z 0.005610 0.000000 1.895160 
# 
# From -- ./inp_files/16847.got.cif
#   From: 2010.03.12/outbox.cif.g09.slc.cpg/sg5_9_cif.got.tgz:16847.got - 2010.03.31 09:47:26.
