data_PCOD8050695
_publ_section_title
;
Structure prediction by ZEFSAII (Michael W. Deem and Ramdas Pophale) SiO2 
 PCOD8050695
Probable space group: C 2
;
_chemical_formula_sum "Si O2"
_cell_formula_units_Z 26
_cell_length_a 21.399285
_cell_length_b 9.743434
_cell_length_c 10.461668
_cell_angle_alpha 90.000000
_cell_angle_beta 147.562663
_cell_angle_gamma 90.000000
_cell_volume 1169.990411
_symmetry_space_group_name_H-M "C 2"
_symmetry_group_IT_number 5
_symmetry_cell_setting 'monoclinic'
loop_
_space_group_symop_operation_xyz
x,y,z
-x,y,-z
1/2+x,1/2+y,z
1/2-x,1/2+y,-z
loop_
_atom_site_type_symbol
_atom_site_label
_atom_site_fract_x
_atom_site_fract_y
_atom_site_fract_z
Si Si1 0.000000 0.853330 0.500000
Si Si2 0.500000 0.300655 0.000000
Si Si3 0.042715 0.973044 0.309024
Si Si4 0.827834 0.615472 0.573215
Si Si5 0.078250 0.238053 0.878289
Si Si6 0.333802 0.128789 0.296136
Si Si7 0.500000 0.902004 0.500000
Si Si8 0.201842 0.366069 0.307296
O O1 0.986291 0.945518 0.350188
O O2 0.885402 0.760069 0.313304
O O3 0.473371 0.391812 0.078636
O O4 0.607231 0.200956 0.206417
O O5 0.177672 0.926453 0.542468
O O6 0.022290 0.134213 0.245404
O O7 0.883530 0.620332 0.528032
O O8 0.824068 0.458716 0.613825
O O9 0.708075 0.704069 0.357762
O O10 0.025332 0.306303 0.662778
O O11 0.194356 0.145962 0.050728
O O12 0.104047 0.360722 0.026691
O O13 0.382178 0.992024 0.312599
#
# Coordination Sequence:
#
# PCOD8050695 Si02
#       8
#     2   2   4   4   4   4   2   4
#     4  11  19  46  68  92 139 181 228 286 340 428
#     4  10  22  42  66 104 130 186 234 274 370 412
#     4  11  24  42  71 100 136 185 236 281 355 427
#     4  10  22  43  67 101 139 180 232 287 358 412
#     4  11  25  45  67 101 135 183 232 289 351 410
#     4  10  24  44  66  96 138 182 227 290 347 420
#     4  11  27  44  64 102 135 175 248 276 350 422
#     4  10  24  45  68 102 143 180 232 290 354 417
#
# _framework density 22.222404999999998
#
# number of rings (size 3 to 8) (size 9 to 14) (size 15 to 20)
#    0.000    1.538    4.615    0.462   12.923    2.462 
#    0.000    0.000    0.000    0.000    0.000    0.000 
#    0.000    0.000    0.000    0.000    0.000    0.000 
#
# Total GULP energy -161063.226902 kJ/mol
# GULP energy per Si atom -12389.478992 kJ/mol
# Density = 2.217183 g / cm^3
# Si number density = 22.222405 Si / 1000 Ang^3
#
#
#
# Elastic Constant Matrix: (Units=GPa)
#
#
# Indices 1 2 3 4 5 6 
#
# 1 76.0757 15.1587 6.6915 0.0000 -15.0946 0.0000
# 2 15.1587 93.7844 12.8773 0.0000 -3.0263 0.0000
# 3 6.6915 12.8773 66.4873 0.0000 -17.7148 0.0000
# 4 0.0000 0.0000 0.0000 17.9567 0.0000 -8.7419
# 5 -15.0946 -3.0263 -17.7148 0.0000 31.0988 0.0000
# 6 0.0000 0.0000 0.0000 -8.7419 0.0000 48.3215
#
#
#
# Elastic Compliance Matrix: (Units=1/GPa)
#
#
# Indices 1 2 3 4 5 6 
#
# 1 0.015034 -0.002317 0.000966 0.000000 0.007622 0.000000
# 2 -0.002317 0.011312 -0.002315 0.000000 -0.001343 0.000000
# 3 0.000966 -0.002315 0.018222 0.000000 0.010624 0.000000
# 4 0.000000 0.000000 0.000000 0.061068 0.000000 0.011048
# 5 0.007622 -0.001343 0.010624 0.000000 0.041776 0.000000
# 6 0.000000 0.000000 0.000000 0.011048 0.000000 0.022693
#
#
# Mechanical properties :
#
#
# Convention : Reuss Voigt Hill
#
# Bulk Modulus (GPa) = 26.85542 33.97806 30.41674
# Shear Modulus (GPa) = 26.33674 32.91671 29.62672
#
# Velocity S-wave (km/s) = 3.44633 3.85286 3.65525
# Velocity P-wave (km/s) = 5.28652 5.92587 5.61530
#
# Compressibility (1/GPa) = 0.03723643
#
# Stress axis : x y z
#
# Youngs Moduli (GPa) = 66.51691 88.40307 54.87799
#
# Poissons Ratio (x) = 0.20481 -0.05304
# Poissons Ratio (y) = 0.15410 0.12707
# Poissons Ratio (z) = -0.06429 0.20469
#
# Static dielectric constant tensor:
#      x y z
#    x 4.589150 0.000000 -0.687550 
#    y 0.000000 4.204960 0.000000 
#    z -0.687550 0.000000 4.396610 
# 
# 
# High freq. dielectric constant tensor:
#      x y z
#    x 1.867760 0.000000 -0.017470 
#    y 0.000000 1.883500 0.000000 
#    z -0.017470 0.000000 1.866880 
# 
# From -- ./inp_files/47281.got.cif
#   From: 2010.03.12/outbox.cif.g09.slc.cpg/sg5_24_cif.got.tgz:47281.got - 2010.03.31 09:47:26.
