data_PCOD8050444
_publ_section_title
;
Structure prediction by ZEFSAII (Michael W. Deem and Ramdas Pophale) SiO2 
 PCOD8050444
Probable space group: C 2
;
_chemical_formula_sum "Si O2"
_cell_formula_units_Z 32
_cell_length_a 12.976317
_cell_length_b 5.032244
_cell_length_c 23.805578
_cell_angle_alpha 90.000000
_cell_angle_beta 75.326577
_cell_angle_gamma 90.000000
_cell_volume 1503.804488
_symmetry_space_group_name_H-M "C 2"
_symmetry_group_IT_number 5
_symmetry_cell_setting 'monoclinic'
loop_
_space_group_symop_operation_xyz
x,y,z
-x,y,-z
1/2+x,1/2+y,z
1/2-x,1/2+y,-z
loop_
_atom_site_type_symbol
_atom_site_label
_atom_site_fract_x
_atom_site_fract_y
_atom_site_fract_z
Si Si1 0.511932 0.408450 0.886225
Si Si2 0.823465 0.384477 0.499243
Si Si3 0.456801 0.868108 0.592227
Si Si4 0.214698 0.894760 0.037434
Si Si5 0.825059 0.354652 0.255290
Si Si6 0.462536 0.352296 0.243253
Si Si7 0.598302 0.367304 0.331740
Si Si8 0.149484 0.411039 0.874116
O O1 0.411545 0.358797 0.939910
O O2 0.480569 0.367901 0.825244
O O3 0.551212 0.707433 0.890693
O O4 0.604671 0.205584 0.891180
O O5 0.734538 0.603500 0.499240
O O6 0.872339 0.416025 0.554341
O O7 0.920845 0.407685 0.442397
O O8 0.445603 0.568573 0.615701
O O9 0.430501 0.070609 0.645562
O O10 0.264532 0.838981 0.091209
O O11 0.259389 0.691965 0.985519
O O12 0.917675 0.557795 0.260267
O O13 0.724508 0.403463 0.308893
O O14 0.793701 0.395518 0.194354
O O15 0.864147 0.055490 0.259670
O O16 0.548022 0.425367 0.278237
#
# Coordination Sequence:
#
# PCOD8050444 Si02
#       8
#     4   4   4   4   4   4   4   4
#     4  10  22  41  61  83 117 156 195 239 289 353
#     4  11  24  45  66  84 120 165 202 243 288 342
#     4  11  26  40  61  96 119 155 204 239 294 347
#     4  12  25  38  59  88 114 150 198 245 300 349
#     4  10  22  39  61  88 118 158 196 231 293 358
#     4  10  22  39  61  88 118 158 196 231 293 358
#     4  12  23  39  62  92 129 149 188 255 290 341
#     4  10  22  41  61  83 117 156 195 239 289 353
#
# _framework density 21.279361999999999
#
# number of rings (size 3 to 8) (size 9 to 14) (size 15 to 20)
#    0.000    1.250    0.000    5.250    0.000   11.000 
#    0.000   10.000    0.000    0.000    0.000    0.000 
#    0.000    0.000    0.000    0.000    0.000    0.000 
#
# Total GULP energy -198516.980827 kJ/mol
# GULP energy per Si atom -12407.311302 kJ/mol
# Density = 2.123093 g / cm^3
# Si number density = 21.279362 Si / 1000 Ang^3
#
#
#
# Elastic Constant Matrix: (Units=GPa)
#
#
# Indices 1 2 3 4 5 6 
#
# 1 68.8919 9.5448 30.3223 -0.0003 -7.4272 0.0000
# 2 9.5448 88.1118 22.9083 -0.0012 -4.6038 0.0002
# 3 30.3223 22.9083 67.1870 -0.0006 -11.5613 -0.0004
# 4 -0.0003 -0.0012 -0.0006 37.4855 -0.0005 0.4904
# 5 -7.4272 -4.6038 -11.5613 -0.0005 28.1530 -0.0003
# 6 0.0000 0.0002 -0.0004 0.4904 -0.0003 22.1405
#
#
#
# Elastic Compliance Matrix: (Units=1/GPa)
#
#
# Indices 1 2 3 4 5 6 
#
# 1 0.018178 0.000192 -0.008005 0.000000 0.001540 0.000000
# 2 0.000192 0.012458 -0.004277 0.000000 0.000331 0.000000
# 3 -0.008005 -0.004277 0.020952 0.000000 0.005793 0.000000
# 4 0.000000 0.000000 0.000000 0.026685 0.000001 -0.000591
# 5 0.001540 0.000331 0.005793 0.000001 0.038359 0.000001
# 6 0.000000 0.000000 0.000000 -0.000591 0.000001 0.045179
#
#
# Mechanical properties :
#
#
# Convention : Reuss Voigt Hill
#
# Bulk Modulus (GPa) = 36.48539 38.86016 37.67278
# Shear Modulus (GPa) = 25.62445 28.31684 26.97065
#
# Velocity S-wave (km/s) = 3.47391 3.65186 3.56400
# Velocity P-wave (km/s) = 5.76835 6.00691 5.88884
#
# Compressibility (1/GPa) = 0.02740823
#
# Stress axis : x y z
#
# Youngs Moduli (GPa) = 55.01149 80.27107 47.72887
#
# Poissons Ratio (x) = -0.01545 0.38205
# Poissons Ratio (y) = -0.01059 0.20416
# Poissons Ratio (z) = 0.44034 0.34336
#
# Static dielectric constant tensor:
#      x y z
#    x 3.638180 0.000000 0.054080 
#    y 0.000000 3.856070 0.000000 
#    z 0.054080 0.000000 3.844270 
# 
# 
# High freq. dielectric constant tensor:
#      x y z
#    x 1.832070 0.000000 0.001710 
#    y 0.000000 1.848100 0.000000 
#    z 0.001710 0.000000 1.840820 
# 
# From -- ./inp_files/68187.got.cif
#   From: 2010.03.12/outbox.cif.g09.slc.cpg/sg5_35_cif.got.tgz:68187.got - 2010.03.31 09:47:26.
