data_PCOD8050558
_publ_section_title
;
Structure prediction by ZEFSAII (Michael W. Deem and Ramdas Pophale) SiO2 
 PCOD8050558
Probable space group: C 2
;
_chemical_formula_sum "Si O2"
_cell_formula_units_Z 32
_cell_length_a 14.176612
_cell_length_b 8.882567
_cell_length_c 23.029788
_cell_angle_alpha 90.000000
_cell_angle_beta 28.327822
_cell_angle_gamma 90.000000
_cell_volume 1376.104680
_symmetry_space_group_name_H-M "C 2"
_symmetry_group_IT_number 5
_symmetry_cell_setting 'monoclinic'
loop_
_space_group_symop_operation_xyz
x,y,z
-x,y,-z
1/2+x,1/2+y,z
1/2-x,1/2+y,-z
loop_
_atom_site_type_symbol
_atom_site_label
_atom_site_fract_x
_atom_site_fract_y
_atom_site_fract_z
Si Si1 0.415045 0.699140 0.609283
Si Si2 0.023480 0.534255 0.271469
Si Si3 0.763001 0.687783 0.501154
Si Si4 0.829749 0.042860 0.937282
Si Si5 0.606661 0.717567 0.704237
Si Si6 0.518585 0.224413 0.160213
Si Si7 0.144142 0.852439 0.333320
Si Si8 0.599283 0.675860 0.887955
O O1 0.500000 0.735824 0.500000
O O2 0.571272 0.758654 0.572248
O O3 0.360689 0.523391 0.644142
O O4 0.203993 0.781647 0.735339
O O5 0.005184 0.663380 0.232881
O O6 0.234350 0.549942 0.188679
O O7 0.849199 0.555960 0.413783
O O8 0.998519 0.372130 0.257085
O O9 0.687776 0.626190 0.604294
O O10 0.928258 0.813712 0.424695
O O11 0.936151 0.117907 0.824961
O O12 0.935441 0.087508 0.940024
O O13 0.829048 0.864240 0.927203
O O14 0.601804 0.098178 0.069933
O O15 0.793589 0.749547 0.645278
O O16 0.308248 0.820441 0.194835
O O17 0.500000 0.739748 0.000000
#
# Coordination Sequence:
#
# PCOD8050558 Si02
#       8
#     4   4   4   4   4   4   4   4
#     4  12  24  45  71 105 143 193 236 300 358 427
#     4  11  22  42  74  97 141 187 231 296 358 427
#     4  11  23  39  67 107 141 180 236 289 355 423
#     4  11  27  45  71 101 142 187 240 300 359 430
#     4  11  23  45  70 103 138 189 237 294 360 432
#     4  12  25  46  72 103 138 188 242 291 363 423
#     4  10  22  42  70 100 140 194 239 285 365 433
#     4  10  22  40  69 102 134 182 237 296 359 423
#
# _framework density 23.254045000000001
#
# number of rings (size 3 to 8) (size 9 to 14) (size 15 to 20)
#    0.000    1.000    3.750    2.625    3.500    3.000 
#    2.250    0.625    0.000    0.000    0.000    0.000 
#    0.000    0.000    0.000    0.000    0.000    0.000 
#
# Total GULP energy -198419.127359 kJ/mol
# GULP energy per Si atom -12401.195460 kJ/mol
# Density = 2.320112 g / cm^3
# Si number density = 23.254045 Si / 1000 Ang^3
#
#
#
# Elastic Constant Matrix: (Units=GPa)
#
#
# Indices 1 2 3 4 5 6 
#
# 1 98.6763 9.7323 49.8619 0.0007 16.7007 0.0001
# 2 9.7323 72.7404 28.0314 -0.0006 12.8059 0.0001
# 3 49.8619 28.0314 155.4680 -0.0053 20.7115 0.0005
# 4 0.0007 -0.0006 -0.0053 28.4300 -0.0003 0.5871
# 5 16.7007 12.8059 20.7115 -0.0003 52.0929 0.0001
# 6 0.0001 0.0001 0.0005 0.5871 0.0001 24.8219
#
#
#
# Elastic Compliance Matrix: (Units=1/GPa)
#
#
# Indices 1 2 3 4 5 6 
#
# 1 0.012405 0.000208 -0.003674 -0.000001 -0.002567 0.000000
# 2 0.000208 0.015151 -0.002422 0.000000 -0.002828 0.000000
# 3 -0.003674 -0.002422 0.008248 0.000002 -0.001506 0.000000
# 4 -0.000001 0.000000 0.000002 0.035191 0.000000 -0.000832
# 5 -0.002567 -0.002828 -0.001506 0.000000 0.021314 0.000000
# 6 0.000000 0.000000 0.000000 -0.000832 0.000000 0.040307
#
#
# Mechanical properties :
#
#
# Convention : Reuss Voigt Hill
#
# Bulk Modulus (GPa) = 41.61783 55.79288 48.70535
# Shear Modulus (GPa) = 32.80853 37.01954 34.91403
#
# Velocity S-wave (km/s) = 3.76024 3.99427 3.87902
# Velocity P-wave (km/s) = 6.06534 6.73180 6.40724
#
# Compressibility (1/GPa) = 0.02402816
#
# Stress axis : x y z
#
# Youngs Moduli (GPa) = 80.61535 66.00294 121.24487
#
# Poissons Ratio (x) = -0.01373 0.44544
# Poissons Ratio (y) = -0.01677 0.29362
# Poissons Ratio (z) = 0.29617 0.15984
#
# Static dielectric constant tensor:
#      x y z
#    x 4.445570 0.000000 -0.020370 
#    y 0.000000 3.714660 0.000000 
#    z -0.020370 0.000000 4.629510 
# 
# 
# High freq. dielectric constant tensor:
#      x y z
#    x 1.926120 0.000000 0.000550 
#    y 0.000000 1.889170 0.000000 
#    z 0.000550 0.000000 1.944750 
# 
# From -- ./inp_files/68771.got.cif
#   From: 2010.03.12/outbox.cif.g09.slc.cpg/sg5_35_cif.got.tgz:68771.got - 2010.03.31 09:47:26.
