data_PCOD8050718
_publ_section_title
;
Structure prediction by ZEFSAII (Michael W. Deem and Ramdas Pophale) SiO2 
 PCOD8050718
Probable space group: C 2
;
_chemical_formula_sum "Si O2"
_cell_formula_units_Z 30
_cell_length_a 10.423546
_cell_length_b 21.176660
_cell_length_c 10.489501
_cell_angle_alpha 90.000000
_cell_angle_beta 38.640087
_cell_angle_gamma 90.000000
_cell_volume 1445.802333
_symmetry_space_group_name_H-M "C 2"
_symmetry_group_IT_number 5
_symmetry_cell_setting 'monoclinic'
loop_
_space_group_symop_operation_xyz
x,y,z
-x,y,-z
1/2+x,1/2+y,z
1/2-x,1/2+y,-z
loop_
_atom_site_type_symbol
_atom_site_label
_atom_site_fract_x
_atom_site_fract_y
_atom_site_fract_z
Si Si1 0.919985 0.262040 0.925640
Si Si2 0.533039 0.461754 0.106447
Si Si3 0.500000 0.004942 0.000000
Si Si4 0.067787 0.051938 0.306538
Si Si5 0.598415 0.688458 0.556468
Si Si6 0.468886 0.903194 0.826855
Si Si7 0.477108 0.236630 0.170165
Si Si8 0.712105 0.859564 0.407160
O O1 0.913066 0.337800 0.940625
O O2 0.062810 0.238743 0.697940
O O3 0.692999 0.236078 0.073743
O O4 0.000000 0.235581 0.000000
O O5 0.479443 0.504119 0.270167
O O6 0.362520 0.407770 0.221089
O O7 0.500000 0.501298 0.000000
O O8 0.757963 0.430871 0.934916
O O9 0.314436 0.050822 0.106108
O O10 0.429776 0.957151 0.165197
O O11 0.000000 0.030985 0.500000
O O12 0.994007 0.121745 0.328818
O O13 0.500000 0.713076 0.500000
O O14 0.841684 0.679097 0.334545
O O15 0.651908 0.889045 0.588469
O O16 0.338283 0.295438 0.320929
O O17 0.500000 0.232329 0.000000
O O18 0.500000 0.846908 0.500000
#
# Coordination Sequence:
#
# PCOD8050718 Si02
#       8
#     4   4   2   4   4   4   4   4
#     4  12  25  42  66 105 144 177 220 282 355 416
#     4  11  22  39  64  96 132 173 221 278 342 399
#     4  10  22  42  68  96 128 178 226 278 336 398
#     4  10  24  44  67  94 129 176 236 285 329 405
#     4  11  24  45  70  95 132 181 240 286 334 416
#     4  11  21  38  62  98 138 173 211 268 346 417
#     4  12  23  40  69 100 133 181 226 278 343 410
#     4  12  21  34  62  98 135 164 217 271 332 413
#
# _framework density 20.749724000000001
#
# number of rings (size 3 to 8) (size 9 to 14) (size 15 to 20)
#    0.000    0.800    6.000    2.400    0.000    3.200 
#    0.000    1.333    2.933    0.000    0.000    0.000 
#    0.000    0.000    0.000    0.000    0.000    0.000 
#
# Total GULP energy -185909.689907 kJ/mol
# GULP energy per Si atom -12393.979327 kJ/mol
# Density = 2.070250 g / cm^3
# Si number density = 20.749724 Si / 1000 Ang^3
#
#
#
# Elastic Constant Matrix: (Units=GPa)
#
#
# Indices 1 2 3 4 5 6 
#
# 1 128.2395 25.3768 41.6233 0.0000 6.8705 0.0000
# 2 25.3768 81.1073 30.8441 0.0000 -0.6320 0.0000
# 3 41.6233 30.8441 113.7165 0.0000 -2.2587 0.0000
# 4 0.0000 0.0000 0.0000 35.5588 0.0000 4.3128
# 5 6.8705 -0.6320 -2.2587 0.0000 39.0108 0.0000
# 6 0.0000 0.0000 0.0000 4.3128 0.0000 11.8704
#
#
#
# Elastic Compliance Matrix: (Units=1/GPa)
#
#
# Indices 1 2 3 4 5 6 
#
# 1 0.009195 -0.001781 -0.002919 0.000000 -0.001817 0.000000
# 2 -0.001781 0.014092 -0.003163 0.000000 0.000359 0.000000
# 3 -0.002919 -0.003163 0.010742 0.000000 0.001085 0.000000
# 4 0.000000 0.000000 0.000000 0.029419 0.000000 -0.010688
# 5 -0.001817 0.000359 0.001085 0.000000 0.026023 0.000000
# 6 0.000000 0.000000 0.000000 -0.010688 0.000000 0.088126
#
#
# Mechanical properties :
#
#
# Convention : Reuss Voigt Hill
#
# Bulk Modulus (GPa) = 54.63612 57.63909 56.13760
# Shear Modulus (GPa) = 25.07220 32.30261 28.68740
#
# Velocity S-wave (km/s) = 3.47985 3.94988 3.72229
# Velocity P-wave (km/s) = 6.52181 6.97428 6.75184
#
# Compressibility (1/GPa) = 0.01830291
#
# Stress axis : x y z
#
# Youngs Moduli (GPa) = 108.75420 70.96027 93.09577
#
# Poissons Ratio (x) = 0.12639 0.27171
# Poissons Ratio (y) = 0.19371 0.29449
# Poissons Ratio (z) = 0.31741 0.22447
#
# Static dielectric constant tensor:
#      x y z
#    x 3.815190 0.000000 0.033910 
#    y 0.000000 3.643130 0.000000 
#    z 0.033910 0.000000 4.140000 
# 
# 
# High freq. dielectric constant tensor:
#      x y z
#    x 1.806830 0.000000 0.001050 
#    y 0.000000 1.799240 0.000000 
#    z 0.001050 0.000000 1.831050 
# 
# From -- ./inp_files/40713.got.cif
#   From: 2010.03.12/outbox.cif.g09.slc.cpg/sg5_21_cif.got.tgz:40713.got - 2010.03.31 09:47:26.
