data_PCOD8050807
_publ_section_title
;
Structure prediction by ZEFSAII (Michael W. Deem and Ramdas Pophale) SiO2 
 PCOD8050807
Probable space group: C 2
;
_chemical_formula_sum "Si O2"
_cell_formula_units_Z 26
_cell_length_a 21.180264
_cell_length_b 8.847004
_cell_length_c 8.609075
_cell_angle_alpha 90.000000
_cell_angle_beta 131.372736
_cell_angle_gamma 90.000000
_cell_volume 1210.575177
_symmetry_space_group_name_H-M "C 2"
_symmetry_group_IT_number 5
_symmetry_cell_setting 'monoclinic'
loop_
_space_group_symop_operation_xyz
x,y,z
-x,y,-z
1/2+x,1/2+y,z
1/2-x,1/2+y,-z
loop_
_atom_site_type_symbol
_atom_site_label
_atom_site_fract_x
_atom_site_fract_y
_atom_site_fract_z
Si Si1 0.652374 0.939170 0.267553
Si Si2 0.000000 0.068095 0.500000
Si Si3 0.124134 0.809585 0.738221
Si Si4 0.781594 0.424933 0.157035
Si Si5 0.921698 0.540830 0.166706
Si Si6 0.934061 0.317727 0.593915
Si Si7 0.718809 0.177832 0.621887
O O1 0.587719 0.834744 0.260171
O O2 0.723635 0.822347 0.324011
O O3 0.689892 0.082723 0.423354
O O4 0.596090 0.016404 0.043611
O O5 0.016493 0.165648 0.370812
O O6 0.083828 0.973482 0.662424
O O7 0.062010 0.712177 0.748685
O O8 0.137844 0.739574 0.587549
O O9 0.212900 0.817259 0.970827
O O10 0.834517 0.497113 0.105520
O O11 0.845083 0.323398 0.361294
O O12 0.737339 0.554748 0.192062
O O13 0.003834 0.452047 0.356378
#
# Coordination Sequence:
#
# PCOD8050807 Si02
#       7
#     4   2   4   4   4   4   4
#     4  11  25  43  72  98 146 179 229 284 351 412
#     4  12  28  42  74 100 142 170 242 290 334 406
#     4  11  27  44  73 101 134 182 236 288 339 408
#     4  10  22  43  73  95 137 177 234 278 331 417
#     4  11  23  44  70  99 138 181 231 276 356 407
#     4  11  25  45  70 100 137 184 225 288 344 408
#     4  10  25  42  69 103 137 180 231 281 345 405
#
# _framework density 21.477395000000001
#
# number of rings (size 3 to 8) (size 9 to 14) (size 15 to 20)
#    0.000    1.231    3.077    0.462   19.385    0.000 
#    0.000    0.000    0.000    0.000    0.000    0.000 
#    0.000    0.000    0.000    0.000    0.000    0.000 
#
# Total GULP energy -161097.802508 kJ/mol
# GULP energy per Si atom -12392.138654 kJ/mol
# Density = 2.142851 g / cm^3
# Si number density = 21.477395 Si / 1000 Ang^3
#
#
#
# Elastic Constant Matrix: (Units=GPa)
#
#
# Indices 1 2 3 4 5 6 
#
# 1 107.3857 55.7266 38.1558 0.0000 -12.2627 0.0000
# 2 55.7266 97.9157 10.1617 0.0000 -3.9825 0.0000
# 3 38.1558 10.1617 57.1009 0.0000 -6.7641 0.0000
# 4 0.0000 0.0000 0.0000 29.9852 0.0000 -2.9946
# 5 -12.2627 -3.9825 -6.7641 0.0000 38.5635 0.0000
# 6 0.0000 0.0000 0.0000 -2.9946 0.0000 47.2522
#
#
#
# Elastic Compliance Matrix: (Units=1/GPa)
#
#
# Indices 1 2 3 4 5 6 
#
# 1 0.017886 -0.009021 -0.009991 0.000000 0.003004 0.000000
# 2 -0.009021 0.014977 0.003274 0.000000 -0.000748 0.000000
# 3 -0.009991 0.003274 0.023764 0.000000 0.001329 0.000000
# 4 0.000000 0.000000 0.000000 0.033562 0.000000 0.002127
# 5 0.003004 -0.000748 0.001329 0.000000 0.027042 0.000000
# 6 0.000000 0.000000 0.000000 0.002127 0.000000 0.021298
#
#
# Mechanical properties :
#
#
# Convention : Reuss Voigt Hill
#
# Bulk Modulus (GPa) = 39.75879 52.27671 46.01775
# Shear Modulus (GPa) = 28.02887 33.71740 30.87313
#
# Velocity S-wave (km/s) = 3.61645 3.96650 3.79551
# Velocity P-wave (km/s) = 5.99920 6.73577 6.37813
#
# Compressibility (1/GPa) = 0.02515167
#
# Stress axis : x y z
#
# Youngs Moduli (GPa) = 55.90906 66.77113 42.08094
#
# Poissons Ratio (x) = 0.60231 0.42042
# Poissons Ratio (y) = 0.50433 -0.13777
# Poissons Ratio (z) = 0.55857 -0.21860
#
# Static dielectric constant tensor:
#      x y z
#    x 4.084240 0.000000 -0.230100 
#    y 0.000000 4.002570 0.000000 
#    z -0.230100 0.000000 3.785810 
# 
# 
# High freq. dielectric constant tensor:
#      x y z
#    x 1.849030 0.000000 -0.006860 
#    y 0.000000 1.845000 0.000000 
#    z -0.006860 0.000000 1.837620 
# 
# From -- ./inp_files/26793.got.cif
#   From: 2010.03.12/outbox.cif.g09.slc.cpg/sg5_14_cif.got.tgz:26793.got - 2010.03.31 09:47:26.
