data_PCOD8050544
_publ_section_title
;
Structure prediction by ZEFSAII (Michael W. Deem and Ramdas Pophale) SiO2 
 PCOD8050544
Probable space group: C 2
;
_chemical_formula_sum "Si O2"
_cell_formula_units_Z 30
_cell_length_a 18.834980
_cell_length_b 7.508743
_cell_length_c 11.542222
_cell_angle_alpha 90.000000
_cell_angle_beta 122.903502
_cell_angle_gamma 90.000000
_cell_volume 1370.526249
_symmetry_space_group_name_H-M "C 2"
_symmetry_group_IT_number 5
_symmetry_cell_setting 'monoclinic'
loop_
_space_group_symop_operation_xyz
x,y,z
-x,y,-z
1/2+x,1/2+y,z
1/2-x,1/2+y,-z
loop_
_atom_site_type_symbol
_atom_site_label
_atom_site_fract_x
_atom_site_fract_y
_atom_site_fract_z
Si Si1 0.894038 0.222650 0.604153
Si Si2 0.832933 0.051125 0.983804
Si Si3 0.000000 0.451820 0.000000
Si Si4 0.170956 0.363944 0.863677
Si Si5 0.495383 0.049573 0.255282
Si Si6 0.464106 0.434996 0.257972
Si Si7 0.824696 0.278363 0.778208
Si Si8 0.823231 0.064183 0.306828
O O1 0.822944 0.229106 0.641230
O O2 0.850411 0.146919 0.452416
O O3 0.930197 0.424355 0.628717
O O4 0.971518 0.094946 0.704681
O O5 0.811819 0.085783 0.830231
O O6 0.748276 0.986184 0.972828
O O7 0.858382 0.245783 0.054391
O O8 0.908825 0.920329 0.089330
O O9 0.917638 0.335779 0.900839
O O10 0.012684 0.563240 0.892215
O O11 0.091409 0.485869 0.760458
O O12 0.205147 0.236480 0.791311
O O13 0.513039 0.249049 0.317940
O O14 0.403425 0.472489 0.314649
O O15 0.752960 0.424010 0.744717
#
# Coordination Sequence:
#
# PCOD8050544 Si02
#       8
#     4   4   2   4   4   4   4   4
#     4  11  25  50  66  94 147 186 234 292 342 415
#     4  11  20  37  65 103 137 168 223 287 357 416
#     4  10  22  40  66  98 140 168 226 288 362 428
#     4  11  21  37  66  99 140 171 226 292 348 404
#     4  11  22  42  70 101 136 187 227 289 361 416
#     4  11  24  43  73 106 133 183 237 294 352 427
#     4  11  23  44  69  97 139 187 224 293 359 417
#     4  11  25  46  68  97 144 185 241 293 337 427
#
# _framework density 21.889399999999998
#
# number of rings (size 3 to 8) (size 9 to 14) (size 15 to 20)
#    0.000    1.067    4.000    4.400    1.867    2.133 
#   14.400    0.000    0.000    0.000    0.000    0.000 
#    0.000    0.000    0.000    0.000    0.000    0.000 
#
# Total GULP energy -185871.533550 kJ/mol
# GULP energy per Si atom -12391.435570 kJ/mol
# Density = 2.183958 g / cm^3
# Si number density = 21.889400 Si / 1000 Ang^3
#
#
#
# Elastic Constant Matrix: (Units=GPa)
#
#
# Indices 1 2 3 4 5 6 
#
# 1 102.0948 41.8742 27.7586 0.0000 -10.5809 0.0000
# 2 41.8742 107.4886 26.1732 0.0000 -10.3724 0.0000
# 3 27.7586 26.1732 87.2991 0.0000 -15.4257 0.0000
# 4 0.0000 0.0000 0.0000 20.1989 0.0000 -5.4074
# 5 -10.5809 -10.3724 -15.4257 0.0000 32.2889 0.0000
# 6 0.0000 0.0000 0.0000 -5.4074 0.0000 23.3736
#
#
#
# Elastic Compliance Matrix: (Units=1/GPa)
#
#
# Indices 1 2 3 4 5 6 
#
# 1 0.012271 -0.004041 -0.002413 0.000000 0.001570 0.000000
# 2 -0.004041 0.011481 -0.001900 0.000000 0.001456 0.000000
# 3 -0.002413 -0.001900 0.013701 0.000000 0.005144 0.000000
# 4 0.000000 0.000000 0.000000 0.052776 0.000000 0.012210
# 5 0.001570 0.001456 0.005144 0.000000 0.034410 0.000000
# 6 0.000000 0.000000 0.000000 0.012210 0.000000 0.045608
#
#
# Mechanical properties :
#
#
# Convention : Reuss Voigt Hill
#
# Bulk Modulus (GPa) = 48.20481 54.27718 51.24099
# Shear Modulus (GPa) = 25.79045 28.57736 27.18390
#
# Velocity S-wave (km/s) = 3.43624 3.61714 3.52785
# Velocity P-wave (km/s) = 6.14926 6.50345 6.32883
#
# Compressibility (1/GPa) = 0.02074482
#
# Stress axis : x y z
#
# Youngs Moduli (GPa) = 81.49189 87.10182 72.98930
#
# Poissons Ratio (x) = 0.35202 0.17610
# Poissons Ratio (y) = 0.32934 0.13866
# Poissons Ratio (z) = 0.19662 0.16547
#
# Static dielectric constant tensor:
#      x y z
#    x 4.096200 0.000000 -0.225050 
#    y 0.000000 3.919600 0.000000 
#    z -0.225050 0.000000 4.013550 
# 
# 
# High freq. dielectric constant tensor:
#      x y z
#    x 1.864070 0.000000 -0.005060 
#    y 0.000000 1.859530 0.000000 
#    z -0.005060 0.000000 1.849590 
# 
# From -- ./inp_files/44327.got.cif
#   From: 2010.03.12/outbox.cif.g09.slc.cpg/sg5_23_cif.got.tgz:44327.got - 2010.03.31 09:47:26.
