data_PCOD8050447
_publ_section_title
;
Structure prediction by ZEFSAII (Michael W. Deem and Ramdas Pophale) SiO2 
 PCOD8050447
Probable space group: C 2
;
_chemical_formula_sum "Si O2"
_cell_formula_units_Z 22
_cell_length_a 17.125789
_cell_length_b 9.284237
_cell_length_c 16.635514
_cell_angle_alpha 90.000000
_cell_angle_beta 27.197781
_cell_angle_gamma 90.000000
_cell_volume 1208.953380
_symmetry_space_group_name_H-M "C 2"
_symmetry_group_IT_number 5
_symmetry_cell_setting 'monoclinic'
loop_
_space_group_symop_operation_xyz
x,y,z
-x,y,-z
1/2+x,1/2+y,z
1/2-x,1/2+y,-z
loop_
_atom_site_type_symbol
_atom_site_label
_atom_site_fract_x
_atom_site_fract_y
_atom_site_fract_z
Si Si1 0.397603 0.267430 0.256404
Si Si2 0.149181 0.881882 0.139456
Si Si3 0.868062 0.064819 0.692931
Si Si4 0.000000 0.645296 0.000000
Si Si5 0.515672 0.862485 0.576455
Si Si6 0.580211 0.068503 0.195626
O O1 0.496851 0.395923 0.212727
O O2 0.491495 0.247523 0.085401
O O3 0.416006 0.120598 0.293318
O O4 0.202472 0.302969 0.422974
O O5 0.191097 0.711906 0.115383
O O6 0.085818 0.952354 0.280074
O O7 0.317621 0.959274 0.953921
O O8 0.886601 0.229102 0.707866
O O9 0.000000 0.036569 0.500000
O O10 0.670624 0.045565 0.846197
O O11 0.500000 0.921262 0.500000
O O12 0.474958 0.994006 0.671711
#
# Coordination Sequence:
#
# PCOD8050447 Si02
#       6
#     4   4   4   2   4   4
#     4  10  23  35  66  89 119 169 205 257 308 377
#     4  10  22  39  62  90 123 165 204 260 311 375
#     4  11  22  38  68  92 125 165 213 258 316 370
#     4  12  18  42  62  96 118 164 214 256 306 384
#     4  11  22  39  63  94 122 165 212 257 309 375
#     4  10  22  40  62  89 127 162 212 254 320 366
#
# _framework density 18.197558999999998
#
# number of rings (size 3 to 8) (size 9 to 14) (size 15 to 20)
#    1.091    0.364    5.455    2.182    2.545    0.727 
#    0.000    0.000    4.000    0.000    0.000    0.000 
#    0.000    0.000    0.000    0.000    0.000    0.000 
#
# Total GULP energy -136332.413316 kJ/mol
# GULP energy per Si atom -12393.855756 kJ/mol
# Density = 1.815614 g / cm^3
# Si number density = 18.197559 Si / 1000 Ang^3
#
#
#
# Elastic Constant Matrix: (Units=GPa)
#
#
# Indices 1 2 3 4 5 6 
#
# 1 139.7071 59.3561 62.6473 -0.0001 9.4082 0.0000
# 2 59.3561 104.1796 55.6174 -0.0005 23.2964 0.0002
# 3 62.6473 55.6174 112.0096 -0.0007 3.1375 0.0003
# 4 -0.0001 -0.0005 -0.0007 19.3801 0.0005 3.6489
# 5 9.4082 23.2964 3.1375 0.0005 39.4112 -0.0001
# 6 0.0000 0.0002 0.0003 3.6489 -0.0001 32.3529
#
#
#
# Elastic Compliance Matrix: (Units=1/GPa)
#
#
# Indices 1 2 3 4 5 6 
#
# 1 0.010611 -0.003948 -0.003978 0.000000 0.000118 0.000000
# 2 -0.003948 0.016962 -0.005973 0.000000 -0.008608 0.000000
# 3 -0.003978 -0.005973 0.014024 0.000000 0.003364 0.000000
# 4 0.000000 0.000000 0.000000 0.052719 -0.000001 -0.005946
# 5 0.000118 -0.008608 0.003364 -0.000001 0.030166 0.000000
# 6 0.000000 0.000000 0.000000 -0.005946 0.000000 0.031580
#
#
# Mechanical properties :
#
#
# Convention : Reuss Voigt Hill
#
# Bulk Modulus (GPa) = 72.46657 79.01532 75.74095
# Shear Modulus (GPa) = 26.53090 30.11386 28.32238
#
# Velocity S-wave (km/s) = 3.82244 4.07237 3.94938
# Velocity P-wave (km/s) = 7.70649 8.10107 7.90624
#
# Compressibility (1/GPa) = 0.01379947
#
# Stress axis : x y z
#
# Youngs Moduli (GPa) = 94.24123 58.95488 71.30637
#
# Poissons Ratio (x) = 0.23278 0.28362
# Poissons Ratio (y) = 0.37211 0.42590
# Poissons Ratio (z) = 0.37485 0.35213
#
# Static dielectric constant tensor:
#      x y z
#    x 3.591130 0.000000 0.100400 
#    y 0.000000 3.269960 0.000000 
#    z 0.100400 0.000000 3.353620 
# 
# 
# High freq. dielectric constant tensor:
#      x y z
#    x 1.717720 0.000000 0.007080 
#    y 0.000000 1.679650 0.000000 
#    z 0.007080 0.000000 1.707300 
# 
# From -- ./inp_files/62104.got.cif
#   From: 2010.03.12/outbox.cif.g09.slc.cpg/sg5_32_cif.got.tgz:62104.got - 2010.03.31 09:47:26.
