data_PCOD8050063
_publ_section_title
;
Structure prediction by ZEFSAII (Michael W. Deem and Ramdas Pophale) SiO2 
 PCOD8050063
Probable space group: C 2
;
_chemical_formula_sum "Si O2"
_cell_formula_units_Z 24
_cell_length_a 13.704911
_cell_length_b 11.954463
_cell_length_c 9.301544
_cell_angle_alpha 90.000000
_cell_angle_beta 131.304570
_cell_angle_gamma 90.000000
_cell_volume 1144.784018
_symmetry_space_group_name_H-M "C 2"
_symmetry_group_IT_number 5
_symmetry_cell_setting 'monoclinic'
loop_
_space_group_symop_operation_xyz
x,y,z
-x,y,-z
1/2+x,1/2+y,z
1/2-x,1/2+y,-z
loop_
_atom_site_type_symbol
_atom_site_label
_atom_site_fract_x
_atom_site_fract_y
_atom_site_fract_z
Si Si1 0.632438 0.217840 0.083437
Si Si2 0.011905 0.361484 0.845654
Si Si3 0.993299 0.944020 0.151574
Si Si4 0.263334 0.857864 0.424256
Si Si5 0.174319 0.137681 0.952850
Si Si6 0.618715 0.010639 0.699257
O O1 0.705171 0.243409 0.304209
O O2 0.730332 0.144545 0.089062
O O3 0.500000 0.152099 0.000000
O O4 0.588951 0.329103 0.950273
O O5 0.097763 0.249730 0.915212
O O6 0.076139 0.459812 0.812951
O O7 0.865060 0.336203 0.649902
O O8 0.000000 0.398340 0.000000
O O9 0.137711 0.927680 0.357992
O O10 0.920421 0.034276 0.179911
O O11 0.000000 0.000637 0.000000
O O12 0.334920 0.910766 0.356753
O O13 0.267758 0.102244 0.175921
O O14 0.500000 0.070907 0.500000
#
# Coordination Sequence:
#
# PCOD8050063 Si02
#       6
#     4   4   4   4   4   4
#     4   9  19  36  61  88 123 168 205 258 310 376
#     4  11  24  38  62  91 132 160 207 275 305 354
#     4   9  17  35  63  88 122 167 205 250 308 387
#     4   9  18  42  60  84 122 177 203 237 323 380
#     4  12  19  36  64  98 117 163 222 255 300 373
#     4  10  21  40  63  84 126 175 206 249 314 380
#
# _framework density 20.964653999999999
#
# number of rings (size 3 to 8) (size 9 to 14) (size 15 to 20)
#    0.000    2.333    5.000    0.500    0.000    0.667 
#    6.000    3.333    0.000    0.000    0.000    0.000 
#    0.000    0.000    0.000    0.000    0.000    0.000 
#
# Total GULP energy -148663.886268 kJ/mol
# GULP energy per Si atom -12388.657189 kJ/mol
# Density = 2.091694 g / cm^3
# Si number density = 20.964654 Si / 1000 Ang^3
#
#
#
# Elastic Constant Matrix: (Units=GPa)
#
#
# Indices 1 2 3 4 5 6 
#
# 1 137.9643 43.2657 54.8203 0.0000 10.5913 0.0000
# 2 43.2657 55.4270 32.6418 0.0000 6.2860 0.0000
# 3 54.8203 32.6418 153.5661 0.0000 24.0800 0.0000
# 4 0.0000 0.0000 0.0000 16.9492 0.0000 6.1385
# 5 10.5913 6.2860 24.0800 0.0000 40.8873 0.0000
# 6 0.0000 0.0000 0.0000 6.1385 0.0000 45.5402
#
#
#
# Elastic Compliance Matrix: (Units=1/GPa)
#
#
# Indices 1 2 3 4 5 6 
#
# 1 0.010231 -0.006662 -0.002183 0.000000 -0.000340 0.000000
# 2 -0.006662 0.024977 -0.002864 0.000000 -0.000428 0.000000
# 3 -0.002183 -0.002864 0.008530 0.000000 -0.004018 0.000000
# 4 0.000000 0.000000 0.000000 0.062028 0.000000 -0.008361
# 5 -0.000340 -0.000428 -0.004018 0.000000 0.026978 0.000000
# 6 0.000000 0.000000 0.000000 -0.008361 0.000000 0.023086
#
#
# Mechanical properties :
#
#
# Convention : Reuss Voigt Hill
#
# Bulk Modulus (GPa) = 49.21128 67.60144 58.40636
# Shear Modulus (GPa) = 26.87884 35.09065 30.98474
#
# Velocity S-wave (km/s) = 3.58453 4.09565 3.84858
# Velocity P-wave (km/s) = 6.37622 7.39468 6.90425
#
# Compressibility (1/GPa) = 0.02032055
#
# Stress axis : x y z
#
# Youngs Moduli (GPa) = 97.74259 40.03660 117.23581
#
# Poissons Ratio (x) = 0.26673 0.25590
# Poissons Ratio (y) = 0.65117 0.33574
# Poissons Ratio (z) = 0.21335 0.11466
#
# Static dielectric constant tensor:
#      x y z
#    x 4.126230 0.000000 0.474320 
#    y 0.000000 3.468770 0.000000 
#    z 0.474320 0.000000 3.950060 
# 
# 
# High freq. dielectric constant tensor:
#      x y z
#    x 1.835190 0.000000 0.032670 
#    y 0.000000 1.790920 0.000000 
#    z 0.032670 0.000000 1.807050 
# 
# From -- ./inp_files/24255.got.cif
#   From: 2010.03.12/outbox.cif.g09.slc.cpg/sg5_13_cif.got.tgz:24255.got - 2010.03.31 09:47:26.
