data_PCOD8050105
_publ_section_title
;
Structure prediction by ZEFSAII (Michael W. Deem and Ramdas Pophale) SiO2 
 PCOD8050105
Probable space group: C 2
;
_chemical_formula_sum "Si O2"
_cell_formula_units_Z 32
_cell_length_a 14.119698
_cell_length_b 11.584836
_cell_length_c 16.885653
_cell_angle_alpha 90.000000
_cell_angle_beta 149.207801
_cell_angle_gamma 90.000000
_cell_volume 1413.970241
_symmetry_space_group_name_H-M "C 2"
_symmetry_group_IT_number 5
_symmetry_cell_setting 'monoclinic'
loop_
_space_group_symop_operation_xyz
x,y,z
-x,y,-z
1/2+x,1/2+y,z
1/2-x,1/2+y,-z
loop_
_atom_site_type_symbol
_atom_site_label
_atom_site_fract_x
_atom_site_fract_y
_atom_site_fract_z
Si Si1 0.706881 0.463650 0.170518
Si Si2 0.846158 0.721872 0.276200
Si Si3 0.146387 0.424274 0.041216
Si Si4 0.607251 0.777792 0.244954
Si Si5 0.950211 0.431259 0.663639
Si Si6 0.803189 0.662138 0.564003
Si Si7 0.473655 0.567074 0.228164
Si Si8 0.773877 0.881340 0.642744
O O1 0.738035 0.601011 0.192751
O O2 0.830543 0.409621 0.188246
O O3 0.771604 0.399999 0.297950
O O4 0.500000 0.431460 0.000000
O O5 0.764377 0.815637 0.157267
O O6 0.795490 0.766182 0.329054
O O7 0.065317 0.708589 0.414942
O O8 0.265992 0.539490 0.108044
O O9 0.031627 0.377924 0.883655
O O10 0.000000 0.467939 0.000000
O O11 0.654159 0.823672 0.368334
O O12 0.491942 0.657885 0.168408
O O13 0.907557 0.551681 0.677116
O O14 0.876868 0.445625 0.520557
O O15 0.602538 0.617605 0.390634
O O16 0.782117 0.747872 0.622903
O O17 0.532164 0.442655 0.236581
#
# Coordination Sequence:
#
# PCOD8050105 Si02
#       8
#     4   4   4   4   4   4   4   4
#     4  11  23  39  66  98 131 175 233 280 340 409
#     4  10  21  40  67 104 132 170 229 289 336 405
#     4  10  23  41  67  97 145 180 231 283 349 419
#     4  11  22  40  67  99 135 179 228 284 342 414
#     4  10  24  41  63  97 132 177 223 278 346 417
#     4  10  22  41  69  94 138 175 226 283 345 411
#     4  11  22  40  68 100 135 179 229 288 349 409
#     4  11  21  42  67  96 132 178 222 292 349 403
#
# _framework density 22.631311
#
# number of rings (size 3 to 8) (size 9 to 14) (size 15 to 20)
#    0.000    1.500    3.750    1.500    1.750    1.500 
#    0.000    3.125    0.000    0.000    0.000    0.000 
#    0.000    0.000    0.000    0.000    0.000    0.000 
#
# Total GULP energy -198255.770952 kJ/mol
# GULP energy per Si atom -12390.985684 kJ/mol
# Density = 2.257980 g / cm^3
# Si number density = 22.631311 Si / 1000 Ang^3
#
#
#
# Elastic Constant Matrix: (Units=GPa)
#
#
# Indices 1 2 3 4 5 6 
#
# 1 88.8946 47.5577 20.2765 -0.0065 15.8757 -0.0009
# 2 47.5577 109.7560 14.8328 0.0038 11.7190 0.0006
# 3 20.2765 14.8328 54.6528 0.0046 16.3499 0.0003
# 4 -0.0065 0.0038 0.0046 33.5030 0.0023 5.9740
# 5 15.8757 11.7190 16.3499 0.0023 40.2424 -0.0005
# 6 -0.0009 0.0006 0.0003 5.9740 -0.0005 41.4409
#
#
#
# Elastic Compliance Matrix: (Units=1/GPa)
#
#
# Indices 1 2 3 4 5 6 
#
# 1 0.015805 -0.006070 -0.003278 0.000004 -0.003135 0.000000
# 2 -0.006070 0.011926 -0.000754 -0.000002 -0.000772 0.000000
# 3 -0.003278 -0.000754 0.021931 -0.000003 -0.007398 0.000000
# 4 0.000004 -0.000002 -0.000003 0.030636 -0.000002 -0.004416
# 5 -0.003135 -0.000772 -0.007398 -0.000002 0.029317 0.000001
# 6 0.000000 0.000000 0.000000 -0.004416 0.000001 0.024767
#
#
# Mechanical properties :
#
#
# Convention : Reuss Voigt Hill
#
# Bulk Modulus (GPa) = 33.94753 46.51528 40.23140
# Shear Modulus (GPa) = 30.41287 34.41303 32.41295
#
# Velocity S-wave (km/s) = 3.66982 3.90371 3.78857
# Velocity P-wave (km/s) = 5.74366 6.39662 6.07891
#
# Compressibility (1/GPa) = 0.02945722
#
# Stress axis : x y z
#
# Youngs Moduli (GPa) = 63.27296 83.85247 45.59733
#
# Poissons Ratio (x) = 0.50902 0.14947
# Poissons Ratio (y) = 0.38409 0.03436
# Poissons Ratio (z) = 0.20742 0.06319
#
# Static dielectric constant tensor:
#      x y z
#    x 4.071560 0.000000 0.110990 
#    y 0.000000 4.069890 -0.000010 
#    z 0.110990 -0.000010 3.909640 
# 
# 
# High freq. dielectric constant tensor:
#      x y z
#    x 1.890100 0.000000 0.010600 
#    y 0.000000 1.891530 0.000000 
#    z 0.010600 0.000000 1.880160 
# 
# From -- ./inp_files/61716.got.cif
#   From: 2010.03.12/outbox.cif.g09.slc.cpg/sg5_31_cif.got.tgz:61716.got - 2010.03.31 09:47:26.
