data_PCOD8050360
_publ_section_title
;
Structure prediction by ZEFSAII (Michael W. Deem and Ramdas Pophale) SiO2 
 PCOD8050360
Probable space group: C 2
;
_chemical_formula_sum "Si O2"
_cell_formula_units_Z 24
_cell_length_a 22.625107
_cell_length_b 4.915793
_cell_length_c 19.894280
_cell_angle_alpha 90.000000
_cell_angle_beta 150.320527
_cell_angle_gamma 90.000000
_cell_volume 1095.587303
_symmetry_space_group_name_H-M "C 2"
_symmetry_group_IT_number 5
_symmetry_cell_setting 'monoclinic'
loop_
_space_group_symop_operation_xyz
x,y,z
-x,y,-z
1/2+x,1/2+y,z
1/2-x,1/2+y,-z
loop_
_atom_site_type_symbol
_atom_site_label
_atom_site_fract_x
_atom_site_fract_y
_atom_site_fract_z
Si Si1 0.564962 0.243710 0.427938
Si Si2 0.820844 0.463223 0.718009
Si Si3 0.957211 0.170427 0.030578
Si Si4 0.177863 0.806672 0.409691
Si Si5 0.316318 0.152980 0.865606
Si Si6 0.549193 0.738683 0.622259
O O1 0.695630 0.308070 0.587280
O O2 0.561731 0.293274 0.343863
O O3 0.470707 0.432402 0.372867
O O4 0.523901 0.935587 0.400314
O O5 0.841953 0.702419 0.684830
O O6 0.822006 0.618041 0.790683
O O7 0.927318 0.242436 0.809820
O O8 0.843539 0.370326 0.931579
O O9 0.918519 0.857758 0.994302
O O10 0.000000 0.260843 0.000000
O O11 0.274124 0.614362 0.543995
O O12 0.190824 0.283289 0.763156
O O13 0.500000 0.790312 0.500000
#
# Coordination Sequence:
#
# PCOD8050360 Si02
#       6
#     4   4   4   4   4   4
#     4  11  23  39  61  94 122 161 204 245 311 364
#     4  10  22  41  63  92 125 156 202 259 308 362
#     4  10  22  36  58  86 120 158 197 249 301 357
#     4  10  22  38  61  92 125 161 199 254 306 362
#     4  11  23  38  57  89 123 158 202 240 306 363
#     4  12  24  37  61  86 130 165 196 250 304 366
#
# _framework density 21.906058999999999
#
# number of rings (size 3 to 8) (size 9 to 14) (size 15 to 20)
#    0.000    1.333    1.667    5.000    4.667    6.667 
#    0.000    0.000    0.000    4.000    0.000    0.000 
#    0.000    0.000    0.000    0.000    0.000    0.000 
#
# Total GULP energy -148740.940083 kJ/mol
# GULP energy per Si atom -12395.078340 kJ/mol
# Density = 2.185620 g / cm^3
# Si number density = 21.906059 Si / 1000 Ang^3
#
#
#
# Elastic Constant Matrix: (Units=GPa)
#
#
# Indices 1 2 3 4 5 6 
#
# 1 66.5131 3.7584 19.1007 -0.0013 11.5246 -0.0006
# 2 3.7584 80.0950 16.5286 -0.0049 6.6824 -0.0035
# 3 19.1007 16.5286 88.6772 -0.0029 17.1967 -0.0022
# 4 -0.0013 -0.0049 -0.0029 32.8080 -0.0007 8.6573
# 5 11.5246 6.6824 17.1967 -0.0007 24.1708 -0.0003
# 6 -0.0006 -0.0035 -0.0022 8.6573 -0.0003 36.8073
#
#
#
# Elastic Compliance Matrix: (Units=1/GPa)
#
#
# Indices 1 2 3 4 5 6 
#
# 1 0.016822 0.000244 -0.002436 0.000000 -0.006354 0.000000
# 2 0.000244 0.013087 -0.002050 0.000002 -0.002275 0.000001
# 3 -0.002436 -0.002050 0.013745 0.000001 -0.008051 0.000000
# 4 0.000000 0.000002 0.000001 0.032497 0.000000 -0.007644
# 5 -0.006354 -0.002275 -0.008051 0.000000 0.050759 0.000000
# 6 0.000000 0.000001 0.000000 -0.007644 0.000000 0.028966
#
#
# Mechanical properties :
#
#
# Convention : Reuss Voigt Hill
#
# Bulk Modulus (GPa) = 28.43597 34.89562 31.66580
# Shear Modulus (GPa) = 28.39545 31.81705 30.10625
#
# Velocity S-wave (km/s) = 3.60424 3.81521 3.71122
# Velocity P-wave (km/s) = 5.50724 5.94744 5.73157
#
# Compressibility (1/GPa) = 0.03516673
#
# Stress axis : x y z
#
# Youngs Moduli (GPa) = 59.44755 76.41334 72.75351
#
# Poissons Ratio (x) = -0.01862 0.17726
# Poissons Ratio (y) = -0.01448 0.14918
# Poissons Ratio (z) = 0.14484 0.15668
#
# Static dielectric constant tensor:
#      x y z
#    x 3.938430 0.000000 0.070190 
#    y 0.000000 3.920810 0.000000 
#    z 0.070190 0.000000 4.014680 
# 
# 
# High freq. dielectric constant tensor:
#      x y z
#    x 1.842470 0.000000 0.010040 
#    y 0.000000 1.880150 0.000000 
#    z 0.010040 0.000000 1.845750 
# 
# From -- ./inp_files/66941.got.cif
#   From: 2010.03.12/outbox.cif.g09.slc.cpg/sg5_34_cif.got.tgz:66941.got - 2010.03.31 09:47:26.
