data_PCOD8050661
_publ_section_title
;
Structure prediction by ZEFSAII (Michael W. Deem and Ramdas Pophale) SiO2 
 PCOD8050661
Probable space group: C 2
;
_chemical_formula_sum "Si O2"
_cell_formula_units_Z 30
_cell_length_a 21.580804
_cell_length_b 14.616114
_cell_length_c 15.650700
_cell_angle_alpha 90.000000
_cell_angle_beta 162.994031
_cell_angle_gamma 90.000000
_cell_volume 1443.831819
_symmetry_space_group_name_H-M "C 2"
_symmetry_group_IT_number 5
_symmetry_cell_setting 'monoclinic'
loop_
_space_group_symop_operation_xyz
x,y,z
-x,y,-z
1/2+x,1/2+y,z
1/2-x,1/2+y,-z
loop_
_atom_site_type_symbol
_atom_site_label
_atom_site_fract_x
_atom_site_fract_y
_atom_site_fract_z
Si Si1 0.721571 0.250000 0.516685
Si Si2 0.677194 0.787163 0.115422
Si Si3 0.568321 0.894593 0.809827
Si Si4 0.000000 0.643989 0.500000
Si Si5 0.537470 0.393593 0.376860
Si Si6 0.948501 0.595838 0.246969
Si Si7 0.233082 0.749828 0.334251
Si Si8 0.978874 0.090080 0.574220
O O1 0.618040 0.352629 0.392008
O O2 0.591118 0.175315 0.396696
O O3 0.730905 0.220807 0.430368
O O4 0.958322 0.251760 0.868768
O O5 0.787387 0.704178 0.211197
O O6 0.850135 0.824701 0.408938
O O7 0.609551 0.866164 0.961078
O O8 0.390423 0.834938 0.527934
O O9 0.493104 0.999191 0.718114
O O10 0.784956 0.884620 0.042790
O O11 0.001185 0.582637 0.586355
O O12 0.601261 0.497122 0.484596
O O13 0.703844 0.621463 0.908261
O O14 0.306079 0.666419 0.369869
O O15 0.000000 0.780958 0.000000
O O16 0.000000 0.075047 0.500000
#
# Coordination Sequence:
#
# PCOD8050661 Si02
#       8
#     4   4   4   2   4   4   4   4
#     4  11  23  39  65  98 135 165 216 279 342 389
#     4  11  20  38  68  96 129 169 218 283 334 386
#     4  10  22  42  62  87 133 171 221 265 324 400
#     4  12  22  40  66  96 136 174 230 270 332 406
#     4  11  20  38  67 100 120 164 220 284 335 378
#     4  11  23  41  64 101 129 176 219 277 334 398
#     4  11  25  43  59  91 130 181 214 262 331 406
#     4  11  24  43  71  95 128 177 230 280 331 396
#
# _framework density 20.778044000000001
#
# number of rings (size 3 to 8) (size 9 to 14) (size 15 to 20)
#    0.000    1.067    2.667    5.200    0.000    3.200 
#    8.400    0.000    0.000    0.000    0.000    0.000 
#    0.000    0.000    0.000    0.000    0.000    0.000 
#
# Total GULP energy -185971.380266 kJ/mol
# GULP energy per Si atom -12398.092018 kJ/mol
# Density = 2.073075 g / cm^3
# Si number density = 20.778044 Si / 1000 Ang^3
#
#
#
# Elastic Constant Matrix: (Units=GPa)
#
#
# Indices 1 2 3 4 5 6 
#
# 1 75.6923 29.5496 25.3445 -0.0003 -4.0936 -0.0003
# 2 29.5496 108.3032 50.7174 -0.0001 9.4845 -0.0001
# 3 25.3445 50.7174 120.2585 -0.0004 11.6666 -0.0004
# 4 -0.0003 -0.0001 -0.0004 23.8891 -0.0003 -4.6537
# 5 -4.0936 9.4845 11.6666 -0.0003 37.5283 -0.0003
# 6 -0.0003 -0.0001 -0.0004 -4.6537 -0.0003 32.5338
#
#
#
# Elastic Compliance Matrix: (Units=1/GPa)
#
#
# Indices 1 2 3 4 5 6 
#
# 1 0.015460 -0.003524 -0.002085 0.000000 0.003225 0.000000
# 2 -0.003524 0.012385 -0.004268 0.000000 -0.002188 0.000000
# 3 -0.002085 -0.004268 0.010798 0.000000 -0.002505 0.000000
# 4 0.000000 0.000000 0.000000 0.043060 0.000000 0.006159
# 5 0.003225 -0.002188 -0.002505 0.000000 0.028330 0.000000
# 6 0.000000 0.000000 0.000000 0.006159 0.000000 0.031618
#
#
# Mechanical properties :
#
#
# Convention : Reuss Voigt Hill
#
# Bulk Modulus (GPa) = 52.94276 57.27521 55.10898
# Shear Modulus (GPa) = 29.81477 32.03307 30.92392
#
# Velocity S-wave (km/s) = 3.79214 3.93068 3.86203
# Velocity P-wave (km/s) = 6.68650 6.94445 6.81670
#
# Compressibility (1/GPa) = 0.01888833
#
# Stress axis : x y z
#
# Youngs Moduli (GPa) = 64.68446 80.74083 92.61000
#
# Poissons Ratio (x) = 0.28455 0.19307
# Poissons Ratio (y) = 0.22796 0.39529
# Poissons Ratio (z) = 0.13485 0.34463
#
# Static dielectric constant tensor:
#      x y z
#    x 3.827890 0.000000 0.149810 
#    y 0.000000 3.774530 0.000000 
#    z 0.149810 0.000000 3.972810 
# 
# 
# High freq. dielectric constant tensor:
#      x y z
#    x 1.812130 0.000000 0.006610 
#    y 0.000000 1.807580 0.000000 
#    z 0.006610 0.000000 1.823540 
# 
# From -- ./inp_files/57160.got.cif
#   From: 2010.03.12/outbox.cif.g09.slc.cpg/sg5_29_cif.got.tgz:57160.got - 2010.03.31 09:47:26.
