data_PCOD8050423
_publ_section_title
;
Structure prediction by ZEFSAII (Michael W. Deem and Ramdas Pophale) SiO2 
 PCOD8050423
Probable space group: C 2
;
_chemical_formula_sum "Si O2"
_cell_formula_units_Z 22
_cell_length_a 16.908117
_cell_length_b 6.535291
_cell_length_c 8.691565
_cell_angle_alpha 90.000000
_cell_angle_beta 98.162852
_cell_angle_gamma 90.000000
_cell_volume 950.682851
_symmetry_space_group_name_H-M "C 2"
_symmetry_group_IT_number 5
_symmetry_cell_setting 'monoclinic'
loop_
_space_group_symop_operation_xyz
x,y,z
-x,y,-z
1/2+x,1/2+y,z
1/2-x,1/2+y,-z
loop_
_atom_site_type_symbol
_atom_site_label
_atom_site_fract_x
_atom_site_fract_y
_atom_site_fract_z
Si Si1 0.360528 0.029010 0.147435
Si Si2 0.253987 0.872613 0.873223
Si Si3 0.500000 0.848400 0.000000
Si Si4 0.189951 0.719018 0.320593
Si Si5 0.349490 0.878112 0.473554
Si Si6 0.111600 0.119559 0.251675
O O1 0.334979 0.270332 0.153492
O O2 0.433220 0.000959 0.049018
O O3 0.385967 0.929184 0.316660
O O4 0.283777 0.906472 0.057035
O O5 0.309077 0.716959 0.796710
O O6 0.259410 0.094404 0.793855
O O7 0.533810 0.698280 0.140572
O O8 0.254035 0.844649 0.438227
O O9 0.137179 0.571638 0.412287
O O10 0.123277 0.875704 0.235863
O O11 0.393547 0.685796 0.568349
#
# Coordination Sequence:
#
# PCOD8050423 Si02
#       6
#     4   4   2   4   4   4
#     4  11  22  42  69 103 142 190 236 295 344 424
#     4  10  22  38  68 101 139 182 243 287 341 414
#     4  10  26  48  68 100 156 194 232 280 364 428
#     4  11  19  38  67 112 135 172 238 302 352 407
#     4  11  20  35  69 105 138 173 238 295 353 407
#     4  10  22  42  68 100 147 181 223 299 353 432
#
# _framework density 23.141262000000001
#
# number of rings (size 3 to 8) (size 9 to 14) (size 15 to 20)
#    0.000    1.455    3.636    2.182    0.000    0.727 
#    0.000    8.182    0.000    6.545    0.000    0.000 
#    0.000    0.000    0.000    0.000    0.000    0.000 
#
# Total GULP energy -136355.938317 kJ/mol
# GULP energy per Si atom -12395.994392 kJ/mol
# Density = 2.308859 g / cm^3
# Si number density = 23.141262 Si / 1000 Ang^3
#
#
#
# Elastic Constant Matrix: (Units=GPa)
#
#
# Indices 1 2 3 4 5 6 
#
# 1 75.8131 43.7270 31.6543 0.0000 4.5707 0.0000
# 2 43.7270 149.0102 58.9469 0.0000 -3.1327 0.0000
# 3 31.6543 58.9469 139.3519 0.0000 2.0213 0.0000
# 4 0.0000 0.0000 0.0000 30.2192 0.0000 -0.3240
# 5 4.5707 -3.1327 2.0213 0.0000 29.8515 0.0000
# 6 0.0000 0.0000 0.0000 -0.3240 0.0000 32.9810
#
#
#
# Elastic Compliance Matrix: (Units=1/GPa)
#
#
# Indices 1 2 3 4 5 6 
#
# 1 0.016574 -0.004144 -0.001971 0.000000 -0.002839 0.000000
# 2 -0.004144 0.009130 -0.002947 0.000000 0.001792 0.000000
# 3 -0.001971 -0.002947 0.008879 0.000000 -0.000609 0.000000
# 4 0.000000 0.000000 0.000000 0.033095 0.000000 0.000325
# 5 -0.002839 0.001792 -0.000609 0.000000 0.034163 0.000000
# 6 0.000000 0.000000 0.000000 0.000325 0.000000 0.030324
#
#
# Mechanical properties :
#
#
# Convention : Reuss Voigt Hill
#
# Bulk Modulus (GPa) = 60.75055 70.31460 65.53257
# Shear Modulus (GPa) = 32.09734 33.93347 33.01540
#
# Velocity S-wave (km/s) = 3.72831 3.83347 3.78125
# Velocity P-wave (km/s) = 6.69647 7.07424 6.88795
#
# Compressibility (1/GPa) = 0.01646076
#
# Stress axis : x y z
#
# Youngs Moduli (GPa) = 60.33379 109.52414 112.62294
#
# Poissons Ratio (x) = 0.45385 0.22197
# Poissons Ratio (y) = 0.25001 0.33189
# Poissons Ratio (z) = 0.11891 0.32276
#
# Static dielectric constant tensor:
#      x y z
#    x 3.626070 0.000000 0.038130 
#    y 0.000000 4.318300 0.000000 
#    z 0.038130 0.000000 4.517170 
# 
# 
# High freq. dielectric constant tensor:
#      x y z
#    x 1.858540 0.000000 -0.001940 
#    y 0.000000 1.919530 0.000000 
#    z -0.001940 0.000000 1.933100 
# 
# From -- ./inp_files/28356.got.cif
#   From: 2010.03.12/outbox.cif.g09.slc.cpg/sg5_15_cif.got.tgz:28356.got - 2010.03.31 09:47:26.
