data_PCOD8050331
_publ_section_title
;
Structure prediction by ZEFSAII (Michael W. Deem and Ramdas Pophale) SiO2 
 PCOD8050331
Probable space group: C 2
;
_chemical_formula_sum "Si O2"
_cell_formula_units_Z 26
_cell_length_a 27.877472
_cell_length_b 5.180753
_cell_length_c 18.110451
_cell_angle_alpha 90.000000
_cell_angle_beta 152.494920
_cell_angle_gamma 90.000000
_cell_volume 1207.967088
_symmetry_space_group_name_H-M "C 2"
_symmetry_group_IT_number 5
_symmetry_cell_setting 'monoclinic'
loop_
_space_group_symop_operation_xyz
x,y,z
-x,y,-z
1/2+x,1/2+y,z
1/2-x,1/2+y,-z
loop_
_atom_site_type_symbol
_atom_site_label
_atom_site_fract_x
_atom_site_fract_y
_atom_site_fract_z
Si Si1 0.675258 0.843570 0.688102
Si Si2 0.275255 0.726008 0.721397
Si Si3 0.941669 0.968302 0.563072
Si Si4 0.000000 0.664466 0.500000
Si Si5 0.857544 0.526358 0.956588
Si Si6 0.188560 0.126221 0.391359
Si Si7 0.967861 0.032507 0.160213
O O1 0.595972 0.747748 0.516250
O O2 0.738299 0.612008 0.815294
O O3 0.765514 0.010834 0.772143
O O4 0.605581 0.996916 0.651796
O O5 0.159248 0.820161 0.543742
O O6 0.326849 0.614917 0.718025
O O7 0.349480 0.949370 0.857948
O O8 0.996345 0.831861 0.568792
O O9 0.023961 0.988401 0.741044
O O10 0.888521 0.271420 0.044249
O O11 0.934675 0.765174 0.075849
O O12 0.239914 0.394912 0.484102
O O13 0.076420 0.118609 0.274409
#
# Coordination Sequence:
#
# PCOD8050331 Si02
#       7
#     4   4   4   2   4   4   4
#     4  10  21  45  72  98 136 183 235 280 347 419
#     4  10  22  44  69  94 142 189 225 288 340 410
#     4  10  22  41  74 102 134 180 236 292 341 410
#     4  10  22  40  80 104 128 180 250 280 344 420
#     4  11  25  45  66  99 144 188 219 283 361 411
#     4  12  25  42  68 107 136 182 248 288 327 402
#     4  12  25  44  70 104 143 185 229 290 351 402
#
# _framework density 21.523762999999999
#
# number of rings (size 3 to 8) (size 9 to 14) (size 15 to 20)
#    0.000    1.231    3.077    2.308    6.462    0.615 
#    2.769    0.000   13.538    0.000    0.000    0.000 
#    0.000    0.000    0.000    0.000    0.000    0.000 
#
# Total GULP energy -161144.039804 kJ/mol
# GULP energy per Si atom -12395.695370 kJ/mol
# Density = 2.147477 g / cm^3
# Si number density = 21.523763 Si / 1000 Ang^3
#
#
#
# Elastic Constant Matrix: (Units=GPa)
#
#
# Indices 1 2 3 4 5 6 
#
# 1 131.6495 -15.5836 27.0088 0.0006 -1.1547 0.0006
# 2 -15.5836 -855.5263 -414.7493 0.0092 38.6803 0.0064
# 3 27.0088 -414.7493 -106.0411 0.0049 1.9614 0.0035
# 4 0.0006 0.0092 0.0049 52.0043 -0.0014 3.4467
# 5 -1.1547 38.6803 1.9614 -0.0014 14.8418 -0.0013
# 6 0.0006 0.0064 0.0035 3.4467 -0.0013 19.7774
#
#
#
# Elastic Compliance Matrix: (Units=1/GPa)
#
#
# Indices 1 2 3 4 5 6 
#
# 1 0.008472 0.001446 -0.003548 0.000000 -0.002642 0.000000
# 2 0.001446 0.001671 -0.006232 0.000000 -0.003420 0.000000
# 3 -0.003548 -0.006232 0.014301 0.000000 0.014076 0.000001
# 4 0.000000 0.000000 0.000000 0.019454 0.000001 -0.003390
# 5 -0.002642 -0.003420 0.014076 0.000001 0.074224 0.000003
# 6 0.000000 0.000000 0.000001 -0.003390 0.000003 0.051154
#
#
# Mechanical properties :
#
#
# Convention : Reuss Voigt Hill
#
# Bulk Modulus (GPa) = 128.58799 -181.84067 -26.62634
# Shear Modulus (GPa) = 26.52004 -11.11490 7.70257
#
# Velocity S-wave (km/s) = 3.51398 -2.27491 1.89378
# Velocity P-wave (km/s) = 8.73705 9.56908 2.75965
#
# Compressibility (1/GPa) = 0.00777678
#
# Stress axis : x y z
#
# Youngs Moduli (GPa) = 118.03696 598.29780 69.92353
#
# Poissons Ratio (x) = -0.86538 0.24811
# Poissons Ratio (y) = -0.17073 0.43577
# Poissons Ratio (z) = 0.41883 3.72865
#
# Static dielectric constant tensor:
#      x y z
#    x 3.748060 0.000000 -0.011250 
#    y 0.000000 4.230440 0.000000 
#    z -0.011250 0.000000 4.023050 
# 
# 
# High freq. dielectric constant tensor:
#      x y z
#    x 1.819050 0.000000 -0.001800 
#    y 0.000000 1.867540 0.000000 
#    z -0.001800 0.000000 1.845860 
# 
# From -- ./inp_files/55373.got.cif
#   From: 2010.03.12/outbox.cif.g09.slc.cpg/sg5_28_cif.got.tgz:55373.got - 2010.03.31 09:47:26.
