data_PCOD8050831
_publ_section_title
;
Structure prediction by ZEFSAII (Michael W. Deem and Ramdas Pophale) SiO2 
 PCOD8050831
Probable space group: C 2
;
_chemical_formula_sum "Si O2"
_cell_formula_units_Z 26
_cell_length_a 20.550173
_cell_length_b 8.733374
_cell_length_c 9.689088
_cell_angle_alpha 90.000000
_cell_angle_beta 140.588151
_cell_angle_gamma 90.000000
_cell_volume 1104.025580
_symmetry_space_group_name_H-M "C 2"
_symmetry_group_IT_number 5
_symmetry_cell_setting 'monoclinic'
loop_
_space_group_symop_operation_xyz
x,y,z
-x,y,-z
1/2+x,1/2+y,z
1/2-x,1/2+y,-z
loop_
_atom_site_type_symbol
_atom_site_label
_atom_site_fract_x
_atom_site_fract_y
_atom_site_fract_z
Si Si1 0.000000 0.995510 0.500000
Si Si2 0.772752 0.450199 0.174665
Si Si3 0.726352 0.594384 0.825815
Si Si4 0.000000 0.703820 0.000000
Si Si5 0.161678 0.584728 0.463654
Si Si6 0.712946 0.882743 0.324507
Si Si7 0.945106 0.958054 0.111844
Si Si8 0.000000 0.206092 0.000000
O O1 0.896249 0.092218 0.351166
O O2 0.986880 0.904393 0.332917
O O3 0.862605 0.505885 0.427131
O O4 0.747928 0.271768 0.134663
O O5 0.792546 0.513626 0.054987
O O6 0.668573 0.529681 0.061123
O O7 0.769901 0.510721 0.763358
O O8 0.933229 0.590453 0.796649
O O9 0.062626 0.809007 0.996636
O O10 0.201491 0.754709 0.555051
O O11 0.239306 0.469124 0.511893
O O12 0.599558 0.810826 0.142650
O O13 0.013872 0.094115 0.156946
#
# Coordination Sequence:
#
# PCOD8050831 Si02
#       8
#     2   4   4   2   4   4   4   2
#     4  10  24  40  72 104 144 192 240 288 372 444
#     4  11  24  46  70 103 143 191 238 298 371 433
#     4  11  25  46  73 107 147 195 239 302 366 447
#     4  11  23  42  68  98 146 182 252 298 364 424
#     4  12  25  42  67 104 138 194 238 309 355 431
#     4  12  25  43  70 104 147 191 246 299 368 427
#     4  10  22  44  67 103 143 190 235 304 368 440
#     4  11  25  42  70 104 146 192 248 308 358 444
#
# _framework density 23.550177000000001
#
# number of rings (size 3 to 8) (size 9 to 14) (size 15 to 20)
#    0.000    0.923    1.538    5.077    8.615    1.231 
#    0.000    1.538    0.000    0.923    0.000    0.000 
#    0.000    0.000    0.000    0.000    0.000    0.000 
#
# Total GULP energy -161084.950648 kJ/mol
# GULP energy per Si atom -12391.150050 kJ/mol
# Density = 2.349658 g / cm^3
# Si number density = 23.550177 Si / 1000 Ang^3
#
#
#
# Elastic Constant Matrix: (Units=GPa)
#
#
# Indices 1 2 3 4 5 6 
#
# 1 65.2232 10.8501 22.0380 0.0000 -5.2723 0.0000
# 2 10.8501 132.0939 36.5665 0.0000 -15.0607 0.0000
# 3 22.0380 36.5665 136.5237 0.0000 -26.7172 0.0000
# 4 0.0000 0.0000 0.0000 39.0324 0.0000 -11.2817
# 5 -5.2723 -15.0607 -26.7172 0.0000 41.8577 0.0000
# 6 0.0000 0.0000 0.0000 -11.2817 0.0000 30.7606
#
#
#
# Elastic Compliance Matrix: (Units=1/GPa)
#
#
# Indices 1 2 3 4 5 6 
#
# 1 0.016272 -0.000640 -0.002399 0.000000 0.000288 0.000000
# 2 -0.000640 0.008317 -0.001777 0.000000 0.001778 0.000000
# 3 -0.002399 -0.001777 0.009146 0.000000 0.004896 0.000000
# 4 0.000000 0.000000 0.000000 0.028658 0.000000 0.010510
# 5 0.000288 0.001778 0.004896 0.000000 0.027692 0.000000
# 6 0.000000 0.000000 0.000000 0.010510 0.000000 0.036364
#
#
# Mechanical properties :
#
#
# Convention : Reuss Voigt Hill
#
# Bulk Modulus (GPa) = 41.48444 52.52778 47.00611
# Shear Modulus (GPa) = 34.69465 39.95589 37.32527
#
# Velocity S-wave (km/s) = 3.84242 4.12348 3.98543
# Velocity P-wave (km/s) = 6.11058 6.70998 6.41728
#
# Compressibility (1/GPa) = 0.02410543
#
# Stress axis : x y z
#
# Youngs Moduli (GPa) = 61.45433 120.22949 109.33731
#
# Poissons Ratio (x) = 0.07690 0.26230
# Poissons Ratio (y) = 0.03931 0.19424
# Poissons Ratio (z) = 0.14743 0.21359
#
# Static dielectric constant tensor:
#      x y z
#    x 4.322200 0.000000 -0.236980 
#    y 0.000000 4.248960 0.000000 
#    z -0.236980 0.000000 4.534050 
# 
# 
# High freq. dielectric constant tensor:
#      x y z
#    x 1.929940 0.000000 -0.020970 
#    y 0.000000 1.932930 0.000000 
#    z -0.020970 0.000000 1.939440 
# 
# From -- ./inp_files/29168.got.cif
#   From: 2010.03.12/outbox.cif.g09.slc.cpg/sg5_15_cif.got.tgz:29168.got - 2010.03.31 09:47:26.
