data_PCOD8050167
_publ_section_title
;
Structure prediction by ZEFSAII (Michael W. Deem and Ramdas Pophale) SiO2 
 PCOD8050167
Probable space group: C 2
;
_chemical_formula_sum "Si O2"
_cell_formula_units_Z 26
_cell_length_a 21.279459
_cell_length_b 9.451094
_cell_length_c 8.370577
_cell_angle_alpha 90.000000
_cell_angle_beta 47.189551
_cell_angle_gamma 90.000000
_cell_volume 1234.982779
_symmetry_space_group_name_H-M "C 2"
_symmetry_group_IT_number 5
_symmetry_cell_setting 'monoclinic'
loop_
_space_group_symop_operation_xyz
x,y,z
-x,y,-z
1/2+x,1/2+y,z
1/2-x,1/2+y,-z
loop_
_atom_site_type_symbol
_atom_site_label
_atom_site_fract_x
_atom_site_fract_y
_atom_site_fract_z
Si Si1 0.395109 0.745750 0.430068
Si Si2 0.000000 0.093320 0.000000
Si Si3 0.610822 0.424274 0.012765
Si Si4 0.663948 0.532053 0.237144
Si Si5 0.714756 0.148999 0.742017
Si Si6 0.048299 0.792686 0.564858
Si Si7 0.080286 0.539805 0.743679
O O1 0.475128 0.689217 0.192098
O O2 0.394281 0.668957 0.606644
O O3 0.302043 0.709814 0.511088
O O4 0.407704 0.915113 0.407468
O O5 0.086982 0.005033 0.890323
O O6 0.667715 0.518811 0.037812
O O7 0.517807 0.406433 0.252307
O O8 0.653960 0.275964 0.901595
O O9 0.759532 0.557008 0.143981
O O10 0.630186 0.382831 0.366635
O O11 0.665709 0.048302 0.703374
O O12 0.073257 0.683561 0.657789
O O13 0.000000 0.715030 0.500000
O O14 0.000000 0.516774 0.000000
#
# Coordination Sequence:
#
# PCOD8050167 Si02
#       7
#     4   2   4   4   4   4   4
#     4  10  25  42  59 101 132 167 221 269 338 380
#     4  12  22  40  72  94 128 178 220 268 328 398
#     4  11  20  42  69  94 125 178 222 265 327 397
#     4   9  23  43  64  92 133 169 222 268 325 404
#     4  10  24  41  65  97 129 171 222 271 328 390
#     4  10  21  41  65  92 123 176 222 262 327 394
#     4  12  23  42  64  96 133 170 218 282 323 389
#
# _framework density 21.052924999999998
#
# number of rings (size 3 to 8) (size 9 to 14) (size 15 to 20)
#    0.923    0.615    3.846    0.923    4.308    0.000 
#   11.077    0.000    0.000    0.000    0.000    0.000 
#    0.000    0.000    0.000    0.000    0.000    0.000 
#
# Total GULP energy -161060.848404 kJ/mol
# GULP energy per Si atom -12389.296031 kJ/mol
# Density = 2.100501 g / cm^3
# Si number density = 21.052925 Si / 1000 Ang^3
#
#
#
# Elastic Constant Matrix: (Units=GPa)
#
#
# Indices 1 2 3 4 5 6 
#
# 1 111.3126 43.7283 -1.4032 0.0000 6.5024 0.0000
# 2 43.7283 97.9482 9.8460 0.0000 10.8744 0.0000
# 3 -1.4032 9.8460 32.5065 0.0000 -3.0513 0.0000
# 4 0.0000 0.0000 0.0000 33.1152 0.0000 1.3339
# 5 6.5024 10.8744 -3.0513 0.0000 33.4173 0.0000
# 6 0.0000 0.0000 0.0000 1.3339 0.0000 33.1190
#
#
#
# Elastic Compliance Matrix: (Units=1/GPa)
#
#
# Indices 1 2 3 4 5 6 
#
# 1 0.011026 -0.005088 0.001988 0.000000 -0.000308 0.000000
# 2 -0.005088 0.013365 -0.004623 0.000000 -0.003781 0.000000
# 3 0.001988 -0.004623 0.032634 0.000000 0.004097 0.000000
# 4 0.000000 0.000000 0.000000 0.030247 0.000000 -0.001218
# 5 -0.000308 -0.003781 0.004097 0.000000 0.031589 0.000000
# 6 0.000000 0.000000 0.000000 -0.001218 0.000000 0.030243
#
#
# Mechanical properties :
#
#
# Convention : Reuss Voigt Hill
#
# Bulk Modulus (GPa) = 24.05041 38.45663 31.25352
# Shear Modulus (GPa) = 28.02548 32.57003 30.29776
#
# Velocity S-wave (km/s) = 3.65251 3.93753 3.79769
# Velocity P-wave (km/s) = 5.40706 6.24327 5.84015
#
# Compressibility (1/GPa) = 0.04157934
#
# Stress axis : x y z
#
# Youngs Moduli (GPa) = 90.69873 74.81974 30.64309
#
# Poissons Ratio (x) = 0.38068 -0.06092
# Poissons Ratio (y) = 0.46147 0.14166
# Poissons Ratio (z) = -0.18032 0.34588
#
# Static dielectric constant tensor:
#      x y z
#    x 4.018890 0.000000 0.090150 
#    y 0.000000 3.625410 0.000000 
#    z 0.090150 0.000000 3.661860 
# 
# 
# High freq. dielectric constant tensor:
#      x y z
#    x 1.823230 0.000000 -0.001990 
#    y 0.000000 1.816950 0.000000 
#    z -0.001990 0.000000 1.807400 
# 
# From -- ./inp_files/29101.got.cif
#   From: 2010.03.12/outbox.cif.g09.slc.cpg/sg5_15_cif.got.tgz:29101.got - 2010.03.31 09:47:26.
