data_PCOD8050408
_publ_section_title
;
Structure prediction by ZEFSAII (Michael W. Deem and Ramdas Pophale) SiO2 
 PCOD8050408
Probable space group: C 2
;
_chemical_formula_sum "Si O2"
_cell_formula_units_Z 32
_cell_length_a 9.190461
_cell_length_b 22.350659
_cell_length_c 15.265369
_cell_angle_alpha 90.000000
_cell_angle_beta 32.501823
_cell_angle_gamma 90.000000
_cell_volume 1684.896193
_symmetry_space_group_name_H-M "C 2"
_symmetry_group_IT_number 5
_symmetry_cell_setting 'monoclinic'
loop_
_space_group_symop_operation_xyz
x,y,z
-x,y,-z
1/2+x,1/2+y,z
1/2-x,1/2+y,-z
loop_
_atom_site_type_symbol
_atom_site_label
_atom_site_fract_x
_atom_site_fract_y
_atom_site_fract_z
Si Si1 0.685888 0.509450 0.821085
Si Si2 0.319042 0.589629 0.335822
Si Si3 0.545840 0.377035 0.875266
Si Si4 0.326844 0.517530 0.501637
Si Si5 0.503286 0.819304 0.094928
Si Si6 0.509781 0.383284 0.597053
Si Si7 0.821901 0.225399 0.332367
Si Si8 0.036853 0.295810 0.577456
O O1 0.577025 0.553428 0.801045
O O2 0.637928 0.443935 0.804539
O O3 0.003026 0.519964 0.684725
O O4 0.500000 0.520728 0.000000
O O5 0.421797 0.562344 0.376071
O O6 0.415782 0.657389 0.270974
O O7 0.000000 0.585287 0.500000
O O8 0.776523 0.332851 0.731492
O O9 0.500000 0.372418 0.000000
O O10 0.279104 0.355532 0.962520
O O11 0.500000 0.534812 0.500000
O O12 0.400685 0.450962 0.433155
O O13 0.453824 0.766541 0.190080
O O14 0.285804 0.872360 0.214074
O O15 0.500000 0.789702 0.000000
O O16 0.500000 0.365671 0.500000
O O17 0.707060 0.339491 0.549053
O O18 0.500000 0.233005 0.500000
O O19 0.938231 0.241747 0.367929
O O20 0.000000 0.267584 0.500000
#
# Coordination Sequence:
#
# PCOD8050408 Si02
#       8
#     4   4   4   4   4   4   4   4
#     4  10  22  39  62  93 121 159 198 247 305 360
#     4   9  22  42  66  85 117 168 207 243 291 363
#     4  11  22  37  58  90 133 152 190 252 310 361
#     4  10  22  38  64  92 120 157 202 251 297 354
#     4  12  24  37  60  92 124 160 199 249 306 355
#     4  11  20  39  60  88 127 157 195 249 300 363
#     4  11  22  44  63  85 123 163 209 244 292 364
#     4  12  22  35  62  90 118 159 199 248 298 355
#
# _framework density 18.992269
#
# number of rings (size 3 to 8) (size 9 to 14) (size 15 to 20)
#    0.000    1.250    5.000    0.750    8.750    1.000 
#    0.000    0.625    5.500    0.000    0.000    0.000 
#    0.000    0.000    0.000    0.000    0.000    0.000 
#
# Total GULP energy -198375.248263 kJ/mol
# GULP energy per Si atom -12398.453016 kJ/mol
# Density = 1.894904 g / cm^3
# Si number density = 18.992269 Si / 1000 Ang^3
#
#
#
# Elastic Constant Matrix: (Units=GPa)
#
#
# Indices 1 2 3 4 5 6 
#
# 1 160.6039 42.8350 81.3206 0.0326 30.0059 -0.0124
# 2 42.8350 139.3635 -9.4201 -0.0117 -10.0955 0.0036
# 3 81.3206 -9.4201 181.8586 0.0817 34.0459 -0.0396
# 4 0.0326 -0.0117 0.0817 20.2254 -0.0119 2.1844
# 5 30.0059 -10.0955 34.0459 -0.0119 60.6622 0.0053
# 6 -0.0124 0.0036 -0.0396 2.1844 0.0053 28.1572
#
#
#
# Elastic Compliance Matrix: (Units=1/GPa)
#
#
# Indices 1 2 3 4 5 6 
#
# 1 0.009752 -0.003495 -0.003944 -0.000004 -0.003192 0.000000
# 2 -0.003495 0.008520 0.001581 0.000006 0.002259 -0.000001
# 3 -0.003944 0.001581 0.007744 -0.000027 -0.002132 0.000011
# 4 -0.000004 0.000006 -0.000027 0.049861 0.000028 -0.003868
# 5 -0.003192 0.002259 -0.002132 0.000028 0.019636 -0.000011
# 6 0.000000 -0.000001 0.000011 -0.003868 -0.000011 0.035815
#
#
# Mechanical properties :
#
#
# Convention : Reuss Voigt Hill
#
# Bulk Modulus (GPa) = 69.93234 79.03298 74.48266
# Shear Modulus (GPa) = 33.82697 46.28167 40.05432
#
# Velocity S-wave (km/s) = 4.22488 4.94182 4.59735
# Velocity P-wave (km/s) = 7.79108 8.61775 8.21482
#
# Compressibility (1/GPa) = 0.01429953
#
# Stress axis : x y z
#
# Youngs Moduli (GPa) = 102.54006 117.36589 129.13924
#
# Poissons Ratio (x) = 0.41023 0.50937
# Poissons Ratio (y) = 0.35841 -0.20421
# Poissons Ratio (z) = 0.40446 -0.18560
#
# Static dielectric constant tensor:
#      x y z
#    x 3.782850 -0.000070 0.012850 
#    y -0.000070 3.454450 0.000020 
#    z 0.012850 0.000020 3.474680 
# 
# 
# High freq. dielectric constant tensor:
#      x y z
#    x 1.750440 0.000000 0.005040 
#    y 0.000000 1.728340 0.000000 
#    z 0.005040 0.000000 1.738570 
# 
# From -- ./inp_files/25561.got.cif
#   From: 2010.03.12/outbox.cif.g09.slc.cpg/sg5_13_cif.got.tgz:25561.got - 2010.03.31 09:47:26.
