data_PCOD8050191
_publ_section_title
;
Structure prediction by ZEFSAII (Michael W. Deem and Ramdas Pophale) SiO2 
 PCOD8050191
Probable space group: C 2
;
_chemical_formula_sum "Si O2"
_cell_formula_units_Z 30
_cell_length_a 14.004686
_cell_length_b 15.274121
_cell_length_c 18.604712
_cell_angle_alpha 90.000000
_cell_angle_beta 159.804402
_cell_angle_gamma 90.000000
_cell_volume 1373.903307
_symmetry_space_group_name_H-M "C 2"
_symmetry_group_IT_number 5
_symmetry_cell_setting 'monoclinic'
loop_
_space_group_symop_operation_xyz
x,y,z
-x,y,-z
1/2+x,1/2+y,z
1/2-x,1/2+y,-z
loop_
_atom_site_type_symbol
_atom_site_label
_atom_site_fract_x
_atom_site_fract_y
_atom_site_fract_z
Si Si1 0.470565 0.656420 0.402678
Si Si2 0.908728 0.564639 0.610642
Si Si3 0.181595 0.338607 0.259977
Si Si4 0.201115 0.399020 0.895361
Si Si5 0.020817 0.030770 0.818749
Si Si6 0.500000 0.271910 0.000000
Si Si7 0.447820 0.021917 0.883453
Si Si8 0.755292 0.654075 0.270419
O O1 0.500000 0.708499 0.500000
O O2 0.744342 0.629093 0.549804
O O3 0.259127 0.713261 0.206590
O O4 0.340844 0.565543 0.340809
O O5 0.710678 0.528708 0.406834
O O6 0.045962 0.480952 0.746408
O O7 0.147895 0.622206 0.740204
O O8 0.500000 0.354189 0.500000
O O9 0.060379 0.417857 0.128069
O O10 0.120268 0.250591 0.170962
O O11 0.030157 0.338284 0.230412
O O12 0.419118 0.433522 0.109206
O O13 0.383723 0.337006 0.976667
O O14 0.959152 0.086877 0.846322
O O15 0.308527 0.066965 0.990452
O O16 0.500000 0.051417 0.000000
O O17 0.000000 0.663021 0.500000
#
# Coordination Sequence:
#
# PCOD8050191 Si02
#       8
#     4   4   4   4   4   2   4   4
#     4  12  25  43  69  98 134 181 229 278 338 411
#     4  11  22  44  71  95 130 183 223 270 342 413
#     4  10  22  38  63  94 130 165 218 280 329 395
#     4  11  25  42  69  98 134 178 222 277 342 408
#     4  10  21  41  68  95 133 173 218 273 338 409
#     4  12  28  44  68 100 142 174 228 288 342 396
#     4  11  20  38  63  92 131 173 216 270 337 402
#     4   9  21  38  66  93 130 170 217 275 336 395
#
# _framework density 21.835598000000001
#
# number of rings (size 3 to 8) (size 9 to 14) (size 15 to 20)
#    0.000    1.333    2.000    3.600    7.467    1.067 
#    2.400    1.333    0.000    0.000    0.000    0.000 
#    0.000    0.000    0.000    0.000    0.000    0.000 
#
# Total GULP energy -185835.747670 kJ/mol
# GULP energy per Si atom -12389.049845 kJ/mol
# Density = 2.178590 g / cm^3
# Si number density = 21.835598 Si / 1000 Ang^3
#
#
#
# Elastic Constant Matrix: (Units=GPa)
#
#
# Indices 1 2 3 4 5 6 
#
# 1 162.7076 50.5843 41.9444 -0.0920 34.3688 -0.0985
# 2 50.5843 97.6889 33.4296 -0.0200 21.4108 0.0039
# 3 41.9444 33.4296 49.2634 0.1553 14.0404 -0.5996
# 4 -0.0920 -0.0200 0.1553 35.6125 0.0429 -2.7120
# 5 34.3688 21.4108 14.0404 0.0429 50.8701 -0.0729
# 6 -0.0985 0.0039 -0.5996 -2.7120 -0.0729 64.9147
#
#
#
# Elastic Compliance Matrix: (Units=1/GPa)
#
#
# Indices 1 2 3 4 5 6 
#
# 1 0.008887 -0.002029 -0.005126 0.000046 -0.003736 -0.000036
# 2 -0.002029 0.014354 -0.007253 0.000032 -0.002669 -0.000073
# 3 -0.005126 -0.007253 0.030100 -0.000126 -0.001791 0.000263
# 4 0.000046 0.000032 -0.000126 0.028170 -0.000032 0.001176
# 5 -0.003736 -0.002669 -0.001791 -0.000032 0.023800 0.000003
# 6 -0.000036 -0.000073 0.000263 0.001176 0.000003 0.015456
#
#
# Mechanical properties :
#
#
# Convention : Reuss Voigt Hill
#
# Bulk Modulus (GPa) = 40.77561 62.39740 51.58650
# Shear Modulus (GPa) = 31.69388 42.52624 37.11006
#
# Velocity S-wave (km/s) = 3.81396 4.41791 4.12700
# Velocity P-wave (km/s) = 6.17329 7.39337 6.81071
#
# Compressibility (1/GPa) = 0.02452447
#
# Stress axis : x y z
#
# Youngs Moduli (GPa) = 112.51972 69.66526 33.22300
#
# Poissons Ratio (x) = 0.14135 0.17030
# Poissons Ratio (y) = 0.22831 0.24098
# Poissons Ratio (z) = 0.57677 0.50531
#
# Static dielectric constant tensor:
#      x y z
#    x 4.083490 -0.000220 0.217830 
#    y -0.000220 4.045290 -0.000630 
#    z 0.217830 -0.000630 3.937230 
# 
# 
# High freq. dielectric constant tensor:
#      x y z
#    x 1.879820 0.000000 0.008460 
#    y 0.000000 1.849450 -0.000040 
#    z 0.008460 -0.000040 1.859980 
# 
# From -- ./inp_files/66217.got.cif
#   From: 2010.03.12/outbox.cif.g09.slc.cpg/sg5_34_cif.got.tgz:66217.got - 2010.03.31 09:47:26.
