data_PCOD8050411
_publ_section_title
;
Structure prediction by ZEFSAII (Michael W. Deem and Ramdas Pophale) SiO2 
 PCOD8050411
Probable space group: C 2
;
_chemical_formula_sum "Si O2"
_cell_formula_units_Z 28
_cell_length_a 18.565175
_cell_length_b 17.774503
_cell_length_c 10.430171
_cell_angle_alpha 90.000000
_cell_angle_beta 23.059150
_cell_angle_gamma 90.000000
_cell_volume 1348.095580
_symmetry_space_group_name_H-M "C 2"
_symmetry_group_IT_number 5
_symmetry_cell_setting 'monoclinic'
loop_
_space_group_symop_operation_xyz
x,y,z
-x,y,-z
1/2+x,1/2+y,z
1/2-x,1/2+y,-z
loop_
_atom_site_type_symbol
_atom_site_label
_atom_site_fract_x
_atom_site_fract_y
_atom_site_fract_z
Si Si1 0.579788 0.277590 0.737415
Si Si2 0.812298 0.113175 0.746833
Si Si3 0.976310 0.235723 0.749598
Si Si4 0.187533 0.152019 0.750399
Si Si5 0.119407 0.370736 0.680564
Si Si6 0.363924 0.240328 0.840099
Si Si7 0.985514 0.535875 0.174012
O O1 0.755344 0.224646 0.424599
O O2 0.666752 0.360211 0.625892
O O3 0.441030 0.280374 0.843554
O O4 0.500000 0.244519 0.000000
O O5 0.000000 0.079431 0.500000
O O6 0.864614 0.181681 0.565631
O O7 0.668990 0.151021 0.081971
O O8 0.697844 0.045609 0.870916
O O9 0.071970 0.307327 0.654980
O O10 0.845688 0.182394 0.051843
O O11 0.840301 0.270270 0.862751
O O12 0.350101 0.091406 0.472691
O O13 0.000000 0.117596 0.000000
O O14 0.086314 0.452760 0.675345
O O15 0.000000 0.358814 0.000000
O O16 0.500000 0.255274 0.500000
O O17 0.000000 0.552625 0.000000
#
# Coordination Sequence:
#
# PCOD8050411 Si02
#       7
#     4   4   4   4   4   4   4
#     4  12  22  37  65  94 129 163 217 266 319 373
#     4  10  22  38  64  94 124 165 218 270 314 381
#     4  11  20  38  66  95 121 164 218 264 313 383
#     4  12  21  36  67  90 126 167 219 255 318 378
#     4  11  22  40  59  90 130 168 208 269 323 379
#     4  11  20  35  63  99 123 160 218 265 313 377
#     4  11  24  39  60  92 132 171 212 265 327 381
#
# _framework density 20.770040000000002
#
# number of rings (size 3 to 8) (size 9 to 14) (size 15 to 20)
#    0.000    0.857    5.714    2.143    0.000    0.571 
#    0.000    3.571    0.000   19.714    0.000    0.000 
#    0.000    0.000    0.000    0.000    0.000    0.000 
#
# Total GULP energy -173446.367699 kJ/mol
# GULP energy per Si atom -12389.026264 kJ/mol
# Density = 2.072277 g / cm^3
# Si number density = 20.770040 Si / 1000 Ang^3
#
#
#
# Elastic Constant Matrix: (Units=GPa)
#
#
# Indices 1 2 3 4 5 6 
#
# 1 135.8676 43.7104 45.3197 -0.0007 -26.4128 -0.0073
# 2 43.7104 98.5857 38.5772 0.0111 -20.6750 -0.0185
# 3 45.3197 38.5772 90.6466 0.0050 -12.8435 -0.0312
# 4 -0.0007 0.0111 0.0050 35.9495 -0.0092 -2.2298
# 5 -26.4128 -20.6750 -12.8435 -0.0092 51.5677 0.0083
# 6 -0.0073 -0.0185 -0.0312 -2.2298 0.0083 21.7052
#
#
#
# Elastic Compliance Matrix: (Units=1/GPa)
#
#
# Indices 1 2 3 4 5 6 
#
# 1 0.009916 -0.002342 -0.003498 0.000002 0.003269 -0.000005
# 2 -0.002342 0.013453 -0.004105 -0.000003 0.003172 0.000003
# 3 -0.003498 -0.004105 0.014554 0.000000 0.000188 0.000016
# 4 0.000002 -0.000003 0.000000 0.027995 0.000005 0.002876
# 5 0.003269 0.003172 0.000188 0.000005 0.022385 -0.000004
# 6 -0.000005 0.000003 0.000016 0.002876 -0.000004 0.046367
#
#
# Mechanical properties :
#
#
# Convention : Reuss Voigt Hill
#
# Bulk Modulus (GPa) = 55.45219 64.47938 59.96578
# Shear Modulus (GPa) = 31.13882 35.01065 33.07474
#
# Velocity S-wave (km/s) = 3.87617 4.11010 3.99485
# Velocity P-wave (km/s) = 6.84026 7.32364 7.08607
#
# Compressibility (1/GPa) = 0.01803355
#
# Stress axis : x y z
#
# Youngs Moduli (GPa) = 100.85020 74.33022 68.70925
#
# Poissons Ratio (x) = 0.17410 0.24031
# Poissons Ratio (y) = 0.23622 0.28205
# Poissons Ratio (z) = 0.35272 0.30513
#
# Static dielectric constant tensor:
#      x y z
#    x 4.051170 0.000000 -0.052790 
#    y 0.000000 3.574850 0.000060 
#    z -0.052790 0.000060 3.854360 
# 
# 
# High freq. dielectric constant tensor:
#      x y z
#    x 1.826440 0.000000 -0.007390 
#    y 0.000000 1.761980 0.000000 
#    z -0.007390 0.000000 1.836860 
# 
# From -- ./inp_files/46625.got.cif
#   From: 2010.03.12/outbox.cif.g09.slc.cpg/sg5_24_cif.got.tgz:46625.got - 2010.03.31 09:47:26.
