data_PCOD8050596
_publ_section_title
;
Structure prediction by ZEFSAII (Michael W. Deem and Ramdas Pophale) SiO2 
 PCOD8050596
Probable space group: C 2
;
_chemical_formula_sum "Si O2"
_cell_formula_units_Z 28
_cell_length_a 11.458046
_cell_length_b 8.068215
_cell_length_c 14.574261
_cell_angle_alpha 90.000000
_cell_angle_beta 109.325864
_cell_angle_gamma 90.000000
_cell_volume 1271.411905
_symmetry_space_group_name_H-M "C 2"
_symmetry_group_IT_number 5
_symmetry_cell_setting 'monoclinic'
loop_
_space_group_symop_operation_xyz
x,y,z
-x,y,-z
1/2+x,1/2+y,z
1/2-x,1/2+y,-z
loop_
_atom_site_type_symbol
_atom_site_label
_atom_site_fract_x
_atom_site_fract_y
_atom_site_fract_z
Si Si1 0.000000 0.227260 0.500000
Si Si2 0.625997 0.400665 0.822837
Si Si3 0.373198 0.905798 0.972844
Si Si4 0.927667 0.048729 0.897057
Si Si5 0.152497 0.510991 0.836411
Si Si6 0.552746 0.971210 0.361217
Si Si7 0.325878 0.467957 0.372661
Si Si8 0.000000 0.726069 0.500000
O O1 0.070174 0.327962 0.439696
O O2 0.109754 0.135828 0.580315
O O3 0.751319 0.484918 0.896037
O O4 0.511138 0.510830 0.829380
O O5 0.620827 0.205206 0.849929
O O6 0.627692 0.415543 0.714891
O O7 0.406684 0.738331 0.924609
O O8 0.500000 0.016592 0.000000
O O9 0.349929 0.891762 0.075404
O O10 0.791729 0.983646 0.835386
O O11 0.000000 0.956752 0.000000
O O12 0.057349 0.435654 0.738618
O O13 0.519039 0.132518 0.409928
O O14 0.678657 0.988472 0.336575
O O15 0.374410 0.331075 0.456840
#
# Coordination Sequence:
#
# PCOD8050596 Si02
#       8
#     2   4   4   4   4   4   4   2
#     4  10  26  42  66 106 132 182 228 268 356 400
#     4  11  23  42  69 103 133 183 228 273 342 400
#     4  10  22  41  64  97 138 175 221 277 334 396
#     4  10  22  43  66  95 143 179 221 280 329 400
#     4  11  23  42  68 102 132 181 228 274 337 399
#     4  11  23  45  69 104 136 174 230 285 332 405
#     4  11  23  44  70  99 138 179 223 281 344 401
#     4  10  22  46  70  96 140 176 224 286 344 394
#
# _framework density 22.022760999999999
#
# number of rings (size 3 to 8) (size 9 to 14) (size 15 to 20)
#    0.000    1.429    2.857    1.714    0.000    6.286 
#   10.286    0.000    0.000    0.000    0.000    0.000 
#    0.000    0.000    0.000    0.000    0.000    0.000 
#
# Total GULP energy -173435.729965 kJ/mol
# GULP energy per Si atom -12388.266426 kJ/mol
# Density = 2.197264 g / cm^3
# Si number density = 22.022761 Si / 1000 Ang^3
#
#
#
# Elastic Constant Matrix: (Units=GPa)
#
#
# Indices 1 2 3 4 5 6 
#
# 1 181.8384 28.4068 46.9696 0.0000 13.6531 0.0000
# 2 28.4068 61.2739 14.7819 0.0000 -8.0390 0.0000
# 3 46.9696 14.7819 115.0773 0.0000 11.0141 0.0000
# 4 0.0000 0.0000 0.0000 -860.6547 0.0000 948.3469
# 5 13.6531 -8.0390 11.0141 0.0000 46.2603 0.0000
# 6 0.0000 0.0000 0.0000 948.3469 0.0000 -991.0532
#
#
#
# Elastic Compliance Matrix: (Units=1/GPa)
#
#
# Indices 1 2 3 4 5 6 
#
# 1 0.006643 -0.002811 -0.002165 0.000000 -0.001934 0.000000
# 2 -0.002811 0.018612 -0.001670 0.000000 0.004462 0.000000
# 3 -0.002165 -0.001670 0.009982 0.000000 -0.002028 0.000000
# 4 0.000000 0.000000 0.000000 0.021356 0.000000 0.020435
# 5 -0.001934 0.004462 -0.002028 0.000000 0.023446 0.000000
# 6 0.000000 0.000000 0.000000 0.020435 0.000000 0.018546
#
#
# Mechanical properties :
#
#
# Convention : Reuss Voigt Hill
#
# Bulk Modulus (GPa) = 45.57145 59.83402 52.70274
# Shear Modulus (GPa) = 41.94920 -343.22078 -150.63579
#
# Velocity S-wave (km/s) = 4.36915 -12.49746 -8.27940
# Velocity P-wave (km/s) = 6.79635 13.45439 8.21067
#
# Compressibility (1/GPa) = 0.02194357
#
# Stress axis : x y z
#
# Youngs Moduli (GPa) = 150.53440 53.72964 100.17805
#
# Poissons Ratio (x) = 0.15104 0.21691
# Poissons Ratio (y) = 0.42316 0.16734
# Poissons Ratio (z) = 0.32594 0.08975
#
# Static dielectric constant tensor:
#      x y z
#    x 5.550870 0.000000 2.321020 
#    y 0.000000 3.783120 0.000000 
#    z 2.321020 0.000000 7.318800 
# 
# 
# High freq. dielectric constant tensor:
#      x y z
#    x 1.879930 0.000000 0.012410 
#    y 0.000000 1.840850 0.000000 
#    z 0.012410 0.000000 1.880610 
# 
# From -- ./inp_files/52323.got.cif
#   From: 2010.03.12/outbox.cif.g09.slc.cpg/sg5_27_cif.got.tgz:52323.got - 2010.03.31 09:47:26.
