data_PCOD8050250
_publ_section_title
;
Structure prediction by ZEFSAII (Michael W. Deem and Ramdas Pophale) SiO2 
 PCOD8050250
Probable space group: C 2
;
_chemical_formula_sum "Si O2"
_cell_formula_units_Z 28
_cell_length_a 11.022474
_cell_length_b 14.730846
_cell_length_c 8.755475
_cell_angle_alpha 90.000000
_cell_angle_beta 111.100204
_cell_angle_gamma 90.000000
_cell_volume 1326.312622
_symmetry_space_group_name_H-M "C 2"
_symmetry_group_IT_number 5
_symmetry_cell_setting 'monoclinic'
loop_
_space_group_symop_operation_xyz
x,y,z
-x,y,-z
1/2+x,1/2+y,z
1/2-x,1/2+y,-z
loop_
_atom_site_type_symbol
_atom_site_label
_atom_site_fract_x
_atom_site_fract_y
_atom_site_fract_z
Si Si1 0.352202 0.959730 0.460085
Si Si2 0.933868 0.917379 0.228961
Si Si3 0.500000 0.863936 0.000000
Si Si4 0.779873 0.314341 0.677309
Si Si5 0.763962 0.647523 0.541876
Si Si6 0.228000 0.416239 0.899621
Si Si7 0.500000 0.563127 0.500000
Si Si8 0.389312 0.272358 0.839929
O O1 0.500000 0.934515 0.500000
O O2 0.296851 0.878007 0.537103
O O3 0.282517 0.968889 0.264651
O O4 0.337603 0.055103 0.537036
O O5 0.843306 0.852582 0.289130
O O6 0.055098 0.859207 0.225972
O O7 0.993686 0.001027 0.347382
O O8 0.847168 0.958427 0.051234
O O9 0.593000 0.806839 0.156057
O O10 0.406255 0.924379 0.065537
O O11 0.746765 0.212762 0.609237
O O12 0.622523 0.628536 0.545128
O O13 0.849273 0.691953 0.712268
O O14 0.265760 0.310211 0.881286
O O15 0.500000 0.231454 0.000000
#
# Coordination Sequence:
#
# PCOD8050250 Si02
#       8
#     4   4   2   4   4   4   2   4
#     4  12  24  44  70  99 139 180 221 276 337 403
#     4  10  22  45  71  92 131 180 225 277 332 399
#     4  10  22  40  70 100 130 186 220 274 342 390
#     4  11  23  45  69  95 140 178 223 276 333 406
#     4  12  27  41  67 105 132 178 222 274 338 401
#     4  10  21  42  71  97 128 179 229 274 336 391
#     4  12  24  42  64 102 134 168 228 276 332 396
#     4  10  22  43  71  97 133 176 225 277 334 401
#
# _framework density 21.111162
#
# number of rings (size 3 to 8) (size 9 to 14) (size 15 to 20)
#    0.000    1.143    4.286    1.714    5.000    0.000 
#    6.429    0.000    0.000    0.000    0.000    0.000 
#    0.000    0.000    0.000    0.000    0.000    0.000 
#
# Total GULP energy -173609.688254 kJ/mol
# GULP energy per Si atom -12400.692018 kJ/mol
# Density = 2.106311 g / cm^3
# Si number density = 21.111162 Si / 1000 Ang^3
#
#
#
# Elastic Constant Matrix: (Units=GPa)
#
#
# Indices 1 2 3 4 5 6 
#
# 1 101.6638 18.4334 28.3092 0.0000 -3.3375 0.0000
# 2 18.4334 55.3791 23.7686 0.0000 5.6340 0.0000
# 3 28.3092 23.7686 139.5955 0.0000 7.3846 0.0000
# 4 0.0000 0.0000 0.0000 31.5246 0.0000 -0.1796
# 5 -3.3375 5.6340 7.3846 0.0000 32.1129 0.0000
# 6 0.0000 0.0000 0.0000 -0.1796 0.0000 20.1407
#
#
#
# Elastic Compliance Matrix: (Units=1/GPa)
#
#
# Indices 1 2 3 4 5 6 
#
# 1 0.010969 -0.003088 -0.001810 0.000000 0.002098 0.000000
# 2 -0.003088 0.020582 -0.002703 0.000000 -0.003310 0.000000
# 3 -0.001810 -0.002703 0.008074 0.000000 -0.001570 0.000000
# 4 0.000000 0.000000 0.000000 0.031723 0.000000 0.000283
# 5 0.002098 -0.003310 -0.001570 0.000000 0.032300 0.000000
# 6 0.000000 0.000000 0.000000 0.000283 0.000000 0.049653
#
#
# Mechanical properties :
#
#
# Convention : Reuss Voigt Hill
#
# Bulk Modulus (GPa) = 40.94390 48.62898 44.78644
# Shear Modulus (GPa) = 28.30553 31.83078 30.06816
#
# Velocity S-wave (km/s) = 3.66565 3.88721 3.77805
# Velocity P-wave (km/s) = 6.11167 6.57510 6.34762
#
# Compressibility (1/GPa) = 0.02442367
#
# Stress axis : x y z
#
# Youngs Moduli (GPa) = 91.16590 48.58586 123.85610
#
# Poissons Ratio (x) = 0.15003 0.22414
# Poissons Ratio (y) = 0.28151 0.33480
# Poissons Ratio (z) = 0.16498 0.13133
#
# Static dielectric constant tensor:
#      x y z
#    x 4.031200 0.000000 -0.005430 
#    y 0.000000 3.409420 0.000000 
#    z -0.005430 0.000000 4.361700 
# 
# 
# High freq. dielectric constant tensor:
#      x y z
#    x 1.847240 0.000000 0.003590 
#    y 0.000000 1.788270 0.000000 
#    z 0.003590 0.000000 1.853750 
# 
# From -- ./inp_files/20051.got.cif
#   From: 2010.03.12/outbox.cif.g09.slc.cpg/sg5_11_cif.got.tgz:20051.got - 2010.03.31 09:47:26.
