data_PCOD8050569
_publ_section_title
;
Structure prediction by ZEFSAII (Michael W. Deem and Ramdas Pophale) SiO2 
 PCOD8050569
Probable space group: C 2
;
_chemical_formula_sum "Si O2"
_cell_formula_units_Z 20
_cell_length_a 12.961754
_cell_length_b 6.989797
_cell_length_c 9.167693
_cell_angle_alpha 90.000000
_cell_angle_beta 98.424991
_cell_angle_gamma 90.000000
_cell_volume 821.629924
_symmetry_space_group_name_H-M "C 2"
_symmetry_group_IT_number 5
_symmetry_cell_setting 'monoclinic'
loop_
_space_group_symop_operation_xyz
x,y,z
-x,y,-z
1/2+x,1/2+y,z
1/2-x,1/2+y,-z
loop_
_atom_site_type_symbol
_atom_site_label
_atom_site_fract_x
_atom_site_fract_y
_atom_site_fract_z
Si Si1 0.807184 0.533760 0.855376
Si Si2 0.153690 0.771219 0.651504
Si Si3 0.517332 0.752449 0.164513
Si Si4 0.799152 0.407099 0.181666
Si Si5 0.944397 0.930712 0.623141
O O1 0.718040 0.429654 0.748736
O O2 0.710695 0.012762 0.975364
O O3 0.918972 0.451655 0.830152
O O4 0.799003 0.761426 0.816622
O O5 0.202858 0.562488 0.689762
O O6 0.152208 0.814546 0.474362
O O7 0.034975 0.780227 0.693860
O O8 0.585268 0.589145 0.261988
O O9 0.405958 0.786413 0.215629
O O10 0.500000 0.669112 0.000000
O O11 0.000000 0.047395 0.500000
#
# Coordination Sequence:
#
# PCOD8050569 Si02
#       5
#     4   4   4   4   4
#     4  11  21  38  70 102 139 187 226 295 361 413
#     4   9  20  40  67  92 136 192 226 276 354 421
#     4  10  22  40  71 108 140 175 241 297 348 430
#     4  11  20  41  65 103 145 179 234 290 360 424
#     4   8  19  43  67  94 139 191 227 280 363 415
#
# _framework density 24.341858999999999
#
# number of rings (size 3 to 8) (size 9 to 14) (size 15 to 20)
#    1.200    0.800    4.000    0.000    0.000    0.000 
#   14.400    5.000    0.000    0.000    0.000    0.000 
#    0.000    0.000    0.000    0.000    0.000    0.000 
#
# Total GULP energy -123881.831714 kJ/mol
# GULP energy per Si atom -12388.183171 kJ/mol
# Density = 2.428646 g / cm^3
# Si number density = 24.341859 Si / 1000 Ang^3
#
#
#
# Elastic Constant Matrix: (Units=GPa)
#
#
# Indices 1 2 3 4 5 6 
#
# 1 44.7764 21.6340 25.7647 0.0000 16.7496 0.0000
# 2 21.6340 169.8185 69.4712 0.0000 12.5223 0.0000
# 3 25.7647 69.4712 115.6491 0.0000 33.7073 0.0000
# 4 0.0000 0.0000 0.0000 47.2129 0.0000 16.5142
# 5 16.7496 12.5223 33.7073 0.0000 32.8383 0.0000
# 6 0.0000 0.0000 0.0000 16.5142 0.0000 27.2877
#
#
#
# Elastic Compliance Matrix: (Units=1/GPa)
#
#
# Indices 1 2 3 4 5 6 
#
# 1 0.028866 -0.002130 -0.001565 0.000000 -0.012305 0.000000
# 2 -0.002130 0.008126 -0.005451 0.000000 0.003583 0.000000
# 3 -0.001565 -0.005451 0.016311 0.000000 -0.013866 0.000000
# 4 0.000000 0.000000 0.000000 0.026868 0.000000 -0.016260
# 5 -0.012305 0.003583 -0.013866 0.000000 0.049595 0.000000
# 6 0.000000 0.000000 0.000000 -0.016260 0.000000 0.046487
#
#
# Mechanical properties :
#
#
# Convention : Reuss Voigt Hill
#
# Bulk Modulus (GPa) = 28.56244 62.66487 45.61366
# Shear Modulus (GPa) = 24.24653 35.69273 29.96963
#
# Velocity S-wave (km/s) = 3.15950 3.83340 3.51265
# Velocity P-wave (km/s) = 5.00692 6.73742 5.93558
#
# Compressibility (1/GPa) = 0.03501102
#
# Stress axis : x y z
#
# Youngs Moduli (GPa) = 34.64338 123.06637 61.30680
#
# Poissons Ratio (x) = 0.26210 0.09595
# Poissons Ratio (y) = 0.07378 0.33418
# Poissons Ratio (z) = 0.05422 0.67083
#
# Static dielectric constant tensor:
#      x y z
#    x 4.190250 0.000000 0.394160 
#    y 0.000000 4.175150 0.000000 
#    z 0.394160 0.000000 4.399530 
# 
# 
# High freq. dielectric constant tensor:
#      x y z
#    x 1.956860 0.000000 0.026450 
#    y 0.000000 1.951960 0.000000 
#    z 0.026450 0.000000 1.966060 
# 
# From -- ./inp_files/41144.got.cif
#   From: 2010.03.12/outbox.cif.g09.slc.cpg/sg5_21_cif.got.tgz:41144.got - 2010.03.31 09:47:26.
