data_PCOD8050127
_publ_section_title
;
Structure prediction by ZEFSAII (Michael W. Deem and Ramdas Pophale) SiO2 
 PCOD8050127
Probable space group: C 2
;
_chemical_formula_sum "Si O2"
_cell_formula_units_Z 26
_cell_length_a 14.699094
_cell_length_b 8.157725
_cell_length_c 15.420141
_cell_angle_alpha 90.000000
_cell_angle_beta 39.590196
_cell_angle_gamma 90.000000
_cell_volume 1178.383174
_symmetry_space_group_name_H-M "C 2"
_symmetry_group_IT_number 5
_symmetry_cell_setting 'monoclinic'
loop_
_space_group_symop_operation_xyz
x,y,z
-x,y,-z
1/2+x,1/2+y,z
1/2-x,1/2+y,-z
loop_
_atom_site_type_symbol
_atom_site_label
_atom_site_fract_x
_atom_site_fract_y
_atom_site_fract_z
Si Si1 0.644922 0.983120 0.147424
Si Si2 0.093884 0.200237 0.073559
Si Si3 0.948232 0.436478 0.446111
Si Si4 0.868998 0.979988 0.324978
Si Si5 0.890494 0.627225 0.232258
Si Si6 0.092852 0.051315 0.514235
Si Si7 0.500000 0.951328 0.000000
O O1 0.661571 0.793833 0.106517
O O2 0.571784 0.001424 0.293567
O O3 0.543853 0.075446 0.154251
O O4 0.802173 0.057754 0.034715
O O5 0.080154 0.330916 0.007038
O O6 0.943397 0.123861 0.215196
O O7 0.797142 0.524385 0.536648
O O8 0.938935 0.241359 0.446503
O O9 0.000000 0.498418 0.500000
O O10 0.873866 0.819918 0.260826
O O11 0.940122 0.958677 0.369492
O O12 0.760399 0.527332 0.371012
O O13 0.890191 0.573642 0.130971
O O14 0.000000 0.985058 0.500000
#
# Coordination Sequence:
#
# PCOD8050127 Si02
#       7
#     4   4   4   4   4   4   2
#     4  11  22  44  64  95 136 178 228 280 341 401
#     4  11  25  42  70  96 137 181 233 284 339 409
#     4  10  22  41  67  98 138 175 225 280 339 404
#     4  11  22  43  72 102 133 184 231 279 352 405
#     4  10  23  42  67  95 139 179 223 286 338 403
#     4  10  21  40  69  99 133 177 225 284 337 409
#     4  10  26  46  62  96 144 178 234 288 338 402
#
# _framework density 22.064131
#
# number of rings (size 3 to 8) (size 9 to 14) (size 15 to 20)
#    0.000    1.538    3.077    0.923    2.154    4.308 
#   11.077    0.769    0.000    0.000    0.000    0.000 
#    0.000    0.000    0.000    0.000    0.000    0.000 
#
# Total GULP energy -161133.319768 kJ/mol
# GULP energy per Si atom -12394.870751 kJ/mol
# Density = 2.201391 g / cm^3
# Si number density = 22.064131 Si / 1000 Ang^3
#
#
#
# Elastic Constant Matrix: (Units=GPa)
#
#
# Indices 1 2 3 4 5 6 
#
# 1 106.0099 29.7735 50.2303 0.0000 17.0923 0.0000
# 2 29.7735 83.1639 56.2269 0.0000 12.9782 0.0000
# 3 50.2303 56.2269 153.4207 0.0000 19.2223 0.0000
# 4 0.0000 0.0000 0.0000 35.1222 0.0000 6.0810
# 5 17.0923 12.9782 19.2223 0.0000 37.9651 0.0000
# 6 0.0000 0.0000 0.0000 6.0810 0.0000 29.6678
#
#
#
# Elastic Compliance Matrix: (Units=1/GPa)
#
#
# Indices 1 2 3 4 5 6 
#
# 1 0.011793 -0.001832 -0.002779 0.000000 -0.003276 0.000000
# 2 -0.001832 0.016527 -0.005181 0.000000 -0.002202 0.000000
# 3 -0.002779 -0.005181 0.009554 0.000000 -0.001815 0.000000
# 4 0.000000 0.000000 0.000000 0.029520 0.000000 -0.006051
# 5 -0.003276 -0.002202 -0.001815 0.000000 0.029486 0.000000
# 6 0.000000 0.000000 0.000000 -0.006051 0.000000 0.034947
#
#
# Mechanical properties :
#
#
# Convention : Reuss Voigt Hill
#
# Bulk Modulus (GPa) = 54.67692 68.33957 61.50824
# Shear Modulus (GPa) = 31.74455 34.30859 33.02657
#
# Velocity S-wave (km/s) = 3.79719 3.94756 3.87310
# Velocity P-wave (km/s) = 6.63774 7.19848 6.92379
#
# Compressibility (1/GPa) = 0.01828925
#
# Stress axis : x y z
#
# Youngs Moduli (GPa) = 84.79944 60.50744 104.66520
#
# Poissons Ratio (x) = 0.11083 0.29089
# Poissons Ratio (y) = 0.15532 0.54231
# Poissons Ratio (z) = 0.23567 0.31351
#
# Static dielectric constant tensor:
#      x y z
#    x 4.059400 0.000000 0.261350 
#    y 0.000000 3.828180 0.000000 
#    z 0.261350 0.000000 4.365440 
# 
# 
# High freq. dielectric constant tensor:
#      x y z
#    x 1.858950 0.000000 0.010050 
#    y 0.000000 1.852600 0.000000 
#    z 0.010050 0.000000 1.884540 
# 
# From -- ./inp_files/29098.got.cif
#   From: 2010.03.12/outbox.cif.g09.slc.cpg/sg5_15_cif.got.tgz:29098.got - 2010.03.31 09:47:26.
