data_PCOD8050794
_publ_section_title
;
Structure prediction by ZEFSAII (Michael W. Deem and Ramdas Pophale) SiO2 
 PCOD8050794
Probable space group: C 2
;
_chemical_formula_sum "Si O2"
_cell_formula_units_Z 28
_cell_length_a 26.957920
_cell_length_b 8.810229
_cell_length_c 7.974069
_cell_angle_alpha 90.000000
_cell_angle_beta 136.623209
_cell_angle_gamma 90.000000
_cell_volume 1300.707109
_symmetry_space_group_name_H-M "C 2"
_symmetry_group_IT_number 5
_symmetry_cell_setting 'monoclinic'
loop_
_space_group_symop_operation_xyz
x,y,z
-x,y,-z
1/2+x,1/2+y,z
1/2-x,1/2+y,-z
loop_
_atom_site_type_symbol
_atom_site_label
_atom_site_fract_x
_atom_site_fract_y
_atom_site_fract_z
Si Si1 0.500000 0.323480 0.000000
Si Si2 0.587262 0.108458 0.981802
Si Si3 0.374410 0.516944 0.657264
Si Si4 0.648554 0.875717 0.732092
Si Si5 0.687150 0.366870 0.162765
Si Si6 0.000000 0.454111 0.500000
Si Si7 0.351884 0.854738 0.633724
Si Si8 0.285817 0.543093 0.114817
O O1 0.553750 0.218938 0.032711
O O2 0.552708 0.436514 0.231484
O O3 0.648043 0.205399 0.032823
O O4 0.623229 0.960370 0.153358
O O5 0.519957 0.061859 0.702453
O O6 0.350304 0.457784 0.779692
O O7 0.391154 0.692814 0.734677
O O8 0.319624 0.483000 0.370903
O O9 0.572934 0.855771 0.645745
O O10 0.626754 0.928307 0.491679
O O11 0.696036 0.721649 0.855688
O O12 0.699918 0.010590 0.927603
O O13 0.766308 0.328185 0.425473
O O14 0.686163 0.460548 0.985857
#
# Coordination Sequence:
#
# PCOD8050794 Si02
#       8
#     2   4   4   4   4   2   4   4
#     4  10  24  44  60 100 128 188 224 284 364 406
#     4  11  25  42  68  96 143 179 232 281 353 426
#     4  10  23  41  69  95 136 181 225 292 348 405
#     4  10  25  44  68 104 136 188 230 291 354 409
#     4  10  23  42  68 106 126 182 229 294 342 404
#     4  12  28  40  68 106 142 186 226 286 366 412
#     4  10  22  43  69  96 134 175 236 284 341 413
#     4  10  24  44  71  99 142 178 245 287 341 425
#
# _framework density 21.526752999999999
#
# number of rings (size 3 to 8) (size 9 to 14) (size 15 to 20)
#    0.000    1.714    0.000    1.714   12.000    7.429 
#    5.143    0.000    0.000    0.000    0.000    0.000 
#    0.000    0.000    0.000    0.000    0.000    0.000 
#
# Total GULP energy -173457.344273 kJ/mol
# GULP energy per Si atom -12389.810305 kJ/mol
# Density = 2.147776 g / cm^3
# Si number density = 21.526753 Si / 1000 Ang^3
#
#
#
# Elastic Constant Matrix: (Units=GPa)
#
#
# Indices 1 2 3 4 5 6 
#
# 1 75.4081 23.4913 48.0334 0.0000 13.7836 0.0000
# 2 23.4913 100.8608 63.8093 0.0000 8.9327 0.0000
# 3 48.0334 63.8093 121.4307 0.0000 -1.8721 0.0000
# 4 0.0000 0.0000 0.0000 31.2603 0.0000 3.0445
# 5 13.7836 8.9327 -1.8721 0.0000 47.0969 0.0000
# 6 0.0000 0.0000 0.0000 3.0445 0.0000 33.5350
#
#
#
# Elastic Compliance Matrix: (Units=1/GPa)
#
#
# Indices 1 2 3 4 5 6 
#
# 1 0.019391 0.001429 -0.008518 0.000000 -0.006285 0.000000
# 2 0.001429 0.015433 -0.008732 0.000000 -0.003693 0.000000
# 3 -0.008518 -0.008732 0.016267 0.000000 0.004796 0.000000
# 4 0.000000 0.000000 0.000000 0.032275 0.000000 -0.002930
# 5 -0.006285 -0.003693 0.004796 0.000000 0.023963 0.000000
# 6 0.000000 0.000000 0.000000 -0.002930 0.000000 0.030086
#
#
# Mechanical properties :
#
#
# Convention : Reuss Voigt Hill
#
# Bulk Modulus (GPa) = 51.41668 63.15196 57.28432
# Shear Modulus (GPa) = 28.48368 33.20280 30.84324
#
# Velocity S-wave (km/s) = 3.64149 3.93160 3.78932
# Velocity P-wave (km/s) = 6.45116 7.07178 6.76859
#
# Compressibility (1/GPa) = 0.01944894
#
# Stress axis : x y z
#
# Youngs Moduli (GPa) = 51.57156 64.79569 61.47378
#
# Poissons Ratio (x) = -0.09262 0.52364
# Poissons Ratio (y) = -0.07372 0.53680
# Poissons Ratio (z) = 0.43929 0.56580
#
# Static dielectric constant tensor:
#      x y z
#    x 4.264330 0.000000 0.151090 
#    y 0.000000 3.916910 0.000000 
#    z 0.151090 0.000000 4.058690 
# 
# 
# High freq. dielectric constant tensor:
#      x y z
#    x 1.854200 0.000000 0.001300 
#    y 0.000000 1.848350 0.000000 
#    z 0.001300 0.000000 1.848890 
# 
# From -- ./inp_files/31791.got.cif
#   From: 2010.03.12/outbox.cif.g09.slc.cpg/sg5_16_cif.got.tgz:31791.got - 2010.03.31 09:47:26.
