data_PCOD8050931
_publ_section_title
;
Structure prediction by ZEFSAII (Michael W. Deem and Ramdas Pophale) SiO2 
 PCOD8050931
Probable space group: C 2
;
_chemical_formula_sum "Si O2"
_cell_formula_units_Z 20
_cell_length_a 18.256738
_cell_length_b 8.229871
_cell_length_c 9.365010
_cell_angle_alpha 90.000000
_cell_angle_beta 37.798988
_cell_angle_gamma 90.000000
_cell_volume 862.400871
_symmetry_space_group_name_H-M "C 2"
_symmetry_group_IT_number 5
_symmetry_cell_setting 'monoclinic'
loop_
_space_group_symop_operation_xyz
x,y,z
-x,y,-z
1/2+x,1/2+y,z
1/2-x,1/2+y,-z
loop_
_atom_site_type_symbol
_atom_site_label
_atom_site_fract_x
_atom_site_fract_y
_atom_site_fract_z
Si Si1 0.000000 0.043031 0.500000
Si Si2 0.630190 0.728399 0.548195
Si Si3 0.681809 0.286945 0.107914
Si Si4 0.500000 0.561006 0.000000
Si Si5 0.633023 0.986546 0.338383
Si Si6 0.109212 0.740928 0.919155
O O1 0.047018 0.151098 0.555856
O O2 0.111892 0.937469 0.279065
O O3 0.570805 0.684778 0.789058
O O4 0.768461 0.670367 0.336911
O O5 0.636138 0.922079 0.497916
O O6 0.704251 0.155005 0.199513
O O7 0.809317 0.343727 0.848905
O O8 0.606381 0.203514 0.093261
O O9 0.596228 0.439870 0.927961
O O10 0.500000 0.027035 0.500000
O O11 0.000000 0.657103 0.000000
#
# Coordination Sequence:
#
# PCOD8050931 Si02
#       6
#     2   4   4   2   4   4
#     4  12  20  42  78 104 146 180 232 304 352 406
#     4  11  23  43  74 105 138 189 235 285 358 414
#     4  11  22  42  70 105 144 183 229 301 348 410
#     4  10  22  46  70 100 144 194 222 298 340 426
#     4  11  24  42  68 106 139 180 235 286 353 409
#     4   9  21  45  67  99 142 188 232 280 348 423
#
# _framework density 23.191068000000001
#
# number of rings (size 3 to 8) (size 9 to 14) (size 15 to 20)
#    0.600    0.800    4.000    2.400    0.000    0.000 
#    7.200    8.000    0.000    1.200    0.000    0.000 
#    0.000    0.000    0.000    0.000    0.000    0.000 
#
# Total GULP energy -123881.024403 kJ/mol
# GULP energy per Si atom -12388.102440 kJ/mol
# Density = 2.313828 g / cm^3
# Si number density = 23.191068 Si / 1000 Ang^3
#
#
#
# Elastic Constant Matrix: (Units=GPa)
#
#
# Indices 1 2 3 4 5 6 
#
# 1 63.8982 15.5310 12.8671 0.0000 1.9722 0.0000
# 2 15.5310 83.1418 37.2368 0.0000 5.9195 0.0000
# 3 12.8671 37.2368 107.1698 0.0000 12.2049 0.0000
# 4 0.0000 0.0000 0.0000 44.1777 0.0000 -2.8515
# 5 1.9722 5.9195 12.2049 0.0000 32.9087 0.0000
# 6 0.0000 0.0000 0.0000 -2.8515 0.0000 28.2419
#
#
#
# Elastic Compliance Matrix: (Units=1/GPa)
#
#
# Indices 1 2 3 4 5 6 
#
# 1 0.016499 -0.002596 -0.001064 0.000000 -0.000127 0.000000
# 2 -0.002596 0.014671 -0.004702 0.000000 -0.000740 0.000000
# 3 -0.001064 -0.004702 0.011473 0.000000 -0.003346 0.000000
# 4 0.000000 0.000000 0.000000 0.022784 0.000000 0.002301
# 5 -0.000127 -0.000740 -0.003346 0.000000 0.031769 0.000000
# 6 0.000000 0.000000 0.000000 0.002301 0.000000 0.035641
#
#
# Mechanical properties :
#
#
# Convention : Reuss Voigt Hill
#
# Bulk Modulus (GPa) = 38.58161 42.83105 40.70633
# Shear Modulus (GPa) = 31.60529 33.63733 32.62131
#
# Velocity S-wave (km/s) = 3.69565 3.81260 3.75458
# Velocity P-wave (km/s) = 5.90618 6.15549 6.03212
#
# Compressibility (1/GPa) = 0.02591908
#
# Stress axis : x y z
#
# Youngs Moduli (GPa) = 60.60896 68.16164 87.15821
#
# Poissons Ratio (x) = 0.17697 0.09277
# Poissons Ratio (y) = 0.15736 0.40978
# Poissons Ratio (z) = 0.06451 0.32047
#
# Static dielectric constant tensor:
#      x y z
#    x 4.164370 0.000000 0.049670 
#    y 0.000000 4.095240 0.000000 
#    z 0.049670 0.000000 4.447560 
# 
# 
# High freq. dielectric constant tensor:
#      x y z
#    x 1.902380 0.000000 -0.017290 
#    y 0.000000 1.896210 0.000000 
#    z -0.017290 0.000000 1.929290 
# 
# From -- ./inp_files/28857.got.cif
#   From: 2010.03.12/outbox.cif.g09.slc.cpg/sg5_15_cif.got.tgz:28857.got - 2010.03.31 09:47:26.
