data_PCOD8050307
_publ_section_title
;
Structure prediction by ZEFSAII (Michael W. Deem and Ramdas Pophale) SiO2 
 PCOD8050307
Probable space group: C 2
;
_chemical_formula_sum "Si O2"
_cell_formula_units_Z 16
_cell_length_a 11.323676
_cell_length_b 8.447435
_cell_length_c 11.207705
_cell_angle_alpha 90.000000
_cell_angle_beta 38.063590
_cell_angle_gamma 90.000000
_cell_volume 660.978290
_symmetry_space_group_name_H-M "C 2"
_symmetry_group_IT_number 5
_symmetry_cell_setting 'monoclinic'
loop_
_space_group_symop_operation_xyz
x,y,z
-x,y,-z
1/2+x,1/2+y,z
1/2-x,1/2+y,-z
loop_
_atom_site_type_symbol
_atom_site_label
_atom_site_fract_x
_atom_site_fract_y
_atom_site_fract_z
Si Si1 0.784645 0.379590 0.638891
Si Si2 0.499588 0.926502 0.864389
Si Si3 0.841592 0.070306 0.464489
Si Si4 0.226360 0.197024 0.127731
O O1 0.771890 0.248040 0.545171
O O2 0.680958 0.530378 0.660116
O O3 0.688481 0.312547 0.836769
O O4 0.000000 0.429689 0.500000
O O5 0.715827 0.948606 0.643807
O O6 0.381691 0.797153 0.886091
O O7 0.500000 0.869302 0.000000
O O8 0.398089 0.098648 0.933319
O O9 0.071235 0.073196 0.310708
#
# Coordination Sequence:
#
# PCOD8050307 Si02
#       4
#     4   4   4   4
#     4  10  21  44  68  93 129 174 218 263 325 384
#     4  12  26  43  66  99 133 172 219 270 324 384
#     4  11  22  45  69  91 133 175 215 268 324 385
#     4  11  27  44  67  99 133 173 219 267 325 389
#
# _framework density 24.206544000000001
#
# number of rings (size 3 to 8) (size 9 to 14) (size 15 to 20)
#    0.000    1.000    7.500    0.000    3.500    2.000 
#    0.000    3.750    0.000    0.000    0.000    0.000 
#    0.000    0.000    0.000    0.000    0.000    0.000 
#
# Total GULP energy -99110.679210 kJ/mol
# GULP energy per Si atom -12388.834901 kJ/mol
# Density = 2.415145 g / cm^3
# Si number density = 24.206544 Si / 1000 Ang^3
#
#
#
# Elastic Constant Matrix: (Units=GPa)
#
#
# Indices 1 2 3 4 5 6 
#
# 1 119.3444 47.1114 27.0029 0.0000 34.0764 0.0000
# 2 47.1114 46.1387 5.3796 0.0000 17.5810 0.0000
# 3 27.0029 5.3796 100.5016 0.0000 8.9797 0.0000
# 4 0.0000 0.0000 0.0000 25.5887 0.0000 9.1717
# 5 34.0764 17.5810 8.9797 0.0000 28.0713 0.0000
# 6 0.0000 0.0000 0.0000 9.1717 0.0000 70.9753
#
#
#
# Elastic Compliance Matrix: (Units=1/GPa)
#
#
# Indices 1 2 3 4 5 6 
#
# 1 0.017743 -0.013037 -0.002959 0.000000 -0.012428 0.000000
# 2 -0.013037 0.038047 0.002245 0.000000 -0.008721 0.000000
# 3 -0.002959 0.002245 0.010737 0.000000 -0.001249 0.000000
# 4 0.000000 0.000000 0.000000 0.040978 0.000000 -0.005295
# 5 -0.012428 -0.008721 -0.001249 0.000000 0.056571 0.000000
# 6 0.000000 0.000000 0.000000 -0.005295 0.000000 0.014774
#
#
# Mechanical properties :
#
#
# Convention : Reuss Voigt Hill
#
# Bulk Modulus (GPa) = 25.62423 47.21917 36.42170
# Shear Modulus (GPa) = 22.79363 37.35976 30.07669
#
# Velocity S-wave (km/s) = 3.07193 3.93284 3.52874
# Velocity P-wave (km/s) = 4.81570 6.33815 5.62864
#
# Compressibility (1/GPa) = 0.03902556
#
# Stress axis : x y z
#
# Youngs Moduli (GPa) = 56.35868 26.28332 93.14005
#
# Poissons Ratio (x) = 0.34266 0.27561
# Poissons Ratio (y) = 0.73475 -0.20914
# Poissons Ratio (z) = 0.16677 -0.05902
#
# Static dielectric constant tensor:
#      x y z
#    x 4.435600 0.000000 0.005400 
#    y 0.000000 4.198430 0.000000 
#    z 0.005400 0.000000 4.659610 
# 
# 
# High freq. dielectric constant tensor:
#      x y z
#    x 1.964910 0.000000 0.003500 
#    y 0.000000 1.936200 0.000000 
#    z 0.003500 0.000000 1.964310 
# 
# From -- ./inp_files/17924.got.cif
#   From: 2010.03.12/outbox.cif.g09.slc.cpg/sg5_9_cif.got.tgz:17924.got - 2010.03.31 09:47:26.
