data_PCOD8050026
_publ_section_title
;
Structure prediction by ZEFSAII (Michael W. Deem and Ramdas Pophale) SiO2 
 PCOD8050026
Probable space group: C 2
;
_chemical_formula_sum "Si O2"
_cell_formula_units_Z 28
_cell_length_a 13.013264
_cell_length_b 16.261013
_cell_length_c 9.076823
_cell_angle_alpha 90.000000
_cell_angle_beta 138.428818
_cell_angle_gamma 90.000000
_cell_volume 1274.504472
_symmetry_space_group_name_H-M "C 2"
_symmetry_group_IT_number 5
_symmetry_cell_setting 'monoclinic'
loop_
_space_group_symop_operation_xyz
x,y,z
-x,y,-z
1/2+x,1/2+y,z
1/2-x,1/2+y,-z
loop_
_atom_site_type_symbol
_atom_site_label
_atom_site_fract_x
_atom_site_fract_y
_atom_site_fract_z
Si Si1 0.354679 0.407260 0.436146
Si Si2 0.529866 0.712305 0.691807
Si Si3 0.271632 0.582469 0.431133
Si Si4 0.464634 0.334622 0.124550
Si Si5 0.654593 0.868180 0.961776
Si Si6 0.857257 0.650846 0.985741
Si Si7 0.484293 0.020544 0.655581
O O1 0.500000 0.376268 0.500000
O O2 0.360538 0.505975 0.453654
O O3 0.379932 0.360069 0.618344
O O4 0.200228 0.378594 0.183151
O O5 0.500000 0.755055 0.500000
O O6 0.387718 0.656377 0.596169
O O7 0.568365 0.781099 0.853641
O O8 0.674574 0.653850 0.818933
O O9 0.191243 0.546223 0.491538
O O10 0.132845 0.615864 0.173286
O O11 0.446456 0.236492 0.099873
O O12 0.500000 0.369143 0.000000
O O13 0.307437 0.375198 0.021350
O O14 0.528948 0.936020 0.783327
O O15 0.905769 0.591429 0.168022
O O16 0.500000 0.010429 0.500000
#
# Coordination Sequence:
#
# PCOD8050026 Si02
#       7
#     4   4   4   4   4   4   4
#     4  10  21  39  68 100 132 169 219 270 327 393
#     4   9  20  40  71  95 128 171 222 268 329 393
#     4  11  22  42  69  95 124 181 223 262 328 402
#     4  10  22  39  69 102 133 173 221 268 330 394
#     4  10  22  41  65  98 136 174 217 280 330 385
#     4  10  21  43  69  93 130 175 220 266 326 404
#     4  12  26  40  63  95 136 172 224 278 329 381
#
# _framework density 21.969322999999999
#
# number of rings (size 3 to 8) (size 9 to 14) (size 15 to 20)
#    0.000    1.714    1.429    3.000    4.000    2.857 
#    2.571    0.714    6.286    0.000    0.000    0.000 
#    0.000    0.000    0.000    0.000    0.000    0.000 
#
# Total GULP energy -173576.197909 kJ/mol
# GULP energy per Si atom -12398.299851 kJ/mol
# Density = 2.191932 g / cm^3
# Si number density = 21.969323 Si / 1000 Ang^3
#
#
#
# Elastic Constant Matrix: (Units=GPa)
#
#
# Indices 1 2 3 4 5 6 
#
# 1 73.5205 29.3475 48.9749 0.0000 -9.7662 0.0000
# 2 29.3475 111.9649 65.3486 0.0000 -7.5032 0.0000
# 3 48.9749 65.3486 150.7059 0.0000 -18.4090 0.0000
# 4 0.0000 0.0000 0.0000 46.0441 0.0000 2.7143
# 5 -9.7662 -7.5032 -18.4090 0.0000 27.8830 0.0000
# 6 0.0000 0.0000 0.0000 2.7143 0.0000 26.0924
#
#
#
# Elastic Compliance Matrix: (Units=1/GPa)
#
#
# Indices 1 2 3 4 5 6 
#
# 1 0.017779 -0.001740 -0.004699 0.000000 0.002657 0.000000
# 2 -0.001740 0.012129 -0.004753 0.000000 -0.000484 0.000000
# 3 -0.004699 -0.004753 0.010732 0.000000 0.004160 0.000000
# 4 0.000000 0.000000 0.000000 0.021852 0.000000 -0.002273
# 5 0.002657 -0.000484 0.004160 0.000000 0.039411 0.000000
# 6 0.000000 0.000000 0.000000 -0.002273 0.000000 0.038562
#
#
# Mechanical properties :
#
#
# Convention : Reuss Voigt Hill
#
# Bulk Modulus (GPa) = 54.77435 69.28148 62.02791
# Shear Modulus (GPa) = 29.59735 32.83859 31.21797
#
# Velocity S-wave (km/s) = 3.67442 3.87039 3.77368
# Velocity P-wave (km/s) = 6.55654 7.18173 6.87624
#
# Compressibility (1/GPa) = 0.01825672
#
# Stress axis : x y z
#
# Youngs Moduli (GPa) = 56.24603 82.44617 93.18225
#
# Poissons Ratio (x) = 0.14343 0.43784
# Poissons Ratio (y) = 0.09785 0.44291
# Poissons Ratio (z) = 0.26429 0.39188
#
# Static dielectric constant tensor:
#      x y z
#    x 3.968020 0.000000 -0.000610 
#    y 0.000000 3.851820 0.000000 
#    z -0.000610 0.000000 4.278350 
# 
# 
# High freq. dielectric constant tensor:
#      x y z
#    x 1.859860 0.000000 0.012650 
#    y 0.000000 1.862970 0.000000 
#    z 0.012650 0.000000 1.868930 
# 
# From -- ./inp_files/25215.got.cif
#   From: 2010.03.12/outbox.cif.g09.slc.cpg/sg5_13_cif.got.tgz:25215.got - 2010.03.31 09:47:26.
