data_PCOD8050586
_publ_section_title
;
Structure prediction by ZEFSAII (Michael W. Deem and Ramdas Pophale) SiO2 
 PCOD8050586
Probable space group: C 2
;
_chemical_formula_sum "Si O2"
_cell_formula_units_Z 22
_cell_length_a 22.433160
_cell_length_b 6.651445
_cell_length_c 7.719953
_cell_angle_alpha 90.000000
_cell_angle_beta 75.247569
_cell_angle_gamma 90.000000
_cell_volume 1113.944025
_symmetry_space_group_name_H-M "C 2"
_symmetry_group_IT_number 5
_symmetry_cell_setting 'monoclinic'
loop_
_space_group_symop_operation_xyz
x,y,z
-x,y,-z
1/2+x,1/2+y,z
1/2-x,1/2+y,-z
loop_
_atom_site_type_symbol
_atom_site_label
_atom_site_fract_x
_atom_site_fract_y
_atom_site_fract_z
Si Si1 0.837714 0.078700 0.638604
Si Si2 0.269743 0.331794 0.200367
Si Si3 0.000000 0.173395 0.000000
Si Si4 0.185126 0.678417 0.179325
Si Si5 0.122301 0.073479 0.766814
Si Si6 0.889229 0.332481 0.913357
O O1 0.765372 0.144409 0.684150
O O2 0.870478 0.142388 0.436085
O O3 0.872581 0.189652 0.766615
O O4 0.843257 0.839314 0.665914
O O5 0.226886 0.527490 0.259278
O O6 0.336594 0.372150 0.235608
O O7 0.274267 0.297780 0.991270
O O8 0.950424 0.032510 0.138891
O O9 0.036927 0.317770 0.108110
O O10 0.131232 0.559399 0.114358
O O11 0.144749 0.247787 0.886059
#
# Coordination Sequence:
#
# PCOD8050586 Si02
#       6
#     4   4   2   4   4   4
#     4  11  23  36  63  97 129 165 215 268 327 388
#     4  11  21  35  60  90 129 166 207 258 329 387
#     4   8  20  44  68  84 126 178 216 274 318 380
#     4  11  19  38  62  90 130 171 203 270 326 377
#     4  10  22  41  63  93 126 174 216 263 324 389
#     4   9  21  42  61  89 124 170 217 267 322 369
#
# _framework density 19.749645999999998
#
# number of rings (size 3 to 8) (size 9 to 14) (size 15 to 20)
#    1.091    0.727    3.636    1.091    2.545    0.727 
#    3.273    3.636    0.000    8.727    0.000    0.000 
#    0.000    0.000    0.000    0.000    0.000    0.000 
#
# Total GULP energy -136301.036395 kJ/mol
# GULP energy per Si atom -12391.003309 kJ/mol
# Density = 1.970469 g / cm^3
# Si number density = 19.749646 Si / 1000 Ang^3
#
#
#
# Elastic Constant Matrix: (Units=GPa)
#
#
# Indices 1 2 3 4 5 6 
#
# 1 129.6552 48.9182 46.3090 0.0000 -13.0384 0.0000
# 2 48.9182 100.3449 40.1176 0.0000 5.2041 0.0000
# 3 46.3090 40.1176 143.5271 0.0000 2.7889 0.0000
# 4 0.0000 0.0000 0.0000 11.1276 0.0000 0.1882
# 5 -13.0384 5.2041 2.7889 0.0000 26.5707 0.0000
# 6 0.0000 0.0000 0.0000 0.1882 0.0000 33.2209
#
#
#
# Elastic Compliance Matrix: (Units=1/GPa)
#
#
# Indices 1 2 3 4 5 6 
#
# 1 0.011014 -0.004772 -0.002348 0.000000 0.006586 0.000000
# 2 -0.004772 0.013381 -0.002108 0.000000 -0.004741 0.000000
# 3 -0.002348 -0.002108 0.008345 0.000000 -0.001615 0.000000
# 4 0.000000 0.000000 0.000000 0.089875 0.000000 -0.000509
# 5 0.006586 -0.004741 -0.001615 0.000000 0.041965 0.000000
# 6 0.000000 0.000000 0.000000 -0.000509 0.000000 0.030104
#
#
# Mechanical properties :
#
#
# Convention : Reuss Voigt Hill
#
# Bulk Modulus (GPa) = 70.00870 71.57964 70.79417
# Shear Modulus (GPa) = 22.94596 30.06268 26.50432
#
# Velocity S-wave (km/s) = 3.41228 3.90576 3.66733
# Velocity P-wave (km/s) = 7.14492 7.52742 7.33866
#
# Compressibility (1/GPa) = 0.01428394
#
# Stress axis : x y z
#
# Youngs Moduli (GPa) = 90.79207 74.73343 119.82530
#
# Poissons Ratio (x) = 0.35665 0.28132
# Poissons Ratio (y) = 0.43329 0.25262
# Poissons Ratio (z) = 0.21316 0.15755
#
# Static dielectric constant tensor:
#      x y z
#    x 3.548760 0.000000 0.026560 
#    y 0.000000 3.468380 0.000000 
#    z 0.026560 0.000000 3.399480 
# 
# 
# High freq. dielectric constant tensor:
#      x y z
#    x 1.759440 0.000000 0.010120 
#    y 0.000000 1.750420 0.000000 
#    z 0.010120 0.000000 1.758460 
# 
# From -- ./inp_files/30194.got.cif
#   From: 2010.03.12/outbox.cif.g09.slc.cpg/sg5_16_cif.got.tgz:30194.got - 2010.03.31 09:47:26.
