data_PCOD8050749
_publ_section_title
;
Structure prediction by ZEFSAII (Michael W. Deem and Ramdas Pophale) SiO2 
 PCOD8050749
Probable space group: C 2
;
_chemical_formula_sum "Si O2"
_cell_formula_units_Z 24
_cell_length_a 13.066677
_cell_length_b 6.482523
_cell_length_c 24.716840
_cell_angle_alpha 90.000000
_cell_angle_beta 32.709146
_cell_angle_gamma 90.000000
_cell_volume 1131.350386
_symmetry_space_group_name_H-M "C 2"
_symmetry_group_IT_number 5
_symmetry_cell_setting 'monoclinic'
loop_
_space_group_symop_operation_xyz
x,y,z
-x,y,-z
1/2+x,1/2+y,z
1/2-x,1/2+y,-z
loop_
_atom_site_type_symbol
_atom_site_label
_atom_site_fract_x
_atom_site_fract_y
_atom_site_fract_z
Si Si1 0.773185 0.747040 0.416606
Si Si2 0.702308 0.391260 0.094257
Si Si3 0.500000 0.614420 0.000000
Si Si4 0.000000 0.597609 0.500000
Si Si5 0.755375 0.344983 0.948302
Si Si6 0.985798 0.928958 0.598115
Si Si7 0.400163 0.108549 0.249074
O O1 0.628349 0.603547 0.513584
O O2 0.857916 0.602155 0.331958
O O3 0.941137 0.824979 0.379833
O O4 0.676101 0.950232 0.435107
O O5 0.745732 0.628820 0.082195
O O6 0.477776 0.339087 0.199865
O O7 0.777790 0.309869 0.002238
O O8 0.818515 0.265569 0.089297
O O9 0.556961 0.464352 0.024739
O O10 0.947743 0.744596 0.573161
O O11 0.932317 0.458587 0.843016
O O12 0.789744 0.047314 0.698532
#
# Coordination Sequence:
#
# PCOD8050749 Si02
#       7
#     4   4   2   2   4   4   4
#     4  12  25  45  69 105 132 184 230 281 356 408
#     4  11  23  46  70  98 140 184 226 288 342 396
#     4  10  22  42  72  94 124 182 232 276 338 406
#     4  12  22  44  74  90 140 178 220 290 344 406
#     4  11  23  46  70  97 140 184 227 287 344 398
#     4  12  25  45  72  99 140 182 227 288 350 412
#     4  11  25  42  68 109 137 179 241 276 339 423
#
# _framework density 21.213588000000001
#
# number of rings (size 3 to 8) (size 9 to 14) (size 15 to 20)
#    0.000    0.667    8.333    0.500    2.333    2.667 
#    3.000    0.000    0.000    0.000    0.000    0.000 
#    0.000    0.000    0.000    0.000    0.000    0.000 
#
# Total GULP energy -148709.002587 kJ/mol
# GULP energy per Si atom -12392.416882 kJ/mol
# Density = 2.116530 g / cm^3
# Si number density = 21.213588 Si / 1000 Ang^3
#
#
#
# Elastic Constant Matrix: (Units=GPa)
#
#
# Indices 1 2 3 4 5 6 
#
# 1 132.1578 48.2155 49.5344 -0.0002 -20.5345 0.0005
# 2 48.2155 89.7588 29.4868 -0.0012 -12.3757 0.0023
# 3 49.5344 29.4868 106.5808 -0.0003 -17.6893 0.0009
# 4 -0.0002 -0.0012 -0.0003 38.4819 -0.0002 -1.5775
# 5 -20.5345 -12.3757 -17.6893 -0.0002 18.5432 0.0003
# 6 0.0005 0.0023 0.0009 -1.5775 0.0003 48.5187
#
#
#
# Elastic Compliance Matrix: (Units=1/GPa)
#
#
# Indices 1 2 3 4 5 6 
#
# 1 0.011245 -0.004124 -0.002941 0.000000 0.006895 0.000000
# 2 -0.004124 0.014330 -0.001448 0.000000 0.003616 -0.000001
# 3 -0.002941 -0.001448 0.012415 0.000000 0.007620 0.000000
# 4 0.000000 0.000000 0.000000 0.026021 0.000001 0.000846
# 5 0.006895 0.003616 0.007620 0.000001 0.071246 -0.000001
# 6 0.000000 -0.000001 0.000000 0.000846 -0.000001 0.020638
#
#
# Mechanical properties :
#
#
# Convention : Reuss Voigt Hill
#
# Bulk Modulus (GPa) = 47.69920 64.77455 56.23687
# Shear Modulus (GPa) = 27.79207 34.52613 31.15910
#
# Velocity S-wave (km/s) = 3.62347 4.03866 3.83669
# Velocity P-wave (km/s) = 6.32772 7.23523 6.79664
#
# Compressibility (1/GPa) = 0.02096471
#
# Stress axis : x y z
#
# Youngs Moduli (GPa) = 88.93080 69.78225 80.55000
#
# Poissons Ratio (x) = 0.28775 0.23689
# Poissons Ratio (y) = 0.36671 0.11663
# Poissons Ratio (z) = 0.26154 0.10104
#
# Static dielectric constant tensor:
#      x y z
#    x 4.062300 0.000000 -0.203040 
#    y 0.000000 4.231740 0.000000 
#    z -0.203040 0.000000 3.754620 
# 
# 
# High freq. dielectric constant tensor:
#      x y z
#    x 1.830800 0.000000 -0.012570 
#    y 0.000000 1.856860 0.000000 
#    z -0.012570 0.000000 1.812250 
# 
# From -- ./inp_files/70479.got.cif
#   From: 2010.03.12/outbox.cif.g09.slc.cpg/sg5_36_cif.got.tgz:70479.got - 2010.03.31 09:47:26.
