data_PCOD8050032
_publ_section_title
;
Structure prediction by ZEFSAII (Michael W. Deem and Ramdas Pophale) SiO2 
 PCOD8050032
Probable space group: C 2
;
_chemical_formula_sum "Si O2"
_cell_formula_units_Z 28
_cell_length_a 18.088997
_cell_length_b 10.647526
_cell_length_c 6.214470
_cell_angle_alpha 90.000000
_cell_angle_beta 102.465945
_cell_angle_gamma 90.000000
_cell_volume 1168.707823
_symmetry_space_group_name_H-M "C 2"
_symmetry_group_IT_number 5
_symmetry_cell_setting 'monoclinic'
loop_
_space_group_symop_operation_xyz
x,y,z
-x,y,-z
1/2+x,1/2+y,z
1/2-x,1/2+y,-z
loop_
_atom_site_type_symbol
_atom_site_label
_atom_site_fract_x
_atom_site_fract_y
_atom_site_fract_z
Si Si1 0.731163 0.899970 0.612738
Si Si2 0.890966 0.307394 0.141689
Si Si3 0.093797 0.959237 0.671071
Si Si4 0.620005 0.261997 0.337089
Si Si5 0.285084 0.579493 0.990002
Si Si6 0.000000 0.171629 0.500000
Si Si7 0.000000 0.892189 0.000000
Si Si8 0.346452 0.015449 0.815559
O O1 0.655473 0.857399 0.683974
O O2 0.791421 0.787915 0.641710
O O3 0.710705 0.931228 0.356839
O O4 0.771888 0.020721 0.746460
O O5 0.838758 0.200293 0.998008
O O6 0.973263 0.258296 0.279018
O O7 0.902907 0.421075 0.979383
O O8 0.091237 0.826809 0.541058
O O9 0.027024 0.970247 0.809043
O O10 0.174622 0.975985 0.831752
O O11 0.073083 0.079066 0.502600
O O12 0.609540 0.110230 0.320598
O O13 0.572412 0.309487 0.104779
O O14 0.202455 0.600028 0.045814
#
# Coordination Sequence:
#
# PCOD8050032 Si02
#       8
#     4   4   4   4   4   2   2   4
#     4  11  23  40  69 101 136 185 238 298 356 415
#     4  10  24  45  66 105 143 191 242 291 366 428
#     4  11  22  42  72 109 137 184 240 307 366 418
#     4  12  24  43  69 102 144 183 248 293 356 437
#     4  10  21  39  70 102 142 174 236 297 354 428
#     4  10  22  48  72 102 150 186 250 306 348 440
#     4  12  24  44  70 104 138 184 238 298 368 424
#     4  11  25  42  68 104 143 197 231 293 366 426
#
# _framework density 23.958085000000001
#
# number of rings (size 3 to 8) (size 9 to 14) (size 15 to 20)
#    0.000    1.143    5.714    0.000    2.000    2.286 
#    7.714    0.000    0.000    0.000    0.000    0.000 
#    0.000    0.000    0.000    0.000    0.000    0.000 
#
# Total GULP energy -173446.995450 kJ/mol
# GULP energy per Si atom -12389.071104 kJ/mol
# Density = 2.390356 g / cm^3
# Si number density = 23.958085 Si / 1000 Ang^3
#
#
#
# Elastic Constant Matrix: (Units=GPa)
#
#
# Indices 1 2 3 4 5 6 
#
# 1 60.6525 29.7678 33.8889 0.0000 4.6110 0.0000
# 2 29.7678 136.7351 59.6302 0.0000 -2.1776 0.0000
# 3 33.8889 59.6302 113.5378 0.0000 13.1757 0.0000
# 4 0.0000 0.0000 0.0000 41.4273 0.0000 5.2374
# 5 4.6110 -2.1776 13.1757 0.0000 38.8898 0.0000
# 6 0.0000 0.0000 0.0000 5.2374 0.0000 27.7049
#
#
#
# Elastic Compliance Matrix: (Units=1/GPa)
#
#
# Indices 1 2 3 4 5 6 
#
# 1 0.020367 -0.002395 -0.004711 0.000000 -0.000953 0.000000
# 2 -0.002395 0.009971 -0.004809 0.000000 0.002472 0.000000
# 3 -0.004711 -0.004809 0.013226 0.000000 -0.004192 0.000000
# 4 0.000000 0.000000 0.000000 0.024730 0.000000 -0.004675
# 5 -0.000953 0.002472 -0.004192 0.000000 0.027385 0.000000
# 6 0.000000 0.000000 0.000000 -0.004675 0.000000 0.036979
#
#
# Mechanical properties :
#
#
# Convention : Reuss Voigt Hill
#
# Bulk Modulus (GPa) = 50.67106 61.94435 56.30770
# Shear Modulus (GPa) = 30.66249 34.11362 32.38806
#
# Velocity S-wave (km/s) = 3.58137 3.77754 3.68076
# Velocity P-wave (km/s) = 6.18849 6.70357 6.45117
#
# Compressibility (1/GPa) = 0.01973513
#
# Stress axis : x y z
#
# Youngs Moduli (GPa) = 49.09829 100.28761 75.60942
#
# Poissons Ratio (x) = 0.24017 0.35619
# Poissons Ratio (y) = 0.11758 0.36360
# Poissons Ratio (z) = 0.23130 0.48228
#
# Static dielectric constant tensor:
#      x y z
#    x 4.063190 0.000000 0.280370 
#    y 0.000000 4.257960 0.000000 
#    z 0.280370 0.000000 4.309930 
# 
# 
# High freq. dielectric constant tensor:
#      x y z
#    x 1.925800 0.000000 0.021480 
#    y 0.000000 1.939490 0.000000 
#    z 0.021480 0.000000 1.956080 
# 
# From -- ./inp_files/9495.got.cif
#   From: 2010.03.12/outbox.cif.g09.slc.cpg/sg5_5_cif.got.tgz:9495.got - 2010.03.31 09:47:26.
