data_PCOD8050473
_publ_section_title
;
Structure prediction by ZEFSAII (Michael W. Deem and Ramdas Pophale) SiO2 
 PCOD8050473
Probable space group: C 2
;
_chemical_formula_sum "Si O2"
_cell_formula_units_Z 32
_cell_length_a 14.400174
_cell_length_b 12.119080
_cell_length_c 14.149718
_cell_angle_alpha 90.000000
_cell_angle_beta 39.870034
_cell_angle_gamma 90.000000
_cell_volume 1582.981859
_symmetry_space_group_name_H-M "C 2"
_symmetry_group_IT_number 5
_symmetry_cell_setting 'monoclinic'
loop_
_space_group_symop_operation_xyz
x,y,z
-x,y,-z
1/2+x,1/2+y,z
1/2-x,1/2+y,-z
loop_
_atom_site_type_symbol
_atom_site_label
_atom_site_fract_x
_atom_site_fract_y
_atom_site_fract_z
Si Si1 0.585934 0.666920 0.605512
Si Si2 0.212540 0.011149 0.887320
Si Si3 0.231039 0.254642 0.151264
Si Si4 0.119293 0.578052 0.837177
Si Si5 0.410322 0.530179 0.216271
Si Si6 0.655626 0.323100 0.609736
Si Si7 0.083146 0.666233 0.160906
Si Si8 0.365051 0.456312 0.552244
O O1 0.439306 0.735370 0.714394
O O2 0.619498 0.627817 0.686127
O O3 0.716786 0.739535 0.462478
O O4 0.569052 0.563640 0.549889
O O5 0.246916 0.883076 0.849317
O O6 0.173793 0.058735 0.814387
O O7 0.349616 0.079250 0.818319
O O8 0.081503 0.023715 0.063206
O O9 0.314534 0.189101 0.168694
O O10 0.292578 0.216755 0.002159
O O11 0.240543 0.485891 0.724788
O O12 0.043123 0.605710 0.798389
O O13 0.000000 0.524902 0.000000
O O14 0.354442 0.413937 0.300385
O O15 0.499279 0.264087 0.719576
O O16 0.699727 0.374365 0.474700
O O17 0.500000 0.399478 0.500000
#
# Coordination Sequence:
#
# PCOD8050473 Si02
#       8
#     4   4   4   4   4   4   4   4
#     4  11  23  41  63  91 134 165 207 259 314 381
#     4  11  23  38  71  92 126 162 219 264 308 379
#     4  11  22  39  67  96 123 165 214 262 312 371
#     4  10  22  39  67  93 126 156 216 271 304 371
#     4  10  23  43  62  96 124 171 210 256 323 377
#     4  11  24  40  66  90 135 168 203 264 322 379
#     4  11  22  41  63  97 128 164 210 263 317 369
#     4  11  23  41  63  92 128 171 210 251 328 380
#
# _framework density 20.215015000000001
#
# number of rings (size 3 to 8) (size 9 to 14) (size 15 to 20)
#    0.000    1.250    5.000    0.750    5.250    1.000 
#    0.000    1.250    2.750    0.000    0.000    0.000 
#    0.000    0.000    0.000    0.000    0.000    0.000 
#
# Total GULP energy -198456.763878 kJ/mol
# GULP energy per Si atom -12403.547742 kJ/mol
# Density = 2.016900 g / cm^3
# Si number density = 20.215015 Si / 1000 Ang^3
#
#
#
# Elastic Constant Matrix: (Units=GPa)
#
#
# Indices 1 2 3 4 5 6 
#
# 1 107.3748 29.7243 35.4932 0.0000 -5.8802 0.0000
# 2 29.7243 41.9849 18.4718 0.0000 -2.6673 0.0000
# 3 35.4932 18.4718 106.2532 0.0000 -6.2811 0.0000
# 4 0.0000 0.0000 0.0000 29.4959 0.0000 0.8227
# 5 -5.8802 -2.6673 -6.2811 0.0000 31.1484 0.0000
# 6 0.0000 0.0000 0.0000 0.8227 0.0000 18.5566
#
#
#
# Elastic Compliance Matrix: (Units=1/GPa)
#
#
# Indices 1 2 3 4 5 6 
#
# 1 0.012353 -0.007458 -0.002763 0.000000 0.001136 0.000000
# 2 -0.007458 0.030347 -0.002747 0.000000 0.000637 0.000000
# 3 -0.002763 -0.002747 0.010897 0.000000 0.001441 0.000000
# 4 0.000000 0.000000 0.000000 0.033945 0.000000 -0.001505
# 5 0.001136 0.000637 0.001441 0.000000 0.032664 0.000000
# 6 0.000000 0.000000 0.000000 -0.001505 0.000000 0.053956
#
#
# Mechanical properties :
#
#
# Convention : Reuss Voigt Hill
#
# Bulk Modulus (GPa) = 36.15048 46.99905 41.57477
# Shear Modulus (GPa) = 23.88708 27.30176 25.59442
#
# Velocity S-wave (km/s) = 3.44124 3.67900 3.56210
# Velocity P-wave (km/s) = 5.80615 6.43014 6.12609
#
# Compressibility (1/GPa) = 0.02766215
#
# Stress axis : x y z
#
# Youngs Moduli (GPa) = 80.95040 32.95202 91.76784
#
# Poissons Ratio (x) = 0.24576 0.25354
# Poissons Ratio (y) = 0.60373 0.25207
# Poissons Ratio (z) = 0.22365 0.09051
#
# Static dielectric constant tensor:
#      x y z
#    x 3.564400 0.000000 0.034650 
#    y 0.000000 3.469370 0.000000 
#    z 0.034650 0.000000 3.841460 
# 
# 
# High freq. dielectric constant tensor:
#      x y z
#    x 1.790200 0.000000 0.000260 
#    y 0.000000 1.772840 0.000000 
#    z 0.000260 0.000000 1.803910 
# 
# From -- ./inp_files/54574.got.cif
#   From: 2010.03.12/outbox.cif.g09.slc.cpg/sg5_28_cif.got.tgz:54574.got - 2010.03.31 09:47:26.
