data_PCOD8050055
_publ_section_title
;
Structure prediction by ZEFSAII (Michael W. Deem and Ramdas Pophale) SiO2 
 PCOD8050055
Probable space group: C 2
;
_chemical_formula_sum "Si O2"
_cell_formula_units_Z 20
_cell_length_a 8.847599
_cell_length_b 5.238367
_cell_length_c 17.250449
_cell_angle_alpha 90.000000
_cell_angle_beta 85.542015
_cell_angle_gamma 90.000000
_cell_volume 797.087227
_symmetry_space_group_name_H-M "C 2"
_symmetry_group_IT_number 5
_symmetry_cell_setting 'monoclinic'
loop_
_space_group_symop_operation_xyz
x,y,z
-x,y,-z
1/2+x,1/2+y,z
1/2-x,1/2+y,-z
loop_
_atom_site_type_symbol
_atom_site_label
_atom_site_fract_x
_atom_site_fract_y
_atom_site_fract_z
Si Si1 0.172692 0.729450 0.470374
Si Si2 0.104176 0.706563 0.769124
Si Si3 0.222263 0.707113 0.287369
Si Si4 0.884170 0.759314 0.936368
Si Si5 0.779041 0.259617 0.909334
O O1 0.224443 0.454959 0.499578
O O2 0.184116 0.735236 0.378242
O O3 0.000000 0.780302 0.500000
O O4 0.160175 0.428223 0.740915
O O5 0.121511 0.731548 0.864149
O O6 0.931585 0.747545 0.754014
O O7 0.208460 0.926239 0.728049
O O8 0.864175 0.518894 0.878376
O O9 0.888411 0.019578 0.885327
O O10 0.731485 0.784440 0.996553
O O11 0.000000 0.720324 0.000000
#
# Coordination Sequence:
#
# PCOD8050055 Si02
#       5
#     4   4   4   4   4
#     4  12  25  45  76 103 139 181 229 280 337 400
#     4  12  27  45  71 100 146 182 227 281 349 409
#     4  12  26  48  69 107 139 182 227 281 337 419
#     4  10  21  40  62  87 123 160 234 274 328 394
#     4  10  23  38  61  92 119 176 217 280 333 392
#
# _framework density 25.091353999999999
#
# number of rings (size 3 to 8) (size 9 to 14) (size 15 to 20)
#    0.000    0.800    0.000    7.200    5.600    0.000 
#    0.000    0.000    0.000    0.000    0.000    0.000 
#    0.000    0.000    0.000    0.000    0.000    0.000 
#
# Total GULP energy -123965.962191 kJ/mol
# GULP energy per Si atom -12396.596219 kJ/mol
# Density = 2.503425 g / cm^3
# Si number density = 25.091354 Si / 1000 Ang^3
#
#
#
# Elastic Constant Matrix: (Units=GPa)
#
#
# Indices 1 2 3 4 5 6 
#
# 1 90.6668 18.9805 9.8256 0.0000 16.6180 0.0000
# 2 18.9805 199.4584 27.8553 0.0000 28.3449 0.0000
# 3 9.8256 27.8553 148.5393 0.0000 -10.7019 0.0000
# 4 0.0000 0.0000 0.0000 32.8035 0.0000 10.0122
# 5 16.6180 28.3449 -10.7019 0.0000 34.1412 0.0000
# 6 0.0000 0.0000 0.0000 10.0122 0.0000 41.7776
#
#
#
# Elastic Compliance Matrix: (Units=1/GPa)
#
#
# Indices 1 2 3 4 5 6 
#
# 1 0.012344 -0.000102 -0.001252 0.000000 -0.006316 0.000000
# 2 -0.000102 0.006002 -0.001508 0.000000 -0.005406 0.000000
# 3 -0.001252 -0.001508 0.007399 0.000000 0.004181 0.000000
# 4 0.000000 0.000000 0.000000 0.032890 0.000000 -0.007882
# 5 -0.006316 -0.005406 0.004181 0.000000 0.038164 0.000000
# 6 0.000000 0.000000 0.000000 -0.007882 0.000000 0.025825
#
#
# Mechanical properties :
#
#
# Convention : Reuss Voigt Hill
#
# Bulk Modulus (GPa) = 49.95088 61.33192 55.64140
# Shear Modulus (GPa) = 37.03044 47.21132 42.12088
#
# Velocity S-wave (km/s) = 3.84581 4.34242 4.10164
# Velocity P-wave (km/s) = 6.29851 7.04547 6.68243
#
# Compressibility (1/GPa) = 0.02001967
#
# Stress axis : x y z
#
# Youngs Moduli (GPa) = 81.00977 166.60482 135.15013
#
# Poissons Ratio (x) = 0.01702 0.16927
# Poissons Ratio (y) = 0.00828 0.20385
# Poissons Ratio (z) = 0.10146 0.25130
#
# Static dielectric constant tensor:
#      x y z
#    x 4.822690 0.000000 -0.745330 
#    y 0.000000 5.430570 0.000000 
#    z -0.745330 0.000000 5.998050 
# 
# 
# High freq. dielectric constant tensor:
#      x y z
#    x 2.012800 0.000000 -0.001190 
#    y 0.000000 2.031180 0.000000 
#    z -0.001190 0.000000 2.011180 
# 
# From -- ./inp_files/59144.got.cif
#   From: 2010.03.12/outbox.cif.g09.slc.cpg/sg5_30_cif.got.tgz:59144.got - 2010.03.31 09:47:26.
