data_PCOD8050155
_publ_section_title
;
Structure prediction by ZEFSAII (Michael W. Deem and Ramdas Pophale) SiO2 
 PCOD8050155
Probable space group: C 2
;
_chemical_formula_sum "Si O2"
_cell_formula_units_Z 32
_cell_length_a 19.601281
_cell_length_b 11.442109
_cell_length_c 19.596661
_cell_angle_alpha 90.000000
_cell_angle_beta 160.286729
_cell_angle_gamma 90.000000
_cell_volume 1482.538909
_symmetry_space_group_name_H-M "C 2"
_symmetry_group_IT_number 5
_symmetry_cell_setting 'monoclinic'
loop_
_space_group_symop_operation_xyz
x,y,z
-x,y,-z
1/2+x,1/2+y,z
1/2-x,1/2+y,-z
loop_
_atom_site_type_symbol
_atom_site_label
_atom_site_fract_x
_atom_site_fract_y
_atom_site_fract_z
Si Si1 0.346751 0.528680 0.225983
Si Si2 0.111621 0.848382 0.434725
Si Si3 0.489418 0.077725 0.646331
Si Si4 0.809024 0.187098 0.445416
Si Si5 0.988990 0.490523 0.793346
Si Si6 0.667095 0.444356 0.099448
Si Si7 0.622815 0.422558 0.299370
Si Si8 0.234548 0.712534 0.221400
O O1 0.492022 0.418944 0.381886
O O2 0.489230 0.633610 0.330195
O O3 0.247194 0.585527 0.198671
O O4 0.187449 0.474601 0.024177
O O5 0.043156 0.715315 0.373132
O O6 0.036725 0.920030 0.295591
O O7 0.352164 0.872458 0.670282
O O8 0.554318 0.015550 0.777492
O O9 0.668689 0.048642 0.760559
O O10 0.266874 0.031491 0.415619
O O11 0.620098 0.103600 0.278895
O O12 0.767392 0.309804 0.439940
O O13 0.846430 0.202969 0.399355
O O14 0.808181 0.331461 0.252024
O O15 0.500000 0.482450 0.000000
O O16 0.551197 0.412622 0.920278
O O17 0.000000 0.745638 0.000000
#
# Coordination Sequence:
#
# PCOD8050155 Si02
#       8
#     4   4   4   4   4   4   4   4
#     4  11  22  37  63  92 125 164 206 259 323 380
#     4  10  24  41  60  90 128 166 213 261 312 388
#     4  11  24  40  62  92 128 175 214 257 322 382
#     4  11  20  38  67  96 124 154 208 270 324 369
#     4  10  21  41  63  93 126 160 209 267 323 374
#     4  11  23  41  65  95 131 167 213 265 320 387
#     4  11  21  41  65  93 127 164 210 271 321 374
#     4  11  20  38  66  94 126 159 205 274 319 371
#
# _framework density 21.584593000000002
#
# number of rings (size 3 to 8) (size 9 to 14) (size 15 to 20)
#    0.000    1.250    5.000    1.875    0.000    1.500 
#    4.500    0.625   11.000    0.000    0.000    0.000 
#    0.000    0.000    0.000    0.000    0.000    0.000 
#
# Total GULP energy -198225.117720 kJ/mol
# GULP energy per Si atom -12389.069857 kJ/mol
# Density = 2.153547 g / cm^3
# Si number density = 21.584593 Si / 1000 Ang^3
#
#
#
# Elastic Constant Matrix: (Units=GPa)
#
#
# Indices 1 2 3 4 5 6 
#
# 1 74.9564 40.0208 37.8114 0.0106 10.2808 0.0036
# 2 40.0208 110.7596 36.3507 0.0164 13.3066 0.0105
# 3 37.8114 36.3507 92.4022 0.0204 -10.2097 0.0141
# 4 0.0106 0.0164 0.0204 33.6753 0.0075 6.9379
# 5 10.2808 13.3066 -10.2097 0.0075 34.3657 0.0033
# 6 0.0036 0.0105 0.0141 6.9379 0.0033 35.2320
#
#
#
# Elastic Compliance Matrix: (Units=1/GPa)
#
#
# Indices 1 2 3 4 5 6 
#
# 1 0.020142 -0.004057 -0.007381 0.000001 -0.006648 0.000002
# 2 -0.004057 0.012255 -0.003672 -0.000001 -0.004622 -0.000001
# 3 -0.007381 -0.003672 0.016220 -0.000007 0.008449 -0.000004
# 4 0.000001 -0.000001 -0.000007 0.030951 -0.000008 -0.006095
# 5 -0.006648 -0.004622 0.008449 -0.000008 0.035387 -0.000003
# 6 0.000002 -0.000001 -0.000004 -0.006095 -0.000003 0.029583
#
#
# Mechanical properties :
#
#
# Convention : Reuss Voigt Hill
#
# Bulk Modulus (GPa) = 54.35176 56.27601 55.31388
# Shear Modulus (GPa) = 27.64102 31.58364 29.61233
#
# Velocity S-wave (km/s) = 3.58242 3.82939 3.70796
# Velocity P-wave (km/s) = 6.50746 6.75879 6.63432
#
# Compressibility (1/GPa) = 0.01839867
#
# Stress axis : x y z
#
# Youngs Moduli (GPa) = 49.64709 81.60075 61.65089
#
# Poissons Ratio (x) = 0.33106 0.45503
# Poissons Ratio (y) = 0.20142 0.22636
# Poissons Ratio (z) = 0.36643 0.29960
#
# Static dielectric constant tensor:
#      x y z
#    x 4.114070 -0.000010 0.254240 
#    y -0.000010 3.781600 -0.000020 
#    z 0.254240 -0.000020 3.867920 
# 
# 
# High freq. dielectric constant tensor:
#      x y z
#    x 1.842030 0.000000 0.018290 
#    y 0.000000 1.837040 0.000000 
#    z 0.018290 0.000000 1.853860 
# 
# From -- ./inp_files/67140.got.cif
#   From: 2010.03.12/outbox.cif.g09.slc.cpg/sg5_34_cif.got.tgz:67140.got - 2010.03.31 09:47:26.
