data_PCOD8050019
_publ_section_title
;
Structure prediction by ZEFSAII (Michael W. Deem and Ramdas Pophale) SiO2 
 PCOD8050019
Probable space group: C 2
;
_chemical_formula_sum "Si O2"
_cell_formula_units_Z 32
_cell_length_a 8.587158
_cell_length_b 12.507429
_cell_length_c 24.459629
_cell_angle_alpha 90.000000
_cell_angle_beta 150.381656
_cell_angle_gamma 90.000000
_cell_volume 1298.338324
_symmetry_space_group_name_H-M "C 2"
_symmetry_group_IT_number 5
_symmetry_cell_setting 'monoclinic'
loop_
_space_group_symop_operation_xyz
x,y,z
-x,y,-z
1/2+x,1/2+y,z
1/2-x,1/2+y,-z
loop_
_atom_site_type_symbol
_atom_site_label
_atom_site_fract_x
_atom_site_fract_y
_atom_site_fract_z
Si Si1 0.348863 0.532670 0.115199
Si Si2 0.262706 0.979119 0.538097
Si Si3 0.782235 0.734633 0.546028
Si Si4 0.301703 0.449586 0.885746
Si Si5 0.483108 0.712075 0.345393
Si Si6 0.920602 0.873932 0.738495
Si Si7 0.521171 0.741433 0.231947
Si Si8 0.924857 0.970140 0.327140
O O1 0.525510 0.504562 0.112801
O O2 0.317675 0.424697 0.141710
O O3 0.505510 0.625529 0.199787
O O4 0.000000 0.575451 0.000000
O O5 0.291768 0.106696 0.546618
O O6 0.000000 0.942538 0.500000
O O7 0.146330 0.927703 0.444448
O O8 0.599955 0.934453 0.658468
O O9 0.500000 0.773478 0.500000
O O10 0.721177 0.765588 0.463155
O O11 0.119755 0.782153 0.671739
O O12 0.257502 0.320099 0.873839
O O13 0.943729 0.490952 0.774345
O O14 0.500000 0.483411 0.000000
O O15 0.136382 0.747897 0.264442
O O16 0.510632 0.756107 0.293424
O O17 0.552786 0.588647 0.357920
O O18 0.018999 0.893831 0.707025
#
# Coordination Sequence:
#
# PCOD8050019 Si02
#       8
#     4   4   4   4   4   4   4   4
#     4  12  26  50  79 104 147 199 253 326 389 449
#     4  10  21  39  67 104 148 196 243 301 381 456
#     4  10  23  40  68 111 159 194 243 305 378 461
#     4  12  29  50  75 109 143 197 262 321 383 459
#     4  11  25  42  71 111 151 198 246 304 377 461
#     4  12  23  42  71 107 148 195 252 303 381 461
#     4  12  25  48  77 110 149 199 253 315 384 458
#     4  11  25  45  71 104 153 193 250 315 378 460
#
# _framework density 24.646888000000001
#
# number of rings (size 3 to 8) (size 9 to 14) (size 15 to 20)
#    0.000    0.750    3.750    2.625    7.000    2.000 
#    0.000    1.875    0.000    0.000    0.000    0.000 
#    0.000    0.000    0.000    0.000    0.000    0.000 
#
# Total GULP energy -198233.020915 kJ/mol
# GULP energy per Si atom -12389.563807 kJ/mol
# Density = 2.459079 g / cm^3
# Si number density = 24.646888 Si / 1000 Ang^3
#
#
#
# Elastic Constant Matrix: (Units=GPa)
#
#
# Indices 1 2 3 4 5 6 
#
# 1 176.1361 30.3403 43.2147 0.0001 -12.3647 0.0001
# 2 30.3403 69.2516 11.5617 -0.0003 -13.3016 0.0001
# 3 43.2147 11.5617 107.6489 -0.0013 -7.2825 0.0003
# 4 0.0001 -0.0003 -0.0013 33.0358 0.0000 -1.7097
# 5 -12.3647 -13.3016 -7.2825 0.0000 47.5114 0.0001
# 6 0.0001 0.0001 0.0003 -1.7097 0.0001 35.8663
#
#
#
# Elastic Compliance Matrix: (Units=1/GPa)
#
#
# Indices 1 2 3 4 5 6 
#
# 1 0.006730 -0.002413 -0.002395 0.000000 0.000709 0.000000
# 2 -0.002413 0.016326 -0.000524 0.000000 0.003863 0.000000
# 3 -0.002395 -0.000524 0.010362 0.000000 0.000819 0.000000
# 4 0.000000 0.000000 0.000000 0.030345 0.000000 0.001446
# 5 0.000709 0.003863 0.000819 0.000000 0.022439 0.000000
# 6 0.000000 0.000000 0.000000 0.001446 0.000000 0.027950
#
#
# Mechanical properties :
#
#
# Convention : Reuss Voigt Hill
#
# Bulk Modulus (GPa) = 43.94228 58.14113 51.04171
# Shear Modulus (GPa) = 37.76396 41.14403 39.45400
#
# Velocity S-wave (km/s) = 3.91858 4.09019 4.00530
# Velocity P-wave (km/s) = 6.19202 6.77842 6.49185
#
# Compressibility (1/GPa) = 0.02275713
#
# Stress axis : x y z
#
# Youngs Moduli (GPa) = 148.58081 61.25015 96.50254
#
# Poissons Ratio (x) = 0.14778 0.23110
# Poissons Ratio (y) = 0.35848 0.05053
# Poissons Ratio (z) = 0.35581 0.03207
#
# Static dielectric constant tensor:
#      x y z
#    x 4.451390 0.000000 -0.077360 
#    y 0.000000 4.921210 0.000000 
#    z -0.077360 0.000000 4.618900 
# 
# 
# High freq. dielectric constant tensor:
#      x y z
#    x 1.988800 0.000000 -0.013170 
#    y 0.000000 2.014690 0.000000 
#    z -0.013170 0.000000 1.973480 
# 
# From -- ./inp_files/68046.got.cif
#   From: 2010.03.12/outbox.cif.g09.slc.cpg/sg5_35_cif.got.tgz:68046.got - 2010.03.31 09:47:26.
