data_PCOD8050879
_publ_section_title
;
Structure prediction by ZEFSAII (Michael W. Deem and Ramdas Pophale) SiO2 
 PCOD8050879
Probable space group: C 2
;
_chemical_formula_sum "Si O2"
_cell_formula_units_Z 30
_cell_length_a 7.902187
_cell_length_b 12.924544
_cell_length_c 14.420328
_cell_angle_alpha 90.000000
_cell_angle_beta 70.453122
_cell_angle_gamma 90.000000
_cell_volume 1387.900174
_symmetry_space_group_name_H-M "C 2"
_symmetry_group_IT_number 5
_symmetry_cell_setting 'monoclinic'
loop_
_space_group_symop_operation_xyz
x,y,z
-x,y,-z
1/2+x,1/2+y,z
1/2-x,1/2+y,-z
loop_
_atom_site_type_symbol
_atom_site_label
_atom_site_fract_x
_atom_site_fract_y
_atom_site_fract_z
Si Si1 0.228894 0.038720 0.300387
Si Si2 0.514252 0.743453 0.303296
Si Si3 0.000000 0.245176 0.500000
Si Si4 0.145719 0.811515 0.303888
Si Si5 0.244813 0.358891 0.109046
Si Si6 0.619534 0.285033 0.098130
Si Si7 0.620834 0.155254 0.566273
Si Si8 0.524913 0.046584 0.101068
O O1 0.078421 0.126309 0.312318
O O2 0.369804 0.065679 0.357227
O O3 0.338092 0.024241 0.185735
O O4 0.136831 0.929352 0.342089
O O5 0.546986 0.806394 0.395720
O O6 0.304336 0.744887 0.320088
O O7 0.620844 0.793291 0.200009
O O8 0.173110 0.176865 0.499868
O O9 0.187010 0.812908 0.187034
O O10 0.961382 0.757165 0.368320
O O11 0.446236 0.355822 0.109812
O O12 0.181481 0.477503 0.118299
O O13 0.232298 0.309533 0.007828
O O14 0.573632 0.165281 0.101515
O O15 0.500000 0.121413 0.500000
O O16 0.500000 0.013474 0.000000
#
# Coordination Sequence:
#
# PCOD8050879 Si02
#       8
#     4   4   2   4   4   4   4   4
#     4  11  24  45  69 102 141 182 233 295 346 417
#     4  11  22  42  68 101 138 181 235 288 349 411
#     4  10  22  44  74  96 146 186 226 304 348 406
#     4  12  24  44  73 104 139 184 234 286 361 425
#     4  11  23  40  70 100 134 189 231 276 358 415
#     4  11  23  44  67 100 145 180 227 295 344 422
#     4  11  23  48  72 102 143 186 236 300 352 420
#     4  12  21  41  70  96 138 185 229 288 351 415
#
# _framework density 21.615386999999998
#
# number of rings (size 3 to 8) (size 9 to 14) (size 15 to 20)
#    0.000    0.800    6.667    1.600    0.000    1.067 
#    6.000    1.333    0.000    0.000    0.000    0.000 
#    0.000    0.000    0.000    0.000    0.000    0.000 
#
# Total GULP energy -185926.423106 kJ/mol
# GULP energy per Si atom -12395.094874 kJ/mol
# Density = 2.156619 g / cm^3
# Si number density = 21.615387 Si / 1000 Ang^3
#
#
#
# Elastic Constant Matrix: (Units=GPa)
#
#
# Indices 1 2 3 4 5 6 
#
# 1 117.9303 49.1135 47.6808 0.0000 13.0719 0.0000
# 2 49.1135 109.8235 34.7444 0.0000 5.8908 0.0000
# 3 47.6808 34.7444 134.8987 0.0000 13.1430 0.0000
# 4 0.0000 0.0000 0.0000 -8.3694 0.0000 1.3145
# 5 13.0719 5.8908 13.1430 0.0000 43.8495 0.0000
# 6 0.0000 0.0000 0.0000 1.3145 0.0000 44.3715
#
#
#
# Elastic Compliance Matrix: (Units=1/GPa)
#
#
# Indices 1 2 3 4 5 6 
#
# 1 0.011587 -0.004180 -0.002820 0.000000 -0.002048 0.000000
# 2 -0.004180 0.011436 -0.001483 0.000000 0.000154 0.000000
# 3 -0.002820 -0.001483 0.008952 0.000000 -0.001643 0.000000
# 4 0.000000 0.000000 0.000000 -0.118929 0.000000 0.003523
# 5 -0.002048 0.000154 -0.001643 0.000000 0.023888 0.000000
# 6 0.000000 0.000000 0.000000 0.003523 0.000000 0.022433
#
#
# Mechanical properties :
#
#
# Convention : Reuss Voigt Hill
#
# Bulk Modulus (GPa) = 66.62385 69.52553 68.07469
# Shear Modulus (GPa) = -267.86587 31.37791 -118.24398
#
# Velocity S-wave (km/s) = -11.14418 3.81418 -7.40421
# Velocity P-wave (km/s) = 11.60607 7.18554 6.44473
#
# Compressibility (1/GPa) = 0.01500964
#
# Stress axis : x y z
#
# Youngs Moduli (GPa) = 86.30088 87.44514 111.71194
#
# Poissons Ratio (x) = 0.36553 0.31497
# Poissons Ratio (y) = 0.36074 0.16566
# Poissons Ratio (z) = 0.24333 0.12968
#
# Static dielectric constant tensor:
#      x y z
#    x 4.064240 0.000000 0.132630 
#    y 0.000000 3.732810 0.000000 
#    z 0.132630 0.000000 4.506730 
# 
# 
# High freq. dielectric constant tensor:
#      x y z
#    x 1.846590 0.000000 0.003220 
#    y 0.000000 1.825910 0.000000 
#    z 0.003220 0.000000 1.881700 
# 
# From -- ./inp_files/50462.got.cif
#   From: 2010.03.12/outbox.cif.g09.slc.cpg/sg5_26_cif.got.tgz:50462.got - 2010.03.31 09:47:26.
