data_PCOD8050253
_publ_section_title
;
Structure prediction by ZEFSAII (Michael W. Deem and Ramdas Pophale) SiO2 
 PCOD8050253
Probable space group: C 2
;
_chemical_formula_sum "Si O2"
_cell_formula_units_Z 18
_cell_length_a 8.550366
_cell_length_b 12.705081
_cell_length_c 7.222181
_cell_angle_alpha 90.000000
_cell_angle_beta 105.379284
_cell_angle_gamma 90.000000
_cell_volume 756.473547
_symmetry_space_group_name_H-M "C 2"
_symmetry_group_IT_number 5
_symmetry_cell_setting 'monoclinic'
loop_
_space_group_symop_operation_xyz
x,y,z
-x,y,-z
1/2+x,1/2+y,z
1/2-x,1/2+y,-z
loop_
_atom_site_type_symbol
_atom_site_label
_atom_site_fract_x
_atom_site_fract_y
_atom_site_fract_z
Si Si1 0.821291 0.748110 0.929708
Si Si2 0.500000 0.905763 0.500000
Si Si3 0.690220 0.476755 0.227437
Si Si4 0.857661 0.363210 0.818482
Si Si5 0.646874 0.549658 0.803866
O O1 0.843279 0.853045 0.815805
O O2 0.702849 0.668978 0.779631
O O3 0.746681 0.772625 0.111868
O O4 0.000000 0.696582 0.000000
O O5 0.360526 0.986246 0.386044
O O6 0.438936 0.828935 0.648334
O O7 0.543561 0.529788 0.299015
O O8 0.693411 0.535132 0.033661
O O9 0.748535 0.462969 0.723839
O O10 0.000000 0.400349 0.000000
#
# Coordination Sequence:
#
# PCOD8050253 Si02
#       5
#     4   2   4   4   4
#     4  11  21  42  75 101 134 188 235 284 349 410
#     4  12  24  40  70 100 146 182 222 292 352 408
#     4  10  22  42  64 106 136 177 233 275 348 417
#     4  11  22  42  68 101 138 182 231 282 346 416
#     4  10  21  42  72  95 137 186 227 286 346 408
#
# _framework density 23.794620999999999
#
# number of rings (size 3 to 8) (size 9 to 14) (size 15 to 20)
#    0.000    1.333    8.889    0.667    3.111    0.889 
#    0.000    4.444    0.000    0.000    0.000    0.000 
#    0.000    0.000    0.000    0.000    0.000    0.000 
#
# Total GULP energy -111538.011850 kJ/mol
# GULP energy per Si atom -12393.112428 kJ/mol
# Density = 2.374046 g / cm^3
# Si number density = 23.794621 Si / 1000 Ang^3
#
#
#
# Elastic Constant Matrix: (Units=GPa)
#
#
# Indices 1 2 3 4 5 6 
#
# 1 192.6915 37.7530 49.1264 0.0000 12.0717 0.0000
# 2 37.7530 95.6200 -6.7195 0.0000 -3.5505 0.0000
# 3 49.1264 -6.7195 63.3649 0.0000 1.5715 0.0000
# 4 0.0000 0.0000 0.0000 9.6112 0.0000 6.6814
# 5 12.0717 -3.5505 1.5715 0.0000 57.4660 0.0000
# 6 0.0000 0.0000 0.0000 6.6814 0.0000 27.6852
#
#
#
# Elastic Compliance Matrix: (Units=1/GPa)
#
#
# Indices 1 2 3 4 5 6 
#
# 1 0.007548 -0.003475 -0.006180 0.000000 -0.001631 0.000000
# 2 -0.003475 0.012159 0.003950 0.000000 0.001373 0.000000
# 3 -0.006180 0.003950 0.020968 0.000000 0.000969 0.000000
# 4 0.000000 0.000000 0.000000 0.125020 0.000000 -0.030171
# 5 -0.001631 0.001373 0.000969 0.000000 0.017803 0.000000
# 6 0.000000 0.000000 0.000000 -0.030171 0.000000 0.043402
#
#
# Mechanical properties :
#
#
# Convention : Reuss Voigt Hill
#
# Bulk Modulus (GPa) = 34.17251 56.88846 45.53048
# Shear Modulus (GPa) = 20.15600 37.05357 28.60478
#
# Velocity S-wave (km/s) = 2.91362 3.95045 3.47097
# Velocity P-wave (km/s) = 5.07066 6.69090 5.93631
#
# Compressibility (1/GPa) = 0.02926329
#
# Stress axis : x y z
#
# Youngs Moduli (GPa) = 132.47919 82.24583 47.69187
#
# Poissons Ratio (x) = 0.28582 0.29475
# Poissons Ratio (y) = 0.46038 -0.18836
# Poissons Ratio (z) = 0.81876 -0.32484
#
# Static dielectric constant tensor:
#      x y z
#    x 5.097410 0.000000 -0.057120 
#    y 0.000000 3.923830 0.000000 
#    z -0.057120 0.000000 4.038340 
# 
# 
# High freq. dielectric constant tensor:
#      x y z
#    x 1.973860 0.000000 0.000900 
#    y 0.000000 1.908720 0.000000 
#    z 0.000900 0.000000 1.911560 
# 
# From -- ./inp_files/14060.got.cif
#   From: 2010.03.12/outbox.cif.g09.slc.cpg/sg5_8_cif.got.tgz:14060.got - 2010.03.31 09:47:26.
