data_PCOD8050459
_publ_section_title
;
Structure prediction by ZEFSAII (Michael W. Deem and Ramdas Pophale) SiO2 
 PCOD8050459
Probable space group: C 2
;
_chemical_formula_sum "Si O2"
_cell_formula_units_Z 18
_cell_length_a 7.702480
_cell_length_b 22.171820
_cell_length_c 5.359547
_cell_angle_alpha 90.000000
_cell_angle_beta 116.365087
_cell_angle_gamma 90.000000
_cell_volume 820.086286
_symmetry_space_group_name_H-M "C 2"
_symmetry_group_IT_number 5
_symmetry_cell_setting 'monoclinic'
loop_
_space_group_symop_operation_xyz
x,y,z
-x,y,-z
1/2+x,1/2+y,z
1/2-x,1/2+y,-z
loop_
_atom_site_type_symbol
_atom_site_label
_atom_site_fract_x
_atom_site_fract_y
_atom_site_fract_z
Si Si1 0.812579 0.772810 0.544930
Si Si2 0.295052 0.659677 0.240645
Si Si3 0.500000 0.731240 0.000000
Si Si4 0.500000 0.980735 0.500000
Si Si5 0.000000 0.555859 0.000000
Si Si6 0.620154 0.403387 0.315885
O O1 0.832555 0.711519 0.711786
O O2 0.815747 0.834484 0.705388
O O3 0.000000 0.775783 0.500000
O O4 0.604632 0.773510 0.269429
O O5 0.500000 0.648334 0.500000
O O6 0.186812 0.596750 0.169577
O O7 0.332176 0.686750 0.991244
O O8 0.454158 0.018940 0.221587
O O9 0.314246 0.942033 0.458250
O O10 0.500000 0.409736 0.500000
O O11 0.500000 0.426877 0.000000
#
# Coordination Sequence:
#
# PCOD8050459 Si02
#       6
#     4   4   2   2   2   4
#     4  10  23  39  70 103 141 178 223 291 359 420
#     4  10  24  41  67 105 137 183 225 294 354 419
#     4  10  22  39  64 106 141 176 224 280 366 422
#     4  12  30  50  74 102 140 202 238 292 342 424
#     4  12  28  47  74  98 143 188 242 286 344 426
#     4  11  27  48  74 107 141 187 240 296 352 419
#
# _framework density 21.948907999999999
#
# number of rings (size 3 to 8) (size 9 to 14) (size 15 to 20)
#    0.000    1.333    0.000    2.667   20.222    3.556 
#    0.000    0.000    0.000    0.000    0.000    0.000 
#    0.000    0.000    0.000    0.000    0.000    0.000 
#
# Total GULP energy -111553.093892 kJ/mol
# GULP energy per Si atom -12394.788210 kJ/mol
# Density = 2.189895 g / cm^3
# Si number density = 21.948908 Si / 1000 Ang^3
#
#
#
# Elastic Constant Matrix: (Units=GPa)
#
#
# Indices 1 2 3 4 5 6 
#
# 1 106.8017 63.5069 36.9611 0.0000 3.5114 0.0000
# 2 63.5069 135.0886 41.5192 0.0000 2.7954 0.0000
# 3 36.9611 41.5192 101.8363 0.0000 -11.3088 0.0000
# 4 0.0000 0.0000 0.0000 78.4371 0.0000 -43.6109
# 5 3.5114 2.7954 -11.3088 0.0000 37.0958 0.0000
# 6 0.0000 0.0000 0.0000 -43.6109 0.0000 89.9066
#
#
#
# Elastic Compliance Matrix: (Units=1/GPa)
#
#
# Indices 1 2 3 4 5 6 
#
# 1 0.013710 -0.005509 -0.002927 0.000000 -0.001775 0.000000
# 2 -0.005509 0.010788 -0.002516 0.000000 -0.001059 0.000000
# 3 -0.002927 -0.002516 0.012379 0.000000 0.004240 0.000000
# 4 0.000000 0.000000 0.000000 0.017457 0.000000 0.008468
# 5 -0.001775 -0.001059 0.004240 0.000000 0.028498 0.000000
# 6 0.000000 0.000000 0.000000 0.008468 0.000000 0.015230
#
#
# Mechanical properties :
#
#
# Convention : Reuss Voigt Hill
#
# Bulk Modulus (GPa) = 66.79145 69.74458 68.26802
# Shear Modulus (GPa) = 40.01359 54.53719 47.27539
#
# Velocity S-wave (km/s) = 4.27433 4.99012 4.64603
# Velocity P-wave (km/s) = 7.40651 8.06514 7.74283
#
# Compressibility (1/GPa) = 0.01497198
#
# Stress axis : x y z
#
# Youngs Moduli (GPa) = 72.93793 92.69843 80.78276
#
# Poissons Ratio (x) = 0.51067 0.23646
# Poissons Ratio (y) = 0.40181 0.20327
# Poissons Ratio (z) = 0.21350 0.23325
#
# Static dielectric constant tensor:
#      x y z
#    x 3.968160 0.000000 -0.075930 
#    y 0.000000 4.101650 0.000000 
#    z -0.075930 0.000000 3.992270 
# 
# 
# High freq. dielectric constant tensor:
#      x y z
#    x 1.881510 0.000000 0.003600 
#    y 0.000000 1.859110 0.000000 
#    z 0.003600 0.000000 1.870730 
# 
# From -- ./inp_files/2330.got.cif
#   From: 2010.03.12/outbox.cif.g09.slc.cpg/sg5_2_cif.got.tgz:2330.got - 2010.03.31 09:47:26.
