data_PCOD8050690
_publ_section_title
;
Structure prediction by ZEFSAII (Michael W. Deem and Ramdas Pophale) SiO2 
 PCOD8050690
Probable space group: C 2
;
_chemical_formula_sum "Si O2"
_cell_formula_units_Z 32
_cell_length_a 12.097733
_cell_length_b 8.657837
_cell_length_c 14.466709
_cell_angle_alpha 90.000000
_cell_angle_beta 99.336739
_cell_angle_gamma 90.000000
_cell_volume 1495.171855
_symmetry_space_group_name_H-M "C 2"
_symmetry_group_IT_number 5
_symmetry_cell_setting 'monoclinic'
loop_
_space_group_symop_operation_xyz
x,y,z
-x,y,-z
1/2+x,1/2+y,z
1/2-x,1/2+y,-z
loop_
_atom_site_type_symbol
_atom_site_label
_atom_site_fract_x
_atom_site_fract_y
_atom_site_fract_z
Si Si1 0.692900 0.877130 0.208832
Si Si2 0.619398 0.098855 0.558917
Si Si3 0.340903 0.383844 0.774690
Si Si4 0.698402 0.629202 0.670817
Si Si5 0.952734 0.624671 0.891726
Si Si6 0.326333 0.766769 0.517635
Si Si7 0.849426 0.604390 0.219516
Si Si8 0.538150 0.663670 0.293593
O O1 0.793789 0.769646 0.185597
O O2 0.584934 0.775337 0.220343
O O3 0.742717 0.963919 0.305810
O O4 0.652328 0.005018 0.128833
O O5 0.500000 0.143329 0.500000
O O6 0.705460 0.236778 0.547759
O O7 0.611594 0.088299 0.668793
O O8 0.663494 0.938720 0.521662
O O9 0.292357 0.258514 0.697914
O O10 0.414134 0.298754 0.863137
O O11 0.243464 0.475346 0.814371
O O12 0.414483 0.492944 0.718563
O O13 0.655807 0.640547 0.560741
O O14 0.595999 0.655585 0.728581
O O15 0.045316 0.571894 0.830535
O O16 0.000000 0.620548 0.000000
O O17 0.424884 0.732682 0.603083
#
# Coordination Sequence:
#
# PCOD8050690 Si02
#       8
#     4   4   4   4   4   4   4   4
#     4  10  23  41  65  90 129 164 213 267 323 398
#     4  12  27  41  63  95 138 185 220 267 309 374
#     4  10  22  42  65  91 130 166 213 268 327 388
#     4  11  21  35  60  90 126 174 212 262 307 366
#     4  11  26  45  72  99 122 164 220 277 344 405
#     4  12  23  39  61  96 134 174 233 256 301 381
#     4  11  23  45  64  94 133 175 214 269 334 372
#     4  11  21  40  60  92 130 174 211 260 314 372
#
# _framework density 21.402222999999999
#
# number of rings (size 3 to 8) (size 9 to 14) (size 15 to 20)
#    0.000    1.000    3.750    3.375    5.250    1.000 
#    2.250    3.125    0.000    0.000    0.000    0.000 
#    0.000    0.000    0.000    0.000    0.000    0.000 
#
# Total GULP energy -198414.294256 kJ/mol
# GULP energy per Si atom -12400.893391 kJ/mol
# Density = 2.135351 g / cm^3
# Si number density = 21.402223 Si / 1000 Ang^3
#
#
#
# Elastic Constant Matrix: (Units=GPa)
#
#
# Indices 1 2 3 4 5 6 
#
# 1 83.5044 17.1815 37.3062 0.0000 -0.6946 0.0000
# 2 17.1815 90.2079 32.1694 0.0000 5.0192 0.0000
# 3 37.3062 32.1694 99.2048 0.0000 13.1877 0.0000
# 4 0.0000 0.0000 0.0000 21.8489 0.0000 7.1805
# 5 -0.6946 5.0192 13.1877 0.0000 27.0941 0.0000
# 6 0.0000 0.0000 0.0000 7.1805 0.0000 29.1660
#
#
#
# Elastic Compliance Matrix: (Units=1/GPa)
#
#
# Indices 1 2 3 4 5 6 
#
# 1 0.014734 -0.000970 -0.005667 0.000000 0.003316 0.000000
# 2 -0.000970 0.012602 -0.003644 0.000000 -0.000586 0.000000
# 3 -0.005667 -0.003644 0.014244 0.000000 -0.006403 0.000000
# 4 0.000000 0.000000 0.000000 0.049798 0.000000 -0.012260
# 5 0.003316 -0.000586 -0.006403 0.000000 0.040219 0.000000
# 6 0.000000 0.000000 0.000000 -0.012260 0.000000 0.037305
#
#
# Mechanical properties :
#
#
# Convention : Reuss Voigt Hill
#
# Bulk Modulus (GPa) = 47.57646 49.58124 48.57885
# Shear Modulus (GPa) = 25.44907 28.03914 26.74411
#
# Velocity S-wave (km/s) = 3.45205 3.62346 3.53880
# Velocity P-wave (km/s) = 6.17793 6.38143 6.28051
#
# Compressibility (1/GPa) = 0.02101880
#
# Stress axis : x y z
#
# Youngs Moduli (GPa) = 67.86833 79.35043 70.20411
#
# Poissons Ratio (x) = 0.07696 0.39786
# Poissons Ratio (y) = 0.06582 0.25582
# Poissons Ratio (z) = 0.38462 0.28915
#
# Static dielectric constant tensor:
#      x y z
#    x 4.025530 0.000000 0.079510 
#    y 0.000000 4.113590 0.000000 
#    z 0.079510 0.000000 3.491410 
# 
# 
# High freq. dielectric constant tensor:
#      x y z
#    x 1.850890 0.000000 0.004200 
#    y 0.000000 1.855890 0.000000 
#    z 0.004200 0.000000 1.800490 
# 
# From -- ./inp_files/52443.got.cif
#   From: 2010.03.12/outbox.cif.g09.slc.cpg/sg5_27_cif.got.tgz:52443.got - 2010.03.31 09:47:26.
