data_PCOD8050334
_publ_section_title
;
Structure prediction by ZEFSAII (Michael W. Deem and Ramdas Pophale) SiO2 
 PCOD8050334
Probable space group: C 2
;
_chemical_formula_sum "Si O2"
_cell_formula_units_Z 26
_cell_length_a 24.685070
_cell_length_b 9.328967
_cell_length_c 11.510119
_cell_angle_alpha 90.000000
_cell_angle_beta 151.658718
_cell_angle_gamma 90.000000
_cell_volume 1258.309651
_symmetry_space_group_name_H-M "C 2"
_symmetry_group_IT_number 5
_symmetry_cell_setting 'monoclinic'
loop_
_space_group_symop_operation_xyz
x,y,z
-x,y,-z
1/2+x,1/2+y,z
1/2-x,1/2+y,-z
loop_
_atom_site_type_symbol
_atom_site_label
_atom_site_fract_x
_atom_site_fract_y
_atom_site_fract_z
Si Si1 0.606523 0.440300 0.786304
Si Si2 0.874500 0.453867 0.801781
Si Si3 0.169863 0.130318 0.345614
Si Si4 0.886147 0.352089 0.072259
Si Si5 0.473140 0.574902 0.139904
Si Si6 0.500000 0.015104 0.500000
Si Si7 0.213814 0.685781 0.879154
O O1 0.500000 0.433181 0.500000
O O2 0.555289 0.453413 0.819206
O O3 0.680221 0.293035 0.921792
O O4 0.687780 0.572482 0.899809
O O5 0.838566 0.302188 0.677220
O O6 0.798496 0.581917 0.608167
O O7 0.867403 0.457712 0.928609
O O8 0.000000 0.494129 0.000000
O O9 0.095636 0.061003 0.310001
O O10 0.127030 0.065617 0.143663
O O11 0.975476 0.229469 0.206198
O O12 0.936205 0.425367 0.281171
O O13 0.762120 0.282605 0.865340
O O14 0.597196 0.108407 0.618668
#
# Coordination Sequence:
#
# PCOD8050334 Si02
#       7
#     4   4   4   4   4   2   4
#     4  11  24  41  64  94 131 169 213 261 318 380
#     4  11  23  46  67  97 127 169 216 266 321 379
#     4  10  21  46  69  91 133 163 215 272 316 378
#     4  10  23  43  65  95 131 170 212 263 320 383
#     4   9  21  43  68  92 127 173 212 262 324 376
#     4  12  24  42  64  98 136 166 216 262 318 384
#     4  11  24  41  61  97 132 168 215 258 315 385
#
# _framework density 20.662641000000001
#
# number of rings (size 3 to 8) (size 9 to 14) (size 15 to 20)
#    0.000    1.538    5.385    0.000    6.462    3.692 
#    8.308    0.000    0.000    0.000    0.000    0.000 
#    0.000    0.000    0.000    0.000    0.000    0.000 
#
# Total GULP energy -161148.211602 kJ/mol
# GULP energy per Si atom -12396.016277 kJ/mol
# Density = 2.061561 g / cm^3
# Si number density = 20.662641 Si / 1000 Ang^3
#
#
#
# Elastic Constant Matrix: (Units=GPa)
#
#
# Indices 1 2 3 4 5 6 
#
# 1 126.2082 45.9856 62.8295 0.0000 3.8121 0.0000
# 2 45.9856 64.3176 47.4202 0.0000 7.3012 0.0000
# 3 62.8295 47.4202 124.2789 0.0000 18.2758 0.0000
# 4 0.0000 0.0000 0.0000 31.5858 0.0000 10.4987
# 5 3.8121 7.3012 18.2758 0.0000 32.4038 0.0000
# 6 0.0000 0.0000 0.0000 10.4987 0.0000 29.3409
#
#
#
# Elastic Compliance Matrix: (Units=1/GPa)
#
#
# Indices 1 2 3 4 5 6 
#
# 1 0.012061 -0.005760 -0.004233 0.000000 0.002266 0.000000
# 2 -0.005760 0.024386 -0.006199 0.000000 -0.001321 0.000000
# 3 -0.004233 -0.006199 0.013383 0.000000 -0.005653 0.000000
# 4 0.000000 0.000000 0.000000 0.035933 0.000000 -0.012858
# 5 0.002266 -0.001321 -0.005653 0.000000 0.034080 0.000000
# 6 0.000000 0.000000 0.000000 -0.012858 0.000000 0.038683
#
#
# Mechanical properties :
#
#
# Convention : Reuss Voigt Hill
#
# Bulk Modulus (GPa) = 57.31607 69.69725 63.50666
# Shear Modulus (GPa) = 25.41625 29.23740 27.32682
#
# Velocity S-wave (km/s) = 3.51102 3.76571 3.64060
# Velocity P-wave (km/s) = 6.65098 7.26029 6.96230
#
# Compressibility (1/GPa) = 0.01744711
#
# Stress axis : x y z
#
# Youngs Moduli (GPa) = 82.91313 41.00718 74.72151
#
# Poissons Ratio (x) = 0.23618 0.31630
# Poissons Ratio (y) = 0.47754 0.46318
# Poissons Ratio (z) = 0.35097 0.25420
#
# Static dielectric constant tensor:
#      x y z
#    x 4.173980 0.000000 0.154360 
#    y 0.000000 3.753280 0.000000 
#    z 0.154360 0.000000 3.568750 
# 
# 
# High freq. dielectric constant tensor:
#      x y z
#    x 1.823030 0.000000 0.015010 
#    y 0.000000 1.798960 0.000000 
#    z 0.015010 0.000000 1.795360 
# 
# From -- ./inp_files/47955.got.cif
#   From: 2010.03.12/outbox.cif.g09.slc.cpg/sg5_24_cif.got.tgz:47955.got - 2010.03.31 09:47:26.
