data_PCOD8050539
_publ_section_title
;
Structure prediction by ZEFSAII (Michael W. Deem and Ramdas Pophale) SiO2 
 PCOD8050539
Probable space group: C 2
;
_chemical_formula_sum "Si O2"
_cell_formula_units_Z 16
_cell_length_a 7.129159
_cell_length_b 20.277248
_cell_length_c 8.075096
_cell_angle_alpha 90.000000
_cell_angle_beta 37.371053
_cell_angle_gamma 90.000000
_cell_volume 708.541655
_symmetry_space_group_name_H-M "C 2"
_symmetry_group_IT_number 5
_symmetry_cell_setting 'monoclinic'
loop_
_space_group_symop_operation_xyz
x,y,z
-x,y,-z
1/2+x,1/2+y,z
1/2-x,1/2+y,-z
loop_
_atom_site_type_symbol
_atom_site_label
_atom_site_fract_x
_atom_site_fract_y
_atom_site_fract_z
Si Si1 0.000000 0.399801 0.000000
Si Si2 0.208069 0.774206 0.103918
Si Si3 0.500000 0.485172 0.500000
Si Si4 0.843614 0.062390 0.282708
Si Si5 0.589473 0.700782 0.613489
O O1 0.259016 0.353995 0.911563
O O2 0.186208 0.442283 0.733661
O O3 0.884631 0.749758 0.404266
O O4 0.500000 0.742869 0.000000
O O5 0.284345 0.744921 0.869140
O O6 0.496897 0.527402 0.333548
O O7 0.500000 0.036811 0.500000
O O8 0.852704 0.140848 0.302689
O O9 0.000000 0.043405 0.000000
O O10 0.500000 0.669729 0.500000
#
# Coordination Sequence:
#
# PCOD8050539 Si02
#       5
#     2   4   2   4   4
#     4  10  24  44  74  90 142 196 226 284 348 412
#     4  10  22  40  66  95 128 192 223 272 359 401
#     4  12  24  50  70 104 140 186 250 274 344 434
#     4  12  26  44  71 106 140 187 229 295 360 412
#     4  12  22  40  65 106 146 171 232 294 352 425
#
# _framework density 22.581593999999999
#
# number of rings (size 3 to 8) (size 9 to 14) (size 15 to 20)
#    0.750    0.000    1.250    8.250    0.000    0.000 
#    0.000   12.500    0.000    0.000    0.000    0.000 
#    0.000    0.000    0.000    0.000    0.000    0.000 
#
# Total GULP energy -99133.008004 kJ/mol
# GULP energy per Si atom -12391.626001 kJ/mol
# Density = 2.253020 g / cm^3
# Si number density = 22.581594 Si / 1000 Ang^3
#
#
#
# Elastic Constant Matrix: (Units=GPa)
#
#
# Indices 1 2 3 4 5 6 
#
# 1 83.8976 30.5948 34.2395 0.0000 15.3315 0.0000
# 2 30.5948 115.6918 64.8744 0.0000 5.6824 0.0000
# 3 34.2395 64.8744 173.3218 0.0000 6.4782 0.0000
# 4 0.0000 0.0000 0.0000 46.9711 0.0000 -3.9820
# 5 15.3315 5.6824 6.4782 0.0000 44.4986 0.0000
# 6 0.0000 0.0000 0.0000 -3.9820 0.0000 20.3065
#
#
#
# Elastic Compliance Matrix: (Units=1/GPa)
#
#
# Indices 1 2 3 4 5 6 
#
# 1 0.014368 -0.002639 -0.001687 0.000000 -0.004368 0.000000
# 2 -0.002639 0.011453 -0.003765 0.000000 -0.000005 0.000000
# 3 -0.001687 -0.003765 0.007514 0.000000 -0.000032 0.000000
# 4 0.000000 0.000000 0.000000 0.021650 0.000000 0.004245
# 5 -0.004368 -0.000005 -0.000032 0.000000 0.023983 0.000000
# 6 0.000000 0.000000 0.000000 0.004245 0.000000 0.050078
#
#
# Mechanical properties :
#
#
# Convention : Reuss Voigt Hill
#
# Bulk Modulus (GPa) = 58.30370 70.25871 64.28120
# Shear Modulus (GPa) = 33.12432 38.56874 35.84653
#
# Velocity S-wave (km/s) = 3.83413 4.13725 3.98857
# Velocity P-wave (km/s) = 6.74358 7.34869 7.05263
#
# Compressibility (1/GPa) = 0.01715157
#
# Stress axis : x y z
#
# Youngs Moduli (GPa) = 69.59675 87.31128 133.09274
#
# Poissons Ratio (x) = 0.23041 0.22459
# Poissons Ratio (y) = 0.18366 0.50115
# Poissons Ratio (z) = 0.11744 0.32877
#
# Static dielectric constant tensor:
#      x y z
#    x 3.871060 0.000000 0.175300 
#    y 0.000000 3.843470 0.000000 
#    z 0.175300 0.000000 4.295420 
# 
# 
# High freq. dielectric constant tensor:
#      x y z
#    x 1.876870 0.000000 0.004740 
#    y 0.000000 1.880970 0.000000 
#    z 0.004740 0.000000 1.912090 
# 
# From -- ./inp_files/16260.got.cif
#   From: 2010.03.12/outbox.cif.g09.slc.cpg/sg5_9_cif.got.tgz:16260.got - 2010.03.31 09:47:26.
