data_PCOD8050428
_publ_section_title
;
Structure prediction by ZEFSAII (Michael W. Deem and Ramdas Pophale) SiO2 
 PCOD8050428
Probable space group: C 2
;
_chemical_formula_sum "Si O2"
_cell_formula_units_Z 30
_cell_length_a 14.762808
_cell_length_b 18.405235
_cell_length_c 8.601594
_cell_angle_alpha 90.000000
_cell_angle_beta 140.204120
_cell_angle_gamma 90.000000
_cell_volume 1495.912535
_symmetry_space_group_name_H-M "C 2"
_symmetry_group_IT_number 5
_symmetry_cell_setting 'monoclinic'
loop_
_space_group_symop_operation_xyz
x,y,z
-x,y,-z
1/2+x,1/2+y,z
1/2-x,1/2+y,-z
loop_
_atom_site_type_symbol
_atom_site_label
_atom_site_fract_x
_atom_site_fract_y
_atom_site_fract_z
Si Si1 0.250754 0.926820 0.475938
Si Si2 0.000000 0.390694 0.000000
Si Si3 0.897512 0.183757 0.507104
Si Si4 0.742608 0.314446 0.190308
Si Si5 0.538526 0.331975 0.368803
Si Si6 0.121284 0.283468 0.926922
Si Si7 0.646475 0.192242 0.618210
Si Si8 0.350306 0.584550 0.719410
O O1 0.402889 0.940022 0.759689
O O2 0.275755 0.869061 0.372928
O O3 0.139006 0.897866 0.454187
O O4 0.191201 0.000850 0.328317
O O5 0.109970 0.340253 0.051325
O O6 0.761090 0.229960 0.269527
O O7 0.852673 0.112114 0.543552
O O8 0.000000 0.160380 0.500000
O O9 0.979946 0.235480 0.737198
O O10 0.859859 0.326887 0.210161
O O11 0.589863 0.332335 0.920908
O O12 0.500000 0.341679 0.500000
O O13 0.614214 0.253829 0.445902
O O14 0.258234 0.231432 0.124617
O O15 0.500000 0.163405 0.500000
O O16 0.728302 0.125699 0.651772
O O17 0.500000 0.597128 0.000000
#
# Coordination Sequence:
#
# PCOD8050428 Si02
#       8
#     4   2   4   4   4   4   4   4
#     4  12  26  41  62  96 131 171 214 266 327 389
#     4  12  22  42  64  94 126 172 216 268 328 384
#     4  10  22  38  68  99 123 162 221 276 317 378
#     4  11  21  39  65 100 123 158 216 280 315 368
#     4  11  21  40  68  94 126 165 214 273 325 377
#     4  11  19  40  71  94 125 156 221 274 323 381
#     4  11  21  40  69  97 127 169 217 264 322 388
#     4  12  25  45  65  90 134 181 218 257 328 400
#
# _framework density 20.054649999999999
#
# number of rings (size 3 to 8) (size 9 to 14) (size 15 to 20)
#    0.000    0.800    6.667    2.800    0.000    0.533 
#    4.800    1.333    0.000    0.000    0.000    0.000 
#    0.000    0.000    0.000    0.000    0.000    0.000 
#
# Total GULP energy -185976.707069 kJ/mol
# GULP energy per Si atom -12398.447138 kJ/mol
# Density = 2.000900 g / cm^3
# Si number density = 20.054650 Si / 1000 Ang^3
#
#
#
# Elastic Constant Matrix: (Units=GPa)
#
#
# Indices 1 2 3 4 5 6 
#
# 1 112.0034 55.6045 28.5234 0.0000 -1.5011 0.0000
# 2 55.6045 91.7072 14.6240 0.0000 1.8121 0.0000
# 3 28.5234 14.6240 115.7463 0.0000 5.9559 0.0000
# 4 0.0000 0.0000 0.0000 29.8758 0.0000 5.1094
# 5 -1.5011 1.8121 5.9559 0.0000 33.8462 0.0000
# 6 0.0000 0.0000 0.0000 5.1094 0.0000 16.7218
#
#
#
# Elastic Compliance Matrix: (Units=1/GPa)
#
#
# Indices 1 2 3 4 5 6 
#
# 1 0.013423 -0.007785 -0.002398 0.000000 0.001434 0.000000
# 2 -0.007785 0.015647 0.000002 0.000000 -0.001183 0.000000
# 3 -0.002398 0.000002 0.009320 0.000000 -0.001747 0.000000
# 4 0.000000 0.000000 0.000000 0.035317 0.000000 -0.010791
# 5 0.001434 -0.001183 -0.001747 0.000000 0.029980 0.000000
# 6 0.000000 0.000000 0.000000 -0.010791 0.000000 0.063099
#
#
# Mechanical properties :
#
#
# Convention : Reuss Voigt Hill
#
# Bulk Modulus (GPa) = 55.46435 57.44007 56.45221
# Shear Modulus (GPa) = 25.88562 30.80244 28.34403
#
# Velocity S-wave (km/s) = 3.59660 3.92334 3.76352
# Velocity P-wave (km/s) = 6.70552 7.01622 6.86263
#
# Compressibility (1/GPa) = 0.01802960
#
# Stress axis : x y z
#
# Youngs Moduli (GPa) = 74.49947 63.90881 107.29474
#
# Poissons Ratio (x) = 0.49750 0.25730
# Poissons Ratio (y) = 0.57995 -0.00025
# Poissons Ratio (z) = 0.17865 -0.00015
#
# Static dielectric constant tensor:
#      x y z
#    x 3.700110 0.000000 0.021690 
#    y 0.000000 3.323120 0.000000 
#    z 0.021690 0.000000 3.880710 
# 
# 
# High freq. dielectric constant tensor:
#      x y z
#    x 1.790300 0.000000 0.000110 
#    y 0.000000 1.746520 0.000000 
#    z 0.000110 0.000000 1.802620 
# 
# From -- ./inp_files/25371.got.cif
#   From: 2010.03.12/outbox.cif.g09.slc.cpg/sg5_13_cif.got.tgz:25371.got - 2010.03.31 09:47:26.
