data_PCOD8050554
_publ_section_title
;
Structure prediction by ZEFSAII (Michael W. Deem and Ramdas Pophale) SiO2 
 PCOD8050554
Probable space group: C 2
;
_chemical_formula_sum "Si O2"
_cell_formula_units_Z 26
_cell_length_a 10.021886
_cell_length_b 13.792461
_cell_length_c 16.223712
_cell_angle_alpha 90.000000
_cell_angle_beta 145.627582
_cell_angle_gamma 90.000000
_cell_volume 1266.073857
_symmetry_space_group_name_H-M "C 2"
_symmetry_group_IT_number 5
_symmetry_cell_setting 'monoclinic'
loop_
_space_group_symop_operation_xyz
x,y,z
-x,y,-z
1/2+x,1/2+y,z
1/2-x,1/2+y,-z
loop_
_atom_site_type_symbol
_atom_site_label
_atom_site_fract_x
_atom_site_fract_y
_atom_site_fract_z
Si Si1 0.653665 0.227170 0.909253
Si Si2 0.498184 0.565715 0.248649
Si Si3 0.528097 0.861812 0.160789
Si Si4 0.752428 0.759374 0.417932
Si Si5 0.157352 0.028096 0.005074
Si Si6 0.000000 0.650806 0.000000
Si Si7 0.482649 0.360178 0.681561
O O1 0.692259 0.121487 0.888312
O O2 0.528292 0.219679 0.934629
O O3 0.499087 0.294079 0.771075
O O4 0.911976 0.272719 0.053300
O O5 0.641833 0.652531 0.364260
O O6 0.608207 0.466897 0.340945
O O7 0.516252 0.560636 0.158142
O O8 0.221682 0.580254 0.128113
O O9 0.580051 0.832082 0.281387
O O10 0.769870 0.882194 0.236810
O O11 0.344659 0.950276 0.067136
O O12 0.000000 0.748895 0.500000
O O13 0.790551 0.805765 0.527166
O O14 0.000000 0.987259 0.000000
#
# Coordination Sequence:
#
# PCOD8050554 Si02
#       7
#     4   4   4   4   4   2   4
#     4  11  22  37  65  94 127 166 218 264 314 385
#     4  11  22  43  64  95 128 169 210 276 318 372
#     4  11  21  40  64  91 129 171 214 263 309 386
#     4  10  24  43  63  88 134 174 208 256 323 391
#     4  11  23  36  65 101 125 161 217 276 315 366
#     4  10  22  40  68  96 130 160 212 290 320 352
#     4  11  23  40  65  93 124 181 215 247 328 390
#
# _framework density 20.535927000000001
#
# number of rings (size 3 to 8) (size 9 to 14) (size 15 to 20)
#    0.000    1.231    4.615    3.231    3.231    1.231 
#    0.000    2.308    0.000    0.000    0.000    0.000 
#    0.000    0.000    0.000    0.000    0.000    0.000 
#
# Total GULP energy -161182.705097 kJ/mol
# GULP energy per Si atom -12398.669623 kJ/mol
# Density = 2.048919 g / cm^3
# Si number density = 20.535927 Si / 1000 Ang^3
#
#
#
# Elastic Constant Matrix: (Units=GPa)
#
#
# Indices 1 2 3 4 5 6 
#
# 1 58.0679 33.6847 17.6108 0.0007 -20.5235 0.0002
# 2 33.6847 143.0518 50.5256 0.0000 -14.5350 -0.0004
# 3 17.6108 50.5256 109.3125 -0.0031 -24.7659 -0.0017
# 4 0.0007 0.0000 -0.0031 41.1607 -0.0003 -0.8069
# 5 -20.5235 -14.5350 -24.7659 -0.0003 28.6243 -0.0002
# 6 0.0002 -0.0004 -0.0017 -0.8069 -0.0002 27.9849
#
#
#
# Elastic Compliance Matrix: (Units=1/GPa)
#
#
# Indices 1 2 3 4 5 6 
#
# 1 0.025779 -0.005041 0.002220 0.000000 0.017844 0.000000
# 2 -0.005041 0.009369 -0.004054 0.000000 -0.002365 0.000000
# 3 0.002220 -0.004054 0.013133 0.000001 0.010896 0.000001
# 4 0.000000 0.000000 0.000001 0.024309 0.000001 0.000701
# 5 0.017844 -0.002365 0.010896 0.000001 0.055956 0.000001
# 6 0.000000 0.000000 0.000001 0.000701 0.000001 0.035754
#
#
# Mechanical properties :
#
#
# Convention : Reuss Voigt Hill
#
# Bulk Modulus (GPa) = 28.96025 57.11938 43.03982
# Shear Modulus (GPa) = 26.37677 33.46139 29.91908
#
# Velocity S-wave (km/s) = 3.58777 4.04097 3.82110
# Velocity P-wave (km/s) = 5.59425 7.04609 6.36172
#
# Compressibility (1/GPa) = 0.03453009
#
# Stress axis : x y z
#
# Youngs Moduli (GPa) = 38.79091 106.73284 76.14505
#
# Poissons Ratio (x) = 0.53806 -0.16902
# Poissons Ratio (y) = 0.19555 0.30870
# Poissons Ratio (z) = -0.08611 0.43271
#
# Static dielectric constant tensor:
#      x y z
#    x 3.650350 0.000000 -0.244450 
#    y 0.000000 3.874170 0.000010 
#    z -0.244450 0.000010 3.878010 
# 
# 
# High freq. dielectric constant tensor:
#      x y z
#    x 1.793810 0.000000 -0.012050 
#    y 0.000000 1.817570 0.000000 
#    z -0.012050 0.000000 1.789090 
# 
# From -- ./inp_files/60602.got.cif
#   From: 2010.03.12/outbox.cif.g09.slc.cpg/sg5_31_cif.got.tgz:60602.got - 2010.03.31 09:47:26.
