data_PCOD8050914
_publ_section_title
;
Structure prediction by ZEFSAII (Michael W. Deem and Ramdas Pophale) SiO2 
 PCOD8050914
Probable space group: C 2
;
_chemical_formula_sum "Si O2"
_cell_formula_units_Z 30
_cell_length_a 23.181969
_cell_length_b 5.310625
_cell_length_c 20.562543
_cell_angle_alpha 90.000000
_cell_angle_beta 28.417086
_cell_angle_gamma 90.000000
_cell_volume 1204.692397
_symmetry_space_group_name_H-M "C 2"
_symmetry_group_IT_number 5
_symmetry_cell_setting 'monoclinic'
loop_
_space_group_symop_operation_xyz
x,y,z
-x,y,-z
1/2+x,1/2+y,z
1/2-x,1/2+y,-z
loop_
_atom_site_type_symbol
_atom_site_label
_atom_site_fract_x
_atom_site_fract_y
_atom_site_fract_z
Si Si1 0.516840 0.933370 0.312909
Si Si2 0.563721 0.548076 0.702717
Si Si3 0.707685 0.233237 0.455545
Si Si4 0.263433 0.316868 0.719823
Si Si5 0.097235 0.962111 0.027405
Si Si6 0.683631 0.797069 0.258955
Si Si7 0.500000 0.697973 0.000000
Si Si8 0.268019 0.237140 0.942005
O O1 0.529242 0.740846 0.240052
O O2 0.564964 0.816776 0.332242
O O3 0.373647 0.981259 0.464072
O O4 0.593351 0.187860 0.220611
O O5 0.645674 0.413706 0.569018
O O6 0.653790 0.692386 0.662361
O O7 0.482496 0.368222 0.831124
O O8 0.703936 0.348541 0.387747
O O9 0.336199 0.542541 0.681330
O O10 0.300585 0.042535 0.710676
O O11 0.119932 0.366236 0.872913
O O12 0.009238 0.023848 0.054826
O O13 0.175500 0.209175 0.972671
O O14 0.198101 0.759878 0.904938
O O15 0.262523 0.513029 0.976870
#
# Coordination Sequence:
#
# PCOD8050914 Si02
#       8
#     4   4   4   4   4   4   2   4
#     4  11  26  46  71 108 151 198 253 308 385 451
#     4  12  24  48  71 112 150 200 252 313 385 459
#     4  12  27  46  75 108 154 207 252 310 382 462
#     4  11  26  51  76 112 148 199 258 311 377 453
#     4  10  22  45  74 104 148 184 250 310 380 439
#     4  10  27  50  77 113 145 197 257 316 381 445
#     4  10  22  46  76 106 146 190 240 316 366 440
#     4  11  23  42  71 107 144 191 240 307 376 437
#
# _framework density 24.902623999999999
#
# number of rings (size 3 to 8) (size 9 to 14) (size 15 to 20)
#    0.000    1.067    4.000    0.800    3.733    8.000 
#    7.200    0.000    0.000    0.000    0.000    0.000 
#    0.000    0.000    0.000    0.000    0.000    0.000 
#
# Total GULP energy -185954.811572 kJ/mol
# GULP energy per Si atom -12396.987438 kJ/mol
# Density = 2.484594 g / cm^3
# Si number density = 24.902624 Si / 1000 Ang^3
#
#
#
# Elastic Constant Matrix: (Units=GPa)
#
#
# Indices 1 2 3 4 5 6 
#
# 1 157.1469 32.7642 26.5828 0.2444 6.1726 0.0839
# 2 32.7642 81.4287 13.8982 -0.0425 10.6973 0.2547
# 3 26.5828 13.8982 78.6004 0.3088 23.5119 -0.0022
# 4 0.2444 -0.0425 0.3088 29.1447 -0.1550 9.7685
# 5 6.1726 10.6973 23.5119 -0.1550 53.0898 -0.0240
# 6 0.0839 0.2547 -0.0022 9.7685 -0.0240 30.0780
#
#
#
# Elastic Compliance Matrix: (Units=1/GPa)
#
#
# Indices 1 2 3 4 5 6 
#
# 1 0.007256 -0.002633 -0.002184 -0.000044 0.000654 0.000017
# 2 -0.002633 0.013769 -0.000929 0.000088 -0.002057 -0.000139
# 3 -0.002184 -0.000929 0.015555 -0.000208 -0.006448 0.000078
# 4 -0.000044 0.000088 -0.000208 0.038507 0.000186 -0.012506
# 5 0.000654 -0.002057 -0.006448 0.000186 0.022031 -0.000028
# 6 0.000017 -0.000139 0.000078 -0.012506 -0.000028 0.037310
#
#
# Mechanical properties :
#
#
# Convention : Reuss Voigt Hill
#
# Bulk Modulus (GPa) = 39.85927 51.51850 45.68889
# Shear Modulus (GPa) = 32.40784 38.72454 35.56619
#
# Velocity S-wave (km/s) = 3.61138 3.94768 3.78327
# Velocity P-wave (km/s) = 5.78189 6.44296 6.12136
#
# Compressibility (1/GPa) = 0.02508826
#
# Stress axis : x y z
#
# Youngs Moduli (GPa) = 137.81268 72.62500 64.28689
#
# Poissons Ratio (x) = 0.19121 0.14040
# Poissons Ratio (y) = 0.36285 0.05975
# Poissons Ratio (z) = 0.30098 0.06750
#
# Static dielectric constant tensor:
#      x y z
#    x 5.009870 -0.000820 -0.135620 
#    y -0.000820 3.931730 0.000840 
#    z -0.135620 0.000840 4.731810 
# 
# 
# High freq. dielectric constant tensor:
#      x y z
#    x 2.021250 -0.000020 -0.001010 
#    y -0.000020 1.953730 0.000040 
#    z -0.001010 0.000040 2.002530 
# 
# From -- ./inp_files/67269.got.cif
#   From: 2010.03.12/outbox.cif.g09.slc.cpg/sg5_34_cif.got.tgz:67269.got - 2010.03.31 09:47:26.
