data_PCOD8050041
_publ_section_title
;
Structure prediction by ZEFSAII (Michael W. Deem and Ramdas Pophale) SiO2 
 PCOD8050041
Probable space group: C 2
;
_chemical_formula_sum "Si O2"
_cell_formula_units_Z 28
_cell_length_a 7.915831
_cell_length_b 11.931281
_cell_length_c 15.373496
_cell_angle_alpha 90.000000
_cell_angle_beta 105.586712
_cell_angle_gamma 90.000000
_cell_volume 1398.569110
_symmetry_space_group_name_H-M "C 2"
_symmetry_group_IT_number 5
_symmetry_cell_setting 'monoclinic'
loop_
_space_group_symop_operation_xyz
x,y,z
-x,y,-z
1/2+x,1/2+y,z
1/2-x,1/2+y,-z
loop_
_atom_site_type_symbol
_atom_site_label
_atom_site_fract_x
_atom_site_fract_y
_atom_site_fract_z
Si Si1 0.000000 0.268940 0.000000
Si Si2 0.183094 0.007079 0.493717
Si Si3 0.454958 0.139461 0.644714
Si Si4 0.213366 0.017760 0.292599
Si Si5 0.916554 0.125582 0.145591
Si Si6 0.850695 0.777117 0.789682
Si Si7 0.366772 0.387709 0.062535
Si Si8 0.000000 0.797216 0.500000
O O1 0.026595 0.189745 0.087045
O O2 0.825247 0.343191 0.989372
O O3 0.215083 0.021098 0.396659
O O4 0.173317 0.873612 0.510681
O O5 0.000000 0.064211 0.500000
O O6 0.337995 0.056542 0.571707
O O7 0.347313 0.200742 0.704084
O O8 0.542381 0.227602 0.591512
O O9 0.607553 0.073488 0.715202
O O10 0.224323 0.896898 0.249567
O O11 0.047605 0.091137 0.240612
O O12 0.768055 0.211772 0.157270
O O13 0.832197 0.011283 0.096732
O O14 0.043605 0.801731 0.856276
O O15 0.500000 0.396881 0.000000
#
# Coordination Sequence:
#
# PCOD8050041 Si02
#       8
#     2   4   4   4   4   4   4   2
#     4  12  24  44  72 100 126 182 218 264 342 396
#     4  10  21  40  59  90 127 169 221 262 319 392
#     4  12  22  42  65  92 129 172 214 270 326 382
#     4  11  23  40  62  95 130 166 224 271 319 399
#     4  11  25  43  67  97 134 171 216 278 329 394
#     4  11  24  43  66  98 132 172 213 275 330 382
#     4  11  24  45  69  99 138 167 224 272 325 408
#     4  10  22  38  60  88 126 164 214 266 320 374
#
# _framework density 20.020462999999999
#
# number of rings (size 3 to 8) (size 9 to 14) (size 15 to 20)
#    0.429    0.571    5.000    1.714    0.000    3.429 
#    2.571    0.000    0.000    0.000    0.000    0.000 
#    0.000    0.000    0.000    0.000    0.000    0.000 
#
# Total GULP energy -173543.861607 kJ/mol
# GULP energy per Si atom -12395.990115 kJ/mol
# Density = 1.997490 g / cm^3
# Si number density = 20.020463 Si / 1000 Ang^3
#
#
#
# Elastic Constant Matrix: (Units=GPa)
#
#
# Indices 1 2 3 4 5 6 
#
# 1 95.0142 60.8037 33.9641 0.0000 6.8928 0.0000
# 2 60.8037 122.1061 48.0168 0.0000 10.5549 0.0000
# 3 33.9641 48.0168 92.4784 0.0000 1.2409 0.0000
# 4 0.0000 0.0000 0.0000 22.2688 0.0000 5.3556
# 5 6.8928 10.5549 1.2409 0.0000 39.0256 0.0000
# 6 0.0000 0.0000 0.0000 5.3556 0.0000 98.2042
#
#
#
# Elastic Compliance Matrix: (Units=1/GPa)
#
#
# Indices 1 2 3 4 5 6 
#
# 1 0.015809 -0.006937 -0.002193 0.000000 -0.000846 0.000000
# 2 -0.006937 0.013608 -0.004487 0.000000 -0.002313 0.000000
# 3 -0.002193 -0.004487 0.013933 0.000000 0.001158 0.000000
# 4 0.000000 0.000000 0.000000 0.045503 0.000000 -0.002482
# 5 -0.000846 -0.002313 0.001158 0.000000 0.026362 0.000000
# 6 0.000000 0.000000 0.000000 -0.002482 0.000000 0.010318
#
#
# Mechanical properties :
#
#
# Convention : Reuss Voigt Hill
#
# Bulk Modulus (GPa) = 62.04751 66.12977 64.08864
# Shear Modulus (GPa) = 31.61763 43.02067 37.31915
#
# Velocity S-wave (km/s) = 3.97831 4.64058 4.32215
# Velocity P-wave (km/s) = 7.22232 7.86232 7.54911
#
# Compressibility (1/GPa) = 0.01611668
#
# Stress axis : x y z
#
# Youngs Moduli (GPa) = 63.25416 73.48517 71.77198
#
# Poissons Ratio (x) = 0.50975 0.15740
# Poissons Ratio (y) = 0.43878 0.32204
# Poissons Ratio (z) = 0.13872 0.32973
#
# Static dielectric constant tensor:
#      x y z
#    x 3.402580 0.000000 -0.093750 
#    y 0.000000 3.773530 0.000000 
#    z -0.093750 0.000000 3.776660 
# 
# 
# High freq. dielectric constant tensor:
#      x y z
#    x 1.772520 0.000000 -0.007590 
#    y 0.000000 1.792760 0.000000 
#    z -0.007590 0.000000 1.793580 
# 
# From -- ./inp_files/50351.got.cif
#   From: 2010.03.12/outbox.cif.g09.slc.cpg/sg5_26_cif.got.tgz:50351.got - 2010.03.31 09:47:26.
