data_PCOD8050152
_publ_section_title
;
Structure prediction by ZEFSAII (Michael W. Deem and Ramdas Pophale) SiO2 
 PCOD8050152
Probable space group: C 2
;
_chemical_formula_sum "Si O2"
_cell_formula_units_Z 32
_cell_length_a 15.323498
_cell_length_b 23.059175
_cell_length_c 8.983135
_cell_angle_alpha 90.000000
_cell_angle_beta 150.873217
_cell_angle_gamma 90.000000
_cell_volume 1545.005438
_symmetry_space_group_name_H-M "C 2"
_symmetry_group_IT_number 5
_symmetry_cell_setting 'monoclinic'
loop_
_space_group_symop_operation_xyz
x,y,z
-x,y,-z
1/2+x,1/2+y,z
1/2-x,1/2+y,-z
loop_
_atom_site_type_symbol
_atom_site_label
_atom_site_fract_x
_atom_site_fract_y
_atom_site_fract_z
Si Si1 0.186391 0.292520 0.825998
Si Si2 0.048890 0.175000 0.734710
Si Si3 0.824028 0.395755 0.641406
Si Si4 0.181641 0.979473 0.188934
Si Si5 0.182141 0.602364 0.688187
Si Si6 0.041030 0.895661 0.727123
Si Si7 0.195808 0.789345 0.311451
Si Si8 0.188181 0.186239 0.358651
O O1 0.144189 0.239452 0.878870
O O2 0.252893 0.261871 0.771795
O O3 0.000000 0.324368 0.500000
O O4 0.334805 0.337918 0.106478
O O5 0.000000 0.154324 0.500000
O O6 0.864968 0.169819 0.553233
O O7 0.171909 0.125053 0.981605
O O8 0.801164 0.447669 0.490885
O O9 0.651672 0.383339 0.487762
O O10 0.844222 0.337758 0.573087
O O11 0.000000 0.408181 0.000000
O O12 0.293494 0.034810 0.305350
O O13 0.145835 0.941122 0.988060
O O14 0.000000 0.999461 0.000000
O O15 0.197577 0.637403 0.555247
O O16 0.000000 0.615040 0.500000
O O17 0.000000 0.920198 0.500000
O O18 0.187307 0.742897 0.433691
O O19 0.000000 0.819340 0.000000
O O20 0.000000 0.202196 0.000000
#
# Coordination Sequence:
#
# PCOD8050152 Si02
#       8
#     4   4   4   4   4   4   4   4
#     4  11  22  39  64  99 139 176 216 276 332 393
#     4  10  21  41  63  91 128 174 219 260 328 394
#     4  11  24  42  67  97 131 178 222 269 336 405
#     4  10  22  49  68  88 132 174 224 274 331 394
#     4  11  26  42  66  96 127 172 220 279 331 391
#     4  11  25  40  66 102 130 172 222 277 335 392
#     4  12  21  39  64  97 137 175 213 270 336 397
#     4  10  22  40  61  93 130 175 218 264 330 395
#
# _framework density 20.711901000000001
#
# number of rings (size 3 to 8) (size 9 to 14) (size 15 to 20)
#    0.000    1.250    5.000    1.875    3.500    4.500 
#    0.000    3.125    0.000    0.000    0.000    0.000 
#    0.000    0.000    0.000    0.000    0.000    0.000 
#
# Total GULP energy -198248.385404 kJ/mol
# GULP energy per Si atom -12390.524088 kJ/mol
# Density = 2.066476 g / cm^3
# Si number density = 20.711901 Si / 1000 Ang^3
#
#
#
# Elastic Constant Matrix: (Units=GPa)
#
#
# Indices 1 2 3 4 5 6 
#
# 1 132.5357 49.4637 41.1878 0.0000 -9.8139 0.0000
# 2 49.4637 111.6974 45.5237 0.0000 -4.1167 0.0000
# 3 41.1878 45.5237 110.8673 0.0000 -8.5261 0.0000
# 4 0.0000 0.0000 0.0000 37.0457 0.0000 -6.0789
# 5 -9.8139 -4.1167 -8.5261 0.0000 35.5761 0.0000
# 6 0.0000 0.0000 0.0000 -6.0789 0.0000 37.8715
#
#
#
# Elastic Compliance Matrix: (Units=1/GPa)
#
#
# Indices 1 2 3 4 5 6 
#
# 1 0.009555 -0.003333 -0.002046 0.000000 0.001760 0.000000
# 2 -0.003333 0.011916 -0.003687 0.000000 -0.000424 0.000000
# 3 -0.002046 -0.003687 0.011428 0.000000 0.001748 0.000000
# 4 0.000000 0.000000 0.000000 0.027724 0.000000 0.004450
# 5 0.001760 -0.000424 0.001748 0.000000 0.028964 0.000000
# 6 0.000000 0.000000 0.000000 0.004450 0.000000 0.027119
#
#
# Mechanical properties :
#
#
# Convention : Reuss Voigt Hill
#
# Bulk Modulus (GPa) = 67.71704 69.71676 68.71690
# Shear Modulus (GPa) = 35.77544 36.69368 36.23456
#
# Velocity S-wave (km/s) = 4.16058 4.21363 4.18719
# Velocity P-wave (km/s) = 7.47303 7.57669 7.52504
#
# Compressibility (1/GPa) = 0.01476733
#
# Stress axis : x y z
#
# Youngs Moduli (GPa) = 104.65690 83.92264 87.50151
#
# Poissons Ratio (x) = 0.27968 0.17903
# Poissons Ratio (y) = 0.34878 0.32265
# Poissons Ratio (z) = 0.21413 0.30945
#
# Static dielectric constant tensor:
#      x y z
#    x 4.164440 0.000000 -0.031750 
#    y 0.000000 3.500510 0.000000 
#    z -0.031750 0.000000 3.531860 
# 
# 
# High freq. dielectric constant tensor:
#      x y z
#    x 1.829070 0.000000 -0.003090 
#    y 0.000000 1.789250 0.000000 
#    z -0.003090 0.000000 1.807970 
# 
# From -- ./inp_files/25626.got.cif
#   From: 2010.03.12/outbox.cif.g09.slc.cpg/sg5_13_cif.got.tgz:25626.got - 2010.03.31 09:47:26.
