data_PCOD8050711
_publ_section_title
;
Structure prediction by ZEFSAII (Michael W. Deem and Ramdas Pophale) SiO2 
 PCOD8050711
Probable space group: C 2
;
_chemical_formula_sum "Si O2"
_cell_formula_units_Z 28
_cell_length_a 8.336880
_cell_length_b 11.731455
_cell_length_c 14.595831
_cell_angle_alpha 90.000000
_cell_angle_beta 123.239370
_cell_angle_gamma 90.000000
_cell_volume 1193.966053
_symmetry_space_group_name_H-M "C 2"
_symmetry_group_IT_number 5
_symmetry_cell_setting 'monoclinic'
loop_
_space_group_symop_operation_xyz
x,y,z
-x,y,-z
1/2+x,1/2+y,z
1/2-x,1/2+y,-z
loop_
_atom_site_type_symbol
_atom_site_label
_atom_site_fract_x
_atom_site_fract_y
_atom_site_fract_z
Si Si1 0.380725 0.585660 0.049780
Si Si2 0.986872 0.498671 0.896333
Si Si3 0.976938 0.483601 0.291517
Si Si4 0.511044 0.238729 0.351648
Si Si5 0.089317 0.884355 0.204196
Si Si6 0.178927 0.183054 0.792419
Si Si7 0.308000 0.774642 0.597667
O O1 0.432443 0.457002 0.099941
O O2 0.421755 0.681694 0.139230
O O3 0.500000 0.623560 0.000000
O O4 0.156165 0.592543 0.955334
O O5 0.030793 0.430744 0.815678
O O6 0.780469 0.559240 0.816135
O O7 0.000000 0.431816 0.000000
O O8 0.024200 0.617081 0.304759
O O9 0.141101 0.409378 0.392405
O O10 0.773686 0.466258 0.278727
O O11 0.505455 0.339022 0.274496
O O12 0.704874 0.244680 0.471188
O O13 0.326266 0.248679 0.357575
O O14 0.159436 0.779078 0.164511
O O15 0.006987 0.202546 0.665699
#
# Coordination Sequence:
#
# PCOD8050711 Si02
#       7
#     4   4   4   4   4   4   4
#     4  11  23  41  69  99 136 185 229 282 346 402
#     4  10  22  42  67  99 139 180 228 283 344 405
#     4  11  23  47  67 100 144 175 228 294 335 425
#     4  11  25  47  70 105 137 180 233 293 347 417
#     4  11  24  43  73  99 135 184 231 282 353 414
#     4  10  23  44  68 100 137 177 235 282 344 421
#     4  10  26  45  69 108 133 182 237 279 364 415
#
# _framework density 23.451253999999999
#
# number of rings (size 3 to 8) (size 9 to 14) (size 15 to 20)
#    0.000    1.429    2.857    0.857    4.000    7.429 
#    2.571    2.857    0.000    0.000    0.000    0.000 
#    0.000    0.000    0.000    0.000    0.000    0.000 
#
# Total GULP energy -173471.529962 kJ/mol
# GULP energy per Si atom -12390.823569 kJ/mol
# Density = 2.339788 g / cm^3
# Si number density = 23.451254 Si / 1000 Ang^3
#
#
#
# Elastic Constant Matrix: (Units=GPa)
#
#
# Indices 1 2 3 4 5 6 
#
# 1 83.7061 13.2733 26.0455 0.0000 -4.1283 0.0000
# 2 13.2733 68.6301 26.6435 0.0000 1.2709 0.0000
# 3 26.0455 26.6435 77.4746 0.0000 1.8209 0.0000
# 4 0.0000 0.0000 0.0000 33.1267 0.0000 0.4120
# 5 -4.1283 1.2709 1.8209 0.0000 49.1696 0.0000
# 6 0.0000 0.0000 0.0000 0.4120 0.0000 37.3406
#
#
#
# Elastic Compliance Matrix: (Units=1/GPa)
#
#
# Indices 1 2 3 4 5 6 
#
# 1 0.013482 -0.000993 -0.004222 0.000000 0.001314 0.000000
# 2 -0.000993 0.016891 -0.005468 0.000000 -0.000317 0.000000
# 3 -0.004222 -0.005468 0.016226 0.000000 -0.000814 0.000000
# 4 0.000000 0.000000 0.000000 0.030191 0.000000 -0.000333
# 5 0.001314 -0.000317 -0.000814 0.000000 0.020486 0.000000
# 6 0.000000 0.000000 0.000000 -0.000333 0.000000 0.026784
#
#
# Mechanical properties :
#
#
# Convention : Reuss Voigt Hill
#
# Bulk Modulus (GPa) = 39.62737 40.19284 39.91010
# Shear Modulus (GPa) = 32.50152 34.85063 33.67608
#
# Velocity S-wave (km/s) = 3.72683 3.85916 3.79357
# Velocity P-wave (km/s) = 5.95428 6.08552 6.02026
#
# Compressibility (1/GPa) = 0.02523508
#
# Stress axis : x y z
#
# Youngs Moduli (GPa) = 74.17029 59.20157 61.62828
#
# Poissons Ratio (x) = 0.05878 0.26020
# Poissons Ratio (y) = 0.07364 0.33697
# Poissons Ratio (z) = 0.31315 0.32370
#
# Static dielectric constant tensor:
#      x y z
#    x 4.543250 0.000000 -0.079860 
#    y 0.000000 3.920280 0.000000 
#    z -0.079860 0.000000 4.251420 
# 
# 
# High freq. dielectric constant tensor:
#      x y z
#    x 1.952740 0.000000 -0.000390 
#    y 0.000000 1.901900 0.000000 
#    z -0.000390 0.000000 1.921620 
# 
# From -- ./inp_files/50549.got.cif
#   From: 2010.03.12/outbox.cif.g09.slc.cpg/sg5_26_cif.got.tgz:50549.got - 2010.03.31 09:47:26.
