data_PCOD8050214
_publ_section_title
;
Structure prediction by ZEFSAII (Michael W. Deem and Ramdas Pophale) SiO2 
 PCOD8050214
Probable space group: C 2
;
_chemical_formula_sum "Si O2"
_cell_formula_units_Z 24
_cell_length_a 13.275301
_cell_length_b 11.789945
_cell_length_c 8.014658
_cell_angle_alpha 90.000000
_cell_angle_beta 112.210353
_cell_angle_gamma 90.000000
_cell_volume 1161.340053
_symmetry_space_group_name_H-M "C 2"
_symmetry_group_IT_number 5
_symmetry_cell_setting 'monoclinic'
loop_
_space_group_symop_operation_xyz
x,y,z
-x,y,-z
1/2+x,1/2+y,z
1/2-x,1/2+y,-z
loop_
_atom_site_type_symbol
_atom_site_label
_atom_site_fract_x
_atom_site_fract_y
_atom_site_fract_z
Si Si1 0.208735 0.307150 0.293935
Si Si2 0.500000 0.173478 0.000000
Si Si3 0.367351 0.960045 0.185394
Si Si4 0.500000 0.846630 0.000000
Si Si5 0.775695 0.546809 0.816817
Si Si6 0.130621 0.243500 0.598296
Si Si7 0.576217 0.203679 0.696326
O O1 0.103556 0.271908 0.117199
O O2 0.224688 0.443682 0.316888
O O3 0.193800 0.249318 0.463343
O O4 0.307490 0.258673 0.252213
O O5 0.605979 0.103075 0.119027
O O6 0.469925 0.242965 0.150348
O O7 0.471338 0.924091 0.140587
O O8 0.333798 0.857310 0.283887
O O9 0.408825 0.068440 0.313819
O O10 0.266503 0.993565 0.998994
O O11 0.676532 0.633037 0.722393
O O12 0.000000 0.233766 0.500000
O O13 0.500000 0.248638 0.500000
#
# Coordination Sequence:
#
# PCOD8050214 Si02
#       7
#     4   2   4   2   4   4   4
#     4  11  24  39  68  94 137 171 224 279 332 392
#     4  10  23  42  70  89 132 177 232 268 331 398
#     4  10  22  39  70  89 132 174 227 269 327 399
#     4  10  21  42  62  99 126 173 222 278 323 406
#     4  10  24  43  64  99 133 172 225 280 328 402
#     4  12  25  41  70 101 134 176 224 277 339 396
#     4  11  23  39  66  98 126 174 224 282 332 395
#
# _framework density 20.665780000000002
#
# number of rings (size 3 to 8) (size 9 to 14) (size 15 to 20)
#    0.000    1.333    1.667    6.000   14.000    0.667 
#    0.000    0.000    0.000    2.000    0.000    0.000 
#    0.000    0.000    0.000    0.000    0.000    0.000 
#
# Total GULP energy -148694.186361 kJ/mol
# GULP energy per Si atom -12391.182197 kJ/mol
# Density = 2.061874 g / cm^3
# Si number density = 20.665780 Si / 1000 Ang^3
#
#
#
# Elastic Constant Matrix: (Units=GPa)
#
#
# Indices 1 2 3 4 5 6 
#
# 1 123.4595 49.7842 74.9129 0.0000 -5.1281 0.0000
# 2 49.7842 44.9330 51.7525 0.0000 8.4457 0.0000
# 3 74.9129 51.7525 127.8465 0.0000 3.6288 0.0000
# 4 0.0000 0.0000 0.0000 31.4997 0.0000 4.5117
# 5 -5.1281 8.4457 3.6288 0.0000 40.0261 0.0000
# 6 0.0000 0.0000 0.0000 4.5117 0.0000 32.1203
#
#
#
# Elastic Compliance Matrix: (Units=1/GPa)
#
#
# Indices 1 2 3 4 5 6 
#
# 1 0.016843 -0.015335 -0.003824 0.000000 0.005740 0.000000
# 2 -0.015335 0.057891 -0.014082 0.000000 -0.012903 0.000000
# 3 -0.003824 -0.014082 0.015733 0.000000 0.001055 0.000000
# 4 0.000000 0.000000 0.000000 0.032398 0.000000 -0.004551
# 5 0.005740 -0.012903 0.001055 0.000000 0.028346 0.000000
# 6 0.000000 0.000000 0.000000 -0.004551 0.000000 0.031772
#
#
# Mechanical properties :
#
#
# Convention : Reuss Voigt Hill
#
# Bulk Modulus (GPa) = 41.69548 72.12647 56.91097
# Shear Modulus (GPa) = 19.42030 28.71516 24.06773
#
# Velocity S-wave (km/s) = 3.06883 3.73165 3.41635
# Velocity P-wave (km/s) = 5.72511 7.31738 6.56966
#
# Compressibility (1/GPa) = 0.02398342
#
# Stress axis : x y z
#
# Youngs Moduli (GPa) = 59.37316 17.27370 63.55909
#
# Poissons Ratio (x) = 0.26490 0.24307
# Poissons Ratio (y) = 0.91051 0.89507
# Poissons Ratio (z) = 0.22706 0.24326
#
# Static dielectric constant tensor:
#      x y z
#    x 3.680530 0.000000 -0.055100 
#    y 0.000000 3.632770 0.000000 
#    z -0.055100 0.000000 4.238620 
# 
# 
# High freq. dielectric constant tensor:
#      x y z
#    x 1.803780 0.000000 -0.002070 
#    y 0.000000 1.782910 0.000000 
#    z -0.002070 0.000000 1.819810 
# 
# From -- ./inp_files/19309.got.cif
#   From: 2010.03.12/outbox.cif.g09.slc.cpg/sg5_10_cif.got.tgz:19309.got - 2010.03.31 09:47:26.
