data_PCOD8050776
_publ_section_title
;
Structure prediction by ZEFSAII (Michael W. Deem and Ramdas Pophale) SiO2 
 PCOD8050776
Probable space group: C 2
;
_chemical_formula_sum "Si O2"
_cell_formula_units_Z 16
_cell_length_a 14.043374
_cell_length_b 10.844170
_cell_length_c 9.639104
_cell_angle_alpha 90.000000
_cell_angle_beta 28.035263
_cell_angle_gamma 90.000000
_cell_volume 689.947524
_symmetry_space_group_name_H-M "C 2"
_symmetry_group_IT_number 5
_symmetry_cell_setting 'monoclinic'
loop_
_space_group_symop_operation_xyz
x,y,z
-x,y,-z
1/2+x,1/2+y,z
1/2-x,1/2+y,-z
loop_
_atom_site_type_symbol
_atom_site_label
_atom_site_fract_x
_atom_site_fract_y
_atom_site_fract_z
Si Si1 0.513073 0.425960 0.830599
Si Si2 0.590377 0.807312 0.734250
Si Si3 0.947420 0.651951 0.213352
Si Si4 0.116376 0.464511 0.207056
O O1 0.746883 0.423918 0.473978
O O2 0.436827 0.283755 0.942038
O O3 0.500000 0.488503 0.000000
O O4 0.355171 0.488990 0.927871
O O5 0.704341 0.679833 0.544096
O O6 0.417476 0.843334 0.846028
O O7 0.500000 0.786415 0.000000
O O8 0.032575 0.583674 0.237322
O O9 0.000000 0.582048 0.000000
O O10 0.000000 0.444512 0.500000
#
# Coordination Sequence:
#
# PCOD8050776 Si02
#       4
#     4   4   4   4
#     4   9  20  44  64  90 131 168 209 263 313 379
#     4  10  22  43  66  93 134 162 215 265 315 379
#     4   9  21  44  63  94 131 161 217 260 313 386
#     4  12  21  39  70  92 131 171 208 265 324 376
#
# _framework density 23.190169000000001
#
# number of rings (size 3 to 8) (size 9 to 14) (size 15 to 20)
#    1.500    0.500    2.500    0.750    0.000    3.000 
#    9.000    0.000    0.000    0.000    0.000    0.000 
#    0.000    0.000    0.000    0.000    0.000    0.000 
#
# Total GULP energy -99148.345960 kJ/mol
# GULP energy per Si atom -12393.543245 kJ/mol
# Density = 2.313739 g / cm^3
# Si number density = 23.190169 Si / 1000 Ang^3
#
#
#
# Elastic Constant Matrix: (Units=GPa)
#
#
# Indices 1 2 3 4 5 6 
#
# 1 181.3897 27.4299 64.6014 -0.0002 2.8473 0.0001
# 2 27.4299 22.1639 -4.0146 -0.0003 7.4481 0.0001
# 3 64.6014 -4.0146 143.9568 -0.0007 18.7139 0.0005
# 4 -0.0002 -0.0003 -0.0007 14.1376 0.0003 -1.3059
# 5 2.8473 7.4481 18.7139 0.0003 56.8914 -0.0001
# 6 0.0001 0.0001 0.0005 -1.3059 -0.0001 24.4147
#
#
#
# Elastic Compliance Matrix: (Units=1/GPa)
#
#
# Indices 1 2 3 4 5 6 
#
# 1 0.009207 -0.013244 -0.004875 0.000000 0.002877 0.000000
# 2 -0.013244 0.066931 0.009259 0.000002 -0.011145 0.000000
# 3 -0.004875 0.009259 0.009943 0.000001 -0.004239 0.000000
# 4 0.000000 0.000002 0.000001 0.071084 -0.000001 0.003802
# 5 0.002877 -0.011145 -0.004239 -0.000001 0.020287 0.000000
# 6 0.000000 0.000000 0.000000 0.003802 0.000000 0.041162
#
#
# Mechanical properties :
#
#
# Convention : Reuss Voigt Hill
#
# Bulk Modulus (GPa) = 14.62819 58.17153 36.39986
# Shear Modulus (GPa) = 19.29592 36.38834 27.84213
#
# Velocity S-wave (km/s) = 2.88770 3.96552 3.46873
# Velocity P-wave (km/s) = 4.17612 6.79015 5.63676
#
# Compressibility (1/GPa) = 0.06836118
#
# Stress axis : x y z
#
# Youngs Moduli (GPa) = 108.61593 14.94070 100.56930
#
# Poissons Ratio (x) = 0.19787 0.49026
# Poissons Ratio (y) = 1.43850 -0.93113
# Poissons Ratio (z) = 0.52949 -0.13833
#
# Static dielectric constant tensor:
#      x y z
#    x 4.231540 0.000000 -0.073540 
#    y 0.000000 3.974530 0.000000 
#    z -0.073540 0.000000 3.988540 
# 
# 
# High freq. dielectric constant tensor:
#      x y z
#    x 1.913720 0.000000 0.005290 
#    y 0.000000 1.908670 0.000000 
#    z 0.005290 0.000000 1.912760 
# 
# From -- ./inp_files/1865.got.cif
#   From: 2010.03.12/outbox.cif.g09.slc.cpg/sg5_1_cif.got.tgz:1865.got - 2010.03.31 09:47:26.
