data_PCOD8050799
_publ_section_title
;
Structure prediction by ZEFSAII (Michael W. Deem and Ramdas Pophale) SiO2 
 PCOD8050799
Probable space group: C 2
;
_chemical_formula_sum "Si O2"
_cell_formula_units_Z 28
_cell_length_a 25.162908
_cell_length_b 9.849201
_cell_length_c 7.504751
_cell_angle_alpha 90.000000
_cell_angle_beta 42.177244
_cell_angle_gamma 90.000000
_cell_volume 1248.810308
_symmetry_space_group_name_H-M "C 2"
_symmetry_group_IT_number 5
_symmetry_cell_setting 'monoclinic'
loop_
_space_group_symop_operation_xyz
x,y,z
-x,y,-z
1/2+x,1/2+y,z
1/2-x,1/2+y,-z
loop_
_atom_site_type_symbol
_atom_site_label
_atom_site_fract_x
_atom_site_fract_y
_atom_site_fract_z
Si Si1 0.687093 0.536880 0.434855
Si Si2 0.346389 0.042883 0.226809
Si Si3 0.457186 0.836592 0.419684
Si Si4 0.108311 0.227630 0.909888
Si Si5 0.840998 0.740517 0.543776
Si Si6 0.815877 0.181515 0.904172
Si Si7 0.008400 0.627148 0.686825
O O1 0.778046 0.569022 0.253062
O O2 0.629394 0.638350 0.686102
O O3 0.666821 0.382875 0.541490
O O4 0.677674 0.551084 0.242891
O O5 0.318491 0.109260 0.480812
O O6 0.362767 0.882089 0.195281
O O7 0.421773 0.135427 0.987250
O O8 0.500000 0.859836 0.500000
O O9 0.367415 0.792509 0.669390
O O10 0.453205 0.984923 0.341555
O O11 0.512386 0.732559 0.169255
O O12 0.147571 0.160239 0.989101
O O13 0.930711 0.740115 0.394223
O O14 0.774187 0.735070 0.864534
O O15 0.000000 0.646341 0.500000
#
# Coordination Sequence:
#
# PCOD8050799 Si02
#       7
#     4   4   4   4   4   4   4
#     4  12  25  43  69 106 144 187 227 304 358 421
#     4  11  22  47  71  99 141 190 237 290 351 434
#     4   8  19  40  71  97 125 179 241 290 324 421
#     4  10  22  47  72  97 134 185 245 291 350 424
#     4  12  26  43  68 109 146 180 240 294 369 421
#     4  11  23  41  68 100 138 176 238 287 351 419
#     4  10  22  43  71 101 137 182 241 289 346 421
#
# _framework density 22.421341000000002
#
# number of rings (size 3 to 8) (size 9 to 14) (size 15 to 20)
#    0.000    1.429    2.857    2.143    4.000    0.571 
#   10.286    0.714    0.000    0.000    0.000    0.000 
#    0.000    0.000    0.000    0.000    0.000    0.000 
#
# Total GULP energy -173510.903888 kJ/mol
# GULP energy per Si atom -12393.635992 kJ/mol
# Density = 2.237031 g / cm^3
# Si number density = 22.421341 Si / 1000 Ang^3
#
#
#
# Elastic Constant Matrix: (Units=GPa)
#
#
# Indices 1 2 3 4 5 6 
#
# 1 98.6562 43.3679 47.4411 0.0000 -0.7393 0.0000
# 2 43.3679 81.0026 56.5015 0.0000 4.9352 0.0000
# 3 47.4411 56.5015 152.6345 0.0000 -18.0628 0.0000
# 4 0.0000 0.0000 0.0000 28.2608 0.0000 1.0573
# 5 -0.7393 4.9352 -18.0628 0.0000 44.4203 0.0000
# 6 0.0000 0.0000 0.0000 1.0573 0.0000 24.9850
#
#
#
# Elastic Compliance Matrix: (Units=1/GPa)
#
#
# Indices 1 2 3 4 5 6 
#
# 1 0.013731 -0.005905 -0.002077 0.000000 0.000040 0.000000
# 2 -0.005905 0.020116 -0.006185 0.000000 -0.004848 0.000000
# 3 -0.002077 -0.006185 0.010047 0.000000 0.004738 0.000000
# 4 0.000000 0.000000 0.000000 0.035441 0.000000 -0.001500
# 5 0.000040 -0.004848 0.004738 0.000000 0.024978 0.000000
# 6 0.000000 0.000000 0.000000 -0.001500 0.000000 0.040087
#
#
# Mechanical properties :
#
#
# Convention : Reuss Voigt Hill
#
# Bulk Modulus (GPa) = 64.26504 69.65714 66.96109
# Shear Modulus (GPa) = 28.10210 31.86543 29.98376
#
# Velocity S-wave (km/s) = 3.54413 3.77398 3.66086
# Velocity P-wave (km/s) = 6.74333 7.07993 6.91368
#
# Compressibility (1/GPa) = 0.01556056
#
# Stress axis : x y z
#
# Youngs Moduli (GPa) = 72.82701 49.71090 99.52759
#
# Poissons Ratio (x) = 0.29354 0.20674
# Poissons Ratio (y) = 0.43005 0.61557
# Poissons Ratio (z) = 0.15128 0.30746
#
# Static dielectric constant tensor:
#      x y z
#    x 4.026680 0.000000 -0.067640 
#    y 0.000000 3.862840 0.000000 
#    z -0.067640 0.000000 4.435080 
# 
# 
# High freq. dielectric constant tensor:
#      x y z
#    x 1.884620 0.000000 -0.006140 
#    y 0.000000 1.854790 0.000000 
#    z -0.006140 0.000000 1.901110 
# 
# From -- ./inp_files/31734.got.cif
#   From: 2010.03.12/outbox.cif.g09.slc.cpg/sg5_16_cif.got.tgz:31734.got - 2010.03.31 09:47:26.
