data_PCOD8050111
_publ_section_title
;
Structure prediction by ZEFSAII (Michael W. Deem and Ramdas Pophale) SiO2 
 PCOD8050111
Probable space group: C 2
;
_chemical_formula_sum "Si O2"
_cell_formula_units_Z 24
_cell_length_a 10.117516
_cell_length_b 17.149424
_cell_length_c 9.717050
_cell_angle_alpha 90.000000
_cell_angle_beta 42.955667
_cell_angle_gamma 90.000000
_cell_volume 1148.895607
_symmetry_space_group_name_H-M "C 2"
_symmetry_group_IT_number 5
_symmetry_cell_setting 'monoclinic'
loop_
_space_group_symop_operation_xyz
x,y,z
-x,y,-z
1/2+x,1/2+y,z
1/2-x,1/2+y,-z
loop_
_atom_site_type_symbol
_atom_site_label
_atom_site_fract_x
_atom_site_fract_y
_atom_site_fract_z
Si Si1 0.986898 0.034920 0.844910
Si Si2 0.982414 0.669687 0.356324
Si Si3 0.351252 0.761506 0.994889
Si Si4 0.882163 0.437070 0.961657
Si Si5 0.605033 0.989965 0.552505
Si Si6 0.941694 0.186860 0.387602
O O1 0.998301 0.117208 0.760617
O O2 0.166149 0.985222 0.649482
O O3 0.000000 0.045796 0.000000
O O4 0.790662 0.992853 0.952104
O O5 0.977970 0.576192 0.348502
O O6 0.787011 0.703947 0.439236
O O7 0.000000 0.696832 0.500000
O O8 0.163476 0.705786 0.137391
O O9 0.500000 0.732971 0.000000
O O10 0.296109 0.851798 0.062042
O O11 0.445733 0.758504 0.769541
O O12 0.047050 0.432301 0.718891
O O13 0.000000 0.472916 0.000000
O O14 0.500000 0.956234 0.500000
O O15 0.000000 0.170850 0.500000
#
# Coordination Sequence:
#
# PCOD8050111 Si02
#       6
#     4   4   4   4   4   4
#     4  11  23  44  69  93 126 177 218 260 325 388
#     4  10  21  41  70  91 118 171 222 260 314 384
#     4  11  23  44  66  92 133 176 214 255 325 396
#     4  11  26  41  63  98 133 172 210 269 320 381
#     4  10  21  40  67  96 121 165 220 266 314 378
#     4  11  25  41  66 101 128 162 215 283 317 366
#
# _framework density 20.889626
#
# number of rings (size 3 to 8) (size 9 to 14) (size 15 to 20)
#    0.000    1.333    3.333    1.500    7.000    2.667 
#    3.000    0.000    0.000    0.000    0.000    0.000 
#    0.000    0.000    0.000    0.000    0.000    0.000 
#
# Total GULP energy -148778.296928 kJ/mol
# GULP energy per Si atom -12398.191411 kJ/mol
# Density = 2.084208 g / cm^3
# Si number density = 20.889626 Si / 1000 Ang^3
#
#
#
# Elastic Constant Matrix: (Units=GPa)
#
#
# Indices 1 2 3 4 5 6 
#
# 1 169.0913 34.2029 74.3309 -0.0005 2.5577 0.0000
# 2 34.2029 41.6951 28.1044 -0.0002 -0.5021 0.0000
# 3 74.3309 28.1044 137.5430 -0.0006 -1.4305 -0.0001
# 4 -0.0005 -0.0002 -0.0006 15.3800 0.0004 3.5084
# 5 2.5577 -0.5021 -1.4305 0.0004 39.7367 0.0000
# 6 0.0000 0.0000 -0.0001 3.5084 0.0000 16.1859
#
#
#
# Elastic Compliance Matrix: (Units=1/GPa)
#
#
# Indices 1 2 3 4 5 6 
#
# 1 0.008434 -0.004465 -0.003653 0.000000 -0.000731 0.000000
# 2 -0.004465 0.030179 -0.003748 0.000000 0.000534 0.000000
# 3 -0.003653 -0.003748 0.010016 0.000000 0.000548 0.000000
# 4 0.000000 0.000000 0.000000 0.068402 -0.000001 -0.014826
# 5 -0.000731 0.000534 0.000548 -0.000001 0.025239 0.000000
# 6 0.000000 0.000000 0.000000 -0.014826 0.000000 0.064996
#
#
# Mechanical properties :
#
#
# Convention : Reuss Voigt Hill
#
# Bulk Modulus (GPa) = 40.16549 69.06731 54.61640
# Shear Modulus (GPa) = 20.89449 28.37326 24.63387
#
# Velocity S-wave (km/s) = 3.16608 3.68944 3.43773
# Velocity P-wave (km/s) = 5.71267 7.16129 6.47760
#
# Compressibility (1/GPa) = 0.02489700
#
# Stress axis : x y z
#
# Youngs Moduli (GPa) = 118.56661 33.13557 99.83755
#
# Poissons Ratio (x) = 0.14795 0.36473
# Poissons Ratio (y) = 0.52939 0.37420
# Poissons Ratio (z) = 0.43315 0.12419
#
# Static dielectric constant tensor:
#      x y z
#    x 3.894460 0.000000 -0.015940 
#    y 0.000000 3.484610 0.000000 
#    z -0.015940 0.000000 4.080300 
# 
# 
# High freq. dielectric constant tensor:
#      x y z
#    x 1.821770 0.000000 -0.004830 
#    y 0.000000 1.797900 0.000000 
#    z -0.004830 0.000000 1.832000 
# 
# From -- ./inp_files/16674.got.cif
#   From: 2010.03.12/outbox.cif.g09.slc.cpg/sg5_9_cif.got.tgz:16674.got - 2010.03.31 09:47:26.
