data_PCOD8050917
_publ_section_title
;
Structure prediction by ZEFSAII (Michael W. Deem and Ramdas Pophale) SiO2 
 PCOD8050917
Probable space group: C 2
;
_chemical_formula_sum "Si O2"
_cell_formula_units_Z 22
_cell_length_a 7.886855
_cell_length_b 22.513223
_cell_length_c 7.507314
_cell_angle_alpha 90.000000
_cell_angle_beta 132.020570
_cell_angle_gamma 90.000000
_cell_volume 990.282556
_symmetry_space_group_name_H-M "C 2"
_symmetry_group_IT_number 5
_symmetry_cell_setting 'monoclinic'
loop_
_space_group_symop_operation_xyz
x,y,z
-x,y,-z
1/2+x,1/2+y,z
1/2-x,1/2+y,-z
loop_
_atom_site_type_symbol
_atom_site_label
_atom_site_fract_x
_atom_site_fract_y
_atom_site_fract_z
Si Si1 0.961799 0.386350 0.270173
Si Si2 0.500000 0.449326 0.000000
Si Si3 0.000000 0.693587 0.500000
Si Si4 0.427338 0.110842 0.743515
Si Si5 0.295936 0.492001 0.495878
Si Si6 0.445931 0.757849 0.771268
Si Si7 0.000000 0.184015 0.500000
O O1 0.702914 0.409284 0.059436
O O2 0.000000 0.368587 0.500000
O O3 0.153362 0.433455 0.345229
O O4 0.006486 0.327898 0.186658
O O5 0.602403 0.489638 0.231698
O O6 0.089043 0.649492 0.723805
O O7 0.814780 0.739290 0.450066
O O8 0.184751 0.141186 0.546307
O O9 0.393475 0.043801 0.650551
O O10 0.500000 0.112030 0.000000
O O11 0.500000 0.501439 0.500000
O O12 0.599880 0.726500 0.727204
O O13 0.500000 0.730166 0.000000
#
# Coordination Sequence:
#
# PCOD8050917 Si02
#       7
#     4   2   2   4   4   4   2
#     4  10  24  44  66  97 134 172 221 276 332 390
#     4  10  26  46  64 100 138 172 218 278 336 388
#     4  10  26  42  64 100 134 172 220 270 326 390
#     4  11  24  43  68  96 132 174 220 272 326 395
#     4  11  26  42  69 100 130 179 220 272 335 396
#     4  11  23  41  67  94 128 175 218 272 324 391
#     4  10  22  46  58  94 132 170 222 270 324 382
#
# _framework density 22.215881
#
# number of rings (size 3 to 8) (size 9 to 14) (size 15 to 20)
#    0.000    1.455    1.818    1.091   10.182    1.455 
#    8.182    0.000    0.000    0.000    0.000    0.000 
#    0.000    0.000    0.000    0.000    0.000    0.000 
#
# Total GULP energy -136333.739240 kJ/mol
# GULP energy per Si atom -12393.976295 kJ/mol
# Density = 2.216532 g / cm^3
# Si number density = 22.215881 Si / 1000 Ang^3
#
#
#
# Elastic Constant Matrix: (Units=GPa)
#
#
# Indices 1 2 3 4 5 6 
#
# 1 81.9120 32.5529 17.5114 0.0000 -12.1544 0.0000
# 2 32.5529 110.3271 29.5028 0.0000 -11.4709 0.0000
# 3 17.5114 29.5028 89.6318 0.0000 -21.3783 0.0000
# 4 0.0000 0.0000 0.0000 17.1649 0.0000 -1.9112
# 5 -12.1544 -11.4709 -21.3783 0.0000 43.4765 0.0000
# 6 0.0000 0.0000 0.0000 -1.9112 0.0000 29.9731
#
#
#
# Elastic Compliance Matrix: (Units=1/GPa)
#
#
# Indices 1 2 3 4 5 6 
#
# 1 0.014256 -0.003684 -0.000967 0.000000 0.002538 0.000000
# 2 -0.003684 0.010942 -0.002763 0.000000 0.000498 0.000000
# 3 -0.000967 -0.002763 0.013613 0.000000 0.005695 0.000000
# 4 0.000000 0.000000 0.000000 0.058675 0.000000 0.003741
# 5 0.002538 0.000498 0.005695 0.000000 0.026642 0.000000
# 6 0.000000 0.000000 0.000000 0.003741 0.000000 0.033602
#
#
# Mechanical properties :
#
#
# Convention : Reuss Voigt Hill
#
# Bulk Modulus (GPa) = 41.69682 49.00056 45.34869
# Shear Modulus (GPa) = 27.69296 31.60981 29.65138
#
# Velocity S-wave (km/s) = 3.53447 3.77616 3.65731
# Velocity P-wave (km/s) = 5.95536 6.41225 6.18802
#
# Compressibility (1/GPa) = 0.02398264
#
# Stress axis : x y z
#
# Youngs Moduli (GPa) = 70.14827 91.39500 73.45706
#
# Poissons Ratio (x) = 0.33667 0.07106
# Poissons Ratio (y) = 0.25840 0.20295
# Poissons Ratio (z) = 0.06786 0.25252
#
# Static dielectric constant tensor:
#      x y z
#    x 4.299130 0.000000 -0.192350 
#    y 0.000000 3.999840 0.000000 
#    z -0.192350 0.000000 3.889360 
# 
# 
# High freq. dielectric constant tensor:
#      x y z
#    x 1.885330 0.000000 -0.016180 
#    y 0.000000 1.881190 0.000000 
#    z -0.016180 0.000000 1.860650 
# 
# From -- ./inp_files/2897.got.cif
#   From: 2010.03.12/outbox.cif.g09.slc.cpg/sg5_2_cif.got.tgz:2897.got - 2010.03.31 09:47:26.
