data_PCOD8050800
_publ_section_title
;
Structure prediction by ZEFSAII (Michael W. Deem and Ramdas Pophale) SiO2 
 PCOD8050800
Probable space group: C 2
;
_chemical_formula_sum "Si O2"
_cell_formula_units_Z 18
_cell_length_a 7.665864
_cell_length_b 18.804974
_cell_length_c 5.469752
_cell_angle_alpha 90.000000
_cell_angle_beta 65.315064
_cell_angle_gamma 90.000000
_cell_volume 716.444947
_symmetry_space_group_name_H-M "C 2"
_symmetry_group_IT_number 5
_symmetry_cell_setting 'monoclinic'
loop_
_space_group_symop_operation_xyz
x,y,z
-x,y,-z
1/2+x,1/2+y,z
1/2-x,1/2+y,-z
loop_
_atom_site_type_symbol
_atom_site_label
_atom_site_fract_x
_atom_site_fract_y
_atom_site_fract_z
Si Si1 0.000000 0.715301 0.000000
Si Si2 0.274161 0.035444 0.662321
Si Si3 0.297875 0.678654 0.485974
Si Si4 0.274242 0.803213 0.165306
Si Si5 0.227695 0.464602 0.836397
O O1 0.884072 0.659577 0.236258
O O2 0.165073 0.765958 0.008692
O O3 0.500000 0.024802 0.500000
O O4 0.189549 0.002783 0.457005
O O5 0.205593 0.117846 0.720448
O O6 0.190004 0.998759 0.958736
O O7 0.500000 0.680766 0.500000
O O8 0.235534 0.756934 0.429914
O O9 0.201448 0.883440 0.233657
O O10 0.500000 0.798882 0.000000
O O11 0.000000 0.467708 0.000000
#
# Coordination Sequence:
#
# PCOD8050800 Si02
#       5
#     2   4   4   4   4
#     4  12  26  46  76 104 150 196 250 314 374 444
#     4  10  22  43  71 105 149 195 247 304 380 442
#     4  12  27  46  75 110 152 197 253 317 374 451
#     4  11  24  46  75 108 150 193 254 307 378 447
#     4   9  22  41  72 105 146 196 242 310 373 445
#
# _framework density 25.12405
#
# number of rings (size 3 to 8) (size 9 to 14) (size 15 to 20)
#    0.000    1.333    2.222    2.000   10.889    0.889 
#    4.000    0.000    0.000    0.000    0.000    0.000 
#    0.000    0.000    0.000    0.000    0.000    0.000 
#
# Total GULP energy -111551.033783 kJ/mol
# GULP energy per Si atom -12394.559309 kJ/mol
# Density = 2.506687 g / cm^3
# Si number density = 25.124050 Si / 1000 Ang^3
#
#
#
# Elastic Constant Matrix: (Units=GPa)
#
#
# Indices 1 2 3 4 5 6 
#
# 1 106.5586 35.2141 31.4352 0.0000 18.1684 0.0000
# 2 35.2141 174.0255 64.9929 0.0000 26.3943 0.0000
# 3 31.4352 64.9929 142.1536 0.0000 37.9955 0.0000
# 4 0.0000 0.0000 0.0000 -127.1212 0.0000 -215.5330
# 5 18.1684 26.3943 37.9955 0.0000 35.2861 0.0000
# 6 0.0000 0.0000 0.0000 -215.5330 0.0000 -275.1746
#
#
#
# Elastic Compliance Matrix: (Units=1/GPa)
#
#
# Indices 1 2 3 4 5 6 
#
# 1 0.010674 -0.001312 -0.000778 0.000000 -0.003677 0.000000
# 2 -0.001312 0.007250 -0.002465 0.000000 -0.002093 0.000000
# 3 -0.000778 -0.002465 0.010859 0.000000 -0.009449 0.000000
# 4 0.000000 0.000000 0.000000 0.023983 0.000000 -0.018785
# 5 -0.003677 -0.002093 -0.009449 0.000000 0.041973 0.000000
# 6 0.000000 0.000000 0.000000 -0.018785 0.000000 0.011079
#
#
# Mechanical properties :
#
#
# Convention : Reuss Voigt Hill
#
# Bulk Modulus (GPa) = 50.82836 76.22467 63.52651
# Shear Modulus (GPa) = 41.15720 -53.99557 -6.41918
#
# Velocity S-wave (km/s) = 4.05181 -4.64093 -1.60017
# Velocity P-wave (km/s) = 6.49341 1.29905 4.68252
#
# Compressibility (1/GPa) = 0.01967406
#
# Stress axis : x y z
#
# Youngs Moduli (GPa) = 93.68151 137.93464 92.08825
#
# Poissons Ratio (x) = 0.18093 0.07163
# Poissons Ratio (y) = 0.12288 0.22701
# Poissons Ratio (z) = 0.07287 0.34002
#
# Static dielectric constant tensor:
#      x y z
#    x 4.718120 0.000000 0.088560 
#    y 0.000000 4.690100 0.000000 
#    z 0.088560 0.000000 4.744840 
# 
# 
# High freq. dielectric constant tensor:
#      x y z
#    x 2.016340 0.000000 0.001720 
#    y 0.000000 2.003520 0.000000 
#    z 0.001720 0.000000 1.998620 
# 
# From -- ./inp_files/2299.got.cif
#   From: 2010.03.12/outbox.cif.g09.slc.cpg/sg5_2_cif.got.tgz:2299.got - 2010.03.31 09:47:26.
