data_PCOD8050638
_publ_section_title
;
Structure prediction by ZEFSAII (Michael W. Deem and Ramdas Pophale) SiO2 
 PCOD8050638
Probable space group: C 2
;
_chemical_formula_sum "Si O2"
_cell_formula_units_Z 26
_cell_length_a 15.220521
_cell_length_b 12.490082
_cell_length_c 9.396998
_cell_angle_alpha 90.000000
_cell_angle_beta 138.161844
_cell_angle_gamma 90.000000
_cell_volume 1191.594553
_symmetry_space_group_name_H-M "C 2"
_symmetry_group_IT_number 5
_symmetry_cell_setting 'monoclinic'
loop_
_space_group_symop_operation_xyz
x,y,z
-x,y,-z
1/2+x,1/2+y,z
1/2-x,1/2+y,-z
loop_
_atom_site_type_symbol
_atom_site_label
_atom_site_fract_x
_atom_site_fract_y
_atom_site_fract_z
Si Si1 0.500000 0.726080 0.500000
Si Si2 0.366303 0.702345 0.787641
Si Si3 0.535232 0.873069 0.296027
Si Si4 0.158645 0.596556 0.362843
Si Si5 0.755419 0.843243 0.130534
Si Si6 0.755476 0.078461 0.168000
Si Si7 0.056639 0.678773 0.725758
O O1 0.576817 0.802500 0.481706
O O2 0.383492 0.652170 0.296818
O O3 0.412422 0.815137 0.779628
O O4 0.302952 0.618783 0.601393
O O5 0.266389 0.742274 0.788741
O O6 0.500000 0.642752 0.000000
O O7 0.598155 0.990179 0.363648
O O8 0.376783 0.872646 0.113421
O O9 0.167643 0.601687 0.203453
O O10 0.063231 0.689784 0.306306
O O11 0.874963 0.795861 0.181833
O O12 0.805130 0.956498 0.252290
O O13 0.662027 0.092043 0.916349
O O14 0.000000 0.647073 0.500000
#
# Coordination Sequence:
#
# PCOD8050638 Si02
#       7
#     2   4   4   4   4   4   4
#     4  12  26  42  70 106 144 174 236 300 336 404
#     4  10  22  41  70 100 139 183 233 288 346 411
#     4  11  23  42  70  99 137 188 229 285 350 408
#     4  12  24  44  77 101 138 189 238 279 350 419
#     4  11  23  44  68 100 138 185 229 281 351 417
#     4  12  26  46  71 104 137 188 235 283 352 416
#     4  12  26  43  68 106 139 176 234 294 340 408
#
# _framework density 21.819502
#
# number of rings (size 3 to 8) (size 9 to 14) (size 15 to 20)
#    0.000    0.615    7.692    0.462    2.154    0.000 
#    0.000    0.000    6.769    0.000    0.000    0.000 
#    0.000    0.000    0.000    0.000    0.000    0.000 
#
# Total GULP energy -161067.198284 kJ/mol
# GULP energy per Si atom -12389.784483 kJ/mol
# Density = 2.176984 g / cm^3
# Si number density = 21.819502 Si / 1000 Ang^3
#
#
#
# Elastic Constant Matrix: (Units=GPa)
#
#
# Indices 1 2 3 4 5 6 
#
# 1 102.6221 54.7210 35.4030 0.0000 5.5521 0.0000
# 2 54.7210 94.8915 54.9838 0.0000 2.4791 0.0000
# 3 35.4030 54.9838 130.2693 0.0000 2.0151 0.0000
# 4 0.0000 0.0000 0.0000 26.2120 0.0000 -1.7048
# 5 5.5521 2.4791 2.0151 0.0000 30.8478 0.0000
# 6 0.0000 0.0000 0.0000 -1.7048 0.0000 33.2899
#
#
#
# Elastic Compliance Matrix: (Units=1/GPa)
#
#
# Indices 1 2 3 4 5 6 
#
# 1 0.014208 -0.007841 -0.000522 0.000000 -0.001893 0.000000
# 2 -0.007841 0.018294 -0.005595 0.000000 0.000307 0.000000
# 3 -0.000522 -0.005595 0.010182 0.000000 -0.000121 0.000000
# 4 0.000000 0.000000 0.000000 0.038278 0.000000 0.001960
# 5 -0.001893 0.000307 -0.000121 0.000000 0.032741 0.000000
# 6 0.000000 0.000000 0.000000 0.001960 0.000000 0.030140
#
#
# Mechanical properties :
#
#
# Convention : Reuss Voigt Hill
#
# Bulk Modulus (GPa) = 67.72141 68.66651 68.19396
# Shear Modulus (GPa) = 28.29914 30.24828 29.27371
#
# Velocity S-wave (km/s) = 3.60525 3.72734 3.66680
# Velocity P-wave (km/s) = 6.95952 7.07550 7.01775
#
# Compressibility (1/GPa) = 0.01476638
#
# Stress axis : x y z
#
# Youngs Moduli (GPa) = 70.38110 54.66164 98.21309
#
# Poissons Ratio (x) = 0.42862 0.05131
# Poissons Ratio (y) = 0.55188 0.54954
# Poissons Ratio (z) = 0.03677 0.30585
#
# Static dielectric constant tensor:
#      x y z
#    x 4.077230 0.000000 0.089840 
#    y 0.000000 3.869440 0.000000 
#    z 0.089840 0.000000 4.037800 
# 
# 
# High freq. dielectric constant tensor:
#      x y z
#    x 1.860050 0.000000 0.010270 
#    y 0.000000 1.844450 0.000000 
#    z 0.010270 0.000000 1.859470 
# 
# From -- ./inp_files/24744.got.cif
#   From: 2010.03.12/outbox.cif.g09.slc.cpg/sg5_13_cif.got.tgz:24744.got - 2010.03.31 09:47:26.
