data_PCOD8050518
_publ_section_title
;
Structure prediction by ZEFSAII (Michael W. Deem and Ramdas Pophale) SiO2 
 PCOD8050518
Probable space group: C 2
;
_chemical_formula_sum "Si O2"
_cell_formula_units_Z 28
_cell_length_a 19.689046
_cell_length_b 8.610858
_cell_length_c 7.689786
_cell_angle_alpha 90.000000
_cell_angle_beta 81.259575
_cell_angle_gamma 90.000000
_cell_volume 1288.582841
_symmetry_space_group_name_H-M "C 2"
_symmetry_group_IT_number 5
_symmetry_cell_setting 'monoclinic'
loop_
_space_group_symop_operation_xyz
x,y,z
-x,y,-z
1/2+x,1/2+y,z
1/2-x,1/2+y,-z
loop_
_atom_site_type_symbol
_atom_site_label
_atom_site_fract_x
_atom_site_fract_y
_atom_site_fract_z
Si Si1 0.000000 0.032460 0.000000
Si Si2 0.344799 0.785965 0.920385
Si Si3 0.556989 0.791996 0.795493
Si Si4 0.777161 0.604499 0.902700
Si Si5 0.616897 0.299031 0.963740
Si Si6 0.000000 0.552768 0.000000
Si Si7 0.711276 0.440561 0.628679
Si Si8 0.164078 0.229425 0.466293
O O1 0.015462 0.129879 0.816367
O O2 0.066034 0.935676 0.038894
O O3 0.366994 0.766397 0.710788
O O4 0.307483 0.948835 0.974987
O O5 0.407363 0.778824 0.027580
O O6 0.293043 0.643053 0.970310
O O7 0.609207 0.805461 0.618121
O O8 0.505876 0.941065 0.825200
O O9 0.757187 0.569826 0.711736
O O10 0.829652 0.750134 0.904910
O O11 0.569542 0.148548 0.957497
O O12 0.657973 0.347959 0.773389
O O13 0.762684 0.313571 0.528518
O O14 0.671883 0.543486 0.498392
#
# Coordination Sequence:
#
# PCOD8050518 Si02
#       8
#     2   4   4   4   4   2   4   4
#     4  10  22  40  64  88 128 176 226 262 302 400
#     4  11  23  38  66  99 129 169 210 279 331 385
#     4  11  22  44  65  95 128 178 225 257 334 385
#     4  11  20  38  63 101 129 163 215 266 333 391
#     4  11  20  41  65  96 129 172 228 257 329 390
#     4  10  24  36  70  90 128 190 214 272 302 404
#     4  11  24  40  65 103 134 169 210 286 338 389
#     4  11  24  39  65 101 134 164 216 277 336 392
#
# _framework density 21.729299000000001
#
# number of rings (size 3 to 8) (size 9 to 14) (size 15 to 20)
#    0.000    1.143    7.143    0.000    4.000    0.000 
#    0.000    2.857    0.000    0.000    7.429    0.000 
#    0.000    0.000    0.000    0.000    0.000    0.000 
#
# Total GULP energy -173433.283424 kJ/mol
# GULP energy per Si atom -12388.091673 kJ/mol
# Density = 2.167984 g / cm^3
# Si number density = 21.729299 Si / 1000 Ang^3
#
#
#
# Elastic Constant Matrix: (Units=GPa)
#
#
# Indices 1 2 3 4 5 6 
#
# 1 61.9534 30.7062 39.9619 0.0000 -20.8331 0.0000
# 2 30.7062 116.0136 46.5745 0.0000 -19.3960 0.0000
# 3 39.9619 46.5745 112.0968 0.0000 -23.7249 0.0000
# 4 0.0000 0.0000 0.0000 37.0772 0.0000 -8.6726
# 5 -20.8331 -19.3960 -23.7249 0.0000 42.4650 0.0000
# 6 0.0000 0.0000 0.0000 -8.6726 0.0000 39.0764
#
#
#
# Elastic Compliance Matrix: (Units=1/GPa)
#
#
# Indices 1 2 3 4 5 6 
#
# 1 0.023616 -0.002744 -0.005775 0.000000 0.007106 0.000000
# 2 -0.002744 0.010931 -0.003166 0.000000 0.001878 0.000000
# 3 -0.005775 -0.003166 0.012917 0.000000 0.002937 0.000000
# 4 0.000000 0.000000 0.000000 0.028448 0.000000 0.006314
# 5 0.007106 0.001878 0.002937 0.000000 0.029534 0.000000
# 6 0.000000 0.000000 0.000000 0.006314 0.000000 0.026992
#
#
# Mechanical properties :
#
#
# Convention : Reuss Voigt Hill
#
# Bulk Modulus (GPa) = 41.50505 58.28323 49.89414
# Shear Modulus (GPa) = 30.51807 35.24515 32.88161
#
# Velocity S-wave (km/s) = 3.75169 4.03179 3.89426
# Velocity P-wave (km/s) = 6.15705 6.96810 6.57509
#
# Compressibility (1/GPa) = 0.02409346
#
# Stress axis : x y z
#
# Youngs Moduli (GPa) = 42.34475 91.48361 77.41983
#
# Poissons Ratio (x) = 0.25105 0.44708
# Poissons Ratio (y) = 0.11620 0.24511
# Poissons Ratio (z) = 0.24453 0.28963
#
# Static dielectric constant tensor:
#      x y z
#    x 4.178420 0.000000 -0.227800 
#    y 0.000000 4.417950 0.000000 
#    z -0.227800 0.000000 3.569360 
# 
# 
# High freq. dielectric constant tensor:
#      x y z
#    x 1.860640 0.000000 -0.028130 
#    y 0.000000 1.876130 0.000000 
#    z -0.028130 0.000000 1.818560 
# 
# From -- ./inp_files/28715.got.cif
#   From: 2010.03.12/outbox.cif.g09.slc.cpg/sg5_15_cif.got.tgz:28715.got - 2010.03.31 09:47:26.
