data_PCOD8050207
_publ_section_title
;
Structure prediction by ZEFSAII (Michael W. Deem and Ramdas Pophale) SiO2 
 PCOD8050207
Probable space group: C 2
;
_chemical_formula_sum "Si O2"
_cell_formula_units_Z 28
_cell_length_a 26.063747
_cell_length_b 11.101311
_cell_length_c 13.263426
_cell_angle_alpha 90.000000
_cell_angle_beta 156.458844
_cell_angle_gamma 90.000000
_cell_volume 1532.792158
_symmetry_space_group_name_H-M "C 2"
_symmetry_group_IT_number 5
_symmetry_cell_setting 'monoclinic'
loop_
_space_group_symop_operation_xyz
x,y,z
-x,y,-z
1/2+x,1/2+y,z
1/2-x,1/2+y,-z
loop_
_atom_site_type_symbol
_atom_site_label
_atom_site_fract_x
_atom_site_fract_y
_atom_site_fract_z
Si Si1 0.973557 0.141750 0.337514
Si Si2 0.193737 0.993830 0.641871
Si Si3 0.922389 0.535714 0.551998
Si Si4 0.956500 0.578345 0.033103
Si Si5 0.481480 0.283605 0.723299
Si Si6 0.293869 0.427220 0.962839
Si Si7 0.646861 0.886237 0.893849
O O1 0.000000 0.175193 0.500000
O O2 0.914973 0.260594 0.179492
O O3 0.102005 0.104143 0.508836
O O4 0.871840 0.034675 0.153749
O O5 0.114180 0.895661 0.433077
O O6 0.243387 0.927412 0.831233
O O7 0.306320 0.046553 0.775134
O O8 0.959719 0.499942 0.735449
O O9 0.917760 0.681791 0.535286
O O10 0.036553 0.487431 0.686510
O O11 0.787753 0.477896 0.278375
O O12 0.982398 0.720275 0.104540
O O13 0.000000 0.544853 0.000000
O O14 0.613832 0.323682 0.910809
O O15 0.204837 0.367853 0.887249
#
# Coordination Sequence:
#
# PCOD8050207 Si02
#       7
#     4   4   4   4   4   4   4
#     4  11  22  34  55  83 119 160 191 229 282 339
#     4  10  21  42  55  88 119 149 196 243 281 355
#     4   9  21  37  54  85 116 145 201 232 283 342
#     4   9  21  43  63  84 113 149 198 253 300 335
#     4   9  22  38  60  80 119 151 193 242 291 339
#     4  11  21  36  55  85 121 160 189 233 284 347
#     4  11  22  32  58  83 124 159 192 229 282 345
#
# _framework density 18.267316000000001
#
# number of rings (size 3 to 8) (size 9 to 14) (size 15 to 20)
#    0.857    1.143    1.429    2.143    6.000    0.000 
#    5.143    0.000    0.000    0.000    0.000    0.000 
#    0.000    0.000    0.000    0.000    0.000    0.000 
#
# Total GULP energy -173541.092965 kJ/mol
# GULP energy per Si atom -12395.792355 kJ/mol
# Density = 1.822574 g / cm^3
# Si number density = 18.267316 Si / 1000 Ang^3
#
#
#
# Elastic Constant Matrix: (Units=GPa)
#
#
# Indices 1 2 3 4 5 6 
#
# 1 102.9497 28.7626 47.5505 0.0000 11.4770 0.0000
# 2 28.7626 82.7066 35.5307 0.0000 12.3864 0.0000
# 3 47.5505 35.5307 93.1327 0.0000 8.8251 0.0000
# 4 0.0000 0.0000 0.0000 27.9206 0.0000 -4.4497
# 5 11.4770 12.3864 8.8251 0.0000 19.0667 0.0000
# 6 0.0000 0.0000 0.0000 -4.4497 0.0000 16.9548
#
#
#
# Elastic Compliance Matrix: (Units=1/GPa)
#
#
# Indices 1 2 3 4 5 6 
#
# 1 0.013296 -0.001474 -0.005813 0.000000 -0.004355 0.000000
# 2 -0.001474 0.015622 -0.004528 0.000000 -0.007165 0.000000
# 3 -0.005813 -0.004528 0.015503 0.000000 -0.000734 0.000000
# 4 0.000000 0.000000 0.000000 0.037379 0.000000 0.009810
# 5 -0.004355 -0.007165 -0.000734 0.000000 0.060064 0.000000
# 6 0.000000 0.000000 0.000000 0.009810 0.000000 0.061555
#
#
# Mechanical properties :
#
#
# Convention : Reuss Voigt Hill
#
# Bulk Modulus (GPa) = 48.10259 55.83074 51.96667
# Shear Modulus (GPa) = 21.36937 23.91810 22.64374
#
# Velocity S-wave (km/s) = 3.42397 3.62240 3.52458
# Velocity P-wave (km/s) = 6.48237 6.93724 6.71366
#
# Compressibility (1/GPa) = 0.02078890
#
# Stress axis : x y z
#
# Youngs Moduli (GPa) = 75.21094 64.01203 64.50518
#
# Poissons Ratio (x) = 0.09437 0.37499
# Poissons Ratio (y) = 0.11088 0.29209
# Poissons Ratio (z) = 0.43723 0.28986
#
# Static dielectric constant tensor:
#      x y z
#    x 2.912570 0.000000 0.055040 
#    y 0.000000 3.355010 0.000000 
#    z 0.055040 0.000000 3.507710 
# 
# 
# High freq. dielectric constant tensor:
#      x y z
#    x 1.666830 0.000000 0.008270 
#    y 0.000000 1.711980 0.000000 
#    z 0.008270 0.000000 1.721220 
# 
# From -- ./inp_files/46433.got.cif
#   From: 2010.03.12/outbox.cif.g09.slc.cpg/sg5_24_cif.got.tgz:46433.got - 2010.03.31 09:47:26.
