data_PCOD8050808
_publ_section_title
;
Structure prediction by ZEFSAII (Michael W. Deem and Ramdas Pophale) SiO2 
 PCOD8050808
Probable space group: C 2
;
_chemical_formula_sum "Si O2"
_cell_formula_units_Z 22
_cell_length_a 10.879050
_cell_length_b 18.088924
_cell_length_c 5.234683
_cell_angle_alpha 90.000000
_cell_angle_beta 111.884549
_cell_angle_gamma 90.000000
_cell_volume 955.900071
_symmetry_space_group_name_H-M "C 2"
_symmetry_group_IT_number 5
_symmetry_cell_setting 'monoclinic'
loop_
_space_group_symop_operation_xyz
x,y,z
-x,y,-z
1/2+x,1/2+y,z
1/2-x,1/2+y,-z
loop_
_atom_site_type_symbol
_atom_site_label
_atom_site_fract_x
_atom_site_fract_y
_atom_site_fract_z
Si Si1 0.000000 0.870600 0.000000
Si Si2 0.500000 0.874565 0.500000
Si Si3 0.283116 0.094372 0.791315
Si Si4 0.656335 0.183488 0.657035
Si Si5 0.500000 0.970795 0.000000
Si Si6 0.766319 0.830211 0.494470
Si Si7 0.862942 0.958623 0.271945
O O1 0.091212 0.818679 0.250095
O O2 0.880969 0.924669 0.005024
O O3 0.466993 0.923164 0.225352
O O4 0.630862 0.823367 0.554546
O O5 0.278569 0.135230 0.518113
O O6 0.148317 0.047791 0.733824
O O7 0.311780 0.150523 0.041119
O O8 0.379199 0.024795 0.855348
O O9 0.500000 0.184733 0.500000
O O10 0.725545 0.263764 0.705417
O O11 0.752835 0.909715 0.339966
O O12 0.000000 0.933986 0.500000
#
# Coordination Sequence:
#
# PCOD8050808 Si02
#       7
#     2   2   4   4   2   4   4
#     4  10  22  43  74 101 138 184 240 292 352 411
#     4  12  26  44  76 104 144 180 248 294 356 414
#     4  12  25  43  70 103 138 181 233 298 349 417
#     4  12  26  44  68 102 143 186 234 291 359 421
#     4  12  22  43  72 105 134 178 234 302 346 417
#     4  11  26  44  72 105 141 189 237 297 351 428
#     4  10  23  43  72 101 135 187 239 289 351 422
#
# _framework density 23.014959000000001
#
# number of rings (size 3 to 8) (size 9 to 14) (size 15 to 20)
#    0.000    0.727    3.636    3.818   10.182    0.000 
#    1.636    0.000    0.000    0.000    0.000    0.000 
#    0.000    0.000    0.000    0.000    0.000    0.000 
#
# Total GULP energy -136287.159889 kJ/mol
# GULP energy per Si atom -12389.741808 kJ/mol
# Density = 2.296258 g / cm^3
# Si number density = 23.014959 Si / 1000 Ang^3
#
#
#
# Elastic Constant Matrix: (Units=GPa)
#
#
# Indices 1 2 3 4 5 6 
#
# 1 113.3245 32.7195 10.2564 0.0000 -10.7187 0.0000
# 2 32.7195 115.8617 14.3378 0.0000 -3.4707 0.0000
# 3 10.2564 14.3378 57.2550 0.0000 -17.4743 0.0000
# 4 0.0000 0.0000 0.0000 37.3613 0.0000 -17.6604
# 5 -10.7187 -3.4707 -17.4743 0.0000 30.0142 0.0000
# 6 0.0000 0.0000 0.0000 -17.6604 0.0000 54.2431
#
#
#
# Elastic Compliance Matrix: (Units=1/GPa)
#
#
# Indices 1 2 3 4 5 6 
#
# 1 0.009910 -0.002687 -0.000142 0.000000 0.003146 0.000000
# 2 -0.002687 0.009638 -0.002292 0.000000 -0.001180 0.000000
# 3 -0.000142 -0.002292 0.021852 0.000000 0.012406 0.000000
# 4 0.000000 0.000000 0.000000 0.031634 0.000000 0.010299
# 5 0.003146 -0.001180 0.012406 0.000000 0.041527 0.000000
# 6 0.000000 0.000000 0.000000 0.010299 0.000000 0.021789
#
#
# Mechanical properties :
#
#
# Convention : Reuss Voigt Hill
#
# Bulk Modulus (GPa) = 32.09548 44.56319 38.32933
# Shear Modulus (GPa) = 31.85135 39.59889 35.72512
#
# Velocity S-wave (km/s) = 3.72417 4.15248 3.94414
# Velocity P-wave (km/s) = 5.69810 6.51118 6.11816
#
# Compressibility (1/GPa) = 0.03115704
#
# Stress axis : x y z
#
# Youngs Moduli (GPa) = 100.90418 103.75510 45.76311
#
# Poissons Ratio (x) = 0.27878 0.00652
# Poissons Ratio (y) = 0.27112 0.10490
# Poissons Ratio (z) = 0.01437 0.23783
#
# Static dielectric constant tensor:
#      x y z
#    x 4.520510 0.000000 -1.407100 
#    y 0.000000 4.104890 0.000000 
#    z -1.407100 0.000000 4.382120 
# 
# 
# High freq. dielectric constant tensor:
#      x y z
#    x 1.918630 0.000000 -0.008980 
#    y 0.000000 1.907780 0.000000 
#    z -0.008980 0.000000 1.906980 
# 
# From -- ./inp_files/4858.got.cif
#   From: 2010.03.12/outbox.cif.g09.slc.cpg/sg5_3_cif.got.tgz:4858.got - 2010.03.31 09:47:26.
