data_PCOD8050615
_publ_section_title
;
Structure prediction by ZEFSAII (Michael W. Deem and Ramdas Pophale) SiO2 
 PCOD8050615
Probable space group: C 2
;
_chemical_formula_sum "Si O2"
_cell_formula_units_Z 24
_cell_length_a 16.773269
_cell_length_b 10.884114
_cell_length_c 17.583336
_cell_angle_alpha 90.000000
_cell_angle_beta 17.762495
_cell_angle_gamma 90.000000
_cell_volume 979.296952
_symmetry_space_group_name_H-M "C 2"
_symmetry_group_IT_number 5
_symmetry_cell_setting 'monoclinic'
loop_
_space_group_symop_operation_xyz
x,y,z
-x,y,-z
1/2+x,1/2+y,z
1/2-x,1/2+y,-z
loop_
_atom_site_type_symbol
_atom_site_label
_atom_site_fract_x
_atom_site_fract_y
_atom_site_fract_z
Si Si1 0.000000 0.159300 0.500000
Si Si2 0.932881 0.757736 0.641422
Si Si3 0.791464 0.498138 0.125242
Si Si4 0.430956 0.197332 0.215454
Si Si5 0.870903 0.957112 0.962792
Si Si6 0.000000 0.063983 0.000000
Si Si7 0.687991 0.092483 0.522047
O O1 0.936635 0.078762 0.631342
O O2 0.756277 0.236393 0.686745
O O3 0.169508 0.694825 0.472094
O O4 0.000000 0.824044 0.500000
O O5 0.812932 0.863491 0.805492
O O6 0.749258 0.647966 0.783387
O O7 0.000000 0.469724 0.000000
O O8 0.913004 0.571522 0.944335
O O9 0.632474 0.309567 0.045453
O O10 0.270694 0.167220 0.437498
O O11 0.050023 0.014315 0.732198
O O12 0.021683 0.981058 0.905078
O O13 0.575580 0.009070 0.232487
#
# Coordination Sequence:
#
# PCOD8050615 Si02
#       7
#     2   4   4   4   4   2   4
#     4  10  24  42  70 102 142 182 250 292 366 442
#     4  11  20  41  70 102 144 188 248 302 356 448
#     4  10  22  41  67 107 133 192 239 307 362 431
#     4  11  28  46  72 107 148 193 253 303 385 442
#     4  11  27  48  73 106 148 197 244 315 362 454
#     4  10  22  42  68  98 140 186 256 282 376 422
#     4  11  28  46  73 107 147 199 243 305 380 435
#
# _framework density 24.507377999999999
#
# number of rings (size 3 to 8) (size 9 to 14) (size 15 to 20)
#    0.000    1.333    3.333    0.000   10.500    1.333 
#    3.000    0.000    0.000    0.000    0.000    0.000 
#    0.000    0.000    0.000    0.000    0.000    0.000 
#
# Total GULP energy -148719.406364 kJ/mol
# GULP energy per Si atom -12393.283864 kJ/mol
# Density = 2.445160 g / cm^3
# Si number density = 24.507378 Si / 1000 Ang^3
#
#
#
# Elastic Constant Matrix: (Units=GPa)
#
#
# Indices 1 2 3 4 5 6 
#
# 1 81.9446 19.2914 9.0962 0.3604 12.9384 -0.1296
# 2 19.2914 106.8839 15.3865 1.1072 5.5898 0.1795
# 3 9.0962 15.3865 91.2637 0.9337 7.6290 -0.0934
# 4 0.3604 1.1072 0.9337 9.9533 -0.2926 -6.3606
# 5 12.9384 5.5898 7.6290 -0.2926 41.1124 0.0025
# 6 -0.1296 0.1795 -0.0934 -6.3606 0.0025 5.5153
#
#
#
# Elastic Compliance Matrix: (Units=1/GPa)
#
#
# Indices 1 2 3 4 5 6 
#
# 1 0.013376 -0.002119 -0.000656 -0.000228 -0.003802 0.000111
# 2 -0.002119 0.010020 -0.001399 -0.004470 -0.000467 -0.005554
# 3 -0.000656 -0.001399 0.011432 -0.003045 -0.001746 -0.003288
# 4 -0.000228 -0.004470 -0.003045 0.385660 0.003962 0.444854
# 5 -0.003802 -0.000467 -0.001746 0.003962 0.025935 0.004454
# 6 0.000111 -0.005554 -0.003288 0.444854 0.004454 0.694472
#
#
# Mechanical properties :
#
#
# Convention : Reuss Voigt Hill
#
# Bulk Modulus (GPa) = 37.76264 40.84891 39.30578
# Shear Modulus (GPa) = 4.31753 27.07074 15.69413
#
# Velocity S-wave (km/s) = 1.32874 3.32715 2.53333
# Velocity P-wave (km/s) = 4.21855 5.60929 4.96288
#
# Compressibility (1/GPa) = 0.02648120
#
# Stress axis : x y z
#
# Youngs Moduli (GPa) = 74.75858 99.80194 87.47185
#
# Poissons Ratio (x) = 0.21147 0.05736
# Poissons Ratio (y) = 0.15841 0.12237
# Poissons Ratio (z) = 0.04902 0.13962
#
# Static dielectric constant tensor:
#      x y z
#    x 4.703630 -0.000090 0.365520 
#    y -0.000090 4.266920 0.000370 
#    z 0.365520 0.000370 4.508440 
# 
# 
# High freq. dielectric constant tensor:
#      x y z
#    x 1.980880 -0.000010 0.005340 
#    y -0.000010 1.967750 0.000040 
#    z 0.005340 0.000040 1.965480 
# 
# From -- ./inp_files/62352.got.cif
#   From: 2010.03.12/outbox.cif.g09.slc.cpg/sg5_32_cif.got.tgz:62352.got - 2010.03.31 09:47:26.
