data_PCOD8050543
_publ_section_title
;
Structure prediction by ZEFSAII (Michael W. Deem and Ramdas Pophale) SiO2 
 PCOD8050543
Probable space group: C 2
;
_chemical_formula_sum "Si O2"
_cell_formula_units_Z 28
_cell_length_a 25.285658
_cell_length_b 8.680647
_cell_length_c 9.479375
_cell_angle_alpha 90.000000
_cell_angle_beta 140.594604
_cell_angle_gamma 90.000000
_cell_volume 1320.824831
_symmetry_space_group_name_H-M "C 2"
_symmetry_group_IT_number 5
_symmetry_cell_setting 'monoclinic'
loop_
_space_group_symop_operation_xyz
x,y,z
-x,y,-z
1/2+x,1/2+y,z
1/2-x,1/2+y,-z
loop_
_atom_site_type_symbol
_atom_site_label
_atom_site_fract_x
_atom_site_fract_y
_atom_site_fract_z
Si Si1 0.678019 0.971750 0.706055
Si Si2 0.133381 0.229104 0.109013
Si Si3 0.593747 0.410017 0.174365
Si Si4 0.523567 0.799107 0.386022
Si Si5 0.347953 0.547479 0.429491
Si Si6 0.242805 0.301765 0.596300
Si Si7 0.246615 0.784604 0.901258
O O1 0.580919 0.947268 0.469279
O O2 0.730042 0.955238 0.666769
O O3 0.688879 0.134287 0.808104
O O4 0.698698 0.822392 0.848622
O O5 0.178398 0.315094 0.332215
O O6 0.198033 0.228635 0.114641
O O7 0.100012 0.063525 0.092205
O O8 0.052509 0.316325 0.880701
O O9 0.622519 0.430841 0.391896
O O10 0.660067 0.287949 0.247217
O O11 0.500000 0.345700 0.000000
O O12 0.500000 0.803458 0.500000
O O13 0.572605 0.639589 0.462613
O O14 0.276195 0.653436 0.348906
O O15 0.308099 0.439218 0.227905
#
# Coordination Sequence:
#
# PCOD8050543 Si02
#       7
#     4   4   4   4   4   4   4
#     4  11  24  40  69  97 133 167 227 266 333 389
#     4  11  22  39  70  90 138 174 223 260 331 392
#     4  11  20  38  66  99 130 168 221 277 323 387
#     4  11  22  42  66  97 132 182 219 274 324 392
#     4  10  23  39  66  96 133 172 227 266 325 392
#     4  10  22  40  66  98 126 178 217 270 322 397
#     4  12  23  44  67  97 127 180 217 277 324 400
#
# _framework density 21.198874
#
# number of rings (size 3 to 8) (size 9 to 14) (size 15 to 20)
#    0.000    1.143    5.714    1.714    0.000    0.000 
#    0.000    2.143    0.000    0.000    0.000    0.000 
#    0.000    0.000    0.000    0.000    0.000    0.000 
#
# Total GULP energy -173488.527947 kJ/mol
# GULP energy per Si atom -12392.037711 kJ/mol
# Density = 2.115062 g / cm^3
# Si number density = 21.198874 Si / 1000 Ang^3
#
#
#
# Elastic Constant Matrix: (Units=GPa)
#
#
# Indices 1 2 3 4 5 6 
#
# 1 107.4152 20.3136 28.5146 0.0000 9.8713 0.0000
# 2 20.3136 61.8858 50.3805 0.0000 17.2303 0.0000
# 3 28.5146 50.3805 99.0275 0.0000 0.8546 0.0000
# 4 0.0000 0.0000 0.0000 28.8695 0.0000 -0.6756
# 5 9.8713 17.2303 0.8546 0.0000 39.8239 0.0000
# 6 0.0000 0.0000 0.0000 -0.6756 0.0000 26.0052
#
#
#
# Elastic Compliance Matrix: (Units=1/GPa)
#
#
# Indices 1 2 3 4 5 6 
#
# 1 0.010333 -0.000619 -0.002641 0.000000 -0.002237 0.000000
# 2 -0.000619 0.034319 -0.017158 0.000000 -0.014327 0.000000
# 3 -0.002641 -0.017158 0.019522 0.000000 0.007660 0.000000
# 4 0.000000 0.000000 0.000000 0.034660 0.000000 0.000900
# 5 -0.002237 -0.014327 0.007660 0.000000 0.031699 0.000000
# 6 0.000000 0.000000 0.000000 0.000900 0.000000 0.038477
#
#
# Mechanical properties :
#
#
# Convention : Reuss Voigt Hill
#
# Bulk Modulus (GPa) = 42.84868 51.86067 47.35468
# Shear Modulus (GPa) = 22.97512 30.21436 26.59474
#
# Velocity S-wave (km/s) = 3.29567 3.77939 3.54578
# Velocity P-wave (km/s) = 5.89394 6.60015 6.25702
#
# Compressibility (1/GPa) = 0.02333794
#
# Stress axis : x y z
#
# Youngs Moduli (GPa) = 96.77316 29.13833 51.22445
#
# Poissons Ratio (x) = 0.01803 0.13530
# Poissons Ratio (y) = 0.05988 0.87891
# Poissons Ratio (z) = 0.25562 0.49996
#
# Static dielectric constant tensor:
#      x y z
#    x 4.002070 0.000000 0.050020 
#    y 0.000000 3.511450 0.000000 
#    z 0.050020 0.000000 4.300110 
# 
# 
# High freq. dielectric constant tensor:
#      x y z
#    x 1.835730 0.000000 -0.006510 
#    y 0.000000 1.803420 0.000000 
#    z -0.006510 0.000000 1.846030 
# 
# From -- ./inp_files/31728.got.cif
#   From: 2010.03.12/outbox.cif.g09.slc.cpg/sg5_16_cif.got.tgz:31728.got - 2010.03.31 09:47:26.
