data_PCOD8050577
_publ_section_title
;
Structure prediction by ZEFSAII (Michael W. Deem and Ramdas Pophale) SiO2 
 PCOD8050577
Probable space group: C 2
;
_chemical_formula_sum "Si O2"
_cell_formula_units_Z 24
_cell_length_a 16.990824
_cell_length_b 6.617326
_cell_length_c 10.272565
_cell_angle_alpha 90.000000
_cell_angle_beta 117.026136
_cell_angle_gamma 90.000000
_cell_volume 1028.858752
_symmetry_space_group_name_H-M "C 2"
_symmetry_group_IT_number 5
_symmetry_cell_setting 'monoclinic'
loop_
_space_group_symop_operation_xyz
x,y,z
-x,y,-z
1/2+x,1/2+y,z
1/2-x,1/2+y,-z
loop_
_atom_site_type_symbol
_atom_site_label
_atom_site_fract_x
_atom_site_fract_y
_atom_site_fract_z
Si Si1 0.966094 0.629210 0.689749
Si Si2 0.000000 0.331145 0.500000
Si Si3 0.371130 0.293202 0.038839
Si Si4 0.000000 0.067199 0.000000
Si Si5 0.133525 0.019541 0.494237
Si Si6 0.374379 0.780342 0.746728
Si Si7 0.250631 0.458280 0.174633
O O1 0.018585 0.478550 0.634245
O O2 0.926285 0.824470 0.585672
O O3 0.885936 0.507406 0.697901
O O4 0.039640 0.683202 0.850407
O O5 0.917646 0.188207 0.462395
O O6 0.325640 0.394424 0.130398
O O7 0.408888 0.448109 0.961374
O O8 0.297315 0.157993 0.913746
O O9 0.973358 0.198533 0.853440
O O10 0.213212 0.969390 0.649785
O O11 0.170119 0.125976 0.390138
O O12 0.323035 0.788080 0.848019
#
# Coordination Sequence:
#
# PCOD8050577 Si02
#       7
#     4   2   4   2   4   4   4
#     4  11  23  47  73 104 139 202 247 292 367 456
#     4  10  22  40  76 102 140 186 252 294 356 452
#     4  12  26  46  75 105 153 194 248 307 380 438
#     4  12  24  50  76 102 144 204 258 298 370 464
#     4  11  25  45  73 107 149 196 247 311 372 445
#     4  11  26  45  75 104 145 195 253 305 373 446
#     4  12  28  44  71 113 153 187 247 316 381 431
#
# _framework density 23.326816999999998
#
# number of rings (size 3 to 8) (size 9 to 14) (size 15 to 20)
#    0.000    0.667    1.667    5.500    7.000    0.000 
#    3.000    0.000    0.000    0.000    0.000    0.000 
#    0.000    0.000    0.000    0.000    0.000    0.000 
#
# Total GULP energy -148706.922936 kJ/mol
# GULP energy per Si atom -12392.243578 kJ/mol
# Density = 2.327372 g / cm^3
# Si number density = 23.326817 Si / 1000 Ang^3
#
#
#
# Elastic Constant Matrix: (Units=GPa)
#
#
# Indices 1 2 3 4 5 6 
#
# 1 104.7451 38.1476 20.1513 0.0000 -25.8586 0.0000
# 2 38.1476 121.2240 43.2869 0.0000 -3.1895 0.0000
# 3 20.1513 43.2869 123.5846 0.0000 7.8868 0.0000
# 4 0.0000 0.0000 0.0000 38.9237 0.0000 0.1189
# 5 -25.8586 -3.1895 7.8868 0.0000 42.8086 0.0000
# 6 0.0000 0.0000 0.0000 0.1189 0.0000 24.9709
#
#
#
# Elastic Compliance Matrix: (Units=1/GPa)
#
#
# Indices 1 2 3 4 5 6 
#
# 1 0.012991 -0.003367 -0.001441 0.000000 0.007862 0.000000
# 2 -0.003367 0.010376 -0.003041 0.000000 -0.000700 0.000000
# 3 -0.001441 -0.003041 0.009574 0.000000 -0.002861 0.000000
# 4 0.000000 0.000000 0.000000 0.025692 0.000000 -0.000122
# 5 0.007862 -0.000700 -0.002861 0.000000 0.028584 0.000000
# 6 0.000000 0.000000 0.000000 -0.000122 0.000000 0.040047
#
#
# Mechanical properties :
#
#
# Convention : Reuss Voigt Hill
#
# Bulk Modulus (GPa) = 57.98810 61.41393 59.70101
# Shear Modulus (GPa) = 33.62277 37.87183 35.74730
#
# Velocity S-wave (km/s) = 3.80067 4.03368 3.91891
# Velocity P-wave (km/s) = 6.64628 6.93389 6.79161
#
# Compressibility (1/GPa) = 0.01724492
#
# Stress axis : x y z
#
# Youngs Moduli (GPa) = 76.97482 96.37610 104.44821
#
# Poissons Ratio (x) = 0.32448 0.15048
# Poissons Ratio (y) = 0.25916 0.31759
# Poissons Ratio (z) = 0.11090 0.29304
#
# Static dielectric constant tensor:
#      x y z
#    x 4.225260 0.000000 -0.165460 
#    y 0.000000 4.492220 0.000000 
#    z -0.165460 0.000000 4.231250 
# 
# 
# High freq. dielectric constant tensor:
#      x y z
#    x 1.924950 0.000000 -0.008930 
#    y 0.000000 1.934030 0.000000 
#    z -0.008930 0.000000 1.933740 
# 
# From -- ./inp_files/43819.got.cif
#   From: 2010.03.12/outbox.cif.g09.slc.cpg/sg5_22_cif.got.tgz:43819.got - 2010.03.31 09:47:26.
