data_PCOD8050654
_publ_section_title
;
Structure prediction by ZEFSAII (Michael W. Deem and Ramdas Pophale) SiO2 
 PCOD8050654
Probable space group: C 2
;
_chemical_formula_sum "Si O2"
_cell_formula_units_Z 28
_cell_length_a 10.419189
_cell_length_b 8.914284
_cell_length_c 21.701105
_cell_angle_alpha 90.000000
_cell_angle_beta 136.266287
_cell_angle_gamma 90.000000
_cell_volume 1393.392975
_symmetry_space_group_name_H-M "C 2"
_symmetry_group_IT_number 5
_symmetry_cell_setting 'monoclinic'
loop_
_space_group_symop_operation_xyz
x,y,z
-x,y,-z
1/2+x,1/2+y,z
1/2-x,1/2+y,-z
loop_
_atom_site_type_symbol
_atom_site_label
_atom_site_fract_x
_atom_site_fract_y
_atom_site_fract_z
Si Si1 0.711699 0.251120 0.879141
Si Si2 0.545121 0.820423 0.698307
Si Si3 0.925146 0.751529 0.879528
Si Si4 0.836228 0.672645 0.395612
Si Si5 0.162162 0.323149 0.603191
Si Si6 0.500000 0.501903 0.000000
Si Si7 0.500000 0.001787 0.000000
Si Si8 0.541333 0.175336 0.697512
O O1 0.508940 0.253690 0.839883
O O2 0.817399 0.400270 0.936639
O O3 0.685778 0.247217 0.796366
O O4 0.818372 0.104923 0.940338
O O5 0.701665 0.751097 0.797754
O O6 0.345455 0.762118 0.648408
O O7 0.591038 0.769548 0.644990
O O8 0.547318 0.997840 0.705737
O O9 0.999298 0.604188 0.939264
O O10 0.998390 0.899657 0.938955
O O11 0.785302 0.497984 0.378254
O O12 0.898939 0.727528 0.349790
O O13 0.000000 0.710699 0.500000
O O14 0.335637 0.228880 0.640484
O O15 0.000000 0.286809 0.500000
#
# Coordination Sequence:
#
# PCOD8050654 Si02
#       8
#     4   4   4   4   4   2   2   4
#     4  11  22  42  62  90 123 160 209 252 306 364
#     4  11  23  39  64  93 127 162 205 257 306 369
#     4  11  22  41  61  91 123 160 207 251 311 362
#     4  10  24  43  63  93 128 164 205 253 310 368
#     4  10  22  42  65  90 123 162 204 257 311 367
#     4  10  22  42  60  86 126 160 194 264 306 366
#     4  10  26  38  62  92 118 166 206 250 312 366
#     4  11  23  39  64  94 124 163 206 255 307 366
#
# _framework density 20.094833000000001
#
# number of rings (size 3 to 8) (size 9 to 14) (size 15 to 20)
#    0.000    1.429    2.857    1.714    2.000    2.857 
#   10.286    0.000    0.000    0.000    0.000    0.000 
#    0.000    0.000    0.000    0.000    0.000    0.000 
#
# Total GULP energy -173659.903200 kJ/mol
# GULP energy per Si atom -12404.278800 kJ/mol
# Density = 2.004910 g / cm^3
# Si number density = 20.094833 Si / 1000 Ang^3
#
#
#
# Elastic Constant Matrix: (Units=GPa)
#
#
# Indices 1 2 3 4 5 6 
#
# 1 150.5876 48.4609 67.2137 0.0000 -2.8723 0.0000
# 2 48.4609 90.3245 52.2115 0.0000 -0.4384 0.0000
# 3 67.2137 52.2115 143.0118 0.0000 -7.4753 0.0000
# 4 0.0000 0.0000 0.0000 -0.0100 0.0000 0.5849
# 5 -2.8723 -0.4384 -7.4753 0.0000 38.1910 0.0000
# 6 0.0000 0.0000 0.0000 0.5849 0.0000 25.8452
#
#
#
# Elastic Compliance Matrix: (Units=1/GPa)
#
#
# Indices 1 2 3 4 5 6 
#
# 1 0.009012 -0.003026 -0.003129 0.000000 0.000031 0.000000
# 2 -0.003026 0.015076 -0.004127 0.000000 -0.000862 0.000000
# 3 -0.003129 -0.004127 0.010058 0.000000 0.001686 0.000000
# 4 0.000000 0.000000 0.000000-42.990741 0.000000 0.972858
# 5 0.000031 -0.000862 0.001686 0.000000 0.026507 0.000000
# 6 0.000000 0.000000 0.000000 0.972858 0.000000 0.016677
#
#
# Mechanical properties :
#
#
# Convention : Reuss Voigt Hill
#
# Bulk Modulus (GPa) = 73.62906 79.96624 76.79765
# Shear Modulus (GPa) = -0.11658 27.20774 13.54558
#
# Velocity S-wave (km/s) = -0.24113 3.68362 2.59913
# Velocity P-wave (km/s) = 6.05333 7.61399 6.87807
#
# Compressibility (1/GPa) = 0.01358159
#
# Stress axis : x y z
#
# Youngs Moduli (GPa) = 110.96715 66.33011 99.42515
#
# Poissons Ratio (x) = 0.20072 0.31110
# Poissons Ratio (y) = 0.33580 0.41032
# Poissons Ratio (z) = 0.34721 0.27374
#
# Static dielectric constant tensor:
#      x y z
#    x 3.575160 0.000000 -0.148720 
#    y 0.000000 3.685820 0.000000 
#    z -0.148720 0.000000 3.877840 
# 
# 
# High freq. dielectric constant tensor:
#      x y z
#    x 1.785370 0.000000 -0.002230 
#    y 0.000000 1.784710 0.000000 
#    z -0.002230 0.000000 1.803510 
# 
# From -- ./inp_files/52141.got.cif
#   From: 2010.03.12/outbox.cif.g09.slc.cpg/sg5_27_cif.got.tgz:52141.got - 2010.03.31 09:47:26.
