data_PCOD8050992
_publ_section_title
;
Structure prediction by ZEFSAII (Michael W. Deem and Ramdas Pophale) SiO2 
 PCOD8050992
Probable space group: C 2
;
_chemical_formula_sum "Si O2"
_cell_formula_units_Z 32
_cell_length_a 10.879156
_cell_length_b 8.526190
_cell_length_c 27.969007
_cell_angle_alpha 90.000000
_cell_angle_beta 34.428855
_cell_angle_gamma 90.000000
_cell_volume 1466.795598
_symmetry_space_group_name_H-M "C 2"
_symmetry_group_IT_number 5
_symmetry_cell_setting 'monoclinic'
loop_
_space_group_symop_operation_xyz
x,y,z
-x,y,-z
1/2+x,1/2+y,z
1/2-x,1/2+y,-z
loop_
_atom_site_type_symbol
_atom_site_label
_atom_site_fract_x
_atom_site_fract_y
_atom_site_fract_z
Si Si1 0.615977 0.245710 0.779960
Si Si2 0.366103 0.606392 0.243631
Si Si3 0.228838 0.654474 0.949263
Si Si4 0.606232 0.205746 0.601157
Si Si5 0.692530 0.547220 0.549259
Si Si6 0.697905 0.786252 0.969851
Si Si7 0.283255 0.052705 0.340308
Si Si8 0.438161 0.712507 0.319320
O O1 0.669656 0.429521 0.761119
O O2 0.407165 0.209729 0.878510
O O3 0.579355 0.161139 0.740518
O O4 0.818397 0.174333 0.742761
O O5 0.574471 0.685272 0.151088
O O6 0.402587 0.590673 0.288326
O O7 0.150508 0.711962 0.302727
O O8 0.200507 0.472553 0.968765
O O9 0.304845 0.736166 0.973941
O O10 0.000000 0.719862 0.000000
O O11 0.728710 0.370299 0.554864
O O12 0.737414 0.130150 0.601832
O O13 0.626587 0.098544 0.547082
O O14 0.458517 0.542328 0.600584
O O15 0.714466 0.669364 0.586464
O O16 0.500000 0.724986 0.000000
O O17 0.395325 0.883995 0.311155
#
# Coordination Sequence:
#
# PCOD8050992 Si02
#       8
#     4   4   4   4   4   4   4   4
#     4  10  23  40  65  94 128 169 213 265 324 388
#     4  11  23  41  67  94 128 172 215 262 324 386
#     4  10  23  44  65  96 135 171 216 272 325 390
#     4  12  24  43  66  93 128 169 214 267 323 388
#     4  11  26  43  63  92 129 168 214 268 327 380
#     4  10  23  40  64  98 131 170 215 270 328 392
#     4  11  23  42  65  91 127 166 214 266 318 384
#     4  11  22  43  64  93 126 167 217 266 319 386
#
# _framework density 21.816264
#
# number of rings (size 3 to 8) (size 9 to 14) (size 15 to 20)
#    0.000    1.250    2.500    2.625    3.500    2.000 
#    4.500    0.000    0.000    0.000    0.000    0.000 
#    0.000    0.000    0.000    0.000    0.000    0.000 
#
# Total GULP energy -198368.380084 kJ/mol
# GULP energy per Si atom -12398.023755 kJ/mol
# Density = 2.176661 g / cm^3
# Si number density = 21.816264 Si / 1000 Ang^3
#
#
#
# Elastic Constant Matrix: (Units=GPa)
#
#
# Indices 1 2 3 4 5 6 
#
# 1 114.6331 5.9354 23.2852 -0.0005 16.9051 0.0002
# 2 5.9354 56.9099 16.9274 -0.0002 2.7669 -0.0001
# 3 23.2852 16.9274 98.0218 -0.0035 6.8218 0.0032
# 4 -0.0005 -0.0002 -0.0035 27.4613 -0.0009 9.0291
# 5 16.9051 2.7669 6.8218 -0.0009 30.5576 0.0004
# 6 0.0002 -0.0001 0.0032 9.0291 0.0004 38.9564
#
#
#
# Elastic Compliance Matrix: (Units=1/GPa)
#
#
# Indices 1 2 3 4 5 6 
#
# 1 0.009870 -0.000203 -0.001961 0.000000 -0.005004 0.000000
# 2 -0.000203 0.018556 -0.003095 0.000000 -0.000877 0.000000
# 3 -0.001961 -0.003095 0.011283 0.000002 -0.001153 -0.000001
# 4 0.000000 0.000000 0.000002 0.039419 0.000001 -0.009136
# 5 -0.005004 -0.000877 -0.001153 0.000001 0.035830 0.000000
# 6 0.000000 0.000000 -0.000001 -0.009136 0.000000 0.027787
#
#
# Mechanical properties :
#
#
# Convention : Reuss Voigt Hill
#
# Bulk Modulus (GPa) = 34.25809 40.20673 37.23241
# Shear Modulus (GPa) = 30.67586 34.28949 32.48267
#
# Velocity S-wave (km/s) = 3.75387 3.96882 3.86284
# Velocity P-wave (km/s) = 5.87587 6.28265 6.08266
#
# Compressibility (1/GPa) = 0.02919019
#
# Stress axis : x y z
#
# Youngs Moduli (GPa) = 101.31307 53.89069 88.63245
#
# Poissons Ratio (x) = 0.01092 0.17385
# Poissons Ratio (y) = 0.02054 0.27434
# Poissons Ratio (z) = 0.19872 0.16681
#
# Static dielectric constant tensor:
#      x y z
#    x 4.166110 0.000000 0.081030 
#    y 0.000000 3.868220 0.000000 
#    z 0.081030 0.000000 4.079550 
# 
# 
# High freq. dielectric constant tensor:
#      x y z
#    x 1.876080 0.000000 0.004620 
#    y 0.000000 1.848540 0.000000 
#    z 0.004620 0.000000 1.860390 
# 
# From -- ./inp_files/65147.got.cif
#   From: 2010.03.12/outbox.cif.g09.slc.cpg/sg5_33_cif.got.tgz:65147.got - 2010.03.31 09:47:26.
