data_PCOD8050389
_publ_section_title
;
Structure prediction by ZEFSAII (Michael W. Deem and Ramdas Pophale) SiO2 
 PCOD8050389
Probable space group: C 2
;
_chemical_formula_sum "Si O2"
_cell_formula_units_Z 30
_cell_length_a 13.281210
_cell_length_b 8.582392
_cell_length_c 27.526019
_cell_angle_alpha 90.000000
_cell_angle_beta 150.230952
_cell_angle_gamma 90.000000
_cell_volume 1557.805088
_symmetry_space_group_name_H-M "C 2"
_symmetry_group_IT_number 5
_symmetry_cell_setting 'monoclinic'
loop_
_space_group_symop_operation_xyz
x,y,z
-x,y,-z
1/2+x,1/2+y,z
1/2-x,1/2+y,-z
loop_
_atom_site_type_symbol
_atom_site_label
_atom_site_fract_x
_atom_site_fract_y
_atom_site_fract_z
Si Si1 0.969494 0.437990 0.343554
Si Si2 0.000000 0.724810 0.000000
Si Si3 0.757999 0.447325 0.934404
Si Si4 0.834583 0.298207 0.868777
Si Si5 0.919376 0.304904 0.516289
Si Si6 0.967057 0.805739 0.340697
Si Si7 0.585267 0.445293 0.126162
Si Si8 0.922272 0.936435 0.518139
O O1 0.927909 0.377782 0.380335
O O2 0.961506 0.621917 0.338480
O O3 0.192341 0.371911 0.424262
O O4 0.796637 0.375450 0.235052
O O5 0.197230 0.617047 0.071008
O O6 0.021903 0.830961 0.056746
O O7 0.724795 0.326539 0.875301
O O8 0.572696 0.450826 0.894693
O O9 0.957418 0.394863 0.047627
O O10 0.692726 0.365337 0.766219
O O11 0.883795 0.116163 0.883310
O O12 0.691226 0.370183 0.423465
O O13 0.000000 0.368857 0.500000
O O14 0.925996 0.120669 0.523407
O O15 0.923220 0.870070 0.376338
O O16 0.000000 0.872552 0.500000
#
# Coordination Sequence:
#
# PCOD8050389 Si02
#       8
#     4   2   4   4   4   4   4   4
#     4   9  20  35  51  81 107 138 180 222 269 328
#     4  10  22  38  58  86 112 148 192 234 272 342
#     4  10  22  39  59  82 117 148 188 231 287 330
#     4   9  20  38  58  83 111 151 186 230 280 339
#     4   9  18  31  53  78 106 138 178 218 266 322
#     4   9  18  34  55  74 109 140 178 222 266 327
#     4  11  21  39  60  83 118 146 188 235 281 330
#     4   9  18  36  53  77 109 142 175 223 272 323
#
# _framework density 19.257864999999999
#
# number of rings (size 3 to 8) (size 9 to 14) (size 15 to 20)
#    0.000    2.667    0.000    1.600    1.867    2.667 
#    7.200    0.000    0.000    0.000    0.000    0.000 
#    0.000    0.000    0.000    0.000    0.000    0.000 
#
# Total GULP energy -185883.294281 kJ/mol
# GULP energy per Si atom -12392.219619 kJ/mol
# Density = 1.921403 g / cm^3
# Si number density = 19.257865 Si / 1000 Ang^3
#
#
#
# Elastic Constant Matrix: (Units=GPa)
#
#
# Indices 1 2 3 4 5 6 
#
# 1 134.6392 39.7849 63.8017 0.0000 -26.1896 0.0000
# 2 39.7849 42.5916 34.2011 0.0000 -6.4924 0.0000
# 3 63.8017 34.2011 141.1204 0.0000 -23.5570 0.0001
# 4 0.0000 0.0000 0.0000 28.9417 0.0000 -9.5908
# 5 -26.1896 -6.4924 -23.5570 0.0000 27.1683 0.0000
# 6 0.0000 0.0000 0.0001 -9.5908 0.0000 26.7785
#
#
#
# Elastic Compliance Matrix: (Units=1/GPa)
#
#
# Indices 1 2 3 4 5 6 
#
# 1 0.012678 -0.008802 -0.002233 0.000000 0.008182 0.000000
# 2 -0.008802 0.035286 -0.005356 0.000000 -0.004697 0.000000
# 3 -0.002233 -0.005356 0.010314 0.000000 0.005510 0.000000
# 4 0.000000 0.000000 0.000000 0.039205 0.000000 0.014042
# 5 0.008182 -0.004697 0.005510 0.000000 0.048350 0.000000
# 6 0.000000 0.000000 0.000000 0.014042 0.000000 0.042372
#
#
# Mechanical properties :
#
#
# Convention : Reuss Voigt Hill
#
# Bulk Modulus (GPa) = 39.22348 65.99185 52.60766
# Shear Modulus (GPa) = 21.78785 28.61527 25.20156
#
# Velocity S-wave (km/s) = 3.36724 3.85892 3.62143
# Velocity P-wave (km/s) = 5.96066 7.36185 6.69800
#
# Compressibility (1/GPa) = 0.02549493
#
# Stress axis : x y z
#
# Youngs Moduli (GPa) = 78.87846 28.33978 96.96027
#
# Poissons Ratio (x) = 0.24945 0.21648
# Poissons Ratio (y) = 0.69431 0.51934
# Poissons Ratio (z) = 0.17611 0.15179
#
# Static dielectric constant tensor:
#      x y z
#    x 3.680440 0.000000 -0.077440 
#    y 0.000000 3.375540 0.000000 
#    z -0.077440 0.000000 3.806690 
# 
# 
# High freq. dielectric constant tensor:
#      x y z
#    x 1.748440 0.000000 -0.014520 
#    y 0.000000 1.740220 0.000000 
#    z -0.014520 0.000000 1.754730 
# 
# From -- ./inp_files/65827.got.cif
#   From: 2010.03.12/outbox.cif.g09.slc.cpg/sg5_33_cif.got.tgz:65827.got - 2010.03.31 09:47:26.
