data_PCOD8050252
_publ_section_title
;
Structure prediction by ZEFSAII (Michael W. Deem and Ramdas Pophale) SiO2 
 PCOD8050252
Probable space group: C 2
;
_chemical_formula_sum "Si O2"
_cell_formula_units_Z 24
_cell_length_a 23.019191
_cell_length_b 11.221393
_cell_length_c 8.778324
_cell_angle_alpha 90.000000
_cell_angle_beta 28.229934
_cell_angle_gamma 90.000000
_cell_volume 1072.555562
_symmetry_space_group_name_H-M "C 2"
_symmetry_group_IT_number 5
_symmetry_cell_setting 'monoclinic'
loop_
_space_group_symop_operation_xyz
x,y,z
-x,y,-z
1/2+x,1/2+y,z
1/2-x,1/2+y,-z
loop_
_atom_site_type_symbol
_atom_site_label
_atom_site_fract_x
_atom_site_fract_y
_atom_site_fract_z
Si Si1 0.290094 0.004900 0.144882
Si Si2 0.431901 0.690240 0.872640
Si Si3 0.175478 0.785737 0.932995
Si Si4 0.486350 0.439876 0.213557
Si Si5 0.130859 0.373000 0.749569
Si Si6 0.338461 0.808951 0.818504
O O1 0.313404 0.144073 0.089707
O O2 0.316743 0.968466 0.255162
O O3 0.153442 0.961900 0.420148
O O4 0.371086 0.934135 0.830354
O O5 0.442081 0.551982 0.882683
O O6 0.332475 0.708462 0.966525
O O7 0.555930 0.763877 0.541980
O O8 0.383321 0.743417 0.142230
O O9 0.275547 0.855910 0.603137
O O10 0.208512 0.821808 0.030876
O O11 0.041835 0.826403 0.179172
O O12 0.500000 0.422775 0.000000
O O13 0.000000 0.424045 0.000000
#
# Coordination Sequence:
#
# PCOD8050252 Si02
#       6
#     4   4   4   4   4   4
#     4  11  25  45  64 104 153 178 239 301 356 437
#     4  10  21  42  72  95 133 190 237 288 356 433
#     4  12  25  42  73 105 140 187 241 295 360 430
#     4  12  24  44  75 108 140 185 245 300 361 427
#     4  11  21  42  70  98 135 188 235 297 359 420
#     4  10  23  40  66 100 137 189 236 284 364 423
#
# _framework density 22.376465
#
# number of rings (size 3 to 8) (size 9 to 14) (size 15 to 20)
#    0.000    1.000    5.000    1.500    2.333    1.333 
#    0.000    6.667    0.000    0.000    0.000    0.000 
#    0.000    0.000    0.000    0.000    0.000    0.000 
#
# Total GULP energy -148687.874014 kJ/mol
# GULP energy per Si atom -12390.656168 kJ/mol
# Density = 2.232553 g / cm^3
# Si number density = 22.376465 Si / 1000 Ang^3
#
#
#
# Elastic Constant Matrix: (Units=GPa)
#
#
# Indices 1 2 3 4 5 6 
#
# 1 181.0928 76.8917 15.3758 0.0000 -14.0061 0.0000
# 2 76.8917 114.7915 33.9029 0.0000 -11.0115 0.0000
# 3 15.3758 33.9029 41.8425 0.0000 -11.9620 0.0000
# 4 0.0000 0.0000 0.0000 20.6268 0.0000 -3.6945
# 5 -14.0061 -11.0115 -11.9620 0.0000 30.1826 0.0000
# 6 0.0000 0.0000 0.0000 -3.6945 0.0000 33.3579
#
#
#
# Elastic Compliance Matrix: (Units=1/GPa)
#
#
# Indices 1 2 3 4 5 6 
#
# 1 0.007993 -0.005859 0.002548 0.000000 0.002581 0.000000
# 2 -0.005859 0.015755 -0.010992 0.000000 -0.001327 0.000000
# 3 0.002548 -0.010992 0.035030 0.000000 0.011055 0.000000
# 4 0.000000 0.000000 0.000000 0.049462 0.000000 0.005478
# 5 0.002581 -0.001327 0.011055 0.000000 0.038227 0.000000
# 6 0.000000 0.000000 0.000000 0.005478 0.000000 0.030585
#
#
# Mechanical properties :
#
#
# Convention : Reuss Voigt Hill
#
# Bulk Modulus (GPa) = 33.14358 65.56308 49.35333
# Shear Modulus (GPa) = 23.17883 30.93722 27.05802
#
# Velocity S-wave (km/s) = 3.22197 3.72234 3.48115
# Velocity P-wave (km/s) = 5.35587 6.91650 6.18560
#
# Compressibility (1/GPa) = 0.03017176
#
# Stress axis : x y z
#
# Youngs Moduli (GPa) = 125.10876 63.47154 28.54732
#
# Poissons Ratio (x) = 0.37188 -0.07274
# Poissons Ratio (y) = 0.73301 0.31379
# Poissons Ratio (z) = -0.31878 0.69768
#
# Static dielectric constant tensor:
#      x y z
#    x 4.637610 0.000000 -0.016510 
#    y 0.000000 3.862100 0.000000 
#    z -0.016510 0.000000 3.894930 
# 
# 
# High freq. dielectric constant tensor:
#      x y z
#    x 1.911130 0.000000 0.006040 
#    y 0.000000 1.868930 0.000000 
#    z 0.006040 0.000000 1.863550 
# 
# From -- ./inp_files/30909.got.cif
#   From: 2010.03.12/outbox.cif.g09.slc.cpg/sg5_16_cif.got.tgz:30909.got - 2010.03.31 09:47:26.
