data_PCOD8050278
_publ_section_title
;
Structure prediction by ZEFSAII (Michael W. Deem and Ramdas Pophale) SiO2 
 PCOD8050278
Probable space group: C 2
;
_chemical_formula_sum "Si O2"
_cell_formula_units_Z 30
_cell_length_a 10.579841
_cell_length_b 9.534151
_cell_length_c 13.960969
_cell_angle_alpha 90.000000
_cell_angle_beta 77.358176
_cell_angle_gamma 90.000000
_cell_volume 1374.100580
_symmetry_space_group_name_H-M "C 2"
_symmetry_group_IT_number 5
_symmetry_cell_setting 'monoclinic'
loop_
_space_group_symop_operation_xyz
x,y,z
-x,y,-z
1/2+x,1/2+y,z
1/2-x,1/2+y,-z
loop_
_atom_site_type_symbol
_atom_site_label
_atom_site_fract_x
_atom_site_fract_y
_atom_site_fract_z
Si Si1 0.865556 0.867790 0.668576
Si Si2 0.575743 0.552921 0.176964
Si Si3 0.805519 0.755884 0.157414
Si Si4 0.845135 0.426761 0.680191
Si Si5 0.657621 0.645099 0.434819
Si Si6 0.063141 0.638643 0.677428
Si Si7 0.000000 0.900795 0.000000
Si Si8 0.345070 0.654652 0.349468
O O1 0.726835 0.799002 0.667773
O O2 0.982000 0.759170 0.638281
O O3 0.863795 0.919068 0.778715
O O4 0.901365 0.002620 0.598707
O O5 0.689178 0.661639 0.140153
O O6 0.459714 0.625011 0.256242
O O7 0.529493 0.502580 0.082416
O O8 0.745498 0.896908 0.213185
O O9 0.895718 0.676679 0.220850
O O10 0.883945 0.798054 0.049894
O O11 0.878060 0.279840 0.623740
O O12 0.760567 0.529613 0.627895
O O13 0.980024 0.495578 0.691601
O O14 0.812321 0.622880 0.410836
O O15 0.600130 0.669201 0.550795
#
# Coordination Sequence:
#
# PCOD8050278 Si02
#       8
#     4   4   4   4   4   4   2   4
#     4  11  23  42  70  97 139 191 226 280 345 404
#     4  12  25  46  71 101 136 177 233 291 354 416
#     4  11  24  45  71  97 131 177 227 295 355 409
#     4  10  21  43  67  98 139 186 227 284 338 404
#     4  11  23  42  64 106 144 190 231 276 342 406
#     4  10  22  42  66  98 138 182 236 278 334 413
#     4  12  26  48  74 102 134 176 234 302 362 418
#     4  11  25  42  68 104 144 185 234 283 337 417
#
# _framework density 21.832464999999999
#
# number of rings (size 3 to 8) (size 9 to 14) (size 15 to 20)
#    0.000    1.067    5.333    1.600    1.867    5.867 
#    2.400    0.000    0.000    0.000    0.000    0.000 
#    0.000    0.000    0.000    0.000    0.000    0.000 
#
# Total GULP energy -186009.231688 kJ/mol
# GULP energy per Si atom -12400.615446 kJ/mol
# Density = 2.178277 g / cm^3
# Si number density = 21.832465 Si / 1000 Ang^3
#
#
#
# Elastic Constant Matrix: (Units=GPa)
#
#
# Indices 1 2 3 4 5 6 
#
# 1 106.4673 59.5482 62.2798 0.0000 -9.5164 0.0000
# 2 59.5482 119.2169 52.1905 0.0000 -5.4714 0.0000
# 3 62.2798 52.1905 160.5310 0.0000 -9.5777 0.0000
# 4 0.0000 0.0000 0.0000 23.6022 0.0000 7.6965
# 5 -9.5164 -5.4714 -9.5777 0.0000 41.4208 0.0000
# 6 0.0000 0.0000 0.0000 7.6965 0.0000 13.2916
#
#
#
# Elastic Compliance Matrix: (Units=1/GPa)
#
#
# Indices 1 2 3 4 5 6 
#
# 1 0.015012 -0.005729 -0.003854 0.000000 0.001801 0.000000
# 2 -0.005729 0.011979 -0.001679 0.000000 -0.000122 0.000000
# 3 -0.003854 -0.001679 0.008319 0.000000 0.000816 0.000000
# 4 0.000000 0.000000 0.000000 0.052232 0.000000 -0.030245
# 5 0.001801 -0.000122 0.000816 0.000000 0.024729 0.000000
# 6 0.000000 0.000000 0.000000 -0.030245 0.000000 0.092749
#
#
# Mechanical properties :
#
#
# Convention : Reuss Voigt Hill
#
# Bulk Modulus (GPa) = 78.20929 81.58358 79.89643
# Shear Modulus (GPa) = 21.56972 29.80937 25.68955
#
# Velocity S-wave (km/s) = 3.14660 3.69910 3.43398
# Velocity P-wave (km/s) = 7.00726 7.46281 7.23862
#
# Compressibility (1/GPa) = 0.01278620
#
# Stress axis : x y z
#
# Youngs Moduli (GPa) = 66.61252 83.47924 120.20223
#
# Poissons Ratio (x) = 0.47821 0.46329
# Poissons Ratio (y) = 0.38159 0.20186
# Poissons Ratio (z) = 0.25674 0.14019
#
# Static dielectric constant tensor:
#      x y z
#    x 4.377770 0.000000 0.063270 
#    y 0.000000 4.180360 0.000000 
#    z 0.063270 0.000000 4.033550 
# 
# 
# High freq. dielectric constant tensor:
#      x y z
#    x 1.885310 0.000000 -0.005950 
#    y 0.000000 1.871710 0.000000 
#    z -0.005950 0.000000 1.834750 
# 
# From -- ./inp_files/52438.got.cif
#   From: 2010.03.12/outbox.cif.g09.slc.cpg/sg5_27_cif.got.tgz:52438.got - 2010.03.31 09:47:26.
