data_PCOD8050954
_publ_section_title
;
Structure prediction by ZEFSAII (Michael W. Deem and Ramdas Pophale) SiO2 
 PCOD8050954
Probable space group: C 2
;
_chemical_formula_sum "Si O2"
_cell_formula_units_Z 16
_cell_length_a 11.406966
_cell_length_b 11.990457
_cell_length_c 7.462135
_cell_angle_alpha 90.000000
_cell_angle_beta 139.223951
_cell_angle_gamma 90.000000
_cell_volume 666.578648
_symmetry_space_group_name_H-M "C 2"
_symmetry_group_IT_number 5
_symmetry_cell_setting 'monoclinic'
loop_
_space_group_symop_operation_xyz
x,y,z
-x,y,-z
1/2+x,1/2+y,z
1/2-x,1/2+y,-z
loop_
_atom_site_type_symbol
_atom_site_label
_atom_site_fract_x
_atom_site_fract_y
_atom_site_fract_z
Si Si1 0.246136 0.357010 0.507836
Si Si2 0.500000 0.212210 0.000000
Si Si3 0.054820 0.502204 0.867753
Si Si4 0.052225 0.027502 0.751081
Si Si5 0.500000 0.701437 0.000000
O O1 0.097001 0.439932 0.426968
O O2 0.408062 0.431106 0.618358
O O3 0.167190 0.274886 0.263543
O O4 0.323657 0.285411 0.762100
O O5 0.464754 0.136607 0.137759
O O6 0.000000 0.451280 0.000000
O O7 0.252688 0.468646 0.034607
O O8 0.000000 0.083738 0.500000
O O9 0.064457 0.122931 0.913087
#
# Coordination Sequence:
#
# PCOD8050954 Si02
#       5
#     4   2   4   4   2
#     4  12  23  47  72 107 142 188 243 288 357 428
#     4  10  24  44  72 102 146 184 238 292 350 426
#     4  10  22  48  67 100 149 183 231 302 345 414
#     4  12  24  47  75 103 152 185 230 308 351 415
#     4  12  26  46  78 110 136 192 246 280 366 430
#
# _framework density 24.003170000000001
#
# number of rings (size 3 to 8) (size 9 to 14) (size 15 to 20)
#    0.750    0.000    3.750    3.750    0.000    4.000 
#    0.000   20.000    0.000    0.000    0.000    0.000 
#    0.000    0.000    0.000    0.000    0.000    0.000 
#
# Total GULP energy -99110.282264 kJ/mol
# GULP energy per Si atom -12388.785283 kJ/mol
# Density = 2.394854 g / cm^3
# Si number density = 24.003170 Si / 1000 Ang^3
#
#
#
# Elastic Constant Matrix: (Units=GPa)
#
#
# Indices 1 2 3 4 5 6 
#
# 1 116.7516 60.6073 69.9096 0.0000 41.7969 0.0000
# 2 60.6073 162.2160 109.4659 0.0000 17.3247 0.0000
# 3 69.9096 109.4659 194.3946 0.0000 36.7633 0.0000
# 4 0.0000 0.0000 0.0000 57.2002 0.0000 8.2862
# 5 41.7969 17.3247 36.7633 0.0000 57.6448 0.0000
# 6 0.0000 0.0000 0.0000 8.2862 0.0000 7.2574
#
#
#
# Elastic Compliance Matrix: (Units=1/GPa)
#
#
# Indices 1 2 3 4 5 6 
#
# 1 0.014252 -0.003287 -0.001714 0.000000 -0.008253 0.000000
# 2 -0.003287 0.010723 -0.005342 0.000000 0.002567 0.000000
# 3 -0.001714 -0.005342 0.009359 0.000000 -0.003121 0.000000
# 4 0.000000 0.000000 0.000000 0.020947 0.000000 -0.023917
# 5 -0.008253 0.002567 -0.003121 0.000000 0.024550 0.000000
# 6 0.000000 0.000000 0.000000 -0.023917 0.000000 0.165098
#
#
# Mechanical properties :
#
#
# Convention : Reuss Voigt Hill
#
# Bulk Modulus (GPa) = 73.26508 105.92530 89.59519
# Shear Modulus (GPa) = 18.50726 39.97912 29.24319
#
# Velocity S-wave (km/s) = 2.77976 4.08558 3.49421
# Velocity P-wave (km/s) = 6.39469 8.15361 7.32713
#
# Compressibility (1/GPa) = 0.01364907
#
# Stress axis : x y z
#
# Youngs Moduli (GPa) = 70.16379 93.25492 106.85298
#
# Poissons Ratio (x) = 0.30654 0.18312
# Poissons Ratio (y) = 0.23064 0.57079
# Poissons Ratio (z) = 0.12024 0.49815
#
# Static dielectric constant tensor:
#      x y z
#    x 4.004980 0.000000 0.135810 
#    y 0.000000 4.505450 0.000000 
#    z 0.135810 0.000000 4.790580 
# 
# 
# High freq. dielectric constant tensor:
#      x y z
#    x 1.918970 0.000000 0.019620 
#    y 0.000000 1.962470 0.000000 
#    z 0.019620 0.000000 1.968900 
# 
# From -- ./inp_files/23238.got.cif
#   From: 2010.03.12/outbox.cif.g09.slc.cpg/sg5_12_cif.got.tgz:23238.got - 2010.03.31 09:47:26.
