data_PCOD8050259
_publ_section_title
;
Structure prediction by ZEFSAII (Michael W. Deem and Ramdas Pophale) SiO2 
 PCOD8050259
Probable space group: C 2
;
_chemical_formula_sum "Si O2"
_cell_formula_units_Z 32
_cell_length_a 12.419210
_cell_length_b 6.697055
_cell_length_c 18.341069
_cell_angle_alpha 90.000000
_cell_angle_beta 86.929611
_cell_angle_gamma 90.000000
_cell_volume 1523.275991
_symmetry_space_group_name_H-M "C 2"
_symmetry_group_IT_number 5
_symmetry_cell_setting 'monoclinic'
loop_
_space_group_symop_operation_xyz
x,y,z
-x,y,-z
1/2+x,1/2+y,z
1/2-x,1/2+y,-z
loop_
_atom_site_type_symbol
_atom_site_label
_atom_site_fract_x
_atom_site_fract_y
_atom_site_fract_z
Si Si1 0.132625 0.129020 0.290991
Si Si2 0.094647 0.026986 0.650360
Si Si3 0.877464 0.287196 0.481362
Si Si4 0.701728 0.152191 0.598177
Si Si5 0.899210 0.583483 0.958154
Si Si6 0.247861 0.736414 0.913972
Si Si7 0.652170 0.356913 0.157930
Si Si8 0.761052 0.978360 0.219717
O O1 0.236731 0.053781 0.334043
O O2 0.161476 0.353180 0.260890
O O3 0.025442 0.120744 0.344047
O O4 0.101185 0.976869 0.227039
O O5 0.156704 0.141482 0.583377
O O6 0.150339 0.049964 0.726258
O O7 0.105038 0.794693 0.628916
O O8 0.797646 0.263351 0.552057
O O9 0.862589 0.507855 0.451825
O O10 0.000000 0.248330 0.500000
O O11 0.847514 0.381723 0.928878
O O12 0.932123 0.735632 0.890890
O O13 0.825516 0.720135 0.012694
O O14 0.000000 0.507650 0.000000
O O15 0.282783 0.512617 0.893754
O O16 0.188797 0.834977 0.845320
O O17 0.729457 0.186542 0.185512
#
# Coordination Sequence:
#
# PCOD8050259 Si02
#       8
#     4   4   4   4   4   4   4   4
#     4  10  22  41  64  93 130 163 216 260 312 382
#     4  11  23  42  67  95 126 169 209 262 318 374
#     4  12  24  40  64  95 127 168 215 261 314 379
#     4  11  24  42  64  93 130 166 212 262 316 373
#     4  11  23  39  64  94 126 172 215 259 320 371
#     4  10  21  43  61  93 133 162 216 266 305 380
#     4  10  21  43  64  90 131 167 208 267 313 372
#     4   9  22  41  63  92 126 167 209 263 314 373
#
# _framework density 21.007356999999999
#
# number of rings (size 3 to 8) (size 9 to 14) (size 15 to 20)
#    0.000    1.500    3.750    0.750    1.750    3.000 
#    6.750    0.000    0.000    0.000    0.000    0.000 
#    0.000    0.000    0.000    0.000    0.000    0.000 
#
# Total GULP energy -198250.516581 kJ/mol
# GULP energy per Si atom -12390.657286 kJ/mol
# Density = 2.095954 g / cm^3
# Si number density = 21.007357 Si / 1000 Ang^3
#
#
#
# Elastic Constant Matrix: (Units=GPa)
#
#
# Indices 1 2 3 4 5 6 
#
# 1 54.7507 40.0958 20.8782 0.0000 5.5898 0.0000
# 2 40.0958 99.6192 41.2422 0.0000 10.6273 0.0000
# 3 20.8782 41.2422 103.3769 0.0000 13.7051 0.0000
# 4 0.0000 0.0000 0.0000 42.1018 0.0000 1.2743
# 5 5.5898 10.6273 13.7051 0.0000 33.2289 0.0000
# 6 0.0000 0.0000 0.0000 1.2743 0.0000 22.2910
#
#
#
# Elastic Compliance Matrix: (Units=1/GPa)
#
#
# Indices 1 2 3 4 5 6 
#
# 1 0.026057 -0.009909 -0.001215 0.000000 -0.000713 0.000000
# 2 -0.009909 0.015916 -0.004120 0.000000 -0.001724 0.000000
# 3 -0.001215 -0.004120 0.012018 0.000000 -0.003435 0.000000
# 4 0.000000 0.000000 0.000000 0.023793 0.000000 -0.001360
# 5 -0.000713 -0.001724 -0.003435 0.000000 0.032182 0.000000
# 6 0.000000 0.000000 0.000000 -0.001360 0.000000 0.044939
#
#
# Mechanical properties :
#
#
# Convention : Reuss Voigt Hill
#
# Bulk Modulus (GPa) = 42.54639 51.35325 46.94982
# Shear Modulus (GPa) = 25.87632 29.89304 27.88468
#
# Velocity S-wave (km/s) = 3.51347 3.77633 3.64727
# Velocity P-wave (km/s) = 6.06270 6.59641 6.33518
#
# Compressibility (1/GPa) = 0.02350376
#
# Stress axis : x y z
#
# Youngs Moduli (GPa) = 38.37711 62.83009 83.21072
#
# Poissons Ratio (x) = 0.62256 0.10110
# Poissons Ratio (y) = 0.38027 0.34282
# Poissons Ratio (z) = 0.04663 0.25885
#
# Static dielectric constant tensor:
#      x y z
#    x 3.356280 0.000000 0.094960 
#    y 0.000000 3.783590 0.000000 
#    z 0.094960 0.000000 4.302570 
# 
# 
# High freq. dielectric constant tensor:
#      x y z
#    x 1.784470 0.000000 0.008880 
#    y 0.000000 1.827310 0.000000 
#    z 0.008880 0.000000 1.857340 
# 
# From -- ./inp_files/64983.got.cif
#   From: 2010.03.12/outbox.cif.g09.slc.cpg/sg5_33_cif.got.tgz:64983.got - 2010.03.31 09:47:26.
