data_PCOD8050377
_publ_section_title
;
Structure prediction by ZEFSAII (Michael W. Deem and Ramdas Pophale) SiO2 
 PCOD8050377
Probable space group: C 2
;
_chemical_formula_sum "Si O2"
_cell_formula_units_Z 30
_cell_length_a 28.542616
_cell_length_b 11.464387
_cell_length_c 8.397661
_cell_angle_alpha 90.000000
_cell_angle_beta 149.500244
_cell_angle_gamma 90.000000
_cell_volume 1394.661096
_symmetry_space_group_name_H-M "C 2"
_symmetry_group_IT_number 5
_symmetry_cell_setting 'monoclinic'
loop_
_space_group_symop_operation_xyz
x,y,z
-x,y,-z
1/2+x,1/2+y,z
1/2-x,1/2+y,-z
loop_
_atom_site_type_symbol
_atom_site_label
_atom_site_fract_x
_atom_site_fract_y
_atom_site_fract_z
Si Si1 0.175952 0.683390 0.008849
Si Si2 0.201181 0.034224 0.157471
Si Si3 0.358345 0.000990 0.849746
Si Si4 0.778666 0.376029 0.144291
Si Si5 0.000000 0.734989 0.000000
Si Si6 0.071248 0.557087 0.421008
Si Si7 0.282348 0.799881 0.799492
Si Si8 0.387626 0.346295 0.924020
O O1 0.204130 0.585550 0.220069
O O2 0.265130 0.753942 0.201624
O O3 0.108334 0.772857 0.901619
O O4 0.119478 0.618902 0.708442
O O5 0.179409 0.169190 0.069103
O O6 0.303406 0.000663 0.523025
O O7 0.203898 0.970858 0.992054
O O8 0.124693 0.980559 0.055663
O O9 0.362189 0.874770 0.946239
O O10 0.462375 0.044212 0.133160
O O11 0.881713 0.430589 0.470062
O O12 0.756910 0.354069 0.895953
O O13 0.081607 0.647124 0.301436
O O14 0.022628 0.820693 0.918654
O O15 0.194808 0.801509 0.428974
#
# Coordination Sequence:
#
# PCOD8050377 Si02
#       8
#     4   4   4   4   2   4   4   4
#     4  11  21  39  58  92 127 163 202 261 319 375
#     4  10  22  42  60  90 130 167 208 257 325 387
#     4  11  22  39  67  92 122 172 210 265 318 378
#     4  11  23  34  62  92 125 157 210 258 311 380
#     4  12  22  38  66  94 132 160 216 274 310 374
#     4  12  23  39  64 101 127 160 221 266 313 374
#     4  11  21  38  62  88 127 166 208 262 320 378
#     4  10  22  37  62  89 122 168 211 260 320 382
#
# _framework density 21.510603
#
# number of rings (size 3 to 8) (size 9 to 14) (size 15 to 20)
#    0.000    1.067    4.000    3.600    0.000    0.000 
#    0.000    0.000    5.867    4.800    0.000    0.000 
#    0.000    0.000    0.000    0.000    0.000    0.000 
#
# Total GULP energy -185840.243200 kJ/mol
# GULP energy per Si atom -12389.349547 kJ/mol
# Density = 2.146164 g / cm^3
# Si number density = 21.510603 Si / 1000 Ang^3
#
#
#
# Elastic Constant Matrix: (Units=GPa)
#
#
# Indices 1 2 3 4 5 6 
#
# 1 116.1836 59.5423 27.1875 0.0000 -4.0368 0.0000
# 2 59.5423 143.2223 24.6353 0.0000 4.0442 0.0000
# 3 27.1875 24.6353 41.9449 0.0000 0.3666 0.0000
# 4 0.0000 0.0000 0.0000 27.7144 0.0000 -0.2391
# 5 -4.0368 4.0442 0.3666 0.0000 27.8533 0.0000
# 6 0.0000 0.0000 0.0000 -0.2391 0.0000 44.9260
#
#
#
# Elastic Compliance Matrix: (Units=1/GPa)
#
#
# Indices 1 2 3 4 5 6 
#
# 1 0.012093 -0.004165 -0.005413 0.000000 0.002429 0.000000
# 2 -0.004165 0.009233 -0.002707 0.000000 -0.001909 0.000000
# 3 -0.005413 -0.002707 0.028946 0.000000 -0.000773 0.000000
# 4 0.000000 0.000000 0.000000 0.036084 0.000000 0.000192
# 5 0.002429 -0.001909 -0.000773 0.000000 0.036542 0.000000
# 6 0.000000 0.000000 0.000000 0.000192 0.000000 0.022260
#
#
# Mechanical properties :
#
#
# Convention : Reuss Voigt Hill
#
# Bulk Modulus (GPa) = 38.90704 58.23123 48.56913
# Shear Modulus (GPa) = 28.04365 32.76445 30.40405
#
# Velocity S-wave (km/s) = 3.61461 3.90702 3.76366
# Velocity P-wave (km/s) = 5.96215 6.89078 6.44321
#
# Compressibility (1/GPa) = 0.02570229
#
# Stress axis : x y z
#
# Youngs Moduli (GPa) = 82.69569 108.30682 34.54722
#
# Poissons Ratio (x) = 0.45107 0.18701
# Poissons Ratio (y) = 0.34441 0.09351
# Poissons Ratio (z) = 0.44765 0.29315
#
# Static dielectric constant tensor:
#      x y z
#    x 4.288450 0.000000 -0.311780 
#    y 0.000000 4.270810 0.000000 
#    z -0.311780 0.000000 3.616090 
# 
# 
# High freq. dielectric constant tensor:
#      x y z
#    x 1.865840 0.000000 -0.030750 
#    y 0.000000 1.851000 0.000000 
#    z -0.030750 0.000000 1.798010 
# 
# From -- ./inp_files/27382.got.cif
#   From: 2010.03.12/outbox.cif.g09.slc.cpg/sg5_14_cif.got.tgz:27382.got - 2010.03.31 09:47:26.
