data_PCOD8050075
_publ_section_title
;
Structure prediction by ZEFSAII (Michael W. Deem and Ramdas Pophale) SiO2 
 PCOD8050075
Probable space group: C 2
;
_chemical_formula_sum "Si O2"
_cell_formula_units_Z 22
_cell_length_a 23.207644
_cell_length_b 5.057352
_cell_length_c 12.998632
_cell_angle_alpha 90.000000
_cell_angle_beta 140.621203
_cell_angle_gamma 90.000000
_cell_volume 967.933517
_symmetry_space_group_name_H-M "C 2"
_symmetry_group_IT_number 5
_symmetry_cell_setting 'monoclinic'
loop_
_space_group_symop_operation_xyz
x,y,z
-x,y,-z
1/2+x,1/2+y,z
1/2-x,1/2+y,-z
loop_
_atom_site_type_symbol
_atom_site_label
_atom_site_fract_x
_atom_site_fract_y
_atom_site_fract_z
Si Si1 0.447089 0.408890 0.206666
Si Si2 0.671504 0.902486 0.960721
Si Si3 0.805970 0.532780 0.231564
Si Si4 0.230405 0.386426 0.604221
Si Si5 0.500000 0.244281 0.500000
Si Si6 0.862380 0.886525 0.612557
O O1 0.408909 0.695548 0.127704
O O2 0.480262 0.416234 0.371173
O O3 0.529843 0.346590 0.243654
O O4 0.368580 0.193642 0.076714
O O5 0.706598 0.867158 0.891215
O O6 0.756788 0.821283 0.150845
O O7 0.758787 0.363912 0.257677
O O8 0.912559 0.563847 0.403213
O O9 0.189282 0.675265 0.528496
O O10 0.328458 0.358576 0.684042
O O11 0.160612 0.173363 0.464075
#
# Coordination Sequence:
#
# PCOD8050075 Si02
#       6
#     4   4   4   4   2   4
#     4  11  23  41  62  96 129 168 209 273 314 390
#     4  11  26  39  63  90 140 167 206 261 335 383
#     4  11  23  44  62  99 126 177 212 263 327 384
#     4  10  22  38  67  93 129 165 214 276 316 376
#     4  10  22  34  68  90 124 158 226 256 314 368
#     4  10  21  40  63  98 126 162 218 274 320 370
#
# _framework density 22.728836000000001
#
# number of rings (size 3 to 8) (size 9 to 14) (size 15 to 20)
#    0.000    1.455    1.818    3.273    5.091    3.636 
#    0.000    0.909    0.000    4.364    0.000    0.000 
#    0.000    0.000    0.000    0.000    0.000    0.000 
#
# Total GULP energy -136404.243475 kJ/mol
# GULP energy per Si atom -12400.385770 kJ/mol
# Density = 2.267710 g / cm^3
# Si number density = 22.728836 Si / 1000 Ang^3
#
#
#
# Elastic Constant Matrix: (Units=GPa)
#
#
# Indices 1 2 3 4 5 6 
#
# 1 168.1688 17.9445 37.1875 -0.0001 10.1134 0.0000
# 2 17.9445 58.7201 10.7732 -0.0002 4.1574 0.0003
# 3 37.1875 10.7732 80.0709 -0.0003 14.6277 0.0000
# 4 -0.0001 -0.0002 -0.0003 27.0639 0.0000 0.4605
# 5 10.1134 4.1574 14.6277 0.0000 34.1029 0.0000
# 6 0.0000 0.0003 0.0000 0.4605 0.0000 29.2593
#
#
#
# Elastic Compliance Matrix: (Units=1/GPa)
#
#
# Indices 1 2 3 4 5 6 
#
# 1 0.006770 -0.001506 -0.002830 0.000000 -0.000610 0.000000
# 2 -0.001506 0.017843 -0.001503 0.000000 -0.001084 0.000000
# 3 -0.002830 -0.001503 0.014994 0.000000 -0.005409 0.000000
# 4 0.000000 0.000000 0.000000 0.036960 0.000000 -0.000582
# 5 -0.000610 -0.001084 -0.005409 0.000000 0.031956 0.000000
# 6 0.000000 0.000000 0.000000 -0.000582 0.000000 0.034186
#
#
# Mechanical properties :
#
#
# Convention : Reuss Voigt Hill
#
# Bulk Modulus (GPa) = 35.80734 48.75225 42.27980
# Shear Modulus (GPa) = 30.54451 34.15553 32.35002
#
# Velocity S-wave (km/s) = 3.66985 3.88072 3.77676
# Velocity P-wave (km/s) = 5.80908 6.44795 6.13684
#
# Compressibility (1/GPa) = 0.02792723
#
# Stress axis : x y z
#
# Youngs Moduli (GPa) = 147.71896 56.04514 66.69532
#
# Poissons Ratio (x) = 0.08442 0.18874
# Poissons Ratio (y) = 0.22252 0.10025
# Poissons Ratio (z) = 0.41803 0.08424
#
# Static dielectric constant tensor:
#      x y z
#    x 4.462870 0.000000 0.051970 
#    y 0.000000 3.931820 0.000000 
#    z 0.051970 0.000000 3.899610 
# 
# 
# High freq. dielectric constant tensor:
#      x y z
#    x 1.909070 0.000000 0.014620 
#    y 0.000000 1.898150 0.000000 
#    z 0.014620 0.000000 1.873060 
# 
# From -- ./inp_files/47008.got.cif
#   From: 2010.03.12/outbox.cif.g09.slc.cpg/sg5_24_cif.got.tgz:47008.got - 2010.03.31 09:47:26.
