data_PCOD8050100
_publ_section_title
;
Structure prediction by ZEFSAII (Michael W. Deem and Ramdas Pophale) SiO2 
 PCOD8050100
Probable space group: C 2
;
_chemical_formula_sum "Si O2"
_cell_formula_units_Z 26
_cell_length_a 12.994684
_cell_length_b 8.250323
_cell_length_c 11.631475
_cell_angle_alpha 90.000000
_cell_angle_beta 113.994323
_cell_angle_gamma 90.000000
_cell_volume 1139.254584
_symmetry_space_group_name_H-M "C 2"
_symmetry_group_IT_number 5
_symmetry_cell_setting 'monoclinic'
loop_
_space_group_symop_operation_xyz
x,y,z
-x,y,-z
1/2+x,1/2+y,z
1/2-x,1/2+y,-z
loop_
_atom_site_type_symbol
_atom_site_label
_atom_site_fract_x
_atom_site_fract_y
_atom_site_fract_z
Si Si1 0.874335 0.950600 0.067565
Si Si2 0.000000 0.227740 0.000000
Si Si3 0.701128 0.045137 0.383161
Si Si4 0.809215 0.480922 0.188639
Si Si5 0.770690 0.339201 0.803765
Si Si6 0.498701 0.123607 0.132460
Si Si7 0.371245 0.823209 0.451096
O O1 0.792629 0.967360 0.140925
O O2 0.962265 0.809391 0.129325
O O3 0.939359 0.117945 0.070620
O O4 0.796050 0.900249 0.924327
O O5 0.094274 0.337122 0.107685
O O6 0.616611 0.124233 0.252625
O O7 0.796320 0.173940 0.463145
O O8 0.755077 0.894623 0.338091
O O9 0.640450 0.977775 0.469741
O O10 0.780298 0.662875 0.210044
O O11 0.916959 0.490612 0.154133
O O12 0.831217 0.370249 0.306960
O O13 0.500000 0.075047 0.000000
O O14 0.500000 0.766581 0.500000
#
# Coordination Sequence:
#
# PCOD8050100 Si02
#       7
#     4   2   4   4   4   4   4
#     4  10  21  40  66 111 140 180 224 282 351 427
#     4  10  22  40  68  98 152 182 212 278 364 418
#     4  12  27  47  73 101 138 187 242 292 354 418
#     4  10  22  44  69  97 146 179 234 289 339 422
#     4  10  24  41  66 106 136 181 231 286 347 424
#     4  11  21  39  71 104 141 179 226 286 356 413
#     4  12  27  51  70 101 137 191 243 296 344 413
#
# _framework density 22.821940999999999
#
# number of rings (size 3 to 8) (size 9 to 14) (size 15 to 20)
#    0.000    1.231    2.308    2.769    5.385    3.692 
#    5.538    0.000    0.000    0.000    0.000    0.000 
#    0.000    0.000    0.000    0.000    0.000    0.000 
#
# Total GULP energy -161225.884399 kJ/mol
# GULP energy per Si atom -12401.991108 kJ/mol
# Density = 2.277000 g / cm^3
# Si number density = 22.821941 Si / 1000 Ang^3
#
#
#
# Elastic Constant Matrix: (Units=GPa)
#
#
# Indices 1 2 3 4 5 6 
#
# 1 131.2128 30.2596 38.4019 0.0000 4.7162 0.0000
# 2 30.2596 61.3207 21.9512 0.0000 6.0111 0.0000
# 3 38.4019 21.9512 92.5431 0.0000 -1.0287 0.0000
# 4 0.0000 0.0000 0.0000 32.6841 0.0000 2.7539
# 5 4.7162 6.0111 -1.0287 0.0000 39.0406 0.0000
# 6 0.0000 0.0000 0.0000 2.7539 0.0000 18.3740
#
#
#
# Elastic Compliance Matrix: (Units=1/GPa)
#
#
# Indices 1 2 3 4 5 6 
#
# 1 0.009337 -0.003444 -0.003065 0.000000 -0.000678 0.000000
# 2 -0.003444 0.019415 -0.003206 0.000000 -0.002658 0.000000
# 3 -0.003065 -0.003206 0.012851 0.000000 0.001203 0.000000
# 4 0.000000 0.000000 0.000000 0.030987 0.000000 -0.004644
# 5 -0.000678 -0.002658 0.001203 0.000000 0.026137 0.000000
# 6 0.000000 0.000000 0.000000 -0.004644 0.000000 0.055121
#
#
# Mechanical properties :
#
#
# Convention : Reuss Voigt Hill
#
# Bulk Modulus (GPa) = 45.09738 51.81132 48.45435
# Shear Modulus (GPa) = 27.67483 30.98398 29.32941
#
# Velocity S-wave (km/s) = 3.48608 3.68861 3.58878
# Velocity P-wave (km/s) = 6.00059 6.39475 6.20080
#
# Compressibility (1/GPa) = 0.02217424
#
# Stress axis : x y z
#
# Youngs Moduli (GPa) = 107.10281 51.50609 77.81202
#
# Poissons Ratio (x) = 0.17737 0.23850
# Poissons Ratio (y) = 0.36883 0.24945
# Poissons Ratio (z) = 0.32828 0.16512
#
# Static dielectric constant tensor:
#      x y z
#    x 4.505710 0.000000 -0.048810 
#    y 0.000000 3.981940 0.000000 
#    z -0.048810 0.000000 4.039430 
# 
# 
# High freq. dielectric constant tensor:
#      x y z
#    x 1.918350 0.000000 -0.005240 
#    y 0.000000 1.904660 0.000000 
#    z -0.005240 0.000000 1.890250 
# 
# From -- ./inp_files/41828.got.cif
#   From: 2010.03.12/outbox.cif.g09.slc.cpg/sg5_21_cif.got.tgz:41828.got - 2010.03.31 09:47:26.
