data_PCOD8050892
_publ_section_title
;
Structure prediction by ZEFSAII (Michael W. Deem and Ramdas Pophale) SiO2 
 PCOD8050892
Probable space group: C 2
;
_chemical_formula_sum "Si O2"
_cell_formula_units_Z 20
_cell_length_a 17.022411
_cell_length_b 7.259384
_cell_length_c 10.139263
_cell_angle_alpha 90.000000
_cell_angle_beta 40.754130
_cell_angle_gamma 90.000000
_cell_volume 817.931488
_symmetry_space_group_name_H-M "C 2"
_symmetry_group_IT_number 5
_symmetry_cell_setting 'monoclinic'
loop_
_space_group_symop_operation_xyz
x,y,z
-x,y,-z
1/2+x,1/2+y,z
1/2-x,1/2+y,-z
loop_
_atom_site_type_symbol
_atom_site_label
_atom_site_fract_x
_atom_site_fract_y
_atom_site_fract_z
Si Si1 0.379941 0.518820 0.436377
Si Si2 0.241605 0.565748 0.144765
Si Si3 0.767967 0.457578 0.123920
Si Si4 0.460207 0.192624 0.769687
Si Si5 0.824367 0.422112 0.505200
O O1 0.337904 0.503156 0.641154
O O2 0.505409 0.409074 0.253170
O O3 0.276533 0.434774 0.476801
O O4 0.399919 0.735277 0.384407
O O5 0.319439 0.749300 0.081202
O O6 0.238132 0.423819 0.270423
O O7 0.106920 0.649064 0.283644
O O8 0.288433 0.456213 0.955171
O O9 0.876069 0.608325 0.994764
O O10 0.589026 0.095319 0.612128
#
# Coordination Sequence:
#
# PCOD8050892 Si02
#       5
#     4   4   4   4   4
#     4  12  24  46  73 101 151 194 243 305 376 440
#     4  10  22  45  67 110 144 190 251 301 364 448
#     4  10  23  42  70 102 149 183 247 307 356 447
#     4  10  25  45  70 105 144 189 246 295 380 430
#     4  12  23  45  74 102 145 200 240 305 371 444
#
# _framework density 24.451924999999999
#
# number of rings (size 3 to 8) (size 9 to 14) (size 15 to 20)
#    1.200    0.000    4.000    1.800    0.000    2.400 
#    3.600    0.000    0.000    0.000    0.000    0.000 
#    0.000    0.000    0.000    0.000    0.000    0.000 
#
# Total GULP energy -123929.863770 kJ/mol
# GULP energy per Si atom -12392.986377 kJ/mol
# Density = 2.439627 g / cm^3
# Si number density = 24.451925 Si / 1000 Ang^3
#
#
#
# Elastic Constant Matrix: (Units=GPa)
#
#
# Indices 1 2 3 4 5 6 
#
# 1 70.5300 17.1452 31.1977 -0.0001 -1.6276 0.0000
# 2 17.1452 152.2607 24.2920 -0.0002 1.1122 0.0001
# 3 31.1977 24.2920 58.2545 -0.0001 -2.1438 0.0001
# 4 -0.0001 -0.0002 -0.0001 47.6150 0.0000 -6.9061
# 5 -1.6276 1.1122 -2.1438 0.0000 18.2712 0.0000
# 6 0.0000 0.0001 0.0001 -6.9061 0.0000 35.9046
#
#
#
# Elastic Compliance Matrix: (Units=1/GPa)
#
#
# Indices 1 2 3 4 5 6 
#
# 1 0.018627 -0.000550 -0.009726 0.000000 0.000552 0.000000
# 2 -0.000550 0.007063 -0.002680 0.000000 -0.000793 0.000000
# 3 -0.009726 -0.002680 0.023568 0.000000 0.002062 0.000000
# 4 0.000000 0.000000 0.000000 0.021604 0.000000 0.004156
# 5 0.000552 -0.000793 0.002062 0.000000 0.055070 0.000000
# 6 0.000000 0.000000 0.000000 0.004156 0.000000 0.028651
#
#
# Mechanical properties :
#
#
# Convention : Reuss Voigt Hill
#
# Bulk Modulus (GPa) = 42.83290 47.36834 45.10062
# Shear Modulus (GPa) = 26.55661 34.25219 30.40440
#
# Velocity S-wave (km/s) = 3.29914 3.74678 3.53006
# Velocity P-wave (km/s) = 5.66283 6.17511 5.92451
#
# Compressibility (1/GPa) = 0.02334654
#
# Stress axis : x y z
#
# Youngs Moduli (GPa) = 53.68605 141.58369 42.43017
#
# Poissons Ratio (x) = 0.07784 0.41267
# Poissons Ratio (y) = 0.02952 0.11371
# Poissons Ratio (z) = 0.52214 0.37944
#
# Static dielectric constant tensor:
#      x y z
#    x 4.072410 0.000000 0.129480 
#    y 0.000000 4.676600 0.000000 
#    z 0.129480 0.000000 4.086570 
# 
# 
# High freq. dielectric constant tensor:
#      x y z
#    x 1.947760 0.000000 0.000740 
#    y 0.000000 1.997220 0.000000 
#    z 0.000740 0.000000 1.954000 
# 
# From -- ./inp_files/45775.got.cif
#   From: 2010.03.12/outbox.cif.g09.slc.cpg/sg5_23_cif.got.tgz:45775.got - 2010.03.31 09:47:26.
