data_PCOD8050926
_publ_section_title
;
Structure prediction by ZEFSAII (Michael W. Deem and Ramdas Pophale) SiO2 
 PCOD8050926
Probable space group: C 2
;
_chemical_formula_sum "Si O2"
_cell_formula_units_Z 28
_cell_length_a 6.664208
_cell_length_b 12.820153
_cell_length_c 19.995237
_cell_angle_alpha 90.000000
_cell_angle_beta 53.129319
_cell_angle_gamma 90.000000
_cell_volume 1366.639099
_symmetry_space_group_name_H-M "C 2"
_symmetry_group_IT_number 5
_symmetry_cell_setting 'monoclinic'
loop_
_space_group_symop_operation_xyz
x,y,z
-x,y,-z
1/2+x,1/2+y,z
1/2-x,1/2+y,-z
loop_
_atom_site_type_symbol
_atom_site_label
_atom_site_fract_x
_atom_site_fract_y
_atom_site_fract_z
Si Si1 0.413685 0.511370 0.857800
Si Si2 0.122076 0.654297 0.224354
Si Si3 0.650027 0.524342 0.281514
Si Si4 0.000000 0.655628 0.000000
Si Si5 0.757555 0.158675 0.422854
Si Si6 0.953273 0.807880 0.638248
Si Si7 0.214320 0.787572 0.076371
Si Si8 0.500000 0.751952 0.500000
O O1 0.690066 0.558812 0.801280
O O2 0.305535 0.499886 0.804920
O O3 0.428917 0.397013 0.886761
O O4 0.237950 0.584162 0.937517
O O5 0.214728 0.722465 0.143980
O O6 0.852283 0.606596 0.265402
O O7 0.104840 0.726515 0.292008
O O8 0.380782 0.577990 0.346639
O O9 0.667169 0.418576 0.320339
O O10 0.060676 0.727046 0.050943
O O11 0.500000 0.106021 0.500000
O O12 0.686768 0.267283 0.400130
O O13 0.943539 0.179003 0.447552
O O14 0.252865 0.820691 0.565769
O O15 0.500000 0.809947 0.000000
#
# Coordination Sequence:
#
# PCOD8050926 Si02
#       8
#     4   4   4   2   4   4   4   2
#     4  12  26  43  70 101 132 178 222 271 338 394
#     4  12  25  43  68 101 136 173 222 276 330 395
#     4  12  25  42  71 100 134 177 224 270 336 391
#     4  12  26  44  70  98 138 176 220 274 332 402
#     4  10  23  45  67  99 139 174 221 274 326 396
#     4  11  24  43  68 101 135 176 223 272 329 395
#     4  12  26  44  70  98 135 177 221 273 333 400
#     4  10  22  46  68  96 142 174 216 278 326 390
#
# _framework density 20.488218
#
# number of rings (size 3 to 8) (size 9 to 14) (size 15 to 20)
#    0.000    0.571    7.857    0.000    1.000    5.714 
#    3.857    0.000    0.000    0.000    0.000    0.000 
#    0.000    0.000    0.000    0.000    0.000    0.000 
#
# Total GULP energy -173672.275963 kJ/mol
# GULP energy per Si atom -12405.162569 kJ/mol
# Density = 2.044159 g / cm^3
# Si number density = 20.488218 Si / 1000 Ang^3
#
#
#
# Elastic Constant Matrix: (Units=GPa)
#
#
# Indices 1 2 3 4 5 6 
#
# 1 81.7636 29.1003 28.2341 -0.0075 10.5462 0.0288
# 2 29.1003 115.1042 42.1706 0.0003 -1.5009 0.0012
# 3 28.2341 42.1706 108.1813 -0.0030 0.7753 0.0177
# 4 -0.0075 0.0003 -0.0030 30.8859 0.0056 1.1227
# 5 10.5462 -1.5009 0.7753 0.0056 38.6619 -0.0252
# 6 0.0288 0.0012 0.0177 1.1227 -0.0252 42.4991
#
#
#
# Elastic Compliance Matrix: (Units=1/GPa)
#
#
# Indices 1 2 3 4 5 6 
#
# 1 0.014679 -0.002766 -0.002724 0.000004 -0.004057 -0.000011
# 2 -0.002766 0.010665 -0.003444 -0.000001 0.001238 0.000004
# 3 -0.002724 -0.003444 0.011295 0.000000 0.000383 -0.000003
# 4 0.000004 -0.000001 0.000000 0.032408 -0.000007 -0.000856
# 5 -0.004057 0.001238 0.000383 -0.000007 0.027012 0.000019
# 6 -0.000011 0.000004 -0.000003 -0.000856 0.000019 0.023553
#
#
# Mechanical properties :
#
#
# Convention : Reuss Voigt Hill
#
# Bulk Modulus (GPa) = 53.27614 56.00658 54.64136
# Shear Modulus (GPa) = 34.78595 36.11234 35.44915
#
# Velocity S-wave (km/s) = 4.12497 4.20288 4.16411
# Velocity P-wave (km/s) = 6.98190 7.13776 7.06026
#
# Compressibility (1/GPa) = 0.01877013
#
# Stress axis : x y z
#
# Youngs Moduli (GPa) = 68.12628 93.76342 88.53864
#
# Poissons Ratio (x) = 0.25935 0.24115
# Poissons Ratio (y) = 0.18844 0.30496
# Poissons Ratio (z) = 0.18555 0.32296
#
# Static dielectric constant tensor:
#      x y z
#    x 3.620160 0.000000 0.061960 
#    y 0.000000 3.596740 0.000000 
#    z 0.061960 0.000000 4.082520 
# 
# 
# High freq. dielectric constant tensor:
#      x y z
#    x 1.801730 0.000000 0.001730 
#    y 0.000000 1.796800 0.000000 
#    z 0.001730 0.000000 1.827250 
# 
# From -- ./inp_files/58834.got.cif
#   From: 2010.03.12/outbox.cif.g09.slc.cpg/sg5_30_cif.got.tgz:58834.got - 2010.03.31 09:47:26.
