data_PCOD8050165
_publ_section_title
;
Structure prediction by ZEFSAII (Michael W. Deem and Ramdas Pophale) SiO2 
 PCOD8050165
Probable space group: C 2
;
_chemical_formula_sum "Si O2"
_cell_formula_units_Z 24
_cell_length_a 9.245942
_cell_length_b 8.726161
_cell_length_c 13.742809
_cell_angle_alpha 90.000000
_cell_angle_beta 90.374068
_cell_angle_gamma 90.000000
_cell_volume 1108.767892
_symmetry_space_group_name_H-M "C 2"
_symmetry_group_IT_number 5
_symmetry_cell_setting 'monoclinic'
loop_
_space_group_symop_operation_xyz
x,y,z
-x,y,-z
1/2+x,1/2+y,z
1/2-x,1/2+y,-z
loop_
_atom_site_type_symbol
_atom_site_label
_atom_site_fract_x
_atom_site_fract_y
_atom_site_fract_z
Si Si1 0.036859 0.360230 0.224435
Si Si2 0.843346 0.236376 0.960440
Si Si3 0.346708 0.326481 0.542882
Si Si4 0.266621 0.010279 0.629789
Si Si5 0.463747 0.514093 0.713543
Si Si6 0.758934 0.931409 0.869808
O O1 0.125514 0.363726 0.122903
O O2 0.093624 0.482354 0.303092
O O3 0.057820 0.193624 0.271022
O O4 0.871864 0.406740 0.205808
O O5 0.748755 0.097722 0.918867
O O6 0.745480 0.304992 0.045970
O O7 0.000000 0.178004 0.000000
O O8 0.500000 0.270268 0.500000
O O9 0.266738 0.184573 0.593014
O O10 0.239648 0.393532 0.460678
O O11 0.373185 0.464120 0.618681
O O12 0.131412 0.977722 0.699691
O O13 0.407059 0.420200 0.807966
#
# Coordination Sequence:
#
# PCOD8050165 Si02
#       6
#     4   4   4   4   4   4
#     4  10  22  40  62  90 125 160 201 252 302 356
#     4   9  21  40  60  89 124 159 203 251 301 359
#     4  10  23  39  61  92 123 161 205 248 301 360
#     4  11  23  41  64  91 123 160 204 251 302 361
#     4  10  22  41  62  89 125 160 202 250 300 357
#     4  10  21  41  65  89 122 162 201 250 306 357
#
# _framework density 21.645648000000001
#
# number of rings (size 3 to 8) (size 9 to 14) (size 15 to 20)
#    0.000    2.000    0.000    2.000    0.000   13.333 
#    0.000   10.833    0.000    0.000    0.000    0.000 
#    0.000    0.000    0.000    0.000    0.000    0.000 
#
# Total GULP energy -148812.068729 kJ/mol
# GULP energy per Si atom -12401.005727 kJ/mol
# Density = 2.159638 g / cm^3
# Si number density = 21.645648 Si / 1000 Ang^3
#
#
#
# Elastic Constant Matrix: (Units=GPa)
#
#
# Indices 1 2 3 4 5 6 
#
# 1 74.6848 57.4137 58.6857 0.0000 -6.7293 0.0000
# 2 57.4137 95.8987 59.7127 0.0000 0.2427 0.0000
# 3 58.6857 59.7127 130.1709 0.0000 -3.4833 0.0000
# 4 0.0000 0.0000 0.0000 43.8918 0.0000 3.5757
# 5 -6.7293 0.2427 -3.4833 0.0000 41.7143 0.0000
# 6 0.0000 0.0000 0.0000 3.5757 0.0000 30.1447
#
#
#
# Elastic Compliance Matrix: (Units=1/GPa)
#
#
# Indices 1 2 3 4 5 6 
#
# 1 0.029590 -0.013285 -0.007132 0.000000 0.004255 0.000000
# 2 -0.013285 0.020579 -0.003519 0.000000 -0.002557 0.000000
# 3 -0.007132 -0.003519 0.012510 0.000000 -0.000085 0.000000
# 4 0.000000 0.000000 0.000000 0.023006 0.000000 -0.002729
# 5 0.004255 -0.002557 -0.000085 0.000000 0.024667 0.000000
# 6 0.000000 0.000000 0.000000 -0.002729 0.000000 0.033497
#
#
# Mechanical properties :
#
#
# Convention : Reuss Voigt Hill
#
# Bulk Modulus (GPa) = 67.54038 72.48652 70.01345
# Shear Modulus (GPa) = 25.42496 31.47964 28.45230
#
# Velocity S-wave (km/s) = 3.43096 3.81769 3.62948
# Velocity P-wave (km/s) = 6.85316 7.27966 7.06963
#
# Compressibility (1/GPa) = 0.01480596
#
# Stress axis : x y z
#
# Youngs Moduli (GPa) = 33.79478 48.59295 79.93796
#
# Poissons Ratio (x) = 0.64557 0.57014
# Poissons Ratio (y) = 0.44897 0.28131
# Poissons Ratio (z) = 0.24103 0.17100
#
# Static dielectric constant tensor:
#      x y z
#    x 3.765710 0.000000 -0.119140 
#    y 0.000000 3.668600 0.000000 
#    z -0.119140 0.000000 4.263620 
# 
# 
# High freq. dielectric constant tensor:
#      x y z
#    x 1.836850 0.000000 -0.005190 
#    y 0.000000 1.837440 0.000000 
#    z -0.005190 0.000000 1.873560 
# 
# From -- ./inp_files/49876.got.cif
#   From: 2010.03.12/outbox.cif.g09.slc.cpg/sg5_25_cif.got.tgz:49876.got - 2010.03.31 09:47:26.
