data_PCOD8050913
_publ_section_title
;
Structure prediction by ZEFSAII (Michael W. Deem and Ramdas Pophale) SiO2 
 PCOD8050913
Probable space group: C 2
;
_chemical_formula_sum "Si O2"
_cell_formula_units_Z 24
_cell_length_a 11.156358
_cell_length_b 10.981789
_cell_length_c 22.704784
_cell_angle_alpha 90.000000
_cell_angle_beta 156.859605
_cell_angle_gamma 90.000000
_cell_volume 1093.174410
_symmetry_space_group_name_H-M "C 2"
_symmetry_group_IT_number 5
_symmetry_cell_setting 'monoclinic'
loop_
_space_group_symop_operation_xyz
x,y,z
-x,y,-z
1/2+x,1/2+y,z
1/2-x,1/2+y,-z
loop_
_atom_site_type_symbol
_atom_site_label
_atom_site_fract_x
_atom_site_fract_y
_atom_site_fract_z
Si Si1 0.596001 0.495560 0.881339
Si Si2 0.745019 0.979490 0.217604
Si Si3 0.294237 0.065152 0.671258
Si Si4 0.853864 0.152115 0.673471
Si Si5 0.806628 0.782677 0.161197
Si Si6 0.235970 0.885690 0.158344
O O1 0.411625 0.609481 0.768240
O O2 0.680436 0.409773 0.866102
O O3 0.420267 0.412752 0.849598
O O4 0.918854 0.541791 0.053557
O O5 0.769022 0.833792 0.211745
O O6 0.777724 0.994014 0.301828
O O7 0.028470 0.049266 0.317465
O O8 0.388528 0.207514 0.716236
O O9 0.000000 0.049237 0.500000
O O10 0.588542 0.010175 0.773350
O O11 0.500000 0.173385 0.500000
O O12 0.028297 0.274905 0.734456
O O13 0.500000 0.711848 0.000000
O O14 0.000000 0.857632 0.000000
#
# Coordination Sequence:
#
# PCOD8050913 Si02
#       6
#     4   4   4   4   4   4
#     4  10  22  45  73  96 129 178 233 278 328 405
#     4  10  22  46  69  97 131 176 236 272 330 410
#     4  12  26  42  62 100 141 173 218 283 344 401
#     4  11  25  44  70 102 137 177 220 287 348 399
#     4   9  21  42  70  95 123 174 228 278 330 398
#     4  12  24  44  68  99 135 179 229 277 333 408
#
# _framework density 21.954412000000001
#
# number of rings (size 3 to 8) (size 9 to 14) (size 15 to 20)
#    0.000    1.333    1.667    4.500    2.333    4.000 
#    3.000    0.000    0.000    0.000    0.000    0.000 
#    0.000    0.000    0.000    0.000    0.000    0.000 
#
# Total GULP energy -148714.791349 kJ/mol
# GULP energy per Si atom -12392.899279 kJ/mol
# Density = 2.190444 g / cm^3
# Si number density = 21.954412 Si / 1000 Ang^3
#
#
#
# Elastic Constant Matrix: (Units=GPa)
#
#
# Indices 1 2 3 4 5 6 
#
# 1 113.0618 31.3906 52.8951 0.0130 -2.4991 -0.0043
# 2 31.3906 58.1653 28.4288 0.0015 2.8586 -0.0010
# 3 52.8951 28.4288 149.3360 0.0944 2.6937 -0.0148
# 4 0.0130 0.0015 0.0944 44.4569 0.0542 14.8291
# 5 -2.4991 2.8586 2.6937 0.0542 35.6859 -0.0024
# 6 -0.0043 -0.0010 -0.0148 14.8291 -0.0024 34.4993
#
#
#
# Elastic Compliance Matrix: (Units=1/GPa)
#
#
# Indices 1 2 3 4 5 6 
#
# 1 0.011742 -0.004810 -0.003270 0.000002 0.001454 -0.000001
# 2 -0.004810 0.020983 -0.002257 0.000009 -0.001847 -0.000005
# 3 -0.003270 -0.002257 0.008296 -0.000020 -0.000674 0.000011
# 4 0.000002 0.000009 -0.000020 0.026259 -0.000040 -0.011287
# 5 0.001454 -0.001847 -0.000674 -0.000040 0.028323 0.000019
# 6 -0.000001 -0.000005 0.000011 -0.011287 0.000019 0.033838
#
#
# Mechanical properties :
#
#
# Convention : Reuss Voigt Hill
#
# Bulk Modulus (GPa) = 49.14861 60.66580 54.90720
# Shear Modulus (GPa) = 31.86809 36.78498 34.32653
#
# Velocity S-wave (km/s) = 3.81406 4.09775 3.95845
# Velocity P-wave (km/s) = 6.46772 7.07682 6.77911
#
# Compressibility (1/GPa) = 0.02034646
#
# Stress axis : x y z
#
# Youngs Moduli (GPa) = 85.16388 47.65875 120.53608
#
# Poissons Ratio (x) = 0.22926 0.39410
# Poissons Ratio (y) = 0.40967 0.27208
# Poissons Ratio (z) = 0.27845 0.10758
#
# Static dielectric constant tensor:
#      x y z
#    x 3.989720 0.000060 -0.061970 
#    y 0.000060 3.893320 0.000030 
#    z -0.061970 0.000030 4.058300 
# 
# 
# High freq. dielectric constant tensor:
#      x y z
#    x 1.871060 0.000000 0.003560 
#    y 0.000000 1.859220 0.000000 
#    z 0.003560 0.000000 1.863630 
# 
# From -- ./inp_files/68371.got.cif
#   From: 2010.03.12/outbox.cif.g09.slc.cpg/sg5_35_cif.got.tgz:68371.got - 2010.03.31 09:47:26.
