data_PCOD8050545
_publ_section_title
;
Structure prediction by ZEFSAII (Michael W. Deem and Ramdas Pophale) SiO2 
 PCOD8050545
Probable space group: C 2
;
_chemical_formula_sum "Si O2"
_cell_formula_units_Z 32
_cell_length_a 8.588654
_cell_length_b 11.417801
_cell_length_c 27.884307
_cell_angle_alpha 90.000000
_cell_angle_beta 147.286034
_cell_angle_gamma 90.000000
_cell_volume 1477.812300
_symmetry_space_group_name_H-M "C 2"
_symmetry_group_IT_number 5
_symmetry_cell_setting 'monoclinic'
loop_
_space_group_symop_operation_xyz
x,y,z
-x,y,-z
1/2+x,1/2+y,z
1/2-x,1/2+y,-z
loop_
_atom_site_type_symbol
_atom_site_label
_atom_site_fract_x
_atom_site_fract_y
_atom_site_fract_z
Si Si1 0.678651 0.575350 0.092664
Si Si2 0.474114 0.580181 0.607161
Si Si3 0.572846 0.274252 0.179936
Si Si4 0.661051 0.509640 0.906550
Si Si5 0.213683 0.818987 0.319478
Si Si6 0.690466 0.902529 0.246328
Si Si7 0.489837 0.654613 0.769123
Si Si8 0.066222 0.547754 0.589471
O O1 0.779621 0.709631 0.118324
O O2 0.471895 0.582837 0.084900
O O3 0.950231 0.489272 0.164630
O O4 0.500000 0.538170 0.000000
O O5 0.695727 0.683423 0.649750
O O6 0.652112 0.463066 0.666829
O O7 0.265462 0.600664 0.598736
O O8 0.270064 0.570581 0.507515
O O9 0.486900 0.382617 0.124220
O O10 0.720991 0.335047 0.264304
O O11 0.762852 0.167368 0.207113
O O12 0.589697 0.570315 0.837438
O O13 0.000000 0.500133 0.000000
O O14 0.903489 0.859681 0.259348
O O15 0.431471 0.906752 0.402873
O O16 0.532973 0.788187 0.222635
O O17 0.187380 0.606862 0.669445
#
# Coordination Sequence:
#
# PCOD8050545 Si02
#       8
#     4   4   4   4   4   4   4   4
#     4  12  26  48  70 102 139 179 229 288 344 411
#     4  10  22  42  67  99 139 180 233 282 346 402
#     4  12  23  46  72  99 135 185 230 276 349 409
#     4  12  28  46  70 104 140 178 231 286 346 417
#     4  11  21  42  73  94 136 189 224 285 347 403
#     4  11  25  42  69 100 140 181 229 286 344 412
#     4  12  24  44  69 102 140 181 229 286 344 412
#     4  10  22  40  67 102 134 182 232 285 338 413
#
# _framework density 21.65363
#
# number of rings (size 3 to 8) (size 9 to 14) (size 15 to 20)
#    0.000    0.750    5.000    2.625    3.500    0.500 
#    2.250    0.000    0.000    0.000    0.000    0.000 
#    0.000    0.000    0.000    0.000    0.000    0.000 
#
# Total GULP energy -198257.061294 kJ/mol
# GULP energy per Si atom -12391.066331 kJ/mol
# Density = 2.160435 g / cm^3
# Si number density = 21.653630 Si / 1000 Ang^3
#
#
#
# Elastic Constant Matrix: (Units=GPa)
#
#
# Indices 1 2 3 4 5 6 
#
# 1 89.5602 21.0630 31.2609 -0.0001 -8.0109 0.0000
# 2 21.0630 104.8513 36.0916 0.0000 -3.0886 0.0000
# 3 31.2609 36.0916 149.5473 0.0005 -17.2168 0.0001
# 4 -0.0001 0.0000 0.0005 26.7176 -0.0001 5.0841
# 5 -8.0109 -3.0886 -17.2168 -0.0001 26.7147 0.0000
# 6 0.0000 0.0000 0.0001 5.0841 0.0000 39.4290
#
#
#
# Elastic Compliance Matrix: (Units=1/GPa)
#
#
# Indices 1 2 3 4 5 6 
#
# 1 0.012456 -0.001777 -0.001910 0.000000 0.002299 0.000000
# 2 -0.001777 0.010660 -0.002291 0.000000 -0.000777 0.000000
# 3 -0.001910 -0.002291 0.008147 0.000000 0.004413 0.000000
# 4 0.000000 0.000000 0.000000 0.038370 0.000000 -0.004948
# 5 0.002299 -0.000777 0.004413 0.000000 0.040876 0.000000
# 6 0.000000 0.000000 0.000000 -0.004948 0.000000 0.026000
#
#
# Mechanical properties :
#
#
# Convention : Reuss Voigt Hill
#
# Bulk Modulus (GPa) = 51.79423 57.86553 54.82988
# Shear Modulus (GPa) = 32.27883 35.60847 33.94365
#
# Velocity S-wave (km/s) = 3.86513 4.05959 3.96355
# Velocity P-wave (km/s) = 6.62498 6.98247 6.80607
#
# Compressibility (1/GPa) = 0.01930717
#
# Stress axis : x y z
#
# Youngs Moduli (GPa) = 80.28279 93.80983 122.74433
#
# Poissons Ratio (x) = 0.16670 0.23448
# Poissons Ratio (y) = 0.14266 0.28116
# Poissons Ratio (z) = 0.15336 0.21488
#
# Static dielectric constant tensor:
#      x y z
#    x 3.936720 0.000000 0.024240 
#    y 0.000000 4.092390 0.000000 
#    z 0.024240 0.000000 4.121110 
# 
# 
# High freq. dielectric constant tensor:
#      x y z
#    x 1.841450 0.000000 0.000300 
#    y 0.000000 1.861660 0.000000 
#    z 0.000300 0.000000 1.857820 
# 
# From -- ./inp_files/71594.got.cif
#   From: 2010.03.12/outbox.cif.g09.slc.cpg/sg5_36_cif.got.tgz:71594.got - 2010.03.31 09:47:26.
