data_PCOD8050498
_publ_section_title
;
Structure prediction by ZEFSAII (Michael W. Deem and Ramdas Pophale) SiO2 
 PCOD8050498
Probable space group: C 2
;
_chemical_formula_sum "Si O2"
_cell_formula_units_Z 30
_cell_length_a 9.417231
_cell_length_b 10.531940
_cell_length_c 24.314173
_cell_angle_alpha 90.000000
_cell_angle_beta 145.467108
_cell_angle_gamma 90.000000
_cell_volume 1367.041393
_symmetry_space_group_name_H-M "C 2"
_symmetry_group_IT_number 5
_symmetry_cell_setting 'monoclinic'
loop_
_space_group_symop_operation_xyz
x,y,z
-x,y,-z
1/2+x,1/2+y,z
1/2-x,1/2+y,-z
loop_
_atom_site_type_symbol
_atom_site_label
_atom_site_fract_x
_atom_site_fract_y
_atom_site_fract_z
Si Si1 0.214325 0.894720 0.526655
Si Si2 0.679477 0.886149 0.742546
Si Si3 0.008712 0.052594 0.225527
Si Si4 0.153282 0.201711 0.931291
Si Si5 0.200644 0.593609 0.832362
Si Si6 0.000000 0.911912 0.000000
Si Si7 0.920924 0.642098 0.850985
Si Si8 0.480652 0.134258 0.559030
O O1 0.439961 0.834310 0.634120
O O2 0.000000 0.939999 0.500000
O O3 0.126888 0.775480 0.460414
O O4 0.300687 0.018915 0.520594
O O5 0.590463 0.016636 0.744917
O O6 0.785636 0.778580 0.817233
O O7 0.897731 0.917497 0.767536
O O8 0.247957 0.127833 0.325837
O O9 0.864848 0.123863 0.130514
O O10 0.790057 0.036345 0.201670
O O11 0.266824 0.336604 0.951806
O O12 0.336034 0.130780 0.033238
O O13 0.872435 0.213757 0.867841
O O14 0.987966 0.630345 0.807849
O O15 0.402212 0.496158 0.919746
O O16 0.500000 0.122694 0.500000
#
# Coordination Sequence:
#
# PCOD8050498 Si02
#       8
#     4   4   4   4   4   2   4   4
#     4  10  22  41  67  94 124 167 202 262 322 378
#     4  10  23  41  60  90 125 156 202 254 306 364
#     4  10  22  40  62  89 122 161 202 254 307 367
#     4  11  21  38  59  85 119 161 203 242 294 356
#     4  11  24  38  57  89 119 156 212 246 290 356
#     4  12  20  36  58  78 116 160 198 246 294 340
#     4  12  20  38  62  86 121 164 201 248 294 361
#     4  10  22  42  67  94 127 159 212 259 320 379
#
# _framework density 21.945201999999998
#
# number of rings (size 3 to 8) (size 9 to 14) (size 15 to 20)
#    0.000    1.333    4.000    1.600    0.000    3.733 
#    0.000    8.000    0.000    0.000    0.000    0.000 
#    0.000    0.000    0.000    0.000    0.000    0.000 
#
# Total GULP energy -185889.182296 kJ/mol
# GULP energy per Si atom -12392.612153 kJ/mol
# Density = 2.189525 g / cm^3
# Si number density = 21.945202 Si / 1000 Ang^3
#
#
#
# Elastic Constant Matrix: (Units=GPa)
#
#
# Indices 1 2 3 4 5 6 
#
# 1 137.8298 31.0832 16.3370 0.0000 14.2753 0.0000
# 2 31.0832 67.6497 14.2659 0.0000 6.0297 0.0000
# 3 16.3370 14.2659 82.2499 -0.0001 3.4541 -0.0002
# 4 0.0000 0.0000 -0.0001 29.6077 0.0000 -4.7928
# 5 14.2753 6.0297 3.4541 0.0000 25.3786 0.0000
# 6 0.0000 0.0000 -0.0002 -4.7928 0.0000 18.6853
#
#
#
# Elastic Compliance Matrix: (Units=1/GPa)
#
#
# Indices 1 2 3 4 5 6 
#
# 1 0.008529 -0.003375 -0.000946 0.000000 -0.003867 0.000000
# 2 -0.003375 0.016959 -0.002194 0.000000 -0.001832 0.000000
# 3 -0.000946 -0.002194 0.012755 0.000000 -0.000682 0.000000
# 4 0.000000 0.000000 0.000000 0.035238 0.000000 0.009039
# 5 -0.003867 -0.001832 -0.000682 0.000000 0.042107 0.000000
# 6 0.000000 0.000000 0.000000 0.009039 0.000000 0.055836
#
#
# Mechanical properties :
#
#
# Convention : Reuss Voigt Hill
#
# Bulk Modulus (GPa) = 39.66272 45.67793 42.67032
# Shear Modulus (GPa) = 25.92572 29.80387 27.86480
#
# Velocity S-wave (km/s) = 3.44086 3.68924 3.56721
# Velocity P-wave (km/s) = 5.82226 6.24557 6.03763
#
# Compressibility (1/GPa) = 0.02521259
#
# Stress axis : x y z
#
# Youngs Moduli (GPa) = 117.24625 58.96710 78.39894
#
# Poissons Ratio (x) = 0.19899 0.07420
# Poissons Ratio (y) = 0.39566 0.17202
# Poissons Ratio (z) = 0.11096 0.12938
#
# Static dielectric constant tensor:
#      x y z
#    x 4.180440 0.000000 0.122830 
#    y 0.000000 3.845630 0.000000 
#    z 0.122830 0.000000 4.119370 
# 
# 
# High freq. dielectric constant tensor:
#      x y z
#    x 1.869750 0.000000 0.003240 
#    y 0.000000 1.845780 0.000000 
#    z 0.003240 0.000000 1.866770 
# 
# From -- ./inp_files/67966.got.cif
#   From: 2010.03.12/outbox.cif.g09.slc.cpg/sg5_34_cif.got.tgz:67966.got - 2010.03.31 09:47:26.
