data_PCOD8050830
_publ_section_title
;
Structure prediction by ZEFSAII (Michael W. Deem and Ramdas Pophale) SiO2 
 PCOD8050830
Probable space group: C 2
;
_chemical_formula_sum "Si O2"
_cell_formula_units_Z 30
_cell_length_a 11.214323
_cell_length_b 8.533147
_cell_length_c 19.163414
_cell_angle_alpha 90.000000
_cell_angle_beta 135.279228
_cell_angle_gamma 90.000000
_cell_volume 1290.367191
_symmetry_space_group_name_H-M "C 2"
_symmetry_group_IT_number 5
_symmetry_cell_setting 'monoclinic'
loop_
_space_group_symop_operation_xyz
x,y,z
-x,y,-z
1/2+x,1/2+y,z
1/2-x,1/2+y,-z
loop_
_atom_site_type_symbol
_atom_site_label
_atom_site_fract_x
_atom_site_fract_y
_atom_site_fract_z
Si Si1 0.233987 0.452060 0.427136
Si Si2 0.066587 0.634368 0.674376
Si Si3 0.500000 0.241342 0.500000
Si Si4 0.079067 0.949489 0.753641
Si Si5 0.478780 0.682176 0.602951
Si Si6 0.440656 0.224547 0.053362
Si Si7 0.706552 0.359556 0.271017
Si Si8 0.345591 0.890647 0.979825
O O1 0.331426 0.345190 0.410988
O O2 0.391252 0.538040 0.529032
O O3 0.086570 0.569016 0.338714
O O4 0.147610 0.327355 0.443133
O O5 0.977826 0.638589 0.560468
O O6 0.133313 0.801684 0.727917
O O7 0.218123 0.510053 0.738786
O O8 0.213020 0.966787 0.870901
O O9 0.891030 0.918430 0.702513
O O10 0.061889 0.116404 0.709056
O O11 0.647280 0.747822 0.634923
O O12 0.584772 0.271717 0.167000
O O13 0.255659 0.288009 0.004289
O O14 0.500000 0.280754 0.000000
O O15 0.432084 0.036877 0.054586
O O16 0.500000 0.803123 0.000000
#
# Coordination Sequence:
#
# PCOD8050830 Si02
#       8
#     4   4   2   4   4   4   4   4
#     4  11  23  38  60  87 120 168 212 263 312 373
#     4  11  25  42  61  93 126 168 219 264 318 378
#     4  12  22  40  62  86 122 166 214 260 314 364
#     4  11  23  43  65  95 129 166 219 267 325 391
#     4  11  20  42  59  87 127 163 215 265 316 376
#     4  10  22  44  67 101 133 171 218 269 340 400
#     4  10  25  41  66  94 129 171 209 273 327 386
#     4  10  23  42  69  99 133 172 215 273 336 403
#
# _framework density 23.249196000000001
#
# number of rings (size 3 to 8) (size 9 to 14) (size 15 to 20)
#    0.000    1.333    2.667    2.400    1.867    4.800 
#    0.000    2.667    0.000    0.000    0.000    0.000 
#    0.000    0.000    0.000    0.000    0.000    0.000 
#
# Total GULP energy -185837.656021 kJ/mol
# GULP energy per Si atom -12389.177068 kJ/mol
# Density = 2.319628 g / cm^3
# Si number density = 23.249196 Si / 1000 Ang^3
#
#
#
# Elastic Constant Matrix: (Units=GPa)
#
#
# Indices 1 2 3 4 5 6 
#
# 1 121.7217 17.5311 10.1959 0.0000 33.6197 0.0000
# 2 17.5311 82.6478 17.0642 0.0000 14.3024 0.0000
# 3 10.1959 17.0642 46.5666 0.0000 17.3134 0.0000
# 4 0.0000 0.0000 0.0000 37.8785 0.0000 10.8919
# 5 33.6197 14.3024 17.3134 0.0000 35.9835 0.0000
# 6 0.0000 0.0000 0.0000 10.8919 0.0000 25.8918
#
#
#
# Elastic Compliance Matrix: (Units=1/GPa)
#
#
# Indices 1 2 3 4 5 6 
#
# 1 0.011245 -0.000872 0.001991 0.000000 -0.011118 0.000000
# 2 -0.000872 0.013535 -0.003741 0.000000 -0.002765 0.000000
# 3 0.001991 -0.003741 0.027461 0.000000 -0.013586 0.000000
# 4 0.000000 0.000000 0.000000 0.030033 0.000000 -0.012634
# 5 -0.011118 -0.002765 -0.013586 0.000000 0.045814 0.000000
# 6 0.000000 0.000000 0.000000 -0.012634 0.000000 0.043937
#
#
# Mechanical properties :
#
#
# Convention : Reuss Voigt Hill
#
# Bulk Modulus (GPa) = 21.27817 37.83536 29.55677
# Shear Modulus (GPa) = 25.91541 33.69376 29.80459
#
# Velocity S-wave (km/s) = 3.34230 3.81102 3.58433
# Velocity P-wave (km/s) = 4.90579 5.97280 5.46540
#
# Compressibility (1/GPa) = 0.04699652
#
# Stress axis : x y z
#
# Youngs Moduli (GPa) = 88.92833 73.87996 36.41548
#
# Poissons Ratio (x) = 0.06446 -0.07251
# Poissons Ratio (y) = 0.07758 0.13623
# Poissons Ratio (z) = -0.17706 0.27639
#
# Static dielectric constant tensor:
#      x y z
#    x 4.592430 0.000000 0.433520 
#    y 0.000000 4.288890 0.000000 
#    z 0.433520 0.000000 3.944100 
# 
# 
# High freq. dielectric constant tensor:
#      x y z
#    x 1.931440 0.000000 0.030420 
#    y 0.000000 1.925370 0.000000 
#    z 0.030420 0.000000 1.902290 
# 
# From -- ./inp_files/68294.got.cif
#   From: 2010.03.12/outbox.cif.g09.slc.cpg/sg5_35_cif.got.tgz:68294.got - 2010.03.31 09:47:26.
