data_PCOD8050138
_publ_section_title
;
Structure prediction by ZEFSAII (Michael W. Deem and Ramdas Pophale) SiO2 
 PCOD8050138
Probable space group: C 2
;
_chemical_formula_sum "Si O2"
_cell_formula_units_Z 28
_cell_length_a 8.552371
_cell_length_b 12.204984
_cell_length_c 14.091847
_cell_angle_alpha 90.000000
_cell_angle_beta 108.906972
_cell_angle_gamma 90.000000
_cell_volume 1391.566260
_symmetry_space_group_name_H-M "C 2"
_symmetry_group_IT_number 5
_symmetry_cell_setting 'monoclinic'
loop_
_space_group_symop_operation_xyz
x,y,z
-x,y,-z
1/2+x,1/2+y,z
1/2-x,1/2+y,-z
loop_
_atom_site_type_symbol
_atom_site_label
_atom_site_fract_x
_atom_site_fract_y
_atom_site_fract_z
Si Si1 0.358318 0.651940 0.604176
Si Si2 0.971222 0.895852 0.105221
Si Si3 0.001779 0.658189 0.814284
Si Si4 0.875884 0.458059 0.896415
Si Si5 0.609021 0.886805 0.307434
Si Si6 0.781140 0.506820 0.262334
Si Si7 0.276879 0.607666 0.376767
O O1 0.330029 0.772199 0.640593
O O2 0.260046 0.563096 0.646023
O O3 0.283651 0.651764 0.484589
O O4 0.551313 0.623699 0.643696
O O5 0.941469 0.770894 0.129329
O O6 0.808525 0.963371 0.099489
O O7 0.123526 0.945079 0.191501
O O8 0.000000 0.904773 0.000000
O O9 0.161933 0.598266 0.802164
O O10 0.922986 0.582730 0.880507
O O11 0.865618 0.675916 0.704788
O O12 0.891048 0.380810 0.807056
O O13 0.000000 0.410321 0.000000
O O14 0.425976 0.918029 0.308669
O O15 0.738062 0.978378 0.368001
#
# Coordination Sequence:
#
# PCOD8050138 Si02
#       7
#     4   4   4   4   4   4   4
#     4  11  21  39  61  85 117 156 192 236 290 340
#     4  12  23  37  62  88 113 155 195 231 290 347
#     4  10  22  41  58  84 120 152 189 243 290 333
#     4  10  21  41  60  83 120 150 189 244 286 338
#     4  10  22  40  59  85 119 152 190 241 290 335
#     4  10  22  38  60  87 114 151 199 237 279 347
#     4   9  22  38  58  87 118 151 194 239 286 341
#
# _framework density 20.121210999999999
#
# number of rings (size 3 to 8) (size 9 to 14) (size 15 to 20)
#    0.000    2.000    0.000    5.571    0.000    5.714 
#    0.000   11.429    0.000    0.000    0.000    0.000 
#    0.000    0.000    0.000    0.000    0.000    0.000 
#
# Total GULP energy -173648.806975 kJ/mol
# GULP energy per Si atom -12403.486212 kJ/mol
# Density = 2.007541 g / cm^3
# Si number density = 20.121211 Si / 1000 Ang^3
#
#
#
# Elastic Constant Matrix: (Units=GPa)
#
#
# Indices 1 2 3 4 5 6 
#
# 1 78.0265 21.5326 13.1618 0.0000 -14.8771 0.0000
# 2 21.5326 64.6129 38.9068 0.0000 -7.5268 0.0000
# 3 13.1618 38.9068 98.2827 0.0000 -12.5098 0.0000
# 4 0.0000 0.0000 0.0000 22.7022 0.0000 -1.9556
# 5 -14.8771 -7.5268 -12.5098 0.0000 32.0576 0.0000
# 6 0.0000 0.0000 0.0000 -1.9556 0.0000 17.9603
#
#
#
# Elastic Compliance Matrix: (Units=1/GPa)
#
#
# Indices 1 2 3 4 5 6 
#
# 1 0.015192 -0.004715 0.000619 0.000000 0.006185 0.000000
# 2 -0.004715 0.021874 -0.008053 0.000000 -0.000195 0.000000
# 3 0.000619 -0.008053 0.013759 0.000000 0.003766 0.000000
# 4 0.000000 0.000000 0.000000 0.044466 0.000000 0.004842
# 5 0.006185 -0.000195 0.003766 0.000000 0.035488 0.000000
# 6 0.000000 0.000000 0.000000 0.004842 0.000000 0.056206
#
#
# Mechanical properties :
#
#
# Convention : Reuss Voigt Hill
#
# Bulk Modulus (GPa) = 37.69567 43.12494 40.41030
# Shear Modulus (GPa) = 22.71438 25.69875 24.20656
#
# Velocity S-wave (km/s) = 3.36352 3.57767 3.47225
# Velocity P-wave (km/s) = 5.81888 6.20849 6.01684
#
# Compressibility (1/GPa) = 0.02652825
#
# Stress axis : x y z
#
# Youngs Moduli (GPa) = 65.82315 45.71535 72.68021
#
# Poissons Ratio (x) = 0.21557 -0.04502
# Poissons Ratio (y) = 0.31038 0.58527
# Poissons Ratio (z) = -0.04077 0.36813
#
# Static dielectric constant tensor:
#      x y z
#    x 3.801410 0.000000 -0.055560 
#    y 0.000000 3.527540 0.000000 
#    z -0.055560 0.000000 3.699780 
# 
# 
# High freq. dielectric constant tensor:
#      x y z
#    x 1.798960 0.000000 -0.004570 
#    y 0.000000 1.777000 0.000000 
#    z -0.004570 0.000000 1.792290 
# 
# From -- ./inp_files/50335.got.cif
#   From: 2010.03.12/outbox.cif.g09.slc.cpg/sg5_26_cif.got.tgz:50335.got - 2010.03.31 09:47:26.
