data_PCOD8050090
_publ_section_title
;
Structure prediction by ZEFSAII (Michael W. Deem and Ramdas Pophale) SiO2 
 PCOD8050090
Probable space group: C 2
;
_chemical_formula_sum "Si O2"
_cell_formula_units_Z 32
_cell_length_a 26.447745
_cell_length_b 8.654540
_cell_length_c 20.045729
_cell_angle_alpha 90.000000
_cell_angle_beta 19.554454
_cell_angle_gamma 90.000000
_cell_volume 1535.725425
_symmetry_space_group_name_H-M "C 2"
_symmetry_group_IT_number 5
_symmetry_cell_setting 'monoclinic'
loop_
_space_group_symop_operation_xyz
x,y,z
-x,y,-z
1/2+x,1/2+y,z
1/2-x,1/2+y,-z
loop_
_atom_site_type_symbol
_atom_site_label
_atom_site_fract_x
_atom_site_fract_y
_atom_site_fract_z
Si Si1 0.129668 0.338360 0.145316
Si Si2 0.163170 0.511948 0.804390
Si Si3 0.587735 0.711793 0.690533
Si Si4 0.810355 0.891520 0.490762
Si Si5 0.614118 0.072453 0.417614
Si Si6 0.052057 0.695836 0.257925
Si Si7 0.424299 0.708873 0.025913
Si Si8 0.561050 0.734180 0.499624
O O1 0.107816 0.521032 0.180447
O O2 0.044060 0.296616 0.184505
O O3 0.075666 0.232819 0.275981
O O4 0.305452 0.308374 0.913692
O O5 0.200242 0.410712 0.691821
O O6 0.126503 0.387919 0.907746
O O7 0.305579 0.614741 0.648653
O O8 0.000000 0.603083 0.000000
O O9 0.726615 0.830500 0.528254
O O10 0.629464 0.561862 0.597158
O O11 0.540251 0.667598 0.823846
O O12 0.945193 0.767709 0.333794
O O13 0.500000 0.060545 0.500000
O O14 0.550768 0.199941 0.547794
O O15 0.777413 0.113694 0.188557
O O16 0.632635 0.901174 0.424133
O O17 0.500000 0.649643 0.000000
O O18 0.500000 0.704481 0.500000
#
# Coordination Sequence:
#
# PCOD8050090 Si02
#       8
#     4   4   4   4   4   4   4   4
#     4  11  24  41  66 102 135 181 231 283 349 415
#     4  11  22  46  69  98 137 177 235 287 340 416
#     4  12  24  43  68  98 137 178 232 289 350 414
#     4  12  24  45  66  98 137 180 231 294 351 413
#     4  10  21  40  64  95 130 175 225 277 342 409
#     4  11  23  42  67  93 137 179 225 286 349 413
#     4  11  22  41  67  92 128 175 228 277 340 416
#     4  10  24  44  65  96 140 177 226 288 343 410
#
# _framework density 20.837060000000001
#
# number of rings (size 3 to 8) (size 9 to 14) (size 15 to 20)
#    0.000    1.000    5.000    2.250    0.000    5.000 
#    4.500    0.000    0.000    0.000    0.000    0.000 
#    0.000    0.000    0.000    0.000    0.000    0.000 
#
# Total GULP energy -198309.512956 kJ/mol
# GULP energy per Si atom -12394.344560 kJ/mol
# Density = 2.078963 g / cm^3
# Si number density = 20.837060 Si / 1000 Ang^3
#
#
#
# Elastic Constant Matrix: (Units=GPa)
#
#
# Indices 1 2 3 4 5 6 
#
# 1 86.4654 16.2403 22.8159 -0.0005 -10.8510 0.0001
# 2 16.2403 58.7659 32.4787 0.0005 -7.4253 0.0003
# 3 22.8159 32.4787 82.3734 -0.0008 -19.8404 0.0002
# 4 -0.0005 0.0005 -0.0008 44.9275 0.0000 -9.1815
# 5 -10.8510 -7.4253 -19.8404 0.0000 34.7725 -0.0001
# 6 0.0001 0.0003 0.0002 -9.1815 -0.0001 35.1326
#
#
#
# Elastic Compliance Matrix: (Units=1/GPa)
#
#
# Indices 1 2 3 4 5 6 
#
# 1 0.012816 -0.002040 -0.002188 0.000000 0.002315 0.000000
# 2 -0.002040 0.022085 -0.008301 0.000000 -0.000657 0.000000
# 3 -0.002188 -0.008301 0.017885 0.000000 0.007750 0.000000
# 4 0.000000 0.000000 0.000000 0.023514 0.000000 0.006145
# 5 0.002315 -0.000657 0.007750 0.000000 0.033762 0.000000
# 6 0.000000 0.000000 0.000000 0.006145 0.000000 0.030070
#
#
# Mechanical properties :
#
#
# Convention : Reuss Voigt Hill
#
# Bulk Modulus (GPa) = 36.06329 41.18607 38.62468
# Shear Modulus (GPa) = 28.66411 33.37115 31.01763
#
# Velocity S-wave (km/s) = 3.71297 4.00625 3.86240
# Velocity P-wave (km/s) = 5.97716 6.41940 6.20222
#
# Compressibility (1/GPa) = 0.02772903
#
# Stress axis : x y z
#
# Youngs Moduli (GPa) = 78.02504 45.27892 55.91152
#
# Poissons Ratio (x) = 0.09238 0.12232
# Poissons Ratio (y) = 0.15918 0.46413
# Poissons Ratio (z) = 0.17070 0.37586
#
# Static dielectric constant tensor:
#      x y z
#    x 3.724940 0.000000 0.006300 
#    y 0.000000 3.819250 0.000000 
#    z 0.006300 0.000000 3.939720 
# 
# 
# High freq. dielectric constant tensor:
#      x y z
#    x 1.815200 0.000000 -0.007360 
#    y 0.000000 1.811350 0.000000 
#    z -0.007360 0.000000 1.831240 
# 
# From -- ./inp_files/67573.got.cif
#   From: 2010.03.12/outbox.cif.g09.slc.cpg/sg5_34_cif.got.tgz:67573.got - 2010.03.31 09:47:26.
