data_PCOD8050189
_publ_section_title
;
Structure prediction by ZEFSAII (Michael W. Deem and Ramdas Pophale) SiO2 
 PCOD8050189
Probable space group: C 2
;
_chemical_formula_sum "Si O2"
_cell_formula_units_Z 28
_cell_length_a 5.294366
_cell_length_b 30.280566
_cell_length_c 9.218428
_cell_angle_alpha 90.000000
_cell_angle_beta 109.936785
_cell_angle_gamma 90.000000
_cell_volume 1389.295840
_symmetry_space_group_name_H-M "C 2"
_symmetry_group_IT_number 5
_symmetry_cell_setting 'monoclinic'
loop_
_space_group_symop_operation_xyz
x,y,z
-x,y,-z
1/2+x,1/2+y,z
1/2-x,1/2+y,-z
loop_
_atom_site_type_symbol
_atom_site_label
_atom_site_fract_x
_atom_site_fract_y
_atom_site_fract_z
Si Si1 0.102285 0.103470 0.866946
Si Si2 0.772116 0.233346 0.833606
Si Si3 0.694325 0.949067 0.915738
Si Si4 0.000000 0.678909 0.000000
Si Si5 0.688586 0.662099 0.396771
Si Si6 0.609267 0.878378 0.679975
Si Si7 0.000000 0.533685 0.000000
Si Si8 0.387181 0.326484 0.317890
O O1 0.237904 0.150050 0.926182
O O2 0.880080 0.115882 0.702424
O O3 0.309512 0.064733 0.861047
O O4 0.000000 0.084864 0.000000
O O5 0.525716 0.207604 0.859619
O O6 0.867861 0.205451 0.712400
O O7 0.652785 0.279900 0.765220
O O8 0.000000 0.239311 0.000000
O O9 0.621078 0.927699 0.747453
O O10 0.500000 0.927417 0.000000
O O11 0.000000 0.936077 0.000000
O O12 0.654855 0.002404 0.913338
O O13 0.500000 0.665918 0.500000
O O14 0.000000 0.659181 0.500000
O O15 0.500000 0.885657 0.500000
O O16 0.402513 0.849730 0.734454
O O17 0.900489 0.854871 0.734840
O O18 0.500000 0.318537 0.500000
#
# Coordination Sequence:
#
# PCOD8050189 Si02
#       8
#     4   4   4   2   4   4   2   4
#     4  11  21  42  70  88 132 173 217 268 323 399
#     4  12  25  41  63  94 133 175 230 272 318 376
#     4  10  21  41  67  99 124 155 214 262 322 388
#     4  11  20  40  62  94 122 176 228 262 326 371
#     4  12  26  42  66  96 132 180 224 270 327 384
#     4  10  22  43  67  91 130 174 206 254 333 393
#     4   9  24  38  74  94 128 162 222 264 338 375
#     4  10  24  41  62  94 131 173 214 265 319 377
#
# _framework density 20.154093
#
# number of rings (size 3 to 8) (size 9 to 14) (size 15 to 20)
#    0.429    0.857    2.857    2.571    4.000    3.429 
#    0.000    0.000    6.286    0.000    0.000    0.000 
#    0.000    0.000    0.000    0.000    0.000    0.000 
#
# Total GULP energy -173507.415908 kJ/mol
# GULP energy per Si atom -12393.386851 kJ/mol
# Density = 2.010822 g / cm^3
# Si number density = 20.154093 Si / 1000 Ang^3
#
#
#
# Elastic Constant Matrix: (Units=GPa)
#
#
# Indices 1 2 3 4 5 6 
#
# 1 143.1701 45.2759 48.5591 0.0000 -5.5944 0.0000
# 2 45.2759 136.7238 60.4742 0.0000 -1.5674 0.0000
# 3 48.5591 60.4742 86.0677 0.0000 -2.7003 0.0000
# 4 0.0000 0.0000 0.0000 22.9618 0.0000 -10.3329
# 5 -5.5944 -1.5674 -2.7003 0.0000 33.6403 0.0000
# 6 0.0000 0.0000 0.0000 -10.3329 0.0000 -28.9187
#
#
#
# Elastic Compliance Matrix: (Units=1/GPa)
#
#
# Indices 1 2 3 4 5 6 
#
# 1 0.008776 -0.001043 -0.004185 0.000000 0.001075 0.000000
# 2 -0.001043 0.010736 -0.006963 0.000000 -0.000232 0.000000
# 3 -0.004185 -0.006963 0.018888 0.000000 0.000496 0.000000
# 4 0.000000 0.000000 0.000000 0.037518 0.000000 -0.013405
# 5 0.001075 -0.000232 0.000496 0.000000 0.029934 0.000000
# 6 0.000000 0.000000 0.000000 -0.013405 0.000000 -0.029790
#
#
# Mechanical properties :
#
#
# Convention : Reuss Voigt Hill
#
# Bulk Modulus (GPa) = 71.33107 74.95334 73.14221
# Shear Modulus (GPa) = 47.56660 19.64684 33.60672
#
# Velocity S-wave (km/s) = 4.86340 3.12562 4.08792
# Velocity P-wave (km/s) = 8.18576 7.09203 7.65844
#
# Compressibility (1/GPa) = 0.01401914
#
# Stress axis : x y z
#
# Youngs Moduli (GPa) = 113.94901 93.14176 52.94473
#
# Poissons Ratio (x) = 0.09713 0.22157
# Poissons Ratio (y) = 0.11882 0.36864
# Poissons Ratio (z) = 0.47686 0.64852
#
# Static dielectric constant tensor:
#      x y z
#    x 3.908820 0.000000 -0.000340 
#    y 0.000000 3.524050 0.000000 
#    z -0.000340 0.000000 3.696550 
# 
# 
# High freq. dielectric constant tensor:
#      x y z
#    x 1.806670 0.000000 0.002130 
#    y 0.000000 1.780740 0.000000 
#    z 0.002130 0.000000 1.772690 
# 
# From -- ./inp_files/13227.got.cif
#   From: 2010.03.12/outbox.cif.g09.slc.cpg/sg5_7_cif.got.tgz:13227.got - 2010.03.31 09:47:26.
