data_PCOD8050248
_publ_section_title
;
Structure prediction by ZEFSAII (Michael W. Deem and Ramdas Pophale) SiO2 
 PCOD8050248
Probable space group: C 2
;
_chemical_formula_sum "Si O2"
_cell_formula_units_Z 28
_cell_length_a 15.049258
_cell_length_b 8.228488
_cell_length_c 11.433472
_cell_angle_alpha 90.000000
_cell_angle_beta 116.511170
_cell_angle_gamma 90.000000
_cell_volume 1266.958005
_symmetry_space_group_name_H-M "C 2"
_symmetry_group_IT_number 5
_symmetry_cell_setting 'monoclinic'
loop_
_space_group_symop_operation_xyz
x,y,z
-x,y,-z
1/2+x,1/2+y,z
1/2-x,1/2+y,-z
loop_
_atom_site_type_symbol
_atom_site_label
_atom_site_fract_x
_atom_site_fract_y
_atom_site_fract_z
Si Si1 0.602931 0.136490 0.173724
Si Si2 0.779079 0.189887 0.646029
Si Si3 0.707002 0.548696 0.594666
Si Si4 0.519995 0.857494 0.265220
Si Si5 0.000000 0.921088 0.000000
Si Si6 0.800031 0.096905 0.901298
Si Si7 0.847863 0.428137 0.010687
Si Si8 0.500000 0.719780 0.500000
O O1 0.720634 0.144637 0.272432
O O2 0.549760 0.311030 0.132134
O O3 0.552112 0.041077 0.251268
O O4 0.592957 0.050415 0.039997
O O5 0.713705 0.354117 0.611795
O O6 0.757276 0.091611 0.515450
O O7 0.895957 0.231837 0.725291
O O8 0.760236 0.067848 0.744940
O O9 0.595486 0.603161 0.556764
O O10 0.420902 0.822127 0.134937
O O11 0.499920 0.841660 0.390696
O O12 0.089667 0.031032 0.005011
O O13 0.727526 0.024833 0.953679
O O14 0.792650 0.292862 0.902146
#
# Coordination Sequence:
#
# PCOD8050248 Si02
#       8
#     4   4   4   4   2   4   4   2
#     4  11  23  46  70  97 140 186 228 292 356 423
#     4  10  23  46  71  96 137 192 226 290 351 424
#     4  10  23  45  69 102 139 180 235 284 355 419
#     4  10  21  42  70  92 141 177 230 276 363 402
#     4  12  26  42  70 104 134 186 240 280 364 418
#     4  12  27  42  67 105 140 184 238 291 353 422
#     4  12  24  43  67 101 142 182 228 296 351 418
#     4  10  24  40  74 110 132 188 232 298 344 426
#
# _framework density 22.100179000000001
#
# number of rings (size 3 to 8) (size 9 to 14) (size 15 to 20)
#    0.000    1.143    4.286    1.714    6.000    2.286 
#    0.000    2.857    0.000    0.000    0.000    0.000 
#    0.000    0.000    0.000    0.000    0.000    0.000 
#
# Total GULP energy -173578.792166 kJ/mol
# GULP energy per Si atom -12398.485155 kJ/mol
# Density = 2.204988 g / cm^3
# Si number density = 22.100179 Si / 1000 Ang^3
#
#
#
# Elastic Constant Matrix: (Units=GPa)
#
#
# Indices 1 2 3 4 5 6 
#
# 1 126.0434 46.7501 54.9843 0.0000 -16.0315 0.0000
# 2 46.7501 91.7640 30.2732 0.0000 -10.3382 0.0000
# 3 54.9843 30.2732 114.3267 0.0000 -11.2390 0.0000
# 4 0.0000 0.0000 0.0000 45.0814 0.0000 0.3364
# 5 -16.0315 -10.3382 -11.2390 0.0000 38.5158 0.0000
# 6 0.0000 0.0000 0.0000 0.3364 0.0000 28.9516
#
#
#
# Elastic Compliance Matrix: (Units=1/GPa)
#
#
# Indices 1 2 3 4 5 6 
#
# 1 0.011686 -0.004274 -0.004245 0.000000 0.002478 0.000000
# 2 -0.004274 0.013714 -0.001430 0.000000 0.001485 0.000000
# 3 -0.004245 -0.001430 0.011279 0.000000 0.001141 0.000000
# 4 0.000000 0.000000 0.000000 0.022184 0.000000 -0.000258
# 5 0.002478 0.001485 0.001141 0.000000 0.027726 0.000000
# 6 0.000000 0.000000 0.000000 -0.000258 0.000000 0.034543
#
#
# Mechanical properties :
#
#
# Convention : Reuss Voigt Hill
#
# Bulk Modulus (GPa) = 59.58921 66.23882 62.91401
# Shear Modulus (GPa) = 34.10080 35.85153 34.97616
#
# Velocity S-wave (km/s) = 3.93238 4.03206 3.98253
# Velocity P-wave (km/s) = 6.90217 7.19123 7.04818
#
# Compressibility (1/GPa) = 0.01678156
#
# Stress axis : x y z
#
# Youngs Moduli (GPa) = 85.57273 72.91855 88.65891
#
# Poissons Ratio (x) = 0.31165 0.37635
# Poissons Ratio (y) = 0.36573 0.12677
# Poissons Ratio (z) = 0.36325 0.10427
#
# Static dielectric constant tensor:
#      x y z
#    x 3.920110 0.000000 0.071440 
#    y 0.000000 3.783990 0.000000 
#    z 0.071440 0.000000 4.344800 
# 
# 
# High freq. dielectric constant tensor:
#      x y z
#    x 1.864470 0.000000 0.003810 
#    y 0.000000 1.859200 0.000000 
#    z 0.003810 0.000000 1.884610 
# 
# From -- ./inp_files/41796.got.cif
#   From: 2010.03.12/outbox.cif.g09.slc.cpg/sg5_21_cif.got.tgz:41796.got - 2010.03.31 09:47:26.
