data_PCOD8050623
_publ_section_title
;
Structure prediction by ZEFSAII (Michael W. Deem and Ramdas Pophale) SiO2 
 PCOD8050623
Probable space group: C 2
;
_chemical_formula_sum "Si O2"
_cell_formula_units_Z 28
_cell_length_a 28.702658
_cell_length_b 9.337732
_cell_length_c 5.247451
_cell_angle_alpha 90.000000
_cell_angle_beta 118.112895
_cell_angle_gamma 90.000000
_cell_volume 1240.482834
_symmetry_space_group_name_H-M "C 2"
_symmetry_group_IT_number 5
_symmetry_cell_setting 'monoclinic'
loop_
_space_group_symop_operation_xyz
x,y,z
-x,y,-z
1/2+x,1/2+y,z
1/2-x,1/2+y,-z
loop_
_atom_site_type_symbol
_atom_site_label
_atom_site_fract_x
_atom_site_fract_y
_atom_site_fract_z
Si Si1 0.341459 0.049600 0.853384
Si Si2 0.870531 0.849125 0.955505
Si Si3 0.255604 0.653764 0.135571
Si Si4 0.853708 0.359987 0.389358
Si Si5 0.809005 0.870657 0.293634
Si Si6 0.517633 0.435703 0.796372
Si Si7 0.027157 0.254495 0.318814
O O1 0.384439 0.179329 0.965062
O O2 0.285240 0.137003 0.730522
O O3 0.349161 0.972297 0.605919
O O4 0.347152 0.939839 0.102587
O O5 0.827469 0.894699 0.630807
O O6 0.855816 0.876325 0.210157
O O7 0.919647 0.953639 0.032871
O O8 0.308448 0.743122 0.331895
O O9 0.269954 0.493807 0.095259
O O10 0.223575 0.722924 0.816779
O O11 0.910096 0.280187 0.528993
O O12 0.500000 0.347911 0.500000
O O13 0.485489 0.585224 0.713123
O O14 0.500000 0.346977 0.000000
O O15 0.000000 0.324204 0.500000
O O16 0.000000 0.325484 0.000000
#
# Coordination Sequence:
#
# PCOD8050623 Si02
#       7
#     4   4   4   4   4   4   4
#     4  11  26  46  68 104 147 189 232 287 363 446
#     4  11  25  44  72 100 142 185 236 293 359 420
#     4  11  26  45  70 106 145 190 236 291 352 441
#     4  12  26  45  72 102 146 190 236 295 363 422
#     4  11  26  42  70 103 143 185 236 288 357 431
#     4  10  22  41  67  99 134 171 236 299 347 411
#     4  10  23  43  67 100 136 173 239 301 352 414
#
# _framework density 22.571857000000001
#
# number of rings (size 3 to 8) (size 9 to 14) (size 15 to 20)
#    0.000    1.143    1.429    3.429   12.000    3.429 
#    0.000    4.286    0.000    0.000    0.000    0.000 
#    0.000    0.000    0.000    0.000    0.000    0.000 
#
# Total GULP energy -173439.108938 kJ/mol
# GULP energy per Si atom -12388.507781 kJ/mol
# Density = 2.252048 g / cm^3
# Si number density = 22.571857 Si / 1000 Ang^3
#
#
#
# Elastic Constant Matrix: (Units=GPa)
#
#
# Indices 1 2 3 4 5 6 
#
# 1 126.4750 39.4876 59.3097 0.0000 13.9348 0.0000
# 2 39.4876 76.4540 17.9756 0.0000 4.6085 0.0000
# 3 59.3097 17.9756 124.5531 0.0000 -13.5747 0.0000
# 4 0.0000 0.0000 0.0000 12.0929 0.0000 2.0828
# 5 13.9348 4.6085 -13.5747 0.0000 48.3822 0.0000
# 6 0.0000 0.0000 0.0000 2.0828 0.0000 32.0830
#
#
#
# Elastic Compliance Matrix: (Units=1/GPa)
#
#
# Indices 1 2 3 4 5 6 
#
# 1 0.012730 -0.004899 -0.005883 0.000000 -0.004850 0.000000
# 2 -0.004899 0.015595 0.000076 0.000000 -0.000053 0.000000
# 3 -0.005883 0.000076 0.011350 0.000000 0.004872 0.000000
# 4 0.000000 0.000000 0.000000 0.083628 0.000000 -0.005429
# 5 -0.004850 -0.000053 0.004872 0.000000 0.023438 0.000000
# 6 0.000000 0.000000 0.000000 -0.005429 0.000000 0.031522
#
#
# Mechanical properties :
#
#
# Convention : Reuss Voigt Hill
#
# Bulk Modulus (GPa) = 54.75499 62.33644 58.54571
# Shear Modulus (GPa) = 24.29993 32.55890 28.42941
#
# Velocity S-wave (km/s) = 3.28465 3.80209 3.55280
# Velocity P-wave (km/s) = 6.22061 6.85210 6.54398
#
# Compressibility (1/GPa) = 0.01826318
#
# Stress axis : x y z
#
# Youngs Moduli (GPa) = 78.55753 64.12175 88.10524
#
# Poissons Ratio (x) = 0.31414 0.51833
# Poissons Ratio (y) = 0.38486 -0.00672
# Poissons Ratio (z) = 0.46216 -0.00489
#
# Static dielectric constant tensor:
#      x y z
#    x 4.589350 0.000000 -0.575470 
#    y 0.000000 4.106330 0.000000 
#    z -0.575470 0.000000 4.831150 
# 
# 
# High freq. dielectric constant tensor:
#      x y z
#    x 1.900780 0.000000 -0.012840 
#    y 0.000000 1.873580 0.000000 
#    z -0.012840 0.000000 1.898240 
# 
# From -- ./inp_files/11278.got.cif
#   From: 2010.03.12/outbox.cif.g09.slc.cpg/sg5_6_cif.got.tgz:11278.got - 2010.03.31 09:47:26.
