data_PCOD8050319
_publ_section_title
;
Structure prediction by ZEFSAII (Michael W. Deem and Ramdas Pophale) SiO2 
 PCOD8050319
Probable space group: C 2
;
_chemical_formula_sum "Si O2"
_cell_formula_units_Z 24
_cell_length_a 10.030488
_cell_length_b 17.655472
_cell_length_c 8.558026
_cell_angle_alpha 90.000000
_cell_angle_beta 45.029655
_cell_angle_gamma 90.000000
_cell_volume 1072.221876
_symmetry_space_group_name_H-M "C 2"
_symmetry_group_IT_number 5
_symmetry_cell_setting 'monoclinic'
loop_
_space_group_symop_operation_xyz
x,y,z
-x,y,-z
1/2+x,1/2+y,z
1/2-x,1/2+y,-z
loop_
_atom_site_type_symbol
_atom_site_label
_atom_site_fract_x
_atom_site_fract_y
_atom_site_fract_z
Si Si1 0.666390 0.603230 0.479945
Si Si2 0.247629 0.775633 0.617269
Si Si3 0.914821 0.346684 0.787728
Si Si4 0.068667 0.864863 0.268347
Si Si5 0.930678 0.022548 0.891164
Si Si6 0.017773 0.520504 0.306902
O O1 0.500000 0.576592 0.500000
O O2 0.744362 0.685427 0.375019
O O3 0.560712 0.594008 0.734347
O O4 0.849430 0.548741 0.333318
O O5 0.298067 0.813344 0.739650
O O6 0.393550 0.798424 0.357045
O O7 0.041302 0.803974 0.745785
O O8 0.982082 0.430544 0.691134
O O9 0.789566 0.345927 0.050096
O O10 0.029571 0.951684 0.255902
O O11 0.000000 0.851302 0.500000
O O12 0.714338 0.049744 0.070872
O O13 0.000000 0.992647 0.000000
O O14 0.000000 0.551080 0.500000
#
# Coordination Sequence:
#
# PCOD8050319 Si02
#       6
#     4   4   4   4   4   4
#     4  12  26  44  65 109 153 183 236 307 357 429
#     4  11  22  44  70  99 141 188 235 289 369 435
#     4  10  21  44  75  96 128 189 244 282 350 437
#     4  11  24  42  70 107 138 178 246 307 351 419
#     4  11  23  44  73 102 143 194 241 299 364 438
#     4  11  21  42  76 101 133 193 249 288 354 434
#
# _framework density 22.383427999999999
#
# number of rings (size 3 to 8) (size 9 to 14) (size 15 to 20)
#    0.000    1.000    5.000    4.000    0.000    3.333 
#    6.000    3.333    0.000    0.000    0.000    0.000 
#    0.000    0.000    0.000    0.000    0.000    0.000 
#
# Total GULP energy -148718.430590 kJ/mol
# GULP energy per Si atom -12393.202549 kJ/mol
# Density = 2.233248 g / cm^3
# Si number density = 22.383428 Si / 1000 Ang^3
#
#
#
# Elastic Constant Matrix: (Units=GPa)
#
#
# Indices 1 2 3 4 5 6 
#
# 1 86.0264 46.1718 35.7476 0.0000 -25.6115 0.0000
# 2 46.1718 111.5509 36.6337 0.0000 -4.8428 0.0000
# 3 35.7476 36.6337 129.4075 0.0000 -15.2403 0.0000
# 4 0.0000 0.0000 0.0000 93.9312 0.0000 44.3401
# 5 -25.6115 -4.8428 -15.2403 0.0000 37.9765 0.0000
# 6 0.0000 0.0000 0.0000 44.3401 0.0000 46.0308
#
#
#
# Elastic Compliance Matrix: (Units=1/GPa)
#
#
# Indices 1 2 3 4 5 6 
#
# 1 0.019659 -0.006945 -0.002107 0.000000 0.011527 0.000000
# 2 -0.006945 0.012337 -0.002037 0.000000 -0.003928 0.000000
# 3 -0.002107 -0.002037 0.009119 0.000000 0.001979 0.000000
# 4 0.000000 0.000000 0.000000 0.019524 0.000000 -0.018807
# 5 0.011527 -0.003928 0.001979 0.000000 0.034399 0.000000
# 6 0.000000 0.000000 0.000000 -0.018807 0.000000 0.039841
#
#
# Mechanical properties :
#
#
# Convention : Reuss Voigt Hill
#
# Bulk Modulus (GPa) = 52.80224 62.67678 57.73951
# Shear Modulus (GPa) = 30.60561 49.48314 40.04438
#
# Velocity S-wave (km/s) = 3.70176 4.70691 4.23427
# Velocity P-wave (km/s) = 6.47393 7.58962 7.05387
#
# Compressibility (1/GPa) = 0.01893859
#
# Stress axis : x y z
#
# Youngs Moduli (GPa) = 50.86732 81.05504 109.65844
#
# Poissons Ratio (x) = 0.56289 0.23107
# Poissons Ratio (y) = 0.35325 0.22334
# Poissons Ratio (z) = 0.10719 0.16509
#
# Static dielectric constant tensor:
#      x y z
#    x 2.977240 0.000000 -0.319280 
#    y 0.000000 3.756980 0.000000 
#    z -0.319280 0.000000 4.358490 
# 
# 
# High freq. dielectric constant tensor:
#      x y z
#    x 1.872470 0.000000 -0.016830 
#    y 0.000000 1.862890 0.000000 
#    z -0.016830 0.000000 1.899270 
# 
# From -- ./inp_files/16726.got.cif
#   From: 2010.03.12/outbox.cif.g09.slc.cpg/sg5_9_cif.got.tgz:16726.got - 2010.03.31 09:47:26.
