data_PCOD8050173
_publ_section_title
;
Structure prediction by ZEFSAII (Michael W. Deem and Ramdas Pophale) SiO2 
 PCOD8050173
Probable space group: C 2
;
_chemical_formula_sum "Si O2"
_cell_formula_units_Z 18
_cell_length_a 5.418147
_cell_length_b 21.848528
_cell_length_c 7.292421
_cell_angle_alpha 90.000000
_cell_angle_beta 112.145835
_cell_angle_gamma 90.000000
_cell_volume 799.580709
_symmetry_space_group_name_H-M "C 2"
_symmetry_group_IT_number 5
_symmetry_cell_setting 'monoclinic'
loop_
_space_group_symop_operation_xyz
x,y,z
-x,y,-z
1/2+x,1/2+y,z
1/2-x,1/2+y,-z
loop_
_atom_site_type_symbol
_atom_site_label
_atom_site_fract_x
_atom_site_fract_y
_atom_site_fract_z
Si Si1 0.500000 0.934180 0.000000
Si Si2 0.717548 0.527340 0.705846
Si Si3 0.317692 0.277365 0.613972
Si Si4 0.000000 0.857158 0.000000
Si Si5 0.505726 0.147573 0.784549
Si Si6 0.500000 0.583478 0.000000
O O1 0.239315 0.895358 0.978086
O O2 0.435765 0.973977 0.797344
O O3 0.500000 0.503337 0.500000
O O4 0.832174 0.590852 0.660699
O O5 0.628086 0.537865 0.890203
O O6 0.500000 0.305065 0.500000
O O7 0.375879 0.313963 0.812432
O O8 0.410536 0.207175 0.654140
O O9 0.000000 0.280941 0.500000
O O10 0.809564 0.128637 0.828888
O O11 0.500000 0.156361 0.000000
#
# Coordination Sequence:
#
# PCOD8050173 Si02
#       6
#     2   4   4   2   4   2
#     4  12  26  50  76 103 143 198 252 292 360 414
#     4  11  24  43  69 106 145 184 233 295 360 435
#     4  12  28  48  77 109 143 190 245 298 368 429
#     4  12  29  53  74  99 148 195 250 314 336 420
#     4  10  22  41  71 106 147 185 226 293 372 437
#     4  10  21  41  66 104 153 187 224 276 366 440
#
# _framework density 22.511797000000001
#
# number of rings (size 3 to 8) (size 9 to 14) (size 15 to 20)
#    0.000    0.889    4.444    2.667    9.333    3.556 
#    0.000    2.222    0.000    0.000    0.000    0.000 
#    0.000    0.000    0.000    0.000    0.000    0.000 
#
# Total GULP energy -111541.347864 kJ/mol
# GULP energy per Si atom -12393.483096 kJ/mol
# Density = 2.246056 g / cm^3
# Si number density = 22.511797 Si / 1000 Ang^3
#
#
#
# Elastic Constant Matrix: (Units=GPa)
#
#
# Indices 1 2 3 4 5 6 
#
# 1 105.1053 22.5680 37.1147 0.0000 21.8243 0.0000
# 2 22.5680 106.9054 56.2940 0.0000 10.1316 0.0000
# 3 37.1147 56.2940 161.8865 0.0000 27.3223 0.0000
# 4 0.0000 0.0000 0.0000 -72.3812 0.0000 45.9428
# 5 21.8243 10.1316 27.3223 0.0000 37.2586 0.0000
# 6 0.0000 0.0000 0.0000 45.9428 0.0000 10.7921
#
#
#
# Elastic Compliance Matrix: (Units=1/GPa)
#
#
# Indices 1 2 3 4 5 6 
#
# 1 0.011341 -0.001216 -0.001269 0.000000 -0.005382 0.000000
# 2 -0.001216 0.011583 -0.003809 0.000000 0.000356 0.000000
# 3 -0.001269 -0.003809 0.008551 0.000000 -0.004491 0.000000
# 4 0.000000 0.000000 0.000000 -0.003732 0.000000 0.015887
# 5 -0.005382 0.000356 -0.004491 0.000000 0.033189 0.000000
# 6 0.000000 0.000000 0.000000 0.015887 0.000000 0.025029
#
#
# Mechanical properties :
#
#
# Convention : Reuss Voigt Hill
#
# Bulk Modulus (GPa) = 52.94751 67.31672 60.13212
# Shear Modulus (GPa) = 47.69015 12.32859 30.00937
#
# Velocity S-wave (km/s) = 4.60766 2.34273 3.65506
# Velocity P-wave (km/s) = 7.20266 6.10620 6.67697
#
# Compressibility (1/GPa) = 0.01888663
#
# Stress axis : x y z
#
# Youngs Moduli (GPa) = 88.17637 86.33502 116.95011
#
# Poissons Ratio (x) = 0.10497 0.14840
# Poissons Ratio (y) = 0.10721 0.44547
# Poissons Ratio (z) = 0.11189 0.32886
#
# Static dielectric constant tensor:
#      x y z
#    x 5.047020 0.000000 0.401520 
#    y 0.000000 4.094280 0.000000 
#    z 0.401520 0.000000 4.223820 
# 
# 
# High freq. dielectric constant tensor:
#      x y z
#    x 1.890570 0.000000 0.013360 
#    y 0.000000 1.885870 0.000000 
#    z 0.013360 0.000000 1.902050 
# 
# From -- ./inp_files/12026.got.cif
#   From: 2010.03.12/outbox.cif.g09.slc.cpg/sg5_7_cif.got.tgz:12026.got - 2010.03.31 09:47:26.
