data_PCOD8050440
_publ_section_title
;
Structure prediction by ZEFSAII (Michael W. Deem and Ramdas Pophale) SiO2 
 PCOD8050440
Probable space group: C 2
;
_chemical_formula_sum "Si O2"
_cell_formula_units_Z 30
_cell_length_a 9.127524
_cell_length_b 10.779468
_cell_length_c 18.173442
_cell_angle_alpha 90.000000
_cell_angle_beta 126.887202
_cell_angle_gamma 90.000000
_cell_volume 1430.141743
_symmetry_space_group_name_H-M "C 2"
_symmetry_group_IT_number 5
_symmetry_cell_setting 'monoclinic'
loop_
_space_group_symop_operation_xyz
x,y,z
-x,y,-z
1/2+x,1/2+y,z
1/2-x,1/2+y,-z
loop_
_atom_site_type_symbol
_atom_site_label
_atom_site_fract_x
_atom_site_fract_y
_atom_site_fract_z
Si Si1 0.352816 0.622240 0.895330
Si Si2 0.909836 0.032892 0.752514
Si Si3 0.500000 0.217631 0.500000
Si Si4 0.779666 0.859388 0.201151
Si Si5 0.522490 0.991181 0.230418
Si Si6 0.562387 0.195081 0.359543
Si Si7 0.101873 0.265379 0.348438
Si Si8 0.126923 0.370425 0.599633
O O1 0.430042 0.591204 0.838270
O O2 0.325696 0.771954 0.889567
O O3 0.168838 0.544533 0.857511
O O4 0.500000 0.582034 0.000000
O O5 0.934148 0.128785 0.693496
O O6 0.707734 0.972985 0.680288
O O7 0.059035 0.925323 0.793859
O O8 0.555072 0.142331 0.441575
O O9 0.318259 0.298028 0.425141
O O10 0.862942 0.758633 0.284666
O O11 0.655639 0.966196 0.201005
O O12 0.608147 0.086624 0.315483
O O13 0.501780 0.858993 0.262829
O O14 0.713015 0.301302 0.396320
O O15 0.996185 0.271122 0.393969
O O16 0.000000 0.437668 0.500000
#
# Coordination Sequence:
#
# PCOD8050440 Si02
#       8
#     4   4   2   4   4   4   4   4
#     4  11  24  44  71 100 126 163 216 273 335 399
#     4  11  24  43  68  93 131 175 212 269 331 384
#     4  12  22  38  56  92 134 174 230 268 300 372
#     4  10  22  44  68  90 126 170 211 263 327 388
#     4  11  21  43  67  89 131 172 207 268 331 384
#     4  10  22  39  59  91 125 173 222 262 316 371
#     4  12  23  39  63  91 135 177 219 265 321 376
#     4  11  23  41  59  93 132 177 223 264 311 381
#
# _framework density 20.976941
#
# number of rings (size 3 to 8) (size 9 to 14) (size 15 to 20)
#    0.000    1.067    5.333    1.600    0.933    1.067 
#    1.200    0.000    0.000    0.000    0.000    0.000 
#    0.000    0.000    0.000    0.000    0.000    0.000 
#
# Total GULP energy -185941.335126 kJ/mol
# GULP energy per Si atom -12396.089008 kJ/mol
# Density = 2.092920 g / cm^3
# Si number density = 20.976941 Si / 1000 Ang^3
#
#
#
# Elastic Constant Matrix: (Units=GPa)
#
#
# Indices 1 2 3 4 5 6 
#
# 1 89.6505 29.5343 48.7086 0.0000 0.2321 0.0000
# 2 29.5343 92.4537 41.3284 0.0000 7.8378 0.0000
# 3 48.7086 41.3284 126.0498 0.0000 9.1728 0.0000
# 4 0.0000 0.0000 0.0000 25.2660 0.0000 -2.3681
# 5 0.2321 7.8378 9.1728 0.0000 19.4074 0.0000
# 6 0.0000 0.0000 0.0000 -2.3681 0.0000 39.0042
#
#
#
# Elastic Compliance Matrix: (Units=1/GPa)
#
#
# Indices 1 2 3 4 5 6 
#
# 1 0.014800 -0.002748 -0.005060 0.000000 0.003324 0.000000
# 2 -0.002748 0.013387 -0.003041 0.000000 -0.003936 0.000000
# 3 -0.005060 -0.003041 0.011176 0.000000 -0.003994 0.000000
# 4 0.000000 0.000000 0.000000 0.039805 0.000000 0.002417
# 5 0.003324 -0.003936 -0.003994 0.000000 0.054964 0.000000
# 6 0.000000 0.000000 0.000000 0.002417 0.000000 0.025785
#
#
# Mechanical properties :
#
#
# Convention : Reuss Voigt Hill
#
# Bulk Modulus (GPa) = 56.60625 60.81071 58.70848
# Shear Modulus (GPa) = 26.66590 29.30768 27.98679
#
# Velocity S-wave (km/s) = 3.56926 3.74189 3.65659
# Velocity P-wave (km/s) = 6.63549 6.90805 6.77314
#
# Compressibility (1/GPa) = 0.01766589
#
# Stress axis : x y z
#
# Youngs Moduli (GPa) = 67.56611 74.69878 89.47385
#
# Poissons Ratio (x) = 0.20526 0.45275
# Poissons Ratio (y) = 0.18566 0.27209
# Poissons Ratio (z) = 0.34190 0.22716
#
# Static dielectric constant tensor:
#      x y z
#    x 3.885010 0.000000 0.082740 
#    y 0.000000 3.746970 0.000000 
#    z 0.082740 0.000000 3.673160 
# 
# 
# High freq. dielectric constant tensor:
#      x y z
#    x 1.833080 0.000000 -0.000860 
#    y 0.000000 1.816490 0.000000 
#    z -0.000860 0.000000 1.801820 
# 
# From -- ./inp_files/59583.got.cif
#   From: 2010.03.12/outbox.cif.g09.slc.cpg/sg5_30_cif.got.tgz:59583.got - 2010.03.31 09:47:26.
