data_PCOD8050284
_publ_section_title
;
Structure prediction by ZEFSAII (Michael W. Deem and Ramdas Pophale) SiO2 
 PCOD8050284
Probable space group: C 2
;
_chemical_formula_sum "Si O2"
_cell_formula_units_Z 26
_cell_length_a 13.988225
_cell_length_b 15.944261
_cell_length_c 7.740147
_cell_angle_alpha 90.000000
_cell_angle_beta 42.722111
_cell_angle_gamma 90.000000
_cell_volume 1171.196393
_symmetry_space_group_name_H-M "C 2"
_symmetry_group_IT_number 5
_symmetry_cell_setting 'monoclinic'
loop_
_space_group_symop_operation_xyz
x,y,z
-x,y,-z
1/2+x,1/2+y,z
1/2-x,1/2+y,-z
loop_
_atom_site_type_symbol
_atom_site_label
_atom_site_fract_x
_atom_site_fract_y
_atom_site_fract_z
Si Si1 0.140905 0.545630 0.626043
Si Si2 0.484247 0.432545 0.328118
Si Si3 0.804652 0.365970 0.426556
Si Si4 0.367349 0.293930 0.052419
Si Si5 0.854005 0.078008 0.034844
Si Si6 0.000000 0.228667 0.000000
Si Si7 0.162363 0.609437 0.974136
O O1 0.094975 0.447373 0.688235
O O2 0.261657 0.564198 0.328070
O O3 0.200160 0.572596 0.735663
O O4 0.001586 0.596560 0.762253
O O5 0.500000 0.466791 0.500000
O O6 0.327073 0.400102 0.507642
O O7 0.589722 0.354317 0.161292
O O8 0.524649 0.506872 0.140322
O O9 0.758166 0.337980 0.677759
O O10 0.879285 0.287537 0.238326
O O11 0.307962 0.208145 0.055295
O O12 0.500000 0.275351 0.000000
O O13 0.929487 0.168774 0.948266
O O14 0.759444 0.067604 0.989848
#
# Coordination Sequence:
#
# PCOD8050284 Si02
#       7
#     4   4   4   4   4   2   4
#     4  11  22  46  74 100 147 182 238 286 348 421
#     4  11  25  43  74  98 134 187 243 282 349 427
#     4  11  24  46  69  98 140 188 228 290 358 407
#     4  10  21  43  68  99 135 180 228 287 346 406
#     4  12  26  47  70 106 141 189 233 296 350 417
#     4  12  28  42  72 104 146 182 234 300 352 406
#     4  11  24  42  74 108 140 187 235 288 348 424
#
# _framework density 22.19952
#
# number of rings (size 3 to 8) (size 9 to 14) (size 15 to 20)
#    0.000    0.923    3.077    4.154    5.385    1.231 
#    0.000    0.000    0.000    0.000    0.000    0.000 
#    0.000    0.000    0.000    0.000    0.000    0.000 
#
# Total GULP energy -161229.627735 kJ/mol
# GULP energy per Si atom -12402.279057 kJ/mol
# Density = 2.214899 g / cm^3
# Si number density = 22.199520 Si / 1000 Ang^3
#
#
#
# Elastic Constant Matrix: (Units=GPa)
#
#
# Indices 1 2 3 4 5 6 
#
# 1 109.4306 22.7715 50.3632 0.0000 2.5428 0.0000
# 2 22.7715 154.6589 49.8984 0.0000 1.0702 0.0000
# 3 50.3632 49.8984 130.8730 0.0000 8.3759 -0.0001
# 4 0.0000 0.0000 0.0000 48.5376 0.0000 -2.1058
# 5 2.5428 1.0702 8.3759 0.0000 21.7226 0.0000
# 6 0.0000 0.0000 -0.0001 -2.1058 0.0000 24.8758
#
#
#
# Elastic Compliance Matrix: (Units=1/GPa)
#
#
# Indices 1 2 3 4 5 6 
#
# 1 0.011119 -0.000287 -0.004190 0.000000 0.000328 0.000000
# 2 -0.000287 0.007392 -0.002754 0.000000 0.000732 0.000000
# 3 -0.004190 -0.002754 0.010523 0.000000 -0.003431 0.000000
# 4 0.000000 0.000000 0.000000 0.020679 0.000000 0.001751
# 5 0.000328 0.000732 -0.003431 0.000000 0.047284 0.000000
# 6 0.000000 0.000000 0.000000 0.001751 0.000000 0.040348
#
#
# Mechanical properties :
#
#
# Convention : Reuss Voigt Hill
#
# Bulk Modulus (GPa) = 68.63599 71.22544 69.93071
# Shear Modulus (GPa) = 31.91522 37.15582 34.53552
#
# Velocity S-wave (km/s) = 3.79575 4.09555 3.94850
# Velocity P-wave (km/s) = 7.08486 7.38367 7.23581
#
# Compressibility (1/GPa) = 0.01456962
#
# Stress axis : x y z
#
# Youngs Moduli (GPa) = 89.93725 135.28502 95.02702
#
# Poissons Ratio (x) = 0.03889 0.39818
# Poissons Ratio (y) = 0.02585 0.26175
# Poissons Ratio (z) = 0.37686 0.37264
#
# Static dielectric constant tensor:
#      x y z
#    x 3.759840 0.000000 0.017220 
#    y 0.000000 4.257630 0.000000 
#    z 0.017220 0.000000 4.135370 
# 
# 
# High freq. dielectric constant tensor:
#      x y z
#    x 1.852740 0.000000 0.001960 
#    y 0.000000 1.893110 0.000000 
#    z 0.001960 0.000000 1.885570 
# 
# From -- ./inp_files/24789.got.cif
#   From: 2010.03.12/outbox.cif.g09.slc.cpg/sg5_13_cif.got.tgz:24789.got - 2010.03.31 09:47:26.
