data_PCOD8050566
_publ_section_title
;
Structure prediction by ZEFSAII (Michael W. Deem and Ramdas Pophale) SiO2 
 PCOD8050566
Probable space group: C 2
;
_chemical_formula_sum "Si O2"
_cell_formula_units_Z 30
_cell_length_a 16.696079
_cell_length_b 8.767326
_cell_length_c 24.445074
_cell_angle_alpha 90.000000
_cell_angle_beta 23.127435
_cell_angle_gamma 90.000000
_cell_volume 1405.463645
_symmetry_space_group_name_H-M "C 2"
_symmetry_group_IT_number 5
_symmetry_cell_setting 'monoclinic'
loop_
_space_group_symop_operation_xyz
x,y,z
-x,y,-z
1/2+x,1/2+y,z
1/2-x,1/2+y,-z
loop_
_atom_site_type_symbol
_atom_site_label
_atom_site_fract_x
_atom_site_fract_y
_atom_site_fract_z
Si Si1 0.954926 0.321520 0.422784
Si Si2 0.500000 0.000808 0.500000
Si Si3 0.644135 0.706146 0.774668
Si Si4 0.220699 0.994690 0.488802
Si Si5 0.648991 0.594820 0.951702
Si Si6 0.200037 0.866617 0.218790
Si Si7 0.516048 0.851605 0.230475
Si Si8 0.281284 0.196580 0.149387
O O1 0.812790 0.173065 0.501593
O O2 0.908028 0.466678 0.413007
O O3 0.922901 0.382724 0.503150
O O4 0.188421 0.273143 0.262875
O O5 0.308864 0.100536 0.640266
O O6 0.761299 0.813114 0.743564
O O7 0.510129 0.801616 0.815468
O O8 0.477728 0.613665 0.913275
O O9 0.287974 0.903317 0.391944
O O10 0.036262 0.910546 0.635149
O O11 0.735738 0.749875 0.869340
O O12 0.836817 0.494476 0.852692
O O13 0.500000 0.517537 0.000000
O O14 0.327671 0.019401 0.129155
O O15 0.613746 0.715910 0.205779
O O16 0.500000 0.274362 0.000000
#
# Coordination Sequence:
#
# PCOD8050566 Si02
#       8
#     4   2   4   4   4   4   4   4
#     4  10  25  41  67  94 131 164 219 262 329 375
#     4  12  28  44  64  96 130 174 212 284 318 382
#     4  11  26  42  65  97 134 171 215 270 331 372
#     4  10  22  42  69  99 124 170 217 265 314 400
#     4  10  23  43  68  92 131 178 217 259 325 388
#     4  10  22  43  70  94 130 172 214 262 322 390
#     4  11  24  41  65  99 131 168 215 270 322 378
#     4  10  22  40  70  96 128 168 219 261 318 391
#
# _framework density 21.345268999999998
#
# number of rings (size 3 to 8) (size 9 to 14) (size 15 to 20)
#    0.000    1.600    0.000    3.200   16.800    4.267 
#    2.400    0.000    0.000    0.000    0.000    0.000 
#    0.000    0.000    0.000    0.000    0.000    0.000 
#
# Total GULP energy -185872.370371 kJ/mol
# GULP energy per Si atom -12391.491358 kJ/mol
# Density = 2.129669 g / cm^3
# Si number density = 21.345269 Si / 1000 Ang^3
#
#
#
# Elastic Constant Matrix: (Units=GPa)
#
#
# Indices 1 2 3 4 5 6 
#
# 1 105.5626 63.7600 44.8397 0.0274 23.9166 -0.0046
# 2 63.7600 139.2907 61.8971 0.0636 9.3279 -0.0049
# 3 44.8397 61.8971 148.1431 0.0983 13.1349 0.0067
# 4 0.0274 0.0636 0.0983 -73.2547 -0.0318 10.2460
# 5 23.9166 9.3279 13.1349 -0.0318 35.7268 0.0026
# 6 -0.0046 -0.0049 0.0067 10.2460 0.0026 24.8555
#
#
#
# Elastic Compliance Matrix: (Units=1/GPa)
#
#
# Indices 1 2 3 4 5 6 
#
# 1 0.015560 -0.005895 -0.001509 0.000003 -0.008323 0.000002
# 2 -0.005895 0.011083 -0.003039 0.000002 0.002170 0.000001
# 3 -0.001509 -0.003039 0.008597 0.000008 -0.001357 -0.000006
# 4 0.000003 0.000002 0.000008 -0.012907 -0.000017 0.005320
# 5 -0.008323 0.002170 -0.001357 -0.000017 0.033494 0.000003
# 6 0.000002 0.000001 -0.000006 0.005320 0.000003 0.038039
#
#
# Mechanical properties :
#
#
# Convention : Reuss Voigt Hill
#
# Bulk Modulus (GPa) = 69.66258 81.55446 75.60852
# Shear Modulus (GPa) = 41.82866 12.29882 27.06374
#
# Velocity S-wave (km/s) = 4.43156 2.40299 3.56463
# Velocity P-wave (km/s) = 7.67411 6.78155 7.24159
#
# Compressibility (1/GPa) = 0.01435491
#
# Stress axis : x y z
#
# Youngs Moduli (GPa) = 64.26755 90.23212 116.32151
#
# Poissons Ratio (x) = 0.53189 0.17551
# Poissons Ratio (y) = 0.37884 0.35346
# Poissons Ratio (z) = 0.09697 0.27419
#
# Static dielectric constant tensor:
#      x y z
#    x 3.760000 -0.000010 0.130180 
#    y -0.000010 3.881520 0.000000 
#    z 0.130180 0.000000 4.174070 
# 
# 
# High freq. dielectric constant tensor:
#      x y z
#    x 1.815430 0.000000 -0.000160 
#    y 0.000000 1.848250 0.000000 
#    z -0.000160 0.000000 1.862290 
# 
# From -- ./inp_files/65986.got.cif
#   From: 2010.03.12/outbox.cif.g09.slc.cpg/sg5_33_cif.got.tgz:65986.got - 2010.03.31 09:47:26.
