data_PCOD8050106
_publ_section_title
;
Structure prediction by ZEFSAII (Michael W. Deem and Ramdas Pophale) SiO2 
 PCOD8050106
Probable space group: C 2
;
_chemical_formula_sum "Si O2"
_cell_formula_units_Z 26
_cell_length_a 18.145360
_cell_length_b 5.405823
_cell_length_c 11.919800
_cell_angle_alpha 90.000000
_cell_angle_beta 112.939460
_cell_angle_gamma 90.000000
_cell_volume 1076.755159
_symmetry_space_group_name_H-M "C 2"
_symmetry_group_IT_number 5
_symmetry_cell_setting 'monoclinic'
loop_
_space_group_symop_operation_xyz
x,y,z
-x,y,-z
1/2+x,1/2+y,z
1/2-x,1/2+y,-z
loop_
_atom_site_type_symbol
_atom_site_label
_atom_site_fract_x
_atom_site_fract_y
_atom_site_fract_z
Si Si1 0.000000 0.838780 0.000000
Si Si2 0.788323 0.296082 0.179566
Si Si3 0.090002 0.685504 0.729063
Si Si4 0.668616 0.647268 0.373830
Si Si5 0.576703 0.149361 0.259607
Si Si6 0.310936 0.440595 0.377215
Si Si7 0.852961 0.984601 0.032167
O O1 0.955784 0.655792 0.886448
O O2 0.060095 0.024081 0.971656
O O3 0.863440 0.437572 0.279532
O O4 0.761881 0.082010 0.250127
O O5 0.821772 0.224317 0.076668
O O6 0.706317 0.437817 0.106909
O O7 0.995743 0.665049 0.693421
O O8 0.104611 0.865666 0.630952
O O9 0.137719 0.768341 0.869829
O O10 0.634927 0.386150 0.309110
O O11 0.672908 0.625456 0.510638
O O12 0.617359 0.886305 0.307639
O O13 0.758623 0.698461 0.381629
#
# Coordination Sequence:
#
# PCOD8050106 Si02
#       7
#     2   4   4   4   4   4   4
#     4  10  24  44  72 112 150 196 242 316 372 462
#     4  11  22  42  72 105 144 201 244 315 369 464
#     4  10  25  46  68 106 148 195 249 310 371 460
#     4  12  28  51  75 110 148 200 250 323 371 446
#     4  11  28  50  75 111 156 193 252 306 390 447
#     4  11  28  46  76 104 146 196 262 311 376 448
#     4  10  21  40  67 104 144 191 246 299 383 434
#
# _framework density 24.146623999999999
#
# number of rings (size 3 to 8) (size 9 to 14) (size 15 to 20)
#    0.000    1.231    1.538    1.846   15.077    1.231 
#    2.769    0.000    0.000    0.000    0.000    0.000 
#    0.000    0.000    0.000    0.000    0.000    0.000 
#
# Total GULP energy -161107.872974 kJ/mol
# GULP energy per Si atom -12392.913306 kJ/mol
# Density = 2.409167 g / cm^3
# Si number density = 24.146624 Si / 1000 Ang^3
#
#
#
# Elastic Constant Matrix: (Units=GPa)
#
#
# Indices 1 2 3 4 5 6 
#
# 1 96.6322 21.9313 42.9900 0.0000 -14.4801 0.0000
# 2 21.9313 88.1535 28.2149 0.0000 1.8820 0.0000
# 3 42.9900 28.2149 119.7873 0.0000 -15.8944 0.0000
# 4 0.0000 0.0000 0.0000 38.8678 0.0000 0.7125
# 5 -14.4801 1.8820 -15.8944 0.0000 36.2697 0.0000
# 6 0.0000 0.0000 0.0000 0.7125 0.0000 40.7213
#
#
#
# Elastic Compliance Matrix: (Units=1/GPa)
#
#
# Indices 1 2 3 4 5 6 
#
# 1 0.013026 -0.002142 -0.003679 0.000000 0.003699 0.000000
# 2 -0.002142 0.012762 -0.002589 0.000000 -0.002652 0.000000
# 3 -0.003679 -0.002589 0.010725 0.000000 0.003365 0.000000
# 4 0.000000 0.000000 0.000000 0.025737 0.000000 -0.000450
# 5 0.003699 -0.002652 0.003365 0.000000 0.030660 0.000000
# 6 0.000000 0.000000 0.000000 -0.000450 0.000000 0.024565
#
#
# Mechanical properties :
#
#
# Convention : Reuss Voigt Hill
#
# Bulk Modulus (GPa) = 50.78252 54.53838 52.66045
# Shear Modulus (GPa) = 35.49622 37.26754 36.38188
#
# Velocity S-wave (km/s) = 3.83825 3.93286 3.88584
# Velocity P-wave (km/s) = 6.38118 6.57712 6.47989
#
# Compressibility (1/GPa) = 0.01969181
#
# Stress axis : x y z
#
# Youngs Moduli (GPa) = 76.77021 78.35730 93.23979
#
# Poissons Ratio (x) = 0.16784 0.34307
# Poissons Ratio (y) = 0.16444 0.24141
# Poissons Ratio (z) = 0.28247 0.20288
#
# Static dielectric constant tensor:
#      x y z
#    x 4.543940 0.000000 -0.226850 
#    y 0.000000 4.158640 0.000000 
#    z -0.226850 0.000000 4.413900 
# 
# 
# High freq. dielectric constant tensor:
#      x y z
#    x 1.971860 0.000000 -0.018800 
#    y 0.000000 1.942720 0.000000 
#    z -0.018800 0.000000 1.962000 
# 
# From -- ./inp_files/45492.got.cif
#   From: 2010.03.12/outbox.cif.g09.slc.cpg/sg5_23_cif.got.tgz:45492.got - 2010.03.31 09:47:26.
