data_PCOD8050620
_publ_section_title
;
Structure prediction by ZEFSAII (Michael W. Deem and Ramdas Pophale) SiO2 
 PCOD8050620
Probable space group: C 2
;
_chemical_formula_sum "Si O2"
_cell_formula_units_Z 26
_cell_length_a 14.562438
_cell_length_b 15.606124
_cell_length_c 8.247666
_cell_angle_alpha 90.000000
_cell_angle_beta 139.916332
_cell_angle_gamma 90.000000
_cell_volume 1206.930845
_symmetry_space_group_name_H-M "C 2"
_symmetry_group_IT_number 5
_symmetry_cell_setting 'monoclinic'
loop_
_space_group_symop_operation_xyz
x,y,z
-x,y,-z
1/2+x,1/2+y,z
1/2-x,1/2+y,-z
loop_
_atom_site_type_symbol
_atom_site_label
_atom_site_fract_x
_atom_site_fract_y
_atom_site_fract_z
Si Si1 0.295758 0.058900 0.712861
Si Si2 0.092305 0.813012 0.863778
Si Si3 0.209778 0.555862 0.921505
Si Si4 0.000000 0.406540 0.000000
Si Si5 0.501287 0.498393 0.191676
Si Si6 0.000000 0.698949 0.000000
Si Si7 0.000000 0.683782 0.500000
Si Si8 0.596808 0.867169 0.783944
O O1 0.292565 0.086896 0.896557
O O2 0.392704 0.132857 0.757171
O O3 0.138690 0.052150 0.429563
O O4 0.362884 0.965201 0.779059
O O5 0.011208 0.903842 0.748816
O O6 0.984434 0.748600 0.628210
O O7 0.104504 0.765616 0.051444
O O8 0.251951 0.818144 0.008082
O O9 0.126375 0.466880 0.792030
O O10 0.138417 0.625115 0.707821
O O11 0.370210 0.553536 0.076786
O O12 0.975166 0.352185 0.134109
O O13 0.500000 0.487133 0.000000
O O14 0.500000 0.834901 0.500000
#
# Coordination Sequence:
#
# PCOD8050620 Si02
#       8
#     4   4   4   2   4   2   2   4
#     4  10  22  41  69  95 130 179 231 280 335 414
#     4  11  26  42  66 102 135 177 220 286 353 396
#     4  10  22  41  67  97 129 184 230 275 335 414
#     4   9  22  36  72 100 127 180 234 277 338 410
#     4  11  25  40  69  99 134 177 230 278 332 413
#     4  11  22  46  66  96 131 178 226 281 350 404
#     4  12  24  44  70  92 138 176 222 280 350 410
#     4  10  22  43  68 101 135 179 234 284 336 421
#
# _framework density 21.542244
#
# number of rings (size 3 to 8) (size 9 to 14) (size 15 to 20)
#    0.000    1.538    3.077    0.462   12.923    0.000 
#    2.769    0.000    1.692    0.000    0.000    0.000 
#    0.000    0.000    0.000    0.000    0.000    0.000 
#
# Total GULP energy -161076.051993 kJ/mol
# GULP energy per Si atom -12390.465538 kJ/mol
# Density = 2.149321 g / cm^3
# Si number density = 21.542244 Si / 1000 Ang^3
#
#
#
# Elastic Constant Matrix: (Units=GPa)
#
#
# Indices 1 2 3 4 5 6 
#
# 1 135.9738 36.0549 50.1169 0.0000 6.4539 0.0000
# 2 36.0549 96.1659 49.9662 0.0000 13.3450 0.0000
# 3 50.1169 49.9662 129.2536 0.0000 13.4384 0.0000
# 4 0.0000 0.0000 0.0000 17.9234 0.0000 -8.4271
# 5 6.4539 13.3450 13.4384 0.0000 30.6815 0.0000
# 6 0.0000 0.0000 0.0000 -8.4271 0.0000 30.9821
#
#
#
# Elastic Compliance Matrix: (Units=1/GPa)
#
#
# Indices 1 2 3 4 5 6 
#
# 1 0.008857 -0.001940 -0.002701 0.000000 0.000164 0.000000
# 2 -0.001940 0.013833 -0.004204 0.000000 -0.003767 0.000000
# 3 -0.002701 -0.004204 0.010645 0.000000 -0.002266 0.000000
# 4 0.000000 0.000000 0.000000 0.063974 0.000000 0.017401
# 5 0.000164 -0.003767 -0.002266 0.000000 0.035190 0.000000
# 6 0.000000 0.000000 0.000000 0.017401 0.000000 0.037010
#
#
# Mechanical properties :
#
#
# Convention : Reuss Voigt Hill
#
# Bulk Modulus (GPa) = 63.91848 70.40769 67.16308
# Shear Modulus (GPa) = 25.98591 30.93442 28.46016
#
# Velocity S-wave (km/s) = 3.47692 3.79356 3.63868
# Velocity P-wave (km/s) = 6.77158 7.20712 6.99274
#
# Compressibility (1/GPa) = 0.01564493
#
# Stress axis : x y z
#
# Youngs Moduli (GPa) = 112.91092 72.29134 93.94357
#
# Poissons Ratio (x) = 0.14023 0.25376
# Poissons Ratio (y) = 0.21902 0.39490
# Poissons Ratio (z) = 0.30500 0.30389
#
# Static dielectric constant tensor:
#      x y z
#    x 4.387390 0.000000 -0.286030 
#    y 0.000000 3.843680 0.000000 
#    z -0.286030 0.000000 3.801340 
# 
# 
# High freq. dielectric constant tensor:
#      x y z
#    x 1.852820 0.000000 0.002420 
#    y 0.000000 1.834560 0.000000 
#    z 0.002420 0.000000 1.836370 
# 
# From -- ./inp_files/24841.got.cif
#   From: 2010.03.12/outbox.cif.g09.slc.cpg/sg5_13_cif.got.tgz:24841.got - 2010.03.31 09:47:26.
