data_PCOD8050708
_publ_section_title
;
Structure prediction by ZEFSAII (Michael W. Deem and Ramdas Pophale) SiO2 
 PCOD8050708
Probable space group: C 2
;
_chemical_formula_sum "Si O2"
_cell_formula_units_Z 20
_cell_length_a 24.912805
_cell_length_b 5.064143
_cell_length_c 15.696637
_cell_angle_alpha 90.000000
_cell_angle_beta 154.091261
_cell_angle_gamma 90.000000
_cell_volume 865.278679
_symmetry_space_group_name_H-M "C 2"
_symmetry_group_IT_number 5
_symmetry_cell_setting 'monoclinic'
loop_
_space_group_symop_operation_xyz
x,y,z
-x,y,-z
1/2+x,1/2+y,z
1/2-x,1/2+y,-z
loop_
_atom_site_type_symbol
_atom_site_label
_atom_site_fract_x
_atom_site_fract_y
_atom_site_fract_z
Si Si1 0.823610 0.279890 0.628715
Si Si2 0.738121 0.146298 0.677115
Si Si3 0.761872 0.646296 0.822875
Si Si4 0.500002 0.971639 0.750005
Si Si5 0.676389 0.779887 0.871288
O O1 0.762933 0.568924 0.541217
O O2 0.843609 0.205689 0.756949
O O3 0.951640 0.289420 0.759244
O O4 0.737397 0.356579 0.751398
O O5 0.762596 0.856580 0.748592
O O6 0.608624 0.154860 0.441803
O O7 0.656385 0.705678 0.743046
O O8 0.891370 0.654859 0.058187
O O9 0.548362 0.789403 0.740767
O O10 0.762946 0.568937 0.041236
#
# Coordination Sequence:
#
# PCOD8050708 Si02
#       5
#     4   4   4   4   4
#     4  10  22  42  67  95 128 169 216 260 316 386
#     4  11  24  43  67  98 129 166 219 263 314 388
#     4  11  24  43  67  98 129 166 219 263 314 388
#     4  10  24  46  68  90 134 176 202 270 328 360
#     4  10  22  42  67  95 128 169 216 260 316 386
#
# _framework density 23.113942000000002
#
# number of rings (size 3 to 8) (size 9 to 14) (size 15 to 20)
#    0.000    1.600    0.000    4.800    0.000   16.000 
#    0.000   16.000    0.000    0.000    0.000    0.000 
#    0.000    0.000    0.000    0.000    0.000    0.000 
#
# Total GULP energy -123990.013770 kJ/mol
# GULP energy per Si atom -12399.001377 kJ/mol
# Density = 2.306133 g / cm^3
# Si number density = 23.113942 Si / 1000 Ang^3
#
#
#
# Elastic Constant Matrix: (Units=GPa)
#
#
# Indices 1 2 3 4 5 6 
#
# 1 221.9395 31.2108 28.7510 0.0000 7.8564 0.0000
# 2 31.2108 81.3512 22.7463 0.0003 1.8776 0.0001
# 3 28.7510 22.7463 80.9851 0.0001 -7.5303 0.0001
# 4 0.0000 0.0003 0.0001 28.7880 0.0000 -7.8598
# 5 7.8564 1.8776 -7.5303 0.0000 38.7216 0.0000
# 6 0.0000 0.0001 0.0001 -7.8598 0.0000 40.3175
#
#
#
# Elastic Compliance Matrix: (Units=1/GPa)
#
#
# Indices 1 2 3 4 5 6 
#
# 1 0.004943 -0.001461 -0.001458 0.000000 -0.001216 0.000000
# 2 -0.001461 0.013847 -0.003468 0.000000 -0.001049 0.000000
# 3 -0.001458 -0.003468 0.014138 0.000000 0.003213 0.000000
# 4 0.000000 0.000000 0.000000 0.036690 0.000000 0.007153
# 5 -0.001216 -0.001049 0.003213 0.000000 0.026748 0.000000
# 6 0.000000 0.000000 0.000000 0.007153 0.000000 0.026198
#
#
# Mechanical properties :
#
#
# Convention : Reuss Voigt Hill
#
# Bulk Modulus (GPa) = 49.61531 61.07687 55.34609
# Shear Modulus (GPa) = 35.19783 41.66993 38.43388
#
# Velocity S-wave (km/s) = 3.90654 4.25055 4.08217
# Velocity P-wave (km/s) = 6.46994 7.11134 6.79821
#
# Compressibility (1/GPa) = 0.02015507
#
# Stress axis : x y z
#
# Youngs Moduli (GPa) = 202.30587 72.21912 70.72992
#
# Poissons Ratio (x) = 0.10550 0.10309
# Poissons Ratio (y) = 0.29553 0.24530
# Poissons Ratio (z) = 0.29488 0.25046
#
# Static dielectric constant tensor:
#      x y z
#    x 4.876780 0.000000 0.018130 
#    y 0.000000 3.992180 0.000000 
#    z 0.018130 0.000000 3.764700 
# 
# 
# High freq. dielectric constant tensor:
#      x y z
#    x 1.947420 0.000000 -0.009180 
#    y 0.000000 1.914480 0.000000 
#    z -0.009180 0.000000 1.875240 
# 
# From -- ./inp_files/57365.got.cif
#   From: 2010.03.12/outbox.cif.g09.slc.cpg/sg5_29_cif.got.tgz:57365.got - 2010.03.31 09:47:26.
