data_PCOD8050112
_publ_section_title
;
Structure prediction by ZEFSAII (Michael W. Deem and Ramdas Pophale) SiO2 
 PCOD8050112
Probable space group: C 2
;
_chemical_formula_sum "Si O2"
_cell_formula_units_Z 26
_cell_length_a 16.297662
_cell_length_b 11.248146
_cell_length_c 22.094376
_cell_angle_alpha 90.000000
_cell_angle_beta 162.978645
_cell_angle_gamma 90.000000
_cell_volume 1185.638863
_symmetry_space_group_name_H-M "C 2"
_symmetry_group_IT_number 5
_symmetry_cell_setting 'monoclinic'
loop_
_space_group_symop_operation_xyz
x,y,z
-x,y,-z
1/2+x,1/2+y,z
1/2-x,1/2+y,-z
loop_
_atom_site_type_symbol
_atom_site_label
_atom_site_fract_x
_atom_site_fract_y
_atom_site_fract_z
Si Si1 0.349044 0.491090 0.634917
Si Si2 0.312429 0.081946 0.715199
Si Si3 0.448658 0.907064 0.028069
Si Si4 0.344380 0.719930 0.115017
Si Si5 0.959887 0.480891 0.245306
Si Si6 0.980073 0.157463 0.893156
Si Si7 0.500000 0.021939 0.500000
O O1 0.442920 0.629374 0.701339
O O2 0.139516 0.467559 0.432411
O O3 0.209317 0.451292 0.601586
O O4 0.626348 0.411887 0.822990
O O5 0.000000 0.133766 0.500000
O O6 0.342371 0.960614 0.774532
O O7 0.370341 0.051805 0.686120
O O8 0.522699 0.176475 0.894374
O O9 0.537937 0.771305 0.076668
O O10 0.500000 0.974061 0.000000
O O11 0.372159 0.850317 0.161706
O O12 0.409571 0.715560 0.090712
O O13 0.681071 0.556249 0.062902
O O14 0.674228 0.102189 0.669554
#
# Coordination Sequence:
#
# PCOD8050112 Si02
#       7
#     4   4   4   4   4   4   2
#     4  10  24  41  68  97 129 173 219 271 326 384
#     4  10  21  40  67  97 127 170 219 263 325 381
#     4  11  23  39  69  99 133 166 220 275 323 385
#     4   9  21  43  62  93 134 169 213 272 318 390
#     4  11  22  41  67  92 136 172 214 267 330 383
#     4  10  23  39  66  98 127 173 216 267 330 384
#     4  10  24  44  62  92 136 166 218 268 318 394
#
# _framework density 21.929106000000001
#
# number of rings (size 3 to 8) (size 9 to 14) (size 15 to 20)
#    0.000    1.846    1.538    1.846    5.385    1.231 
#    1.385    0.000   16.923    0.000    0.000    0.000 
#    0.000    0.000    0.000    0.000    0.000    0.000 
#
# Total GULP energy -161149.036850 kJ/mol
# GULP energy per Si atom -12396.079758 kJ/mol
# Density = 2.187919 g / cm^3
# Si number density = 21.929106 Si / 1000 Ang^3
#
#
#
# Elastic Constant Matrix: (Units=GPa)
#
#
# Indices 1 2 3 4 5 6 
#
# 1 96.1556 -2.9836 32.4963 0.2051 -0.4933 0.0572
# 2 -2.9836 55.5595 11.0770 0.5739 -7.3373 -0.0526
# 3 32.4963 11.0770 132.6951 0.5418 0.3639 0.0030
# 4 0.2051 0.5739 0.5418 23.2462 -0.1135 -5.5816
# 5 -0.4933 -7.3373 0.3639 -0.1135 41.5682 -0.0191
# 6 0.0572 -0.0526 0.0030 -5.5816 -0.0191 19.6326
#
#
#
# Elastic Compliance Matrix: (Units=1/GPa)
#
#
# Indices 1 2 3 4 5 6 
#
# 1 0.011421 0.001243 -0.002901 -0.000074 0.000380 -0.000050
# 2 0.001243 0.018891 -0.001889 -0.000434 0.003364 -0.000073
# 3 -0.002901 -0.001889 0.008406 -0.000135 -0.000442 -0.000037
# 4 -0.000074 -0.000434 -0.000135 0.046185 0.000056 0.013130
# 5 0.000380 0.003364 -0.000442 0.000056 0.024659 0.000048
# 6 -0.000050 -0.000073 -0.000037 0.013130 0.000048 0.054668
#
#
# Mechanical properties :
#
#
# Convention : Reuss Voigt Hill
#
# Bulk Modulus (GPa) = 31.62262 40.62106 36.12184
# Shear Modulus (GPa) = 27.49270 33.14411 30.31841
#
# Velocity S-wave (km/s) = 3.54462 3.89192 3.72232
# Velocity P-wave (km/s) = 5.58606 6.22576 5.91456
#
# Compressibility (1/GPa) = 0.03162294
#
# Stress axis : x y z
#
# Youngs Moduli (GPa) = 87.55759 52.93596 118.96209
#
# Poissons Ratio (x) = -0.06578 0.34516
# Poissons Ratio (y) = -0.10881 0.22469
# Poissons Ratio (z) = 0.25404 0.09998
#
# Static dielectric constant tensor:
#      x y z
#    x 3.915690 0.000210 -0.002680 
#    y 0.000210 3.828470 -0.000910 
#    z -0.002680 -0.000910 4.073480 
# 
# 
# High freq. dielectric constant tensor:
#      x y z
#    x 1.867440 0.000000 -0.005680 
#    y 0.000000 1.844450 -0.000080 
#    z -0.005680 -0.000080 1.871460 
# 
# From -- ./inp_files/23522.got.cif
#   From: 2010.03.12/outbox.cif.g09.slc.cpg/sg5_12_cif.got.tgz:23522.got - 2010.03.31 09:47:26.
