data_PCOD8050729
_publ_section_title
;
Structure prediction by ZEFSAII (Michael W. Deem and Ramdas Pophale) SiO2 
 PCOD8050729
Probable space group: C 2
;
_chemical_formula_sum "Si O2"
_cell_formula_units_Z 28
_cell_length_a 16.425874
_cell_length_b 5.635925
_cell_length_c 14.699640
_cell_angle_alpha 90.000000
_cell_angle_beta 116.621268
_cell_angle_gamma 90.000000
_cell_volume 1216.555888
_symmetry_space_group_name_H-M "C 2"
_symmetry_group_IT_number 5
_symmetry_cell_setting 'monoclinic'
loop_
_space_group_symop_operation_xyz
x,y,z
-x,y,-z
1/2+x,1/2+y,z
1/2-x,1/2+y,-z
loop_
_atom_site_type_symbol
_atom_site_label
_atom_site_fract_x
_atom_site_fract_y
_atom_site_fract_z
Si Si1 0.192163 0.932330 0.645310
Si Si2 0.016696 0.599923 0.838133
Si Si3 0.500000 0.400959 0.000000
Si Si4 0.131824 0.213938 0.972248
Si Si5 0.682455 0.379250 0.849895
Si Si6 0.748012 0.928816 0.584828
Si Si7 0.000000 0.790597 0.500000
Si Si8 0.396170 0.115907 0.610637
O O1 0.234027 0.678531 0.630219
O O2 0.085424 0.952053 0.569646
O O3 0.207806 0.926731 0.759833
O O4 0.234987 0.180740 0.633705
O O5 0.937679 0.527362 0.727210
O O6 0.975206 0.776764 0.891993
O O7 0.104110 0.683046 0.823323
O O8 0.048217 0.392032 0.919838
O O9 0.404378 0.533259 0.969793
O O10 0.226262 0.318541 0.051219
O O11 0.144523 0.115283 0.877081
O O12 0.850877 0.883121 0.598338
O O13 0.681437 0.930514 0.462854
O O14 0.025088 0.626424 0.426124
#
# Coordination Sequence:
#
# PCOD8050729 Si02
#       8
#     4   4   2   4   4   4   2   4
#     4  11  26  45  73 107 145 197 244 305 377 446
#     4  11  24  47  74 105 146 196 248 309 376 455
#     4  10  26  44  68 112 144 194 248 308 384 440
#     4  11  24  44  72 105 150 195 250 323 361 466
#     4  11  24  43  73 107 146 196 253 305 388 436
#     4  11  27  47  72 106 148 191 244 312 372 450
#     4  10  22  42  70 102 142 180 248 302 354 446
#     4  11  24  49  73 105 144 194 245 309 377 452
#
# _framework density 23.015795000000001
#
# number of rings (size 3 to 8) (size 9 to 14) (size 15 to 20)
#    0.000    1.143    2.857    2.143    4.000    5.714 
#   10.286    0.000    0.000    0.000    0.000    0.000 
#    0.000    0.000    0.000    0.000    0.000    0.000 
#
# Total GULP energy -173438.558706 kJ/mol
# GULP energy per Si atom -12388.468479 kJ/mol
# Density = 2.296341 g / cm^3
# Si number density = 23.015795 Si / 1000 Ang^3
#
#
#
# Elastic Constant Matrix: (Units=GPa)
#
#
# Indices 1 2 3 4 5 6 
#
# 1 97.6665 38.8872 36.8914 0.0000 -13.2249 0.0000
# 2 38.8872 113.5160 38.9515 -0.0001 -17.1461 0.0002
# 3 36.8914 38.9515 131.7570 0.0000 -5.4333 0.0000
# 4 0.0000 -0.0001 0.0000 14.8678 0.0000 21.5670
# 5 -13.2249 -17.1461 -5.4333 0.0000 40.8862 0.0000
# 6 0.0000 0.0002 0.0000 21.5670 0.0000 -26.3137
#
#
#
# Elastic Compliance Matrix: (Units=1/GPa)
#
#
# Indices 1 2 3 4 5 6 
#
# 1 0.012785 -0.003129 -0.002552 0.000000 0.002484 0.000000
# 2 -0.003129 0.011176 -0.002289 0.000000 0.003370 0.000000
# 3 -0.002552 -0.002289 0.008956 0.000000 -0.000595 0.000000
# 4 0.000000 0.000000 0.000000 0.030727 0.000000 0.025184
# 5 0.002484 0.003370 -0.000595 0.000000 0.026596 0.000000
# 6 0.000000 0.000000 0.000000 0.025184 0.000000 -0.017362
#
#
# Mechanical properties :
#
#
# Convention : Reuss Voigt Hill
#
# Bulk Modulus (GPa) = 58.90218 63.59996 61.25107
# Shear Modulus (GPa) = 52.92232 21.10202 37.01217
#
# Velocity S-wave (km/s) = 4.80040 3.03124 4.01449
# Velocity P-wave (km/s) = 7.50818 6.32016 6.93964
#
# Compressibility (1/GPa) = 0.01697730
#
# Stress axis : x y z
#
# Youngs Moduli (GPa) = 78.21550 89.48047 111.65083
#
# Poissons Ratio (x) = 0.27996 0.28498
# Poissons Ratio (y) = 0.24472 0.25555
# Poissons Ratio (z) = 0.19964 0.20481
#
# Static dielectric constant tensor:
#      x y z
#    x 4.486430 0.000000 -0.141700 
#    y 0.000000 4.124540 0.000000 
#    z -0.141700 0.000000 4.164690 
# 
# 
# High freq. dielectric constant tensor:
#      x y z
#    x 1.928000 0.000000 -0.013750 
#    y 0.000000 1.893470 0.000000 
#    z -0.013750 0.000000 1.917170 
# 
# From -- ./inp_files/55337.got.cif
#   From: 2010.03.12/outbox.cif.g09.slc.cpg/sg5_28_cif.got.tgz:55337.got - 2010.03.31 09:47:26.
