data_PCOD8050796
_publ_section_title
;
Structure prediction by ZEFSAII (Michael W. Deem and Ramdas Pophale) SiO2 
 PCOD8050796
Probable space group: C 2
;
_chemical_formula_sum "Si O2"
_cell_formula_units_Z 30
_cell_length_a 20.907032
_cell_length_b 9.743432
_cell_length_c 13.606901
_cell_angle_alpha 90.000000
_cell_angle_beta 148.895911
_cell_angle_gamma 90.000000
_cell_volume 1431.901988
_symmetry_space_group_name_H-M "C 2"
_symmetry_group_IT_number 5
_symmetry_cell_setting 'monoclinic'
loop_
_space_group_symop_operation_xyz
x,y,z
-x,y,-z
1/2+x,1/2+y,z
1/2-x,1/2+y,-z
loop_
_atom_site_type_symbol
_atom_site_label
_atom_site_fract_x
_atom_site_fract_y
_atom_site_fract_z
Si Si1 0.550398 0.986300 0.169100
Si Si2 0.726363 0.343321 0.077640
Si Si3 0.239185 0.640091 0.919013
Si Si4 0.990908 0.791575 0.873263
Si Si5 0.013008 0.215310 0.230885
Si Si6 0.000000 0.589987 0.500000
Si Si7 0.870030 0.385314 0.459855
Si Si8 0.794693 0.991974 0.584753
O O1 0.510174 0.870956 0.190436
O O2 0.488128 0.130431 0.115148
O O3 0.699456 0.008128 0.368634
O O4 0.500000 0.934407 0.000000
O O5 0.770406 0.476798 0.075602
O O6 0.803849 0.319513 0.278330
O O7 0.734686 0.213264 0.017561
O O8 0.587863 0.369626 0.932647
O O9 0.121327 0.680592 0.692838
O O10 0.371652 0.665648 0.041384
O O11 0.859995 0.843740 0.659264
O O12 0.000000 0.832283 0.000000
O O13 0.069670 0.246939 0.413326
O O14 0.102914 0.114765 0.285294
O O15 0.971144 0.494801 0.556300
O O16 0.779268 0.478576 0.409353
#
# Coordination Sequence:
#
# PCOD8050796 Si02
#       8
#     4   4   4   4   4   2   4   4
#     4  10  24  38  61  96 137 174 207 270 334 382
#     4  11  24  43  71  93 129 171 222 266 328 392
#     4  11  25  45  66  97 126 178 221 272 323 398
#     4  11  22  42  66  98 128 172 216 266 333 391
#     4  11  23  42  67 102 132 170 225 271 324 390
#     4  10  24  46  64  92 132 180 218 262 336 394
#     4  10  22  43  70  94 131 180 213 265 335 401
#     4  11  22  41  66 100 130 169 227 269 321 395
#
# _framework density 20.951153999999999
#
# number of rings (size 3 to 8) (size 9 to 14) (size 15 to 20)
#    0.000    1.333    2.667    3.200    7.467    2.667 
#    2.400    1.333    0.000    0.000    0.000    0.000 
#    0.000    0.000    0.000    0.000    0.000    0.000 
#
# Total GULP energy -185839.721992 kJ/mol
# GULP energy per Si atom -12389.314799 kJ/mol
# Density = 2.090347 g / cm^3
# Si number density = 20.951154 Si / 1000 Ang^3
#
#
#
# Elastic Constant Matrix: (Units=GPa)
#
#
# Indices 1 2 3 4 5 6 
#
# 1 106.4742 42.8714 55.0387 0.0000 13.5369 0.0000
# 2 42.8714 70.3882 39.2789 0.0000 -6.7655 0.0000
# 3 55.0387 39.2789 150.6658 0.0000 7.1857 0.0000
# 4 0.0000 0.0000 0.0000 32.7366 0.0000 -0.3997
# 5 13.5369 -6.7655 7.1857 0.0000 34.6025 0.0000
# 6 0.0000 0.0000 0.0000 -0.3997 0.0000 31.9223
#
#
#
# Elastic Compliance Matrix: (Units=1/GPa)
#
#
# Indices 1 2 3 4 5 6 
#
# 1 0.015147 -0.008172 -0.003074 0.000000 -0.006885 0.000000
# 2 -0.008172 0.021659 -0.003046 0.000000 0.008064 0.000000
# 3 -0.003074 -0.003046 0.008611 0.000000 -0.001181 0.000000
# 4 0.000000 0.000000 0.000000 0.030552 0.000000 0.000383
# 5 -0.006885 0.008064 -0.001181 0.000000 0.033415 0.000000
# 6 0.000000 0.000000 0.000000 0.000383 0.000000 0.031331
#
#
# Mechanical properties :
#
#
# Convention : Reuss Voigt Hill
#
# Bulk Modulus (GPa) = 59.40963 66.87849 63.14406
# Shear Modulus (GPa) = 28.58632 32.54154 30.56393
#
# Velocity S-wave (km/s) = 3.69782 3.94535 3.82359
# Velocity P-wave (km/s) = 6.83006 7.26257 7.04963
#
# Compressibility (1/GPa) = 0.01683229
#
# Stress axis : x y z
#
# Youngs Moduli (GPa) = 66.02054 46.17043 116.13395
#
# Poissons Ratio (x) = 0.37729 0.35705
# Poissons Ratio (y) = 0.53949 0.35375
# Poissons Ratio (z) = 0.20298 0.14064
#
# Static dielectric constant tensor:
#      x y z
#    x 3.805050 0.000000 0.085470 
#    y 0.000000 3.681300 0.000000 
#    z 0.085470 0.000000 4.294520 
# 
# 
# High freq. dielectric constant tensor:
#      x y z
#    x 1.813530 0.000000 0.014880 
#    y 0.000000 1.809730 0.000000 
#    z 0.014880 0.000000 1.837170 
# 
# From -- ./inp_files/57637.got.cif
#   From: 2010.03.12/outbox.cif.g09.slc.cpg/sg5_29_cif.got.tgz:57637.got - 2010.03.31 09:47:26.
