data_PCOD8050477
_publ_section_title
;
Structure prediction by ZEFSAII (Michael W. Deem and Ramdas Pophale) SiO2 
 PCOD8050477
Probable space group: C 2
;
_chemical_formula_sum "Si O2"
_cell_formula_units_Z 26
_cell_length_a 12.430802
_cell_length_b 14.641394
_cell_length_c 10.340417
_cell_angle_alpha 90.000000
_cell_angle_beta 144.750375
_cell_angle_gamma 90.000000
_cell_volume 1086.177215
_symmetry_space_group_name_H-M "C 2"
_symmetry_group_IT_number 5
_symmetry_cell_setting 'monoclinic'
loop_
_space_group_symop_operation_xyz
x,y,z
-x,y,-z
1/2+x,1/2+y,z
1/2-x,1/2+y,-z
loop_
_atom_site_type_symbol
_atom_site_label
_atom_site_fract_x
_atom_site_fract_y
_atom_site_fract_z
Si Si1 0.000000 0.994010 0.000000
Si Si2 0.051969 0.602918 0.793148
Si Si3 0.330946 0.752121 0.031146
Si Si4 0.783890 0.337960 0.253869
Si Si5 0.000000 0.032430 0.500000
Si Si6 0.649855 0.944053 0.044650
Si Si7 0.500000 0.199301 0.000000
Si Si8 0.126220 0.114272 0.358576
O O1 0.809581 0.936376 0.820727
O O2 0.983830 0.051261 0.851754
O O3 0.844088 0.614451 0.535096
O O4 0.082859 0.635840 0.970289
O O5 0.194286 0.667809 0.850739
O O6 0.105592 0.494384 0.860916
O O7 0.247769 0.802175 0.074397
O O8 0.539285 0.714637 0.258199
O O9 0.353707 0.834139 0.953475
O O10 0.000000 0.343316 0.500000
O O11 0.667006 0.263340 0.223841
O O12 0.901596 0.090474 0.517125
O O13 0.855492 0.967883 0.288889
O O14 0.500000 0.980067 0.000000
#
# Coordination Sequence:
#
# PCOD8050477 Si02
#       8
#     2   4   4   4   2   4   2   4
#     4  11  28  46  65 106 146 184 243 302 375 430
#     4  11  22  45  72 100 144 192 242 298 376 432
#     4  11  27  43  70 110 146 184 255 308 368 443
#     4  10  22  39  69  96 136 180 237 293 362 425
#     4  12  24  46  84 108 142 202 260 298 368 456
#     4  12  25  44  74 111 146 191 251 314 370 447
#     4   9  18  38  63 108 128 166 235 302 333 436
#     4  12  26  46  75 104 149 197 243 309 367 446
#
# _framework density 23.937162000000001
#
# number of rings (size 3 to 8) (size 9 to 14) (size 15 to 20)
#    0.000    0.923    3.846    1.846    6.462    1.231 
#    0.000    0.000    0.000    0.000    0.000    0.000 
#    0.000    0.000    0.000    0.000    0.000    0.000 
#
# Total GULP energy -161104.825471 kJ/mol
# GULP energy per Si atom -12392.678882 kJ/mol
# Density = 2.388268 g / cm^3
# Si number density = 23.937162 Si / 1000 Ang^3
#
#
#
# Elastic Constant Matrix: (Units=GPa)
#
#
# Indices 1 2 3 4 5 6 
#
# 1 43.8440 14.2529 22.1114 0.0000 12.6781 0.0000
# 2 14.2529 133.3085 39.4956 0.0000 15.3399 0.0000
# 3 22.1114 39.4956 123.5483 0.0000 37.5612 0.0000
# 4 0.0000 0.0000 0.0000 23.7580 0.0000 12.0710
# 5 12.6781 15.3399 37.5612 0.0000 44.2529 0.0000
# 6 0.0000 0.0000 0.0000 12.0710 0.0000 31.2591
#
#
#
# Elastic Compliance Matrix: (Units=1/GPa)
#
#
# Indices 1 2 3 4 5 6 
#
# 1 0.026010 -0.001422 -0.002810 0.000000 -0.004574 0.000000
# 2 -0.001422 0.008387 -0.002246 0.000000 -0.000593 0.000000
# 3 -0.002810 -0.002246 0.011906 0.000000 -0.008522 0.000000
# 4 0.000000 0.000000 0.000000 0.052365 0.000000 -0.020221
# 5 -0.004574 -0.000593 -0.008522 0.000000 0.031347 0.000000
# 6 0.000000 0.000000 0.000000 -0.020221 0.000000 0.039799
#
#
# Mechanical properties :
#
#
# Convention : Reuss Voigt Hill
#
# Bulk Modulus (GPa) = 29.98823 50.26895 40.12859
# Shear Modulus (GPa) = 25.78836 34.84341 30.31589
#
# Velocity S-wave (km/s) = 3.28584 3.81940 3.56262
# Velocity P-wave (km/s) = 5.19141 6.36368 5.80720
#
# Compressibility (1/GPa) = 0.03334642
#
# Stress axis : x y z
#
# Youngs Moduli (GPa) = 38.44666 119.22880 83.99286
#
# Poissons Ratio (x) = 0.16956 0.23601
# Poissons Ratio (y) = 0.05468 0.18867
# Poissons Ratio (z) = 0.10803 0.26783
#
# Static dielectric constant tensor:
#      x y z
#    x 4.399710 0.000000 0.349620 
#    y 0.000000 4.718900 0.000000 
#    z 0.349620 0.000000 4.199640 
# 
# 
# High freq. dielectric constant tensor:
#      x y z
#    x 1.938740 0.000000 0.028310 
#    y 0.000000 1.965970 0.000000 
#    z 0.028310 0.000000 1.938300 
# 
# From -- ./inp_files/43049.got.cif
#   From: 2010.03.12/outbox.cif.g09.slc.cpg/sg5_22_cif.got.tgz:43049.got - 2010.03.31 09:47:26.
