data_PCOD8050630
_publ_section_title
;
Structure prediction by ZEFSAII (Michael W. Deem and Ramdas Pophale) SiO2 
 PCOD8050630
Probable space group: C 2
;
_chemical_formula_sum "Si O2"
_cell_formula_units_Z 30
_cell_length_a 18.869291
_cell_length_b 12.754574
_cell_length_c 10.434935
_cell_angle_alpha 90.000000
_cell_angle_beta 148.541513
_cell_angle_gamma 90.000000
_cell_volume 1310.637194
_symmetry_space_group_name_H-M "C 2"
_symmetry_group_IT_number 5
_symmetry_cell_setting 'monoclinic'
loop_
_space_group_symop_operation_xyz
x,y,z
-x,y,-z
1/2+x,1/2+y,z
1/2-x,1/2+y,-z
loop_
_atom_site_type_symbol
_atom_site_label
_atom_site_fract_x
_atom_site_fract_y
_atom_site_fract_z
Si Si1 0.256714 0.039250 0.428701
Si Si2 0.000000 0.171641 0.500000
Si Si3 0.660682 0.318881 0.255267
Si Si4 0.224735 0.763688 0.631261
Si Si5 0.784440 0.110613 0.361283
Si Si6 0.830328 0.322323 0.059247
Si Si7 0.942645 0.735090 0.280745
Si Si8 0.565674 0.024728 0.873290
O O1 0.253544 0.137918 0.328235
O O2 0.176381 0.074338 0.434177
O O3 0.415047 0.013668 0.696421
O O4 0.185838 0.939156 0.250711
O O5 0.096627 0.098950 0.560980
O O6 0.077651 0.240024 0.725140
O O7 0.742971 0.309625 0.517174
O O8 0.730827 0.231942 0.272984
O O9 0.500000 0.293870 0.000000
O O10 0.067543 0.797208 0.410487
O O11 0.325554 0.804572 0.896975
O O12 0.669980 0.023531 0.152782
O O13 0.899218 0.436139 0.178612
O O14 0.679581 0.317265 0.886166
O O15 0.895592 0.636832 0.126468
O O16 0.000000 0.686196 0.500000
#
# Coordination Sequence:
#
# PCOD8050630 Si02
#       8
#     4   2   4   4   4   4   4   4
#     4  10  22  41  68  95 125 173 228 271 336 391
#     4  12  26  42  62 100 142 178 220 282 328 384
#     4  11  22  40  70 101 126 169 229 287 329 389
#     4   9  21  42  64  90 130 175 217 270 332 396
#     4  11  23  44  64  96 138 175 220 275 336 402
#     4  11  23  41  63  95 135 171 219 274 329 396
#     4   9  19  39  59  87 124 169 211 257 324 398
#     4  11  21  41  66  92 123 177 221 269 331 394
#
# _framework density 22.889631000000001
#
# number of rings (size 3 to 8) (size 9 to 14) (size 15 to 20)
#    0.000    1.600    1.333    4.400    0.933    1.067 
#    8.400    4.667    0.000    0.000    0.000    0.000 
#    0.000    0.000    0.000    0.000    0.000    0.000 
#
# Total GULP energy -185857.536439 kJ/mol
# GULP energy per Si atom -12390.502429 kJ/mol
# Density = 2.283753 g / cm^3
# Si number density = 22.889631 Si / 1000 Ang^3
#
#
#
# Elastic Constant Matrix: (Units=GPa)
#
#
# Indices 1 2 3 4 5 6 
#
# 1 109.1451 24.8196 24.6688 0.0000 15.1151 0.0000
# 2 24.8196 76.5374 7.3932 0.0000 11.1402 0.0000
# 3 24.6688 7.3932 74.2079 0.0000 -0.2769 0.0000
# 4 0.0000 0.0000 0.0000 21.8990 0.0000 -2.1938
# 5 15.1151 11.1402 -0.2769 0.0000 32.7820 0.0000
# 6 0.0000 0.0000 0.0000 -2.1938 0.0000 27.9431
#
#
#
# Elastic Compliance Matrix: (Units=1/GPa)
#
#
# Indices 1 2 3 4 5 6 
#
# 1 0.011137 -0.002658 -0.003453 0.000000 -0.004261 0.000000
# 2 -0.002658 0.014524 -0.000577 0.000000 -0.003715 0.000000
# 3 -0.003453 -0.000577 0.014688 0.000000 0.001913 0.000000
# 4 0.000000 0.000000 0.000000 0.046026 0.000000 0.003613
# 5 -0.004261 -0.003715 0.001913 0.000000 0.033748 0.000000
# 6 0.000000 0.000000 0.000000 0.003613 0.000000 0.036071
#
#
# Mechanical properties :
#
#
# Convention : Reuss Voigt Hill
#
# Bulk Modulus (GPa) = 37.07505 41.51705 39.29605
# Shear Modulus (GPa) = 28.00152 30.05876 29.03014
#
# Velocity S-wave (km/s) = 3.50140 3.62775 3.56514
# Velocity P-wave (km/s) = 5.70779 5.97701 5.84396
#
# Compressibility (1/GPa) = 0.02697232
#
# Stress axis : x y z
#
# Youngs Moduli (GPa) = 89.78977 68.85218 68.08135
#
# Poissons Ratio (x) = 0.18299 0.23511
# Poissons Ratio (y) = 0.23864 0.03931
# Poissons Ratio (z) = 0.31008 0.03975
#
# Static dielectric constant tensor:
#      x y z
#    x 4.293560 0.000000 -0.034590 
#    y 0.000000 4.014900 0.000000 
#    z -0.034590 0.000000 4.048730 
# 
# 
# High freq. dielectric constant tensor:
#      x y z
#    x 1.901140 0.000000 -0.004310 
#    y 0.000000 1.893950 0.000000 
#    z -0.004310 0.000000 1.898100 
# 
# From -- ./inp_files/46494.got.cif
#   From: 2010.03.12/outbox.cif.g09.slc.cpg/sg5_24_cif.got.tgz:46494.got - 2010.03.31 09:47:26.
