data_PCOD8050736
_publ_section_title
;
Structure prediction by ZEFSAII (Michael W. Deem and Ramdas Pophale) SiO2 
 PCOD8050736
Probable space group: C 2
;
_chemical_formula_sum "Si O2"
_cell_formula_units_Z 20
_cell_length_a 8.876829
_cell_length_b 16.768773
_cell_length_c 6.773085
_cell_angle_alpha 90.000000
_cell_angle_beta 57.631511
_cell_angle_gamma 90.000000
_cell_volume 851.546376
_symmetry_space_group_name_H-M "C 2"
_symmetry_group_IT_number 5
_symmetry_cell_setting 'monoclinic'
loop_
_space_group_symop_operation_xyz
x,y,z
-x,y,-z
1/2+x,1/2+y,z
1/2-x,1/2+y,-z
loop_
_atom_site_type_symbol
_atom_site_label
_atom_site_fract_x
_atom_site_fract_y
_atom_site_fract_z
Si Si1 0.841358 0.585010 0.340591
Si Si2 0.863751 0.889686 0.240467
Si Si3 0.715121 0.042712 0.168428
Si Si4 0.000000 0.162583 0.000000
Si Si5 0.668519 0.739461 0.513693
Si Si6 0.000000 0.989208 0.500000
O O1 0.817701 0.572428 0.588461
O O2 0.823262 0.680345 0.325304
O O3 0.682929 0.539293 0.334484
O O4 0.042081 0.554718 0.146133
O O5 0.732491 0.830391 0.447223
O O6 0.978593 0.936915 0.320563
O O7 0.761053 0.949394 0.161957
O O8 0.000000 0.842451 0.000000
O O9 0.869886 0.100845 0.972354
O O10 0.110959 0.220720 0.778470
O O11 0.500000 0.723683 0.500000
#
# Coordination Sequence:
#
# PCOD8050736 Si02
#       6
#     4   4   4   2   4   2
#     4   9  19  39  69  99 129 183 231 278 331 417
#     4  11  25  43  67 102 141 179 221 297 347 400
#     4   9  19  39  74  97 130 181 235 273 344 402
#     4  10  22  46  72 100 136 188 228 284 338 422
#     4  11  25  41  68 100 145 172 229 289 351 400
#     4  10  22  42  70  96 140 176 236 278 338 418
#
# _framework density 23.486685000000001
#
# number of rings (size 3 to 8) (size 9 to 14) (size 15 to 20)
#    0.000    2.000    2.000    0.000    5.600    6.400 
#    0.000    3.000    0.000    0.000    2.600    0.000 
#    0.000    0.000    0.000    0.000    0.000    0.000 
#
# Total GULP energy -123914.036968 kJ/mol
# GULP energy per Si atom -12391.403697 kJ/mol
# Density = 2.343323 g / cm^3
# Si number density = 23.486685 Si / 1000 Ang^3
#
#
#
# Elastic Constant Matrix: (Units=GPa)
#
#
# Indices 1 2 3 4 5 6 
#
# 1 135.9349 43.3367 37.9299 0.0000 -25.6388 0.0000
# 2 43.3367 143.0978 64.9022 0.0000 -10.7483 0.0000
# 3 37.9299 64.9022 90.3001 0.0000 -30.1518 0.0000
# 4 0.0000 0.0000 0.0000 17.8556 0.0000 -0.4420
# 5 -25.6388 -10.7483 -30.1518 0.0000 37.8707 0.0000
# 6 0.0000 0.0000 0.0000 -0.4420 0.0000 22.0081
#
#
#
# Elastic Compliance Matrix: (Units=1/GPa)
#
#
# Indices 1 2 3 4 5 6 
#
# 1 0.009167 -0.002106 -0.000632 0.000000 0.005105 0.000000
# 2 -0.002106 0.011335 -0.009077 0.000000 -0.005436 0.000000
# 3 -0.000632 -0.009077 0.022966 0.000000 0.015281 0.000000
# 4 0.000000 0.000000 0.000000 0.056033 0.000000 0.001125
# 5 0.005105 -0.005436 0.015281 0.000000 0.040485 0.000000
# 6 0.000000 0.000000 0.000000 0.001125 0.000000 0.045460
#
#
# Mechanical properties :
#
#
# Convention : Reuss Voigt Hill
#
# Bulk Modulus (GPa) = 50.41020 73.51892 61.96456
# Shear Modulus (GPa) = 23.18142 30.42448 26.80295
#
# Velocity S-wave (km/s) = 3.14507 3.60306 3.38183
# Velocity P-wave (km/s) = 5.89054 6.97709 6.45671
#
# Compressibility (1/GPa) = 0.01983726
#
# Stress axis : x y z
#
# Youngs Moduli (GPa) = 109.08479 88.22481 43.54211
#
# Poissons Ratio (x) = 0.18580 0.02753
# Poissons Ratio (y) = 0.22973 0.39524
# Poissons Ratio (z) = 0.06897 0.80083
#
# Static dielectric constant tensor:
#      x y z
#    x 4.751190 0.000000 -0.392030 
#    y 0.000000 4.264030 0.000000 
#    z -0.392030 0.000000 4.542900 
# 
# 
# High freq. dielectric constant tensor:
#      x y z
#    x 1.937610 0.000000 -0.000450 
#    y 0.000000 1.912870 0.000000 
#    z -0.000450 0.000000 1.938670 
# 
# From -- ./inp_files/15594.got.cif
#   From: 2010.03.12/outbox.cif.g09.slc.cpg/sg5_8_cif.got.tgz:15594.got - 2010.03.31 09:47:26.
