data_PCOD8050234
_publ_section_title
;
Structure prediction by ZEFSAII (Michael W. Deem and Ramdas Pophale) SiO2 
 PCOD8050234
Probable space group: C 2
;
_chemical_formula_sum "Si O2"
_cell_formula_units_Z 30
_cell_length_a 12.369740
_cell_length_b 8.381042
_cell_length_c 14.029329
_cell_angle_alpha 90.000000
_cell_angle_beta 112.341219
_cell_angle_gamma 90.000000
_cell_volume 1345.263640
_symmetry_space_group_name_H-M "C 2"
_symmetry_group_IT_number 5
_symmetry_cell_setting 'monoclinic'
loop_
_space_group_symop_operation_xyz
x,y,z
-x,y,-z
1/2+x,1/2+y,z
1/2-x,1/2+y,-z
loop_
_atom_site_type_symbol
_atom_site_label
_atom_site_fract_x
_atom_site_fract_y
_atom_site_fract_z
Si Si1 0.352404 0.415830 0.831178
Si Si2 0.518582 0.728723 0.179707
Si Si3 0.227778 0.194933 0.659914
Si Si4 0.676110 0.503308 0.814375
Si Si5 0.089247 0.479489 0.345508
Si Si6 0.944819 0.712765 0.178086
Si Si7 0.317111 0.946131 0.050953
Si Si8 0.500000 0.819053 0.500000
O O1 0.399123 0.599415 0.847470
O O2 0.274987 0.368873 0.710777
O O3 0.461606 0.293342 0.862777
O O4 0.274911 0.383202 0.899433
O O5 0.419579 0.639250 0.204908
O O6 0.438940 0.844097 0.084922
O O7 0.603474 0.824186 0.281282
O O8 0.252526 0.067290 0.753332
O O9 0.303707 0.104742 0.605130
O O10 0.095400 0.205237 0.581088
O O11 0.606783 0.342568 0.766225
O O12 0.755537 0.451433 0.929179
O O13 0.061918 0.429142 0.443403
O O14 0.984179 0.574195 0.262027
O O15 0.845661 0.631695 0.080095
#
# Coordination Sequence:
#
# PCOD8050234 Si02
#       8
#     4   4   4   4   4   4   4   2
#     4  10  22  42  68  93 137 179 221 265 334 390
#     4  10  21  42  66  98 133 177 225 269 324 402
#     4  11  24  46  70  98 133 178 218 292 341 400
#     4  11  21  41  65  95 144 175 219 273 329 385
#     4  10  23  46  67  97 126 171 222 280 351 404
#     4   9  22  39  63  98 134 172 224 263 322 403
#     4  11  21  40  63  98 140 184 220 264 315 390
#     4  12  24  50  74  90 132 166 228 294 352 396
#
# _framework density 22.300460999999999
#
# number of rings (size 3 to 8) (size 9 to 14) (size 15 to 20)
#    0.000    1.600    2.667    1.600    1.867    3.200 
#    9.600    1.333    0.000    0.000    0.000    0.000 
#    0.000    0.000    0.000    0.000    0.000    0.000 
#
# Total GULP energy -185829.318672 kJ/mol
# GULP energy per Si atom -12388.621245 kJ/mol
# Density = 2.224970 g / cm^3
# Si number density = 22.300461 Si / 1000 Ang^3
#
#
#
# Elastic Constant Matrix: (Units=GPa)
#
#
# Indices 1 2 3 4 5 6 
#
# 1 90.4504 35.7001 43.8790 0.0000 4.0289 0.0000
# 2 35.7001 110.0923 39.7292 0.0000 3.2681 0.0000
# 3 43.8790 39.7292 97.0461 0.0000 -4.3476 0.0000
# 4 0.0000 0.0000 0.0000 15.8040 0.0000 -7.8061
# 5 4.0289 3.2681 -4.3476 0.0000 26.1716 0.0000
# 6 0.0000 0.0000 0.0000 -7.8061 0.0000 39.2434
#
#
#
# Elastic Compliance Matrix: (Units=1/GPa)
#
#
# Indices 1 2 3 4 5 6 
#
# 1 0.015090 -0.002693 -0.005853 0.000000 -0.002959 0.000000
# 2 -0.002693 0.011251 -0.003458 0.000000 -0.001565 0.000000
# 3 -0.005853 -0.003458 0.014534 0.000000 0.003747 0.000000
# 4 0.000000 0.000000 0.000000 0.070169 0.000000 0.013958
# 5 -0.002959 -0.001565 0.003747 0.000000 0.039483 0.000000
# 6 0.000000 0.000000 0.000000 0.013958 0.000000 0.028258
#
#
# Mechanical properties :
#
#
# Convention : Reuss Voigt Hill
#
# Bulk Modulus (GPa) = 59.28931 59.57838 59.43385
# Shear Modulus (GPa) = 23.99036 28.12916 26.05976
#
# Velocity S-wave (km/s) = 3.28346 3.55543 3.42215
# Velocity P-wave (km/s) = 6.40462 6.60523 6.50570
#
# Compressibility (1/GPa) = 0.01686645
#
# Stress axis : x y z
#
# Youngs Moduli (GPa) = 66.26956 88.87983 68.80237
#
# Poissons Ratio (x) = 0.23938 0.40269
# Poissons Ratio (y) = 0.17848 0.23795
# Poissons Ratio (z) = 0.38786 0.30738
#
# Static dielectric constant tensor:
#      x y z
#    x 4.149550 0.000000 0.172970 
#    y 0.000000 4.450150 0.000000 
#    z 0.172970 0.000000 3.711640 
# 
# 
# High freq. dielectric constant tensor:
#      x y z
#    x 1.882940 0.000000 0.011670 
#    y 0.000000 1.897500 0.000000 
#    z 0.011670 0.000000 1.845260 
# 
# From -- ./inp_files/52491.got.cif
#   From: 2010.03.12/outbox.cif.g09.slc.cpg/sg5_27_cif.got.tgz:52491.got - 2010.03.31 09:47:26.
