data_PCOD8050131
_publ_section_title
;
Structure prediction by ZEFSAII (Michael W. Deem and Ramdas Pophale) SiO2 
 PCOD8050131
Probable space group: C 2
;
_chemical_formula_sum "Si O2"
_cell_formula_units_Z 24
_cell_length_a 8.984920
_cell_length_b 16.998478
_cell_length_c 14.747490
_cell_angle_alpha 90.000000
_cell_angle_beta 33.397839
_cell_angle_gamma 90.000000
_cell_volume 1239.822885
_symmetry_space_group_name_H-M "C 2"
_symmetry_group_IT_number 5
_symmetry_cell_setting 'monoclinic'
loop_
_space_group_symop_operation_xyz
x,y,z
-x,y,-z
1/2+x,1/2+y,z
1/2-x,1/2+y,-z
loop_
_atom_site_type_symbol
_atom_site_label
_atom_site_fract_x
_atom_site_fract_y
_atom_site_fract_z
Si Si1 0.000000 0.391910 0.000000
Si Si2 0.688692 0.194469 0.823398
Si Si3 0.185908 0.703735 0.493397
Si Si4 0.306835 0.018587 0.236008
Si Si5 0.180054 0.532143 0.566684
Si Si6 0.000000 0.430547 0.500000
Si Si7 0.047995 0.805289 0.729881
O O1 0.949458 0.447524 0.111669
O O2 0.756439 0.333331 0.101612
O O3 0.622934 0.102543 0.843544
O O4 0.623539 0.238387 0.763275
O O5 0.998941 0.210455 0.693895
O O6 0.500000 0.227026 0.000000
O O7 0.138003 0.624089 0.572412
O O8 0.097627 0.774575 0.603120
O O9 0.000000 0.707676 0.500000
O O10 0.416889 0.014159 0.282423
O O11 0.987133 0.005753 0.395601
O O12 0.996972 0.484487 0.590429
O O13 0.265933 0.380268 0.351035
#
# Coordination Sequence:
#
# PCOD8050131 Si02
#       7
#     2   4   4   4   4   2   4
#     4  12  26  42  66 102 136 164 218 280 324 374
#     4  11  23  42  70  96 131 173 218 268 325 388
#     4  11  23  42  69  98 127 176 224 259 321 398
#     4  10  21  42  68  95 128 176 219 259 324 393
#     4  10  21  40  71  95 126 174 223 261 317 396
#     4  12  22  42  66  98 130 166 216 276 324 376
#     4  12  26  44  64  98 139 168 212 276 333 378
#
# _framework density 19.357603000000001
#
# number of rings (size 3 to 8) (size 9 to 14) (size 15 to 20)
#    0.000    1.000    6.667    0.000    2.333    2.667 
#    0.000    0.000    0.000    0.000    0.000    0.000 
#    0.000    0.000    0.000    0.000    0.000    0.000 
#
# Total GULP energy -148853.589215 kJ/mol
# GULP energy per Si atom -12404.465768 kJ/mol
# Density = 1.931354 g / cm^3
# Si number density = 19.357603 Si / 1000 Ang^3
#
#
#
# Elastic Constant Matrix: (Units=GPa)
#
#
# Indices 1 2 3 4 5 6 
#
# 1 146.1905 38.5371 59.0335 0.0295 2.6832 0.0333
# 2 38.5371 76.4684 40.3914 0.0681 -9.0546 0.0907
# 3 59.0335 40.3914 101.8914 -0.1543 -0.6507 -0.2047
# 4 0.0295 0.0681 -0.1543 31.7875 -0.0257 -6.5787
# 5 2.6832 -9.0546 -0.6507 -0.0257 38.1338 0.0329
# 6 0.0333 0.0907 -0.2047 -6.5787 0.0329 26.6246
#
#
#
# Elastic Compliance Matrix: (Units=1/GPa)
#
#
# Indices 1 2 3 4 5 6 
#
# 1 0.009307 -0.002523 -0.004401 -0.000035 -0.001329 -0.000044
# 2 -0.002523 0.017800 -0.005567 -0.000086 0.004309 -0.000127
# 3 -0.004401 -0.005567 0.014567 0.000121 -0.000764 0.000167
# 4 -0.000035 -0.000086 0.000121 0.033155 -0.000001 0.008194
# 5 -0.001329 0.004309 -0.000764 -0.000001 0.027327 -0.000053
# 6 -0.000044 -0.000127 0.000167 0.008194 -0.000053 0.039586
#
#
# Mechanical properties :
#
#
# Convention : Reuss Voigt Hill
#
# Bulk Modulus (GPa) = 59.91075 66.71935 63.31505
# Shear Modulus (GPa) = 29.02124 31.74841 30.38483
#
# Velocity S-wave (km/s) = 3.87617 4.05421 3.96619
# Velocity P-wave (km/s) = 7.14490 7.51379 7.33167
#
# Compressibility (1/GPa) = 0.01669150
#
# Stress axis : x y z
#
# Youngs Moduli (GPa) = 107.44649 56.17983 68.65036
#
# Poissons Ratio (x) = 0.14175 0.30211
# Poissons Ratio (y) = 0.27111 0.38219
# Poissons Ratio (z) = 0.47283 0.31276
#
# Static dielectric constant tensor:
#      x y z
#    x 3.141300 -0.000030 0.096460 
#    y -0.000030 3.593850 0.000190 
#    z 0.096460 0.000190 3.495920 
# 
# 
# High freq. dielectric constant tensor:
#      x y z
#    x 1.762640 0.000000 0.005530 
#    y 0.000000 1.764670 0.000010 
#    z 0.005530 0.000010 1.747770 
# 
# From -- ./inp_files/14973.got.cif
#   From: 2010.03.12/outbox.cif.g09.slc.cpg/sg5_8_cif.got.tgz:14973.got - 2010.03.31 09:47:26.
