data_PCOD8050135
_publ_section_title
;
Structure prediction by ZEFSAII (Michael W. Deem and Ramdas Pophale) SiO2 
 PCOD8050135
Probable space group: C 2
;
_chemical_formula_sum "Si O2"
_cell_formula_units_Z 32
_cell_length_a 11.065842
_cell_length_b 8.844439
_cell_length_c 30.622193
_cell_angle_alpha 90.000000
_cell_angle_beta 148.335168
_cell_angle_gamma 90.000000
_cell_volume 1573.288717
_symmetry_space_group_name_H-M "C 2"
_symmetry_group_IT_number 5
_symmetry_cell_setting 'monoclinic'
loop_
_space_group_symop_operation_xyz
x,y,z
-x,y,-z
1/2+x,1/2+y,z
1/2-x,1/2+y,-z
loop_
_atom_site_type_symbol
_atom_site_label
_atom_site_fract_x
_atom_site_fract_y
_atom_site_fract_z
Si Si1 0.645170 0.284530 0.820910
Si Si2 0.499859 0.927725 0.400686
Si Si3 0.215483 0.224744 0.735827
Si Si4 0.743647 0.074039 0.093285
Si Si5 0.594509 0.607261 0.948888
Si Si6 0.279123 0.721811 0.460257
Si Si7 0.554078 0.427677 0.320455
Si Si8 0.957502 0.774916 0.898392
O O1 0.430315 0.180810 0.770221
O O2 0.628742 0.435580 0.844783
O O3 0.621941 0.329617 0.763030
O O4 0.881380 0.198879 0.902756
O O5 0.642853 0.076051 0.434016
O O6 0.274618 0.973646 0.359182
O O7 0.438444 0.849881 0.335764
O O8 0.651531 0.811765 0.475130
O O9 0.310647 0.297916 0.809683
O O10 0.067039 0.077596 0.699585
O O11 0.894953 0.136219 0.099862
O O12 0.713219 0.210884 0.117547
O O13 0.500000 0.015039 0.000000
O O14 0.562832 0.430431 0.948736
O O15 0.829622 0.660163 0.044820
O O16 0.500000 0.670592 0.500000
O O17 0.117597 0.828921 0.381799
#
# Coordination Sequence:
#
# PCOD8050135 Si02
#       8
#     4   4   4   4   4   4   4   4
#     4  11  23  39  63  87 125 169 209 266 317 367
#     4  10  23  42  67  97 127 167 201 254 315 372
#     4  11  23  41  62  94 131 164 210 258 320 371
#     4  10  21  41  59  82 118 162 211 268 315 365
#     4  11  24  41  61  87 122 166 223 266 317 368
#     4  10  22  43  70  95 127 161 207 249 305 383
#     4  10  23  41  61  92 131 163 205 255 312 375
#     4  11  23  41  63  88 123 169 215 268 319 370
#
# _framework density 20.339559000000001
#
# number of rings (size 3 to 8) (size 9 to 14) (size 15 to 20)
#    0.000    1.500    2.500    2.250    1.750    2.000 
#    6.750    0.000    0.000    0.000    0.000    0.000 
#    0.000    0.000    0.000    0.000    0.000    0.000 
#
# Total GULP energy -198444.706503 kJ/mol
# GULP energy per Si atom -12402.794156 kJ/mol
# Density = 2.029327 g / cm^3
# Si number density = 20.339559 Si / 1000 Ang^3
#
#
#
# Elastic Constant Matrix: (Units=GPa)
#
#
# Indices 1 2 3 4 5 6 
#
# 1 95.6275 63.1683 31.9319 0.0000 -0.3725 0.0000
# 2 63.1683 125.9837 47.4599 0.0000 0.9332 0.0000
# 3 31.9319 47.4599 111.4384 0.0000 -23.0411 0.0000
# 4 0.0000 0.0000 0.0000 33.0650 0.0000 4.6337
# 5 -0.3725 0.9332 -23.0411 0.0000 29.3181 0.0000
# 6 0.0000 0.0000 0.0000 4.6337 0.0000 38.8703
#
#
#
# Elastic Compliance Matrix: (Units=1/GPa)
#
#
# Indices 1 2 3 4 5 6 
#
# 1 0.015826 -0.007335 -0.001577 0.000000 -0.000805 0.000000
# 2 -0.007335 0.013294 -0.004378 0.000000 -0.003957 0.000000
# 3 -0.001577 -0.004378 0.013510 0.000000 0.010737 0.000000
# 4 0.000000 0.000000 0.000000 0.030757 0.000000 -0.003667
# 5 -0.000805 -0.003957 0.010737 0.000000 0.042662 0.000000
# 6 0.000000 0.000000 0.000000 -0.003667 0.000000 0.026164
#
#
# Mechanical properties :
#
#
# Convention : Reuss Voigt Hill
#
# Bulk Modulus (GPa) = 62.30894 68.68554 65.49724
# Shear Modulus (GPa) = 28.71186 32.94999 30.83092
#
# Velocity S-wave (km/s) = 3.76124 4.02928 3.89757
# Velocity P-wave (km/s) = 7.04013 7.44913 7.24752
#
# Compressibility (1/GPa) = 0.01604906
#
# Stress axis : x y z
#
# Youngs Moduli (GPa) = 63.18674 75.22258 74.01885
#
# Poissons Ratio (x) = 0.55176 0.11676
# Poissons Ratio (y) = 0.46347 0.32406
# Poissons Ratio (z) = 0.09968 0.32933
#
# Static dielectric constant tensor:
#      x y z
#    x 3.828050 0.000000 -0.075270 
#    y 0.000000 3.510450 0.000000 
#    z -0.075270 0.000000 3.871750 
# 
# 
# High freq. dielectric constant tensor:
#      x y z
#    x 1.799960 0.000000 -0.005870 
#    y 0.000000 1.786850 0.000000 
#    z -0.005870 0.000000 1.805450 
# 
# From -- ./inp_files/65126.got.cif
#   From: 2010.03.12/outbox.cif.g09.slc.cpg/sg5_33_cif.got.tgz:65126.got - 2010.03.31 09:47:26.
