data_PCOD8050505
_publ_section_title
;
Structure prediction by ZEFSAII (Michael W. Deem and Ramdas Pophale) SiO2 
 PCOD8050505
Probable space group: C 2
;
_chemical_formula_sum "Si O2"
_cell_formula_units_Z 32
_cell_length_a 9.557618
_cell_length_b 11.016212
_cell_length_c 20.037739
_cell_angle_alpha 90.000000
_cell_angle_beta 135.575009
_cell_angle_gamma 90.000000
_cell_volume 1476.770955
_symmetry_space_group_name_H-M "C 2"
_symmetry_group_IT_number 5
_symmetry_cell_setting 'monoclinic'
loop_
_space_group_symop_operation_xyz
x,y,z
-x,y,-z
1/2+x,1/2+y,z
1/2-x,1/2+y,-z
loop_
_atom_site_type_symbol
_atom_site_label
_atom_site_fract_x
_atom_site_fract_y
_atom_site_fract_z
Si Si1 0.364266 0.176150 0.249535
Si Si2 0.410344 0.906143 0.540487
Si Si3 0.952323 0.353814 0.912756
Si Si4 0.614120 0.183396 0.468903
Si Si5 0.811027 0.746017 0.976603
Si Si6 0.310909 0.457244 0.750666
Si Si7 0.937492 0.701727 0.818879
Si Si8 0.322868 0.572413 0.178417
O O1 0.222050 0.288155 0.187163
O O2 0.467666 0.199660 0.356029
O O3 0.522844 0.160085 0.243341
O O4 0.230528 0.055439 0.206249
O O5 0.500000 0.872044 0.500000
O O6 0.274717 0.792778 0.518519
O O7 0.601458 0.910260 0.652643
O O8 0.304239 0.041724 0.505083
O O9 0.868065 0.486364 0.897228
O O10 0.160237 0.356111 0.942766
O O11 0.000000 0.289686 0.000000
O O12 0.500000 0.201912 0.500000
O O13 0.676956 0.656716 0.886413
O O14 0.000000 0.797946 0.000000
O O15 0.886347 0.672041 0.068128
O O16 0.428926 0.346917 0.823141
O O17 0.457204 0.511543 0.742193
O O18 0.724518 0.644033 0.768888
#
# Coordination Sequence:
#
# PCOD8050505 Si02
#       8
#     4   4   4   4   4   4   4   4
#     4  11  23  42  69  99 132 178 226 276 343 398
#     4  10  23  44  73  97 136 176 222 288 357 414
#     4  12  21  41  68  92 138 180 222 280 331 392
#     4  10  24  48  70 102 138 176 230 285 354 419
#     4  10  22  40  62  94 130 180 227 268 332 392
#     4  11  23  43  63  98 134 171 223 283 337 408
#     4  11  23  40  62  98 131 173 229 274 331 399
#     4  11  24  41  66  91 137 182 226 273 334 396
#
# _framework density 21.668897999999999
#
# number of rings (size 3 to 8) (size 9 to 14) (size 15 to 20)
#    0.000    1.250    3.750    1.875    0.000    5.500 
#    4.500    3.125    0.000    0.000    0.000    0.000 
#    0.000    0.000    0.000    0.000    0.000    0.000 
#
# Total GULP energy -198229.993311 kJ/mol
# GULP energy per Si atom -12389.374582 kJ/mol
# Density = 2.161958 g / cm^3
# Si number density = 21.668898 Si / 1000 Ang^3
#
#
#
# Elastic Constant Matrix: (Units=GPa)
#
#
# Indices 1 2 3 4 5 6 
#
# 1 161.3391 78.7988 54.7212 0.0000 -1.1945 0.0000
# 2 78.7988 105.6079 14.6862 0.0000 10.5305 0.0000
# 3 54.7212 14.6862 64.9826 0.0000 -13.5641 0.0000
# 4 0.0000 0.0000 0.0000 13.3600 0.0000 13.0610
# 5 -1.1945 10.5305 -13.5641 0.0000 38.9692 0.0000
# 6 0.0000 0.0000 0.0000 13.0610 0.0000 50.0118
#
#
#
# Elastic Compliance Matrix: (Units=1/GPa)
#
#
# Indices 1 2 3 4 5 6 
#
# 1 0.013878 -0.008938 -0.009784 0.000000 -0.000565 0.000000
# 2 -0.008938 0.016047 0.003168 0.000000 -0.003508 0.000000
# 3 -0.009784 0.003168 0.024447 0.000000 0.007353 0.000000
# 4 0.000000 0.000000 0.000000 0.100513 0.000000 -0.026250
# 5 -0.000565 -0.003508 0.007353 0.000000 0.029151 0.000000
# 6 0.000000 0.000000 0.000000 -0.026250 0.000000 0.026851
#
#
# Mechanical properties :
#
#
# Convention : Reuss Voigt Hill
#
# Bulk Modulus (GPa) = 42.98696 69.81580 56.40138
# Shear Modulus (GPa) = 20.02000 32.71642 26.36821
#
# Velocity S-wave (km/s) = 3.04288 3.88987 3.49215
# Velocity P-wave (km/s) = 5.67685 7.24321 6.50733
#
# Compressibility (1/GPa) = 0.02326287
#
# Stress axis : x y z
#
# Youngs Moduli (GPa) = 72.05773 62.31615 40.90472
#
# Poissons Ratio (x) = 0.55697 0.40022
# Poissons Ratio (y) = 0.64404 -0.12957
# Poissons Ratio (z) = 0.70503 -0.19739
#
# Static dielectric constant tensor:
#      x y z
#    x 4.189030 0.000000 -0.031900 
#    y 0.000000 4.131990 0.000000 
#    z -0.031900 0.000000 3.673980 
# 
# 
# High freq. dielectric constant tensor:
#      x y z
#    x 1.859400 0.000000 -0.001310 
#    y 0.000000 1.850060 0.000000 
#    z -0.001310 0.000000 1.842460 
# 
# From -- ./inp_files/64563.got.cif
#   From: 2010.03.12/outbox.cif.g09.slc.cpg/sg5_33_cif.got.tgz:64563.got - 2010.03.31 09:47:26.
