data_PCOD8050950
_publ_section_title
;
Structure prediction by ZEFSAII (Michael W. Deem and Ramdas Pophale) SiO2 
 PCOD8050950
Probable space group: C 2
;
_chemical_formula_sum "Si O2"
_cell_formula_units_Z 14
_cell_length_a 7.246834
_cell_length_b 17.603947
_cell_length_c 6.285979
_cell_angle_alpha 90.000000
_cell_angle_beta 134.472792
_cell_angle_gamma 90.000000
_cell_volume 572.236972
_symmetry_space_group_name_H-M "C 2"
_symmetry_group_IT_number 5
_symmetry_cell_setting 'monoclinic'
loop_
_space_group_symop_operation_xyz
x,y,z
-x,y,-z
1/2+x,1/2+y,z
1/2-x,1/2+y,-z
loop_
_atom_site_type_symbol
_atom_site_label
_atom_site_fract_x
_atom_site_fract_y
_atom_site_fract_z
Si Si1 0.208384 0.300210 0.342660
Si Si2 0.000000 0.190903 0.500000
Si Si3 0.581593 0.972564 0.329314
Si Si4 0.084271 0.052583 0.823485
O O1 0.500000 0.298321 0.500000
O O2 0.131287 0.383941 0.351700
O O3 0.202908 0.244478 0.541138
O O4 0.000000 0.272110 0.000000
O O5 0.852894 0.137743 0.207576
O O6 0.500000 0.993674 0.500000
O O7 0.839009 0.021610 0.487107
O O8 0.332210 0.996784 0.984144
O O9 0.000000 0.054330 0.000000
#
# Coordination Sequence:
#
# PCOD8050950 Si02
#       4
#     4   2   4   4
#     4  12  28  47  76 108 150 193 247 298 364 441
#     4  12  28  50  74 112 150 196 232 318 368 424
#     4  10  22  47  72 108 141 190 243 298 354 438
#     4  10  24  43  75 106 145 186 245 297 360 435
#
# _framework density 24.465391
#
# number of rings (size 3 to 8) (size 9 to 14) (size 15 to 20)
#    0.000    1.143    1.429    2.571    6.000    9.143 
#    0.000    0.000    0.000    0.000    0.000    0.000 
#    0.000    0.000    0.000    0.000    0.000    0.000 
#
# Total GULP energy -86831.565924 kJ/mol
# GULP energy per Si atom -12404.509418 kJ/mol
# Density = 2.440971 g / cm^3
# Si number density = 24.465391 Si / 1000 Ang^3
#
#
#
# Elastic Constant Matrix: (Units=GPa)
#
#
# Indices 1 2 3 4 5 6 
#
# 1 138.5096 77.1999 80.1605 0.0000 41.4845 0.0000
# 2 77.1999 197.8010 65.9187 0.0000 23.9380 0.0000
# 3 80.1605 65.9187 198.0502 0.0000 20.7367 0.0000
# 4 0.0000 0.0000 0.0000 27.1124 0.0000 -15.9705
# 5 41.4845 23.9380 20.7367 0.0000 34.7378 0.0000
# 6 0.0000 0.0000 0.0000 -15.9705 0.0000 45.1712
#
#
#
# Elastic Compliance Matrix: (Units=1/GPa)
#
#
# Indices 1 2 3 4 5 6 
#
# 1 0.015190 -0.003021 -0.003692 0.000000 -0.013854 0.000000
# 2 -0.003021 0.006591 -0.000931 0.000000 -0.000378 0.000000
# 3 -0.003692 -0.000931 0.006746 0.000000 0.001023 0.000000
# 4 0.000000 0.000000 0.000000 0.046585 0.000000 0.016471
# 5 -0.013854 -0.000378 0.001023 0.000000 0.044981 0.000000
# 6 0.000000 0.000000 0.000000 0.016471 0.000000 0.027961
#
#
# Mechanical properties :
#
#
# Convention : Reuss Voigt Hill
#
# Bulk Modulus (GPa) = 75.54082 108.99097 92.26590
# Shear Modulus (GPa) = 29.80520 42.14306 35.97413
#
# Velocity S-wave (km/s) = 3.49414 4.15487 3.83875
# Velocity P-wave (km/s) = 6.87185 8.22576 7.57910
#
# Compressibility (1/GPa) = 0.01323788
#
# Stress axis : x y z
#
# Youngs Moduli (GPa) = 65.83437 151.72492 148.23026
#
# Poissons Ratio (x) = 0.45843 0.54723
# Poissons Ratio (y) = 0.19892 0.13804
# Poissons Ratio (z) = 0.24304 0.14129
#
# Static dielectric constant tensor:
#      x y z
#    x 4.882940 0.000000 -0.124720 
#    y 0.000000 4.305740 0.000000 
#    z -0.124720 0.000000 4.674480 
# 
# 
# High freq. dielectric constant tensor:
#      x y z
#    x 2.037470 0.000000 -0.016640 
#    y 0.000000 1.970410 0.000000 
#    z -0.016640 0.000000 1.975830 
# 
# From -- ./inp_files/1785.got.cif
#   From: 2010.03.12/outbox.cif.g09.slc.cpg/sg5_1_cif.got.tgz:1785.got - 2010.03.31 09:47:26.
