data_PCOD8050681
_publ_section_title
;
Structure prediction by ZEFSAII (Michael W. Deem and Ramdas Pophale) SiO2 
 PCOD8050681
Probable space group: C 2
;
_chemical_formula_sum "Si O2"
_cell_formula_units_Z 28
_cell_length_a 8.854865
_cell_length_b 10.337929
_cell_length_c 20.085252
_cell_angle_alpha 90.000000
_cell_angle_beta 131.897165
_cell_angle_gamma 90.000000
_cell_volume 1368.569353
_symmetry_space_group_name_H-M "C 2"
_symmetry_group_IT_number 5
_symmetry_cell_setting 'monoclinic'
loop_
_space_group_symop_operation_xyz
x,y,z
-x,y,-z
1/2+x,1/2+y,z
1/2-x,1/2+y,-z
loop_
_atom_site_type_symbol
_atom_site_label
_atom_site_fract_x
_atom_site_fract_y
_atom_site_fract_z
Si Si1 0.060870 0.618310 0.878050
Si Si2 0.927847 0.746724 0.404122
Si Si3 0.221927 0.011293 0.694296
Si Si4 0.784564 0.248145 0.405916
Si Si5 0.128477 0.008878 0.302960
Si Si6 0.000000 0.510412 0.000000
Si Si7 0.435899 0.406469 0.121327
Si Si8 0.500000 0.513546 0.000000
O O1 0.005498 0.762528 0.838391
O O2 0.301597 0.602100 0.943862
O O3 0.941497 0.519867 0.794489
O O4 0.987597 0.601398 0.932040
O O5 0.795837 0.618474 0.358769
O O6 0.000000 0.770387 0.500000
O O7 0.125081 0.727735 0.417670
O O8 0.794673 0.868859 0.341590
O O9 0.201503 0.116199 0.630760
O O10 0.047855 0.038664 0.696674
O O11 0.726083 0.368969 0.343053
O O12 0.000000 0.281803 0.500000
O O13 0.039298 0.009241 0.201740
O O14 0.193778 0.418067 0.052563
O O15 0.514560 0.425700 0.069730
#
# Coordination Sequence:
#
# PCOD8050681 Si02
#       8
#     4   4   4   4   4   2   4   2
#     4  11  22  43  64  96 131 170 219 263 322 381
#     4  11  26  45  66  99 131 169 217 266 327 390
#     4  11  24  42  68  98 132 170 216 268 324 386
#     4  11  24  44  69  94 127 168 214 268 330 390
#     4  11  24  42  68  98 131 171 215 270 322 387
#     4  10  22  42  64  90 132 174 208 268 316 390
#     4  11  22  42  64  95 130 171 218 263 324 378
#     4  10  26  38  62  98 128 172 218 268 322 378
#
# _framework density 20.459323000000001
#
# number of rings (size 3 to 8) (size 9 to 14) (size 15 to 20)
#    0.000    1.143    2.857    2.571    2.000    5.714 
#   10.286    0.000    0.000    0.000    0.000    0.000 
#    0.000    0.000    0.000    0.000    0.000    0.000 
#
# Total GULP energy -173665.389806 kJ/mol
# GULP energy per Si atom -12404.670700 kJ/mol
# Density = 2.041276 g / cm^3
# Si number density = 20.459323 Si / 1000 Ang^3
#
#
#
# Elastic Constant Matrix: (Units=GPa)
#
#
# Indices 1 2 3 4 5 6 
#
# 1 104.3950 49.6590 45.2612 0.0000 -18.5425 0.0000
# 2 49.6590 95.1920 25.2483 0.0000 -10.6207 0.0000
# 3 45.2612 25.2483 118.9070 0.0000 -17.5936 0.0000
# 4 0.0000 0.0000 0.0000 37.3775 0.0000 0.4320
# 5 -18.5425 -10.6207 -17.5936 0.0000 28.3073 0.0000
# 6 0.0000 0.0000 0.0000 0.4320 0.0000 25.6394
#
#
#
# Elastic Compliance Matrix: (Units=1/GPa)
#
#
# Indices 1 2 3 4 5 6 
#
# 1 0.015094 -0.006326 -0.003624 0.000000 0.005261 0.000000
# 2 -0.006326 0.014017 -0.000444 0.000000 0.000839 0.000000
# 3 -0.003624 -0.000444 0.010471 0.000000 0.003967 0.000000
# 4 0.000000 0.000000 0.000000 0.026759 0.000000 -0.000451
# 5 0.005261 0.000839 0.003967 0.000000 0.041554 0.000000
# 6 0.000000 0.000000 0.000000 -0.000451 0.000000 0.039010
#
#
# Mechanical properties :
#
#
# Convention : Reuss Voigt Hill
#
# Bulk Modulus (GPa) = 53.20967 62.09232 57.65099
# Shear Modulus (GPa) = 28.74297 31.48654 30.11475
#
# Velocity S-wave (km/s) = 3.75224 3.92724 3.84074
# Velocity P-wave (km/s) = 6.69600 7.13998 6.92155
#
# Compressibility (1/GPa) = 0.01879358
#
# Stress axis : x y z
#
# Youngs Moduli (GPa) = 66.25295 71.34441 95.50570
#
# Poissons Ratio (x) = 0.45131 0.34608
# Poissons Ratio (y) = 0.41910 0.04242
# Poissons Ratio (z) = 0.24008 0.03169
#
# Static dielectric constant tensor:
#      x y z
#    x 3.887090 0.000000 -0.031360 
#    y 0.000000 3.571170 0.000000 
#    z -0.031360 0.000000 3.759880 
# 
# 
# High freq. dielectric constant tensor:
#      x y z
#    x 1.810680 0.000000 -0.002510 
#    y 0.000000 1.799420 0.000000 
#    z -0.002510 0.000000 1.817290 
# 
# From -- ./inp_files/50162.got.cif
#   From: 2010.03.12/outbox.cif.g09.slc.cpg/sg5_26_cif.got.tgz:50162.got - 2010.03.31 09:47:26.
