data_PCOD8050848
_publ_section_title
;
Structure prediction by ZEFSAII (Michael W. Deem and Ramdas Pophale) SiO2 
 PCOD8050848
Probable space group: C 2
;
_chemical_formula_sum "Si O2"
_cell_formula_units_Z 28
_cell_length_a 25.394434
_cell_length_b 5.007661
_cell_length_c 8.815337
_cell_angle_alpha 90.000000
_cell_angle_beta 87.426622
_cell_angle_gamma 90.000000
_cell_volume 1119.886962
_symmetry_space_group_name_H-M "C 2"
_symmetry_group_IT_number 5
_symmetry_cell_setting 'monoclinic'
loop_
_space_group_symop_operation_xyz
x,y,z
-x,y,-z
1/2+x,1/2+y,z
1/2-x,1/2+y,-z
loop_
_atom_site_type_symbol
_atom_site_label
_atom_site_fract_x
_atom_site_fract_y
_atom_site_fract_z
Si Si1 0.129684 0.758940 0.661250
Si Si2 0.744173 0.224399 0.605730
Si Si3 0.568350 0.732073 0.728189
Si Si4 0.096589 0.883463 0.336610
Si Si5 0.500000 0.475831 0.500000
Si Si6 0.000000 0.323052 0.000000
Si Si7 0.607234 0.903200 0.139563
Si Si8 0.779908 0.273680 0.930662
O O1 0.187884 0.655517 0.690278
O O2 0.087202 0.536234 0.715684
O O3 0.130260 0.840403 0.484206
O O4 0.115744 0.025719 0.758964
O O5 0.739847 0.505677 0.519806
O O6 0.782835 0.233856 0.746075
O O7 0.545101 0.659407 0.567494
O O8 0.520807 0.664191 0.851404
O O9 0.121561 0.685008 0.211942
O O10 0.034650 0.800859 0.377383
O O11 0.097537 0.182402 0.270118
O O12 0.055023 0.466770 0.043831
O O13 0.658657 0.827069 0.030657
O O14 0.741430 0.515873 0.979167
#
# Coordination Sequence:
#
# PCOD8050848 Si02
#       8
#     4   4   4   4   2   2   4   4
#     4  11  25  42  75 102 141 175 240 288 358 407
#     4  12  25  47  79 109 141 187 248 306 359 426
#     4  11  26  43  67 101 143 182 228 290 347 426
#     4  11  23  43  70 102 140 185 228 297 341 429
#     4  10  22  44  68  98 138 186 240 274 356 412
#     4  12  30  44  70 102 148 182 236 284 354 420
#     4  12  27  46  71 102 147 184 237 282 365 412
#     4  12  28  50  77 106 150 195 242 299 368 438
#
# _framework density 25.002524999999999
#
# number of rings (size 3 to 8) (size 9 to 14) (size 15 to 20)
#    0.000    0.571    1.429    6.000    8.000    3.429 
#    0.000    0.000    0.000    0.000    0.000    0.000 
#    0.000    0.000    0.000    0.000    0.000    0.000 
#
# Total GULP energy -173474.168956 kJ/mol
# GULP energy per Si atom -12391.012068 kJ/mol
# Density = 2.494562 g / cm^3
# Si number density = 25.002525 Si / 1000 Ang^3
#
#
#
# Elastic Constant Matrix: (Units=GPa)
#
#
# Indices 1 2 3 4 5 6 
#
# 1 115.8700 -6.1490 19.3109 0.0000 -14.3406 0.0000
# 2 -6.1490 91.7415 20.0408 0.0000 2.7013 0.0000
# 3 19.3109 20.0408 91.5006 0.0000 -5.4212 0.0000
# 4 0.0000 0.0000 0.0000 31.7197 0.0000 -12.6134
# 5 -14.3406 2.7013 -5.4212 0.0000 39.0157 0.0000
# 6 0.0000 0.0000 0.0000 -12.6134 0.0000 29.2991
#
#
#
# Elastic Compliance Matrix: (Units=1/GPa)
#
#
# Indices 1 2 3 4 5 6 
#
# 1 0.009403 0.000979 -0.002015 0.000000 0.003108 0.000000
# 2 0.000979 0.011601 -0.002797 0.000000 -0.000832 0.000000
# 3 -0.002015 -0.002797 0.012033 0.000000 0.001125 0.000000
# 4 0.000000 0.000000 0.000000 0.038038 0.000000 0.016375
# 5 0.003108 -0.000832 0.001125 0.000000 0.026987 0.000000
# 6 0.000000 0.000000 0.000000 0.016375 0.000000 0.041180
#
#
# Mechanical properties :
#
#
# Convention : Reuss Voigt Hill
#
# Bulk Modulus (GPa) = 39.41354 40.61308 40.01331
# Shear Modulus (GPa) = 32.18220 37.73420 34.95820
#
# Velocity S-wave (km/s) = 3.59159 3.88908 3.74329
# Velocity P-wave (km/s) = 5.74434 6.03700 5.89249
#
# Compressibility (1/GPa) = 0.02537199
#
# Stress axis : x y z
#
# Youngs Moduli (GPa) = 106.35162 86.19752 83.10267
#
# Poissons Ratio (x) = -0.08437 0.16742
# Poissons Ratio (y) = -0.10410 0.23242
# Poissons Ratio (z) = 0.21426 0.24108
#
# Static dielectric constant tensor:
#      x y z
#    x 4.736740 0.000000 -0.102230 
#    y 0.000000 4.195410 0.000000 
#    z -0.102230 0.000000 4.695530 
# 
# 
# High freq. dielectric constant tensor:
#      x y z
#    x 2.014620 0.000000 -0.012550 
#    y 0.000000 1.978750 0.000000 
#    z -0.012550 0.000000 2.001250 
# 
# From -- ./inp_files/31386.got.cif
#   From: 2010.03.12/outbox.cif.g09.slc.cpg/sg5_16_cif.got.tgz:31386.got - 2010.03.31 09:47:26.
