data_PCOD8050790
_publ_section_title
;
Structure prediction by ZEFSAII (Michael W. Deem and Ramdas Pophale) SiO2 
 PCOD8050790
Probable space group: C 2
;
_chemical_formula_sum "Si O2"
_cell_formula_units_Z 28
_cell_length_a 30.048667
_cell_length_b 5.516265
_cell_length_c 8.930713
_cell_angle_alpha 90.000000
_cell_angle_beta 125.409186
_cell_angle_gamma 90.000000
_cell_volume 1206.514865
_symmetry_space_group_name_H-M "C 2"
_symmetry_group_IT_number 5
_symmetry_cell_setting 'monoclinic'
loop_
_space_group_symop_operation_xyz
x,y,z
-x,y,-z
1/2+x,1/2+y,z
1/2-x,1/2+y,-z
loop_
_atom_site_type_symbol
_atom_site_label
_atom_site_fract_x
_atom_site_fract_y
_atom_site_fract_z
Si Si1 0.249130 0.648600 0.589099
Si Si2 0.945387 0.603130 0.145495
Si Si3 0.865420 0.641680 0.502197
Si Si4 0.406899 0.432439 0.315758
Si Si5 0.543844 0.750608 0.339294
Si Si6 0.139951 0.221593 0.031871
Si Si7 0.071624 0.935685 0.140371
O O1 0.262294 0.396614 0.527271
O O2 0.197490 0.580146 0.591313
O O3 0.298050 0.719430 0.795167
O O4 0.948198 0.798453 0.283355
O O5 0.991080 0.407780 0.271808
O O6 0.883712 0.494605 0.026942
O O7 0.958677 0.720065 0.009077
O O8 0.872415 0.744534 0.348516
O O9 0.902149 0.403263 0.594947
O O10 0.882450 0.838482 0.657786
O O11 0.445634 0.595883 0.492931
O O12 0.364016 0.592162 0.137113
O O13 0.529619 0.583478 0.166228
O O14 0.100939 0.100481 0.076974
#
# Coordination Sequence:
#
# PCOD8050790 Si02
#       7
#     4   4   4   4   4   4   4
#     4  12  26  48  80 112 148 200 254 324 388 442
#     4  11  25  45  72 104 147 195 241 307 375 452
#     4  11  24  45  72 105 146 186 249 302 373 448
#     4  10  26  47  68 106 144 196 247 298 372 454
#     4  11  25  45  72 104 147 195 241 307 375 452
#     4  11  24  45  72 105 146 186 249 302 373 448
#     4  10  22  43  68 106 138 178 241 302 364 442
#
# _framework density 23.207341
#
# number of rings (size 3 to 8) (size 9 to 14) (size 15 to 20)
#    0.000    1.143    1.429    3.429    4.000   11.429 
#    5.143    4.286    0.000    0.000    0.000    0.000 
#    0.000    0.000    0.000    0.000    0.000    0.000 
#
# Total GULP energy -173622.051646 kJ/mol
# GULP energy per Si atom -12401.575118 kJ/mol
# Density = 2.315452 g / cm^3
# Si number density = 23.207341 Si / 1000 Ang^3
#
#
#
# Elastic Constant Matrix: (Units=GPa)
#
#
# Indices 1 2 3 4 5 6 
#
# 1 104.6355 27.6250 53.4944 0.0000 8.2203 0.0000
# 2 27.6250 115.2198 53.8200 0.0000 -1.4311 0.0000
# 3 53.4944 53.8200 148.4508 0.0000 -12.0423 0.0000
# 4 0.0000 0.0000 0.0000 29.0634 0.0000 4.7430
# 5 8.2203 -1.4311 -12.0423 0.0000 45.5498 0.0000
# 6 0.0000 0.0000 0.0000 4.7430 0.0000 32.3482
#
#
#
# Elastic Compliance Matrix: (Units=1/GPa)
#
#
# Indices 1 2 3 4 5 6 
#
# 1 0.012308 -0.000954 -0.004366 0.000000 -0.003405 0.000000
# 2 -0.000954 0.010544 -0.003513 0.000000 -0.000425 0.000000
# 3 -0.004366 -0.003513 0.009849 0.000000 0.003281 0.000000
# 4 0.000000 0.000000 0.000000 0.035251 0.000000 -0.005169
# 5 -0.003405 -0.000425 0.003281 0.000000 0.023423 0.000000
# 6 0.000000 0.000000 0.000000 -0.005169 0.000000 0.031671
#
#
# Mechanical properties :
#
#
# Convention : Reuss Voigt Hill
#
# Bulk Modulus (GPa) = 66.51031 70.90943 68.70987
# Shear Modulus (GPa) = 34.31140 36.95006 35.63073
#
# Velocity S-wave (km/s) = 3.84926 3.99453 3.92257
# Velocity P-wave (km/s) = 6.96255 7.20390 7.08425
#
# Compressibility (1/GPa) = 0.01503526
#
# Stress axis : x y z
#
# Youngs Moduli (GPa) = 81.24573 94.84441 101.53011
#
# Poissons Ratio (x) = 0.09049 0.44325
# Poissons Ratio (y) = 0.07752 0.35670
# Poissons Ratio (z) = 0.35469 0.33321
#
# Static dielectric constant tensor:
#      x y z
#    x 3.975210 0.000000 -0.166200 
#    y 0.000000 4.625640 0.000000 
#    z -0.166200 0.000000 4.470260 
# 
# 
# High freq. dielectric constant tensor:
#      x y z
#    x 1.908210 0.000000 -0.011290 
#    y 0.000000 1.935230 0.000000 
#    z -0.011290 0.000000 1.930610 
# 
# From -- ./inp_files/32329.got.cif
#   From: 2010.03.12/outbox.cif.g09.slc.cpg/sg5_17_cif.got.tgz:32329.got - 2010.03.31 09:47:26.
