data_PCOD8050251
_publ_section_title
;
Structure prediction by ZEFSAII (Michael W. Deem and Ramdas Pophale) SiO2 
 PCOD8050251
Probable space group: C 2
;
_chemical_formula_sum "Si O2"
_cell_formula_units_Z 30
_cell_length_a 11.765763
_cell_length_b 9.460291
_cell_length_c 11.569421
_cell_angle_alpha 90.000000
_cell_angle_beta 74.086284
_cell_angle_gamma 90.000000
_cell_volume 1238.411164
_symmetry_space_group_name_H-M "C 2"
_symmetry_group_IT_number 5
_symmetry_cell_setting 'monoclinic'
loop_
_space_group_symop_operation_xyz
x,y,z
-x,y,-z
1/2+x,1/2+y,z
1/2-x,1/2+y,-z
loop_
_atom_site_type_symbol
_atom_site_label
_atom_site_fract_x
_atom_site_fract_y
_atom_site_fract_z
Si Si1 0.577260 0.821090 0.873410
Si Si2 0.203799 0.046390 0.837090
Si Si3 0.500000 0.398221 0.500000
Si Si4 0.444360 0.922302 0.689243
Si Si5 0.716379 0.502624 0.096818
Si Si6 0.495555 0.312498 0.128860
Si Si7 0.353277 0.635426 0.658166
Si Si8 0.897777 0.666986 0.370453
O O1 0.657352 0.694803 0.799093
O O2 0.491263 0.881729 0.801618
O O3 0.657735 0.947419 0.896779
O O4 0.500000 0.757312 0.000000
O O5 0.319711 0.002894 0.734828
O O6 0.103475 0.932450 0.841683
O O7 0.229057 0.068624 0.966258
O O8 0.427705 0.496375 0.607553
O O9 0.411646 0.299816 0.451682
O O10 0.427063 0.779457 0.619133
O O11 0.538393 0.025255 0.598520
O O12 0.622451 0.375748 0.125812
O O13 0.680331 0.626873 0.196422
O O14 0.462748 0.193372 0.229987
O O15 0.500000 0.242619 0.000000
O O16 0.240208 0.638031 0.606317
#
# Coordination Sequence:
#
# PCOD8050251 Si02
#       8
#     4   4   2   4   4   4   4   4
#     4  12  23  40  66 110 160 200 241 293 360 444
#     4  11  23  39  71 111 160 198 235 297 363 454
#     4  12  32  54  76 104 142 190 260 318 366 434
#     4  12  26  44  76 112 146 192 247 300 370 448
#     4  11  22  42  70 106 153 199 243 291 365 439
#     4  10  21  42  72 112 151 194 237 294 369 443
#     4  12  27  51  77 103 143 197 248 311 372 435
#     4  12  27  50  78 111 145 190 248 310 371 436
#
# _framework density 24.224589000000002
#
# number of rings (size 3 to 8) (size 9 to 14) (size 15 to 20)
#    0.000    0.533    5.333    3.600    0.000    4.267 
#    0.000    0.000    0.000    0.000    0.000    0.000 
#    0.000    0.000    0.000    0.000    0.000    0.000 
#
# Total GULP energy -186099.187020 kJ/mol
# GULP energy per Si atom -12406.612468 kJ/mol
# Density = 2.416945 g / cm^3
# Si number density = 24.224589 Si / 1000 Ang^3
#
#
#
# Elastic Constant Matrix: (Units=GPa)
#
#
# Indices 1 2 3 4 5 6 
#
# 1 102.5289 25.0571 8.7659 0.0000 -3.7779 0.0000
# 2 25.0571 122.0269 14.4085 0.0000 -0.9338 0.0000
# 3 8.7659 14.4085 36.6924 0.0000 8.2355 0.0000
# 4 0.0000 0.0000 0.0000 24.1798 0.0000 4.5587
# 5 -3.7779 -0.9338 8.2355 0.0000 17.4738 0.0000
# 6 0.0000 0.0000 0.0000 4.5587 0.0000 39.5958
#
#
#
# Elastic Compliance Matrix: (Units=1/GPa)
#
#
# Indices 1 2 3 4 5 6 
#
# 1 0.010546 -0.001838 -0.002558 0.000000 0.003388 0.000000
# 2 -0.001838 0.008996 -0.003481 0.000000 0.001724 0.000000
# 3 -0.002558 -0.003481 0.032875 0.000000 -0.016233 0.000000
# 4 0.000000 0.000000 0.000000 0.042274 0.000000 -0.004867
# 5 0.003388 0.001724 -0.016233 0.000000 0.065704 0.000000
# 6 0.000000 0.000000 0.000000 -0.004867 0.000000 0.025816
#
#
# Mechanical properties :
#
#
# Convention : Reuss Voigt Hill
#
# Bulk Modulus (GPa) = 27.27429 39.74568 33.50999
# Shear Modulus (GPa) = 23.34423 30.45100 26.89762
#
# Velocity S-wave (km/s) = 3.10765 3.54931 3.33580
# Velocity P-wave (km/s) = 4.91529 5.76537 5.35722
#
# Compressibility (1/GPa) = 0.03666456
#
# Stress axis : x y z
#
# Youngs Moduli (GPa) = 94.82301 111.15547 30.41826
#
# Poissons Ratio (x) = 0.20425 0.07782
# Poissons Ratio (y) = 0.17424 0.10588
# Poissons Ratio (z) = 0.24258 0.38690
#
# Static dielectric constant tensor:
#      x y z
#    x 4.587050 0.000000 0.066790 
#    y 0.000000 4.342890 0.000000 
#    z 0.066790 0.000000 4.139300 
# 
# 
# High freq. dielectric constant tensor:
#      x y z
#    x 1.981770 0.000000 0.004170 
#    y 0.000000 1.969490 0.000000 
#    z 0.004170 0.000000 1.938460 
# 
# From -- ./inp_files/52423.got.cif
#   From: 2010.03.12/outbox.cif.g09.slc.cpg/sg5_27_cif.got.tgz:52423.got - 2010.03.31 09:47:26.
