data_PCOD8050202
_publ_section_title
;
Structure prediction by ZEFSAII (Michael W. Deem and Ramdas Pophale) SiO2 
 PCOD8050202
Probable space group: C 2
;
_chemical_formula_sum "Si O2"
_cell_formula_units_Z 32
_cell_length_a 18.485595
_cell_length_b 14.521343
_cell_length_c 12.509864
_cell_angle_alpha 90.000000
_cell_angle_beta 28.887534
_cell_angle_gamma 90.000000
_cell_volume 1622.267833
_symmetry_space_group_name_H-M "C 2"
_symmetry_group_IT_number 5
_symmetry_cell_setting 'monoclinic'
loop_
_space_group_symop_operation_xyz
x,y,z
-x,y,-z
1/2+x,1/2+y,z
1/2-x,1/2+y,-z
loop_
_atom_site_type_symbol
_atom_site_label
_atom_site_fract_x
_atom_site_fract_y
_atom_site_fract_z
Si Si1 0.653841 0.056740 0.358693
Si Si2 0.883898 0.759553 0.893195
Si Si3 0.139769 0.633523 0.609834
Si Si4 0.296265 0.720713 0.081216
Si Si5 0.657021 0.840728 0.348678
Si Si6 0.602904 0.364280 0.460941
Si Si7 0.630632 0.787735 0.624392
Si Si8 0.150840 0.462492 0.740396
O O1 0.500000 0.088403 0.500000
O O2 0.658542 0.077998 0.477007
O O3 0.786498 0.113677 0.128803
O O4 0.679628 0.949417 0.313852
O O5 0.764356 0.729605 0.959771
O O6 0.971009 0.672233 0.829012
O O7 0.002138 0.831322 0.690392
O O8 0.797944 0.803032 0.102930
O O9 0.257389 0.716267 0.465808
O O10 0.162965 0.564869 0.678529
O O11 0.197028 0.777738 0.294527
O O12 0.464889 0.754522 0.866256
O O13 0.500000 0.811698 0.500000
O O14 0.661729 0.796280 0.459085
O O15 0.500000 0.405685 0.500000
O O16 0.710054 0.446784 0.359654
O O17 0.656988 0.888109 0.638439
O O18 0.000000 0.449206 0.000000
#
# Coordination Sequence:
#
# PCOD8050202 Si02
#       8
#     4   4   4   4   4   4   4   4
#     4  11  21  42  70  99 127 171 233 276 325 403
#     4  11  22  42  69  96 133 176 220 272 336 399
#     4  12  26  43  67 101 135 177 221 274 343 395
#     4  11  20  41  72 100 127 173 231 280 321 392
#     4  11  25  43  67  98 138 178 219 276 345 402
#     4  10  21  41  71  98 126 173 226 276 325 391
#     4  12  25  44  67 100 142 174 219 281 339 395
#     4  12  25  45  67 102 137 176 226 276 337 405
#
# _framework density 19.725473000000001
#
# number of rings (size 3 to 8) (size 9 to 14) (size 15 to 20)
#    0.000    0.750    7.500    0.375    1.750    1.000 
#    0.000    3.125    0.000    0.000    0.000    0.000 
#    0.000    0.000    0.000    0.000    0.000    0.000 
#
# Total GULP energy -198458.088644 kJ/mol
# GULP energy per Si atom -12403.630540 kJ/mol
# Density = 1.968058 g / cm^3
# Si number density = 19.725473 Si / 1000 Ang^3
#
#
#
# Elastic Constant Matrix: (Units=GPa)
#
#
# Indices 1 2 3 4 5 6 
#
# 1 88.9113 11.1963 24.2696 -0.0001 0.3228 0.0000
# 2 11.1963 55.3087 11.7129 0.0000 0.9657 0.0000
# 3 24.2696 11.7129 101.8786 -0.0001 12.2343 0.0000
# 4 -0.0001 0.0000 -0.0001 40.9785 0.0000 4.4651
# 5 0.3228 0.9657 12.2343 0.0000 34.8295 0.0000
# 6 0.0000 0.0000 0.0000 4.4651 0.0000 33.8357
#
#
#
# Elastic Compliance Matrix: (Units=1/GPa)
#
#
# Indices 1 2 3 4 5 6 
#
# 1 0.012250 -0.001901 -0.002811 0.000000 0.000927 0.000000
# 2 -0.001901 0.018828 -0.001724 0.000000 0.000101 0.000000
# 3 -0.002811 -0.001724 0.011145 0.000000 -0.003841 0.000000
# 4 0.000000 0.000000 0.000000 0.024759 0.000000 -0.003267
# 5 0.000927 0.000101 -0.003841 0.000000 0.030049 0.000000
# 6 0.000000 0.000000 0.000000 -0.003267 0.000000 0.029986
#
#
# Mechanical properties :
#
#
# Convention : Reuss Voigt Hill
#
# Bulk Modulus (GPa) = 34.06933 37.82847 35.94890
# Shear Modulus (GPa) = 33.40610 35.19004 34.29807
#
# Velocity S-wave (km/s) = 4.11974 4.22831 4.17438
# Velocity P-wave (km/s) = 6.31973 6.56180 6.44190
#
# Compressibility (1/GPa) = 0.02935191
#
# Stress axis : x y z
#
# Youngs Moduli (GPa) = 81.62943 53.11110 89.72867
#
# Poissons Ratio (x) = 0.10095 0.25223
# Poissons Ratio (y) = 0.15516 0.15469
# Poissons Ratio (z) = 0.22947 0.09156
#
# Static dielectric constant tensor:
#      x y z
#    x 3.852440 0.000000 -0.079380 
#    y 0.000000 3.549260 0.000000 
#    z -0.079380 0.000000 3.566580 
# 
# 
# High freq. dielectric constant tensor:
#      x y z
#    x 1.787740 0.000000 0.000880 
#    y 0.000000 1.761540 0.000000 
#    z 0.000880 0.000000 1.769720 
# 
# From -- ./inp_files/31049.got.cif
#   From: 2010.03.12/outbox.cif.g09.slc.cpg/sg5_16_cif.got.tgz:31049.got - 2010.03.31 09:47:26.
