data_PCOD8050935
_publ_section_title
;
Structure prediction by ZEFSAII (Michael W. Deem and Ramdas Pophale) SiO2 
 PCOD8050935
Probable space group: C 2
;
_chemical_formula_sum "Si O2"
_cell_formula_units_Z 32
_cell_length_a 11.243034
_cell_length_b 14.193138
_cell_length_c 17.641495
_cell_angle_alpha 90.000000
_cell_angle_beta 147.918671
_cell_angle_gamma 90.000000
_cell_volume 1495.175027
_symmetry_space_group_name_H-M "C 2"
_symmetry_group_IT_number 5
_symmetry_cell_setting 'monoclinic'
loop_
_space_group_symop_operation_xyz
x,y,z
-x,y,-z
1/2+x,1/2+y,z
1/2-x,1/2+y,-z
loop_
_atom_site_type_symbol
_atom_site_label
_atom_site_fract_x
_atom_site_fract_y
_atom_site_fract_z
Si Si1 0.050032 0.368480 0.870704
Si Si2 0.455919 0.658065 0.614143
Si Si3 0.618712 0.685694 0.141338
Si Si4 0.569452 0.281858 0.347814
Si Si5 0.431409 0.448527 0.378560
Si Si6 0.478724 0.397715 0.815974
Si Si7 0.767009 0.808806 0.837351
Si Si8 0.737908 0.573825 0.347655
O O1 0.089139 0.349758 0.802109
O O2 0.025472 0.270126 0.901282
O O3 0.837148 0.434691 0.772178
O O4 0.267170 0.420692 0.022068
O O5 0.299995 0.723838 0.477843
O O6 0.504574 0.556677 0.603650
O O7 0.683790 0.714277 0.751354
O O8 0.335550 0.649367 0.630218
O O9 0.644190 0.601304 0.214296
O O10 0.872713 0.714363 0.266809
O O11 0.500000 0.649964 0.000000
O O12 0.565638 0.377006 0.396645
O O13 0.531032 0.302615 0.238509
O O14 0.500000 0.421370 0.500000
O O15 0.315967 0.388873 0.800891
O O16 0.386761 0.475127 0.707517
O O17 0.000000 0.778010 0.000000
O O18 0.000000 0.559317 0.500000
#
# Coordination Sequence:
#
# PCOD8050935 Si02
#       8
#     4   4   4   4   4   4   4   4
#     4  10  22  46  71  96 133 179 229 278 348 413
#     4  12  25  44  66 103 138 180 230 283 342 408
#     4  11  22  42  73 102 131 178 234 284 335 411
#     4  11  24  43  71  98 139 179 229 283 342 411
#     4  11  26  43  69 103 134 180 231 285 343 411
#     4  11  25  45  68 100 136 181 226 283 349 408
#     4  10  24  43  69  97 137 182 222 283 356 406
#     4  12  26  44  67 102 138 183 232 277 341 416
#
# _framework density 21.402176999999998
#
# number of rings (size 3 to 8) (size 9 to 14) (size 15 to 20)
#    0.000    1.000    5.000    0.750    5.250    3.500 
#    2.250    0.000    0.000    0.000    0.000    0.000 
#    0.000    0.000    0.000    0.000    0.000    0.000 
#
# Total GULP energy -198392.779180 kJ/mol
# GULP energy per Si atom -12399.548699 kJ/mol
# Density = 2.135346 g / cm^3
# Si number density = 21.402177 Si / 1000 Ang^3
#
#
#
# Elastic Constant Matrix: (Units=GPa)
#
#
# Indices 1 2 3 4 5 6 
#
# 1 85.4079 18.3555 36.0044 0.0001 -1.2658 -0.0001
# 2 18.3555 81.8138 48.6518 0.0006 13.3958 -0.0001
# 3 36.0044 48.6518 121.7719 0.0021 -1.2652 0.0012
# 4 0.0001 0.0006 0.0021 27.2768 0.0011 -2.9189
# 5 -1.2658 13.3958 -1.2652 0.0011 37.6705 0.0005
# 6 -0.0001 -0.0001 0.0012 -2.9189 0.0005 24.7366
#
#
#
# Elastic Compliance Matrix: (Units=1/GPa)
#
#
# Indices 1 2 3 4 5 6 
#
# 1 0.013438 -0.001009 -0.003563 0.000000 0.000691 0.000000
# 2 -0.001009 0.017545 -0.006779 0.000000 -0.006501 0.000001
# 3 -0.003563 -0.006779 0.012002 -0.000001 0.002694 -0.000001
# 4 0.000000 0.000000 -0.000001 0.037130 -0.000001 0.004381
# 5 0.000691 -0.006501 0.002694 -0.000001 0.028971 -0.000001
# 6 0.000000 0.000001 -0.000001 0.004381 -0.000001 0.040943
#
#
# Mechanical properties :
#
#
# Convention : Reuss Voigt Hill
#
# Bulk Modulus (GPa) = 49.30348 55.00190 52.15269
# Shear Modulus (GPa) = 27.85656 30.33558 29.09607
#
# Velocity S-wave (km/s) = 3.61165 3.76893 3.69113
# Velocity P-wave (km/s) = 6.36229 6.68542 6.52585
#
# Compressibility (1/GPa) = 0.02028254
#
# Stress axis : x y z
#
# Youngs Moduli (GPa) = 74.41840 56.99678 83.32075
#
# Poissons Ratio (x) = 0.05753 0.29684
# Poissons Ratio (y) = 0.07511 0.56482
# Poissons Ratio (z) = 0.26513 0.38637
#
# Static dielectric constant tensor:
#      x y z
#    x 4.085900 0.000000 -0.103650 
#    y 0.000000 3.618270 0.000000 
#    z -0.103650 0.000000 3.856320 
# 
# 
# High freq. dielectric constant tensor:
#      x y z
#    x 1.850940 0.000000 -0.005490 
#    y 0.000000 1.827430 0.000000 
#    z -0.005490 0.000000 1.851310 
# 
# From -- ./inp_files/31055.got.cif
#   From: 2010.03.12/outbox.cif.g09.slc.cpg/sg5_16_cif.got.tgz:31055.got - 2010.03.31 09:47:26.
