data_PCOD8050142
_publ_section_title
;
Structure prediction by ZEFSAII (Michael W. Deem and Ramdas Pophale) SiO2 
 PCOD8050142
Probable space group: C 2
;
_chemical_formula_sum "Si O2"
_cell_formula_units_Z 32
_cell_length_a 12.388408
_cell_length_b 5.125959
_cell_length_c 25.671815
_cell_angle_alpha 90.000000
_cell_angle_beta 68.758768
_cell_angle_gamma 90.000000
_cell_volume 1519.471718
_symmetry_space_group_name_H-M "C 2"
_symmetry_group_IT_number 5
_symmetry_cell_setting 'monoclinic'
loop_
_space_group_symop_operation_xyz
x,y,z
-x,y,-z
1/2+x,1/2+y,z
1/2-x,1/2+y,-z
loop_
_atom_site_type_symbol
_atom_site_label
_atom_site_fract_x
_atom_site_fract_y
_atom_site_fract_z
Si Si1 0.201340 0.400840 0.384446
Si Si2 0.572411 0.371062 0.436598
Si Si3 0.602231 0.146166 0.020275
Si Si4 0.650778 0.646719 0.071363
Si Si5 0.940886 0.151853 0.800475
Si Si6 0.836172 0.215204 0.713274
Si Si7 0.070418 0.621154 0.748039
Si Si8 0.533063 0.310947 0.650543
O O1 0.155795 0.623804 0.431348
O O2 0.158372 0.451804 0.331071
O O3 0.338857 0.426642 0.363529
O O4 0.152081 0.117741 0.408829
O O5 0.500000 0.442312 0.500000
O O6 0.483905 0.259754 0.407781
O O7 0.583883 0.426596 0.049993
O O8 0.602591 0.930065 0.065370
O O9 0.500000 0.080050 0.000000
O O10 0.714565 0.127166 0.964593
O O11 0.633711 0.595972 0.135339
O O12 0.028356 0.392381 0.793550
O O13 0.852382 0.266376 0.771886
O O14 0.017404 0.899397 0.773879
O O15 0.708074 0.101709 0.726997
O O16 0.934769 0.012621 0.682367
O O17 0.028293 0.572632 0.694349
#
# Coordination Sequence:
#
# PCOD8050142 Si02
#       8
#     4   4   4   4   4   4   4   4
#     4  10  22  39  60  83 112 152 191 229 285 346
#     4  11  23  38  58  86 115 147 192 240 286 336
#     4  10  21  41  61  81 114 155 192 233 281 334
#     4  10  22  37  59  88 113 146 195 235 280 338
#     4  11  22  37  57  87 119 145 185 241 283 334
#     4   9  21  39  60  85 115 153 189 230 286 344
#     4  10  22  38  58  84 117 153 190 229 287 347
#     4   9  21  39  60  82 114 153 192 235 282 341
#
# _framework density 21.059949
#
# number of rings (size 3 to 8) (size 9 to 14) (size 15 to 20)
#    0.000    2.000    0.000    2.250    0.000   16.000 
#    0.000    0.000    0.000    0.000    0.000    0.000 
#    0.000    0.000    0.000    0.000    0.000    0.000 
#
# Total GULP energy -198230.890730 kJ/mol
# GULP energy per Si atom -12389.430671 kJ/mol
# Density = 2.101202 g / cm^3
# Si number density = 21.059949 Si / 1000 Ang^3
#
#
#
# Elastic Constant Matrix: (Units=GPa)
#
#
# Indices 1 2 3 4 5 6 
#
# 1 97.5726 27.6568 49.2074 0.0005 3.7134 0.0011
# 2 27.6568 106.1586 26.4872 0.0035 -11.1469 -0.0127
# 3 49.2074 26.4872 134.7457 -0.0002 0.8990 0.0015
# 4 0.0005 0.0035 -0.0002 25.3034 0.0014 -8.1299
# 5 3.7134 -11.1469 0.8990 0.0014 15.6472 0.0008
# 6 0.0011 -0.0127 0.0015 -8.1299 0.0008 10.1342
#
#
#
# Elastic Compliance Matrix: (Units=1/GPa)
#
#
# Indices 1 2 3 4 5 6 
#
# 1 0.013447 -0.002962 -0.004294 -0.000001 -0.005055 -0.000005
# 2 -0.002962 0.011434 -0.001225 0.000003 0.008919 0.000017
# 3 -0.004294 -0.001225 0.009233 -0.000001 -0.000384 -0.000003
# 4 -0.000001 0.000003 -0.000001 0.053244 -0.000004 0.042714
# 5 -0.005055 0.008919 -0.000384 -0.000004 0.071485 0.000003
# 6 -0.000005 0.000017 -0.000003 0.042714 0.000003 0.132943
#
#
# Mechanical properties :
#
#
# Convention : Reuss Voigt Hill
#
# Bulk Modulus (GPa) = 58.31150 60.57552 59.44351
# Shear Modulus (GPa) = 15.89996 25.89199 20.89598
#
# Velocity S-wave (km/s) = 2.75068 3.51014 3.15336
# Velocity P-wave (km/s) = 6.15116 6.72711 6.44557
#
# Compressibility (1/GPa) = 0.01714928
#
# Stress axis : x y z
#
# Youngs Moduli (GPa) = 74.36819 87.45953 108.30622
#
# Poissons Ratio (x) = 0.25909 0.46512
# Poissons Ratio (y) = 0.22031 0.13270
# Poissons Ratio (z) = 0.31937 0.10716
#
# Static dielectric constant tensor:
#      x y z
#    x 4.048020 0.000000 0.247630 
#    y 0.000000 3.679800 0.000000 
#    z 0.247630 0.000000 4.040100 
# 
# 
# High freq. dielectric constant tensor:
#      x y z
#    x 1.833710 0.000000 -0.002850 
#    y 0.000000 1.822430 0.000000 
#    z -0.002850 0.000000 1.824780 
# 
# From -- ./inp_files/68188.got.cif
#   From: 2010.03.12/outbox.cif.g09.slc.cpg/sg5_35_cif.got.tgz:68188.got - 2010.03.31 09:47:26.
