data_PCOD8050103
_publ_section_title
;
Structure prediction by ZEFSAII (Michael W. Deem and Ramdas Pophale) SiO2 
 PCOD8050103
Probable space group: C 2
;
_chemical_formula_sum "Si O2"
_cell_formula_units_Z 20
_cell_length_a 13.310135
_cell_length_b 4.918088
_cell_length_c 13.445411
_cell_angle_alpha 90.000000
_cell_angle_beta 97.131791
_cell_angle_gamma 90.000000
_cell_volume 873.332706
_symmetry_space_group_name_H-M "C 2"
_symmetry_group_IT_number 5
_symmetry_cell_setting 'monoclinic'
loop_
_space_group_symop_operation_xyz
x,y,z
-x,y,-z
1/2+x,1/2+y,z
1/2-x,1/2+y,-z
loop_
_atom_site_type_symbol
_atom_site_label
_atom_site_fract_x
_atom_site_fract_y
_atom_site_fract_z
Si Si1 0.263370 0.266810 0.436886
Si Si2 0.472003 0.990159 0.207185
Si Si3 0.108294 0.995022 0.704853
Si Si4 0.311847 0.787235 0.779831
Si Si5 0.725496 0.935002 0.933494
O O1 0.211281 0.492249 0.500813
O O2 0.368065 0.396923 0.405297
O O3 0.187780 0.189971 0.336265
O O4 0.439759 0.793166 0.295440
O O5 0.583652 0.932890 0.179656
O O6 0.393600 0.940855 0.108072
O O7 0.470018 0.293651 0.249877
O O8 0.215549 0.993159 0.779652
O O9 0.295209 0.529302 0.849368
O O10 0.758972 0.634535 0.970328
#
# Coordination Sequence:
#
# PCOD8050103 Si02
#       5
#     4   4   4   4   4
#     4  10  21  40  66  94 128 170 207 259 318 374
#     4  11  21  43  65  92 125 174 205 260 324 371
#     4   9  22  38  64  89 131 163 207 258 312 365
#     4   9  24  42  68  89 134 168 207 268 315 373
#     4  11  24  43  66  94 128 169 214 266 319 377
#
# _framework density 22.900783000000001
#
# number of rings (size 3 to 8) (size 9 to 14) (size 15 to 20)
#    1.200    0.800    0.000    3.600    0.000    7.200 
#    0.000   12.000    0.000    0.000    0.000    0.000 
#    0.000    0.000    0.000    0.000    0.000    0.000 
#
# Total GULP energy -123948.826907 kJ/mol
# GULP energy per Si atom -12394.882691 kJ/mol
# Density = 2.284866 g / cm^3
# Si number density = 22.900783 Si / 1000 Ang^3
#
#
#
# Elastic Constant Matrix: (Units=GPa)
#
#
# Indices 1 2 3 4 5 6 
#
# 1 110.3877 15.5858 18.4991 0.0000 -6.8125 0.0000
# 2 15.5858 62.7926 10.3164 0.0000 1.2115 0.0000
# 3 18.4991 10.3164 94.9865 0.0000 7.9754 0.0000
# 4 0.0000 0.0000 0.0000 33.8103 0.0000 -7.5597
# 5 -6.8125 1.2115 7.9754 0.0000 16.7115 0.0000
# 6 0.0000 0.0000 0.0000 -7.5597 0.0000 27.3360
#
#
#
# Elastic Compliance Matrix: (Units=1/GPa)
#
#
# Indices 1 2 3 4 5 6 
#
# 1 0.010065 -0.002245 -0.002161 0.000000 0.005297 0.000000
# 2 -0.002245 0.016718 -0.001250 0.000000 -0.001531 0.000000
# 3 -0.002161 -0.001250 0.011616 0.000000 -0.006334 0.000000
# 4 0.000000 0.000000 0.000000 0.031526 0.000000 0.008718
# 5 0.005297 -0.001531 -0.006334 0.000000 0.065132 0.000000
# 6 0.000000 0.000000 0.000000 0.008718 0.000000 0.038993
#
#
# Mechanical properties :
#
#
# Convention : Reuss Voigt Hill
#
# Bulk Modulus (GPa) = 36.91911 39.66327 38.29119
# Shear Modulus (GPa) = 25.72123 30.48926 28.10525
#
# Velocity S-wave (km/s) = 3.35499 3.65274 3.50703
# Velocity P-wave (km/s) = 5.58250 5.92851 5.75811
#
# Compressibility (1/GPa) = 0.02708624
#
# Stress axis : x y z
#
# Youngs Moduli (GPa) = 99.35326 59.81702 86.08604
#
# Poissons Ratio (x) = 0.13431 0.18604
# Poissons Ratio (y) = 0.22309 0.10760
# Poissons Ratio (z) = 0.21471 0.07476
#
# Static dielectric constant tensor:
#      x y z
#    x 3.759830 0.000000 0.014760 
#    y 0.000000 3.929170 0.000000 
#    z 0.014760 0.000000 4.022820 
# 
# 
# High freq. dielectric constant tensor:
#      x y z
#    x 1.875390 0.000000 -0.007380 
#    y 0.000000 1.906470 0.000000 
#    z -0.007380 0.000000 1.900970 
# 
# From -- ./inp_files/51796.got.cif
#   From: 2010.03.12/outbox.cif.g09.slc.cpg/sg5_26_cif.got.tgz:51796.got - 2010.03.31 09:47:26.
