data_PCOD8050490
_publ_section_title
;
Structure prediction by ZEFSAII (Michael W. Deem and Ramdas Pophale) SiO2 
 PCOD8050490
Probable space group: C 2
;
_chemical_formula_sum "Si O2"
_cell_formula_units_Z 26
_cell_length_a 11.051334
_cell_length_b 8.560886
_cell_length_c 14.256657
_cell_angle_alpha 90.000000
_cell_angle_beta 120.502967
_cell_angle_gamma 90.000000
_cell_volume 1162.139493
_symmetry_space_group_name_H-M "C 2"
_symmetry_group_IT_number 5
_symmetry_cell_setting 'monoclinic'
loop_
_space_group_symop_operation_xyz
x,y,z
-x,y,-z
1/2+x,1/2+y,z
1/2-x,1/2+y,-z
loop_
_atom_site_type_symbol
_atom_site_label
_atom_site_fract_x
_atom_site_fract_y
_atom_site_fract_z
Si Si1 0.207934 0.021290 0.714192
Si Si2 0.655539 0.620232 0.053911
Si Si3 0.000000 0.190334 0.500000
Si Si4 0.113889 0.674189 0.351730
Si Si5 0.659949 0.983595 0.039661
Si Si6 0.717877 0.945812 0.540582
Si Si7 0.308072 0.165509 0.295388
O O1 0.337724 0.133190 0.734152
O O2 0.224761 0.024909 0.833813
O O3 0.064308 0.089935 0.612260
O O4 0.223834 0.842369 0.685894
O O5 0.697481 0.600231 0.178724
O O6 0.646267 0.799546 0.020403
O O7 0.500000 0.543357 0.000000
O O8 0.769334 0.542990 0.028923
O O9 0.887830 0.300508 0.506355
O O10 0.133373 0.857122 0.387741
O O11 0.214582 0.551343 0.447386
O O12 0.953132 0.641683 0.298909
O O13 0.500000 0.047705 0.000000
O O14 0.682180 0.059880 0.610547
#
# Coordination Sequence:
#
# PCOD8050490 Si02
#       7
#     4   4   2   4   4   4   4
#     4  10  24  40  62  96 129 168 219 266 331 392
#     4  10  24  44  67 100 130 170 226 274 338 391
#     4  10  22  40  60  94 130 170 216 264 326 394
#     4  11  23  39  60  93 126 173 213 265 324 392
#     4  10  22  45  69  97 131 173 219 282 333 399
#     4  11  23  39  62  93 129 169 221 259 325 393
#     4  11  23  42  65  91 132 172 213 277 324 398
#
# _framework density 22.372529
#
# number of rings (size 3 to 8) (size 9 to 14) (size 15 to 20)
#    0.000    1.538    1.538    1.846    6.462    5.538 
#    8.308    0.000    0.000    0.000    0.000    0.000 
#    0.000    0.000    0.000    0.000    0.000    0.000 
#
# Total GULP energy -161072.079952 kJ/mol
# GULP energy per Si atom -12390.159996 kJ/mol
# Density = 2.232161 g / cm^3
# Si number density = 22.372529 Si / 1000 Ang^3
#
#
#
# Elastic Constant Matrix: (Units=GPa)
#
#
# Indices 1 2 3 4 5 6 
#
# 1 77.5561 -4.5608 -3.4587 0.0000 9.2205 0.0000
# 2 -4.5608 117.1220 52.5701 0.0000 -29.5338 0.0000
# 3 -3.4587 52.5701 99.4285 0.0000 -7.3786 0.0000
# 4 0.0000 0.0000 0.0000 19.7370 0.0000 3.4470
# 5 9.2205 -29.5338 -7.3786 0.0000 45.7945 0.0000
# 6 0.0000 0.0000 0.0000 3.4470 0.0000 28.2464
#
#
#
# Elastic Compliance Matrix: (Units=1/GPa)
#
#
# Indices 1 2 3 4 5 6 
#
# 1 0.013230 -0.000415 0.000468 0.000000 -0.002856 0.000000
# 2 -0.000415 0.013381 -0.006521 0.000000 0.007663 0.000000
# 3 0.000468 -0.006521 0.013362 0.000000 -0.002146 0.000000
# 4 0.000000 0.000000 0.000000 0.051770 0.000000 -0.006318
# 5 -0.002856 0.007663 -0.002146 0.000000 0.027008 0.000000
# 6 0.000000 0.000000 0.000000 -0.006318 0.000000 0.036174
#
#
# Mechanical properties :
#
#
# Convention : Reuss Voigt Hill
#
# Bulk Modulus (GPa) = 36.98617 42.57866 39.78242
# Shear Modulus (GPa) = 28.26907 35.39266 31.83086
#
# Velocity S-wave (km/s) = 3.55852 3.98171 3.77605
# Velocity P-wave (km/s) = 5.78376 6.34127 6.06892
#
# Compressibility (1/GPa) = 0.02703713
#
# Stress axis : x y z
#
# Youngs Moduli (GPa) = 75.58645 74.73319 74.83885
#
# Poissons Ratio (x) = 0.03101 -0.03500
# Poissons Ratio (y) = 0.03136 0.48799
# Poissons Ratio (z) = -0.03535 0.48731
#
# Static dielectric constant tensor:
#      x y z
#    x 4.099430 0.000000 0.091000 
#    y 0.000000 4.184760 0.000000 
#    z 0.091000 0.000000 4.337880 
# 
# 
# High freq. dielectric constant tensor:
#      x y z
#    x 1.886980 0.000000 0.004780 
#    y 0.000000 1.884440 0.000000 
#    z 0.004780 0.000000 1.880470 
# 
# From -- ./inp_files/52343.got.cif
#   From: 2010.03.12/outbox.cif.g09.slc.cpg/sg5_27_cif.got.tgz:52343.got - 2010.03.31 09:47:26.
