data_PCOD8050128
_publ_section_title
;
Structure prediction by ZEFSAII (Michael W. Deem and Ramdas Pophale) SiO2 
 PCOD8050128
Probable space group: C 2
;
_chemical_formula_sum "Si O2"
_cell_formula_units_Z 32
_cell_length_a 12.604031
_cell_length_b 14.713493
_cell_length_c 17.243868
_cell_angle_alpha 90.000000
_cell_angle_beta 29.083325
_cell_angle_gamma 90.000000
_cell_volume 1554.420950
_symmetry_space_group_name_H-M "C 2"
_symmetry_group_IT_number 5
_symmetry_cell_setting 'monoclinic'
loop_
_space_group_symop_operation_xyz
x,y,z
-x,y,-z
1/2+x,1/2+y,z
1/2-x,1/2+y,-z
loop_
_atom_site_type_symbol
_atom_site_label
_atom_site_fract_x
_atom_site_fract_y
_atom_site_fract_z
Si Si1 0.269074 0.254710 0.114671
Si Si2 0.361377 0.038094 0.924817
Si Si3 0.268183 0.260601 0.765952
Si Si4 0.467119 0.088074 0.434360
Si Si5 0.178912 0.963224 0.320980
Si Si6 0.250891 0.453752 0.151051
Si Si7 0.794643 0.223976 0.022528
Si Si8 0.962244 0.075243 0.730423
O O1 0.214703 0.347893 0.195061
O O2 0.099831 0.178699 0.250918
O O3 0.500000 0.219496 0.000000
O O4 0.264218 0.268856 0.023453
O O5 0.342293 0.130248 0.885916
O O6 0.600911 0.020507 0.805452
O O7 0.311795 0.955789 0.899305
O O8 0.175154 0.043708 0.107910
O O9 0.467902 0.193601 0.619230
O O10 0.282949 0.355696 0.711426
O O11 0.268279 0.280716 0.859268
O O12 0.055201 0.209267 0.866672
O O13 0.500000 0.055699 0.500000
O O14 0.216449 0.074880 0.578679
O O15 0.601711 0.019214 0.295822
O O16 0.000000 0.983159 0.500000
O O17 0.082462 0.000415 0.304269
O O18 0.500000 0.484886 0.000000
#
# Coordination Sequence:
#
# PCOD8050128 Si02
#       8
#     4   4   4   4   4   4   4   4
#     4  10  22  42  67  94 129 176 232 277 337 408
#     4  11  22  42  69  94 136 173 223 277 335 410
#     4  11  24  41  69 105 136 177 228 287 345 410
#     4  12  24  42  65  96 138 169 220 283 342 408
#     4  12  27  43  67 102 140 180 226 283 348 408
#     4  11  22  39  67  95 128 173 220 277 336 399
#     4  10  21  40  70 102 131 175 229 278 343 407
#     4  11  25  42  66  95 130 181 221 278 340 404
#
# _framework density 20.586442999999999
#
# number of rings (size 3 to 8) (size 9 to 14) (size 15 to 20)
#    0.000    1.000    1.250    6.750    5.250    2.000 
#    0.000    0.625    0.000    0.000    0.000    0.000 
#    0.000    0.000    0.000    0.000    0.000    0.000 
#
# Total GULP energy -198312.219356 kJ/mol
# GULP energy per Si atom -12394.513710 kJ/mol
# Density = 2.053959 g / cm^3
# Si number density = 20.586443 Si / 1000 Ang^3
#
#
#
# Elastic Constant Matrix: (Units=GPa)
#
#
# Indices 1 2 3 4 5 6 
#
# 1 118.1145 28.0375 47.4880 -0.0160 -20.1187 -0.0327
# 2 28.0375 117.1286 57.2787 -1.0415 -10.7046 -1.5245
# 3 47.4880 57.2787 138.4243 -1.2911 -19.8088 -1.9496
# 4 -0.0160 -1.0415 -1.2911 -137.7406 0.8275 -238.6727
# 5 -20.1187 -10.7046 -19.8088 0.8275 40.5073 1.2630
# 6 -0.0327 -1.5245 -1.9496 -238.6727 1.2630 -323.5034
#
#
#
# Elastic Compliance Matrix: (Units=1/GPa)
#
#
# Indices 1 2 3 4 5 6 
#
# 1 0.010361 -0.000833 -0.002693 0.000020 0.003608 0.000019
# 2 -0.000833 0.010790 -0.004118 -0.000006 0.000424 -0.000020
# 3 -0.002693 -0.004118 0.010220 -0.000023 0.002573 -0.000015
# 4 0.000020 -0.000006 -0.000023 0.026078 0.000064 -0.019240
# 5 0.003608 0.000424 0.002573 0.000064 0.027846 0.000043
# 6 0.000019 -0.000020 -0.000015 -0.019240 0.000043 0.011104
#
#
# Mechanical properties :
#
#
# Convention : Reuss Voigt Hill
#
# Bulk Modulus (GPa) = 62.18252 71.03066 66.60659
# Shear Modulus (GPa) = 42.71698 -68.08978 -12.68640
#
# Velocity S-wave (km/s) = 4.56016 -5.75733 -2.48513
# Velocity P-wave (km/s) = 7.61564 3.10118 4.91837
#
# Compressibility (1/GPa) = 0.01608169
#
# Stress axis : x y z
#
# Youngs Moduli (GPa) = 96.51141 92.68256 97.84758
#
# Poissons Ratio (x) = 0.07721 0.26351
# Poissons Ratio (y) = 0.08040 0.40298
# Poissons Ratio (z) = 0.25992 0.38171
#
# Static dielectric constant tensor:
#      x y z
#    x 7.150740 -0.003470 -7.607330 
#    y -0.003470 3.765490 0.008490 
#    z -7.607330 0.008490 22.071460 
# 
# 
# High freq. dielectric constant tensor:
#      x y z
#    x 1.824880 0.000000 -0.005650 
#    y 0.000000 1.809700 0.000010 
#    z -0.005650 0.000010 1.798250 
# 
# From -- ./inp_files/60687.got.cif
#   From: 2010.03.12/outbox.cif.g09.slc.cpg/sg5_31_cif.got.tgz:60687.got - 2010.03.31 09:47:26.
