data_PCOD8050963
_publ_section_title
;
Structure prediction by ZEFSAII (Michael W. Deem and Ramdas Pophale) SiO2 
 PCOD8050963
Probable space group: C 2
;
_chemical_formula_sum "Si O2"
_cell_formula_units_Z 22
_cell_length_a 9.064953
_cell_length_b 11.672801
_cell_length_c 19.181356
_cell_angle_alpha 90.000000
_cell_angle_beta 153.748656
_cell_angle_gamma 90.000000
_cell_volume 897.731441
_symmetry_space_group_name_H-M "C 2"
_symmetry_group_IT_number 5
_symmetry_cell_setting 'monoclinic'
loop_
_space_group_symop_operation_xyz
x,y,z
-x,y,-z
1/2+x,1/2+y,z
1/2-x,1/2+y,-z
loop_
_atom_site_type_symbol
_atom_site_label
_atom_site_fract_x
_atom_site_fract_y
_atom_site_fract_z
Si Si1 0.500000 0.482530 0.000000
Si Si2 0.337043 0.659447 0.738262
Si Si3 0.102728 0.318890 0.730600
Si Si4 0.777479 0.796038 0.560711
Si Si5 0.195993 0.961178 0.830217
Si Si6 0.602725 0.143224 0.921476
O O1 0.322601 0.412861 0.863532
O O2 0.206227 0.563538 0.902000
O O3 0.391502 0.742248 0.694942
O O4 0.393437 0.522150 0.746567
O O5 0.964483 0.681578 0.610947
O O6 0.589309 0.697328 0.905950
O O7 0.372247 0.247469 0.798280
O O8 0.866063 0.364361 0.568060
O O9 0.500000 0.760920 0.500000
O O10 0.050034 0.879499 0.709896
O O11 0.374955 0.072757 0.877102
O O12 0.500000 0.895238 0.000000
#
# Coordination Sequence:
#
# PCOD8050963 Si02
#       6
#     2   4   4   4   4   4
#     4  12  24  44  78 104 146 194 242 302 368 438
#     4  10  22  49  73  98 152 193 239 306 359 435
#     4  11  24  49  71 109 150 191 245 304 376 431
#     4  12  28  41  73 113 148 194 240 306 369 435
#     4   9  22  46  74 104 138 196 249 291 363 436
#     4  10  23  43  78 108 138 197 250 300 358 442
#
# _framework density 24.506216999999999
#
# number of rings (size 3 to 8) (size 9 to 14) (size 15 to 20)
#    0.000    1.455    1.818    2.727    7.636    2.909 
#    0.000    0.000    0.000    0.000    0.000    0.000 
#    0.000    0.000    0.000    0.000    0.000    0.000 
#
# Total GULP energy -136299.822304 kJ/mol
# GULP energy per Si atom -12390.892937 kJ/mol
# Density = 2.445044 g / cm^3
# Si number density = 24.506217 Si / 1000 Ang^3
#
#
#
# Elastic Constant Matrix: (Units=GPa)
#
#
# Indices 1 2 3 4 5 6 
#
# 1 121.1987 47.9793 58.9630 0.0176 9.4400 0.0277
# 2 47.9793 73.4408 61.1395 -0.0126 -6.2114 -0.0020
# 3 58.9630 61.1395 173.0163 -0.0336 -23.6285 0.0513
# 4 0.0176 -0.0126 -0.0336 97.8693 -0.0201 42.4528
# 5 9.4400 -6.2114 -23.6285 -0.0201 40.9479 -0.0095
# 6 0.0277 -0.0020 0.0513 42.4528 -0.0095 54.6171
#
#
#
# Elastic Compliance Matrix: (Units=1/GPa)
#
#
# Indices 1 2 3 4 5 6 
#
# 1 0.012536 -0.006340 -0.002777 -0.000005 -0.005454 -0.000001
# 2 -0.006340 0.022543 -0.005579 -0.000003 0.001662 0.000012
# 3 -0.002777 -0.005579 0.009411 0.000011 0.005224 -0.000015
# 4 -0.000005 -0.000003 0.000011 0.015415 0.000012 -0.011982
# 5 -0.005454 0.001662 0.005224 0.000012 0.028946 -0.000006
# 6 -0.000001 0.000012 -0.000015 -0.011982 -0.000006 0.027623
#
#
# Mechanical properties :
#
#
# Convention : Reuss Voigt Hill
#
# Bulk Modulus (GPa) = 66.22523 78.20215 72.21369
# Shear Modulus (GPa) = 33.13520 51.99180 42.56350
#
# Velocity S-wave (km/s) = 3.68110 4.61105 4.17207
# Velocity P-wave (km/s) = 6.71936 7.76721 7.26221
#
# Compressibility (1/GPa) = 0.01509999
#
# Stress axis : x y z
#
# Youngs Moduli (GPa) = 79.76788 44.35996 106.25852
#
# Poissons Ratio (x) = 0.28122 0.29507
# Poissons Ratio (y) = 0.50569 0.59277
# Poissons Ratio (z) = 0.22151 0.24747
#
# Static dielectric constant tensor:
#      x y z
#    x 3.796820 -0.000050 0.281060 
#    y -0.000050 4.056860 0.000010 
#    z 0.281060 0.000010 4.655230 
# 
# 
# High freq. dielectric constant tensor:
#      x y z
#    x 1.982700 0.000000 0.001850 
#    y 0.000000 1.949100 0.000000 
#    z 0.001850 0.000000 1.984770 
# 
# From -- ./inp_files/59761.got.cif
#   From: 2010.03.12/outbox.cif.g09.slc.cpg/sg5_30_cif.got.tgz:59761.got - 2010.03.31 09:47:26.
