data_PCOD8050468
_publ_section_title
;
Structure prediction by ZEFSAII (Michael W. Deem and Ramdas Pophale) SiO2 
 PCOD8050468
Probable space group: C 2
;
_chemical_formula_sum "Si O2"
_cell_formula_units_Z 28
_cell_length_a 23.032051
_cell_length_b 7.586560
_cell_length_c 19.350652
_cell_angle_alpha 90.000000
_cell_angle_beta 156.799397
_cell_angle_gamma 90.000000
_cell_volume 1332.036002
_symmetry_space_group_name_H-M "C 2"
_symmetry_group_IT_number 5
_symmetry_cell_setting 'monoclinic'
loop_
_space_group_symop_operation_xyz
x,y,z
-x,y,-z
1/2+x,1/2+y,z
1/2-x,1/2+y,-z
loop_
_atom_site_type_symbol
_atom_site_label
_atom_site_fract_x
_atom_site_fract_y
_atom_site_fract_z
Si Si1 0.216781 0.327840 0.867379
Si Si2 0.599092 0.878588 0.252427
Si Si3 0.951631 0.140237 0.521162
Si Si4 0.936541 0.886268 0.632702
Si Si5 0.499305 0.502168 0.147715
Si Si6 0.122013 0.715759 0.189087
Si Si7 0.899639 0.556331 0.141516
O O1 0.194344 0.424297 0.915554
O O2 0.063339 0.301761 0.659512
O O3 0.331489 0.441870 0.946892
O O4 0.292229 0.139050 0.966012
O O5 0.766877 0.833291 0.452226
O O6 0.521525 0.698058 0.142291
O O7 0.583280 0.022366 0.175049
O O8 0.528281 0.948223 0.245346
O O9 0.786021 0.216463 0.336617
O O10 0.000000 0.059913 0.500000
O O11 0.969549 0.992496 0.599070
O O12 0.030323 0.707584 0.733752
O O13 0.977738 0.004159 0.744322
O O14 0.614534 0.362720 0.241033
O O15 0.000000 0.769149 0.000000
#
# Coordination Sequence:
#
# PCOD8050468 Si02
#       7
#     4   4   4   4   4   4   4
#     4  11  22  38  62 101 132 179 212 280 346 385
#     4  11  22  38  70  98 133 177 223 283 327 398
#     4  11  25  43  68  95 138 185 223 275 341 409
#     4  10  22  39  66 102 133 177 226 284 333 389
#     4  11  23  41  68 103 134 176 229 279 333 400
#     4  11  25  47  68  96 137 182 226 277 336 403
#     4  11  21  38  65 100 139 166 222 284 333 402
#
# _framework density 21.020451000000001
#
# number of rings (size 3 to 8) (size 9 to 14) (size 15 to 20)
#    0.000    1.143    2.857    5.143    6.000    0.571 
#    0.000    0.714    0.000    0.000    0.000    0.000 
#    0.000    0.000    0.000    0.000    0.000    0.000 
#
# Total GULP energy -173644.627423 kJ/mol
# GULP energy per Si atom -12403.187673 kJ/mol
# Density = 2.097261 g / cm^3
# Si number density = 21.020451 Si / 1000 Ang^3
#
#
#
# Elastic Constant Matrix: (Units=GPa)
#
#
# Indices 1 2 3 4 5 6 
#
# 1 123.1535 46.8609 43.1783 0.0000 18.1036 0.0000
# 2 46.8609 118.7008 41.1682 0.0000 7.4037 0.0000
# 3 43.1783 41.1682 120.5975 0.0000 16.6917 0.0000
# 4 0.0000 0.0000 0.0000 22.3596 0.0000 1.4624
# 5 18.1036 7.4037 16.6917 0.0000 37.2420 0.0000
# 6 0.0000 0.0000 0.0000 1.4624 0.0000 24.7109
#
#
#
# Elastic Compliance Matrix: (Units=1/GPa)
#
#
# Indices 1 2 3 4 5 6 
#
# 1 0.010641 -0.003209 -0.002225 0.000000 -0.003538 0.000000
# 2 -0.003209 0.010531 -0.002529 0.000000 0.000600 0.000000
# 3 -0.002225 -0.002529 0.010376 0.000000 -0.003066 0.000000
# 4 0.000000 0.000000 0.000000 0.044897 0.000000 -0.002657
# 5 -0.003538 0.000600 -0.003066 0.000000 0.029826 0.000000
# 6 0.000000 0.000000 0.000000 -0.002657 0.000000 0.040625
#
#
# Mechanical properties :
#
#
# Convention : Reuss Voigt Hill
#
# Bulk Modulus (GPa) = 64.00787 69.42962 66.71874
# Shear Modulus (GPa) = 29.75664 32.27881 31.01772
#
# Velocity S-wave (km/s) = 3.76653 3.92291 3.84552
# Velocity P-wave (km/s) = 7.03080 7.32259 7.17817
#
# Compressibility (1/GPa) = 0.01562308
#
# Stress axis : x y z
#
# Youngs Moduli (GPa) = 93.97692 94.95782 96.37220
#
# Poissons Ratio (x) = 0.30468 0.21442
# Poissons Ratio (y) = 0.30153 0.24374
# Poissons Ratio (z) = 0.20909 0.24017
#
# Static dielectric constant tensor:
#      x y z
#    x 3.823740 0.000000 0.309280 
#    y 0.000000 3.731990 0.000000 
#    z 0.309280 0.000000 3.858770 
# 
# 
# High freq. dielectric constant tensor:
#      x y z
#    x 1.822820 0.000000 0.025810 
#    y 0.000000 1.816310 0.000000 
#    z 0.025810 0.000000 1.826010 
# 
# From -- ./inp_files/62738.got.cif
#   From: 2010.03.12/outbox.cif.g09.slc.cpg/sg5_32_cif.got.tgz:62738.got - 2010.03.31 09:47:26.
