data_PCOD8050245
_publ_section_title
;
Structure prediction by ZEFSAII (Michael W. Deem and Ramdas Pophale) SiO2 
 PCOD8050245
Probable space group: C 2
;
_chemical_formula_sum "Si O2"
_cell_formula_units_Z 24
_cell_length_a 9.333365
_cell_length_b 12.017277
_cell_length_c 17.478221
_cell_angle_alpha 90.000000
_cell_angle_beta 33.659415
_cell_angle_gamma 90.000000
_cell_volume 1086.553594
_symmetry_space_group_name_H-M "C 2"
_symmetry_group_IT_number 5
_symmetry_cell_setting 'monoclinic'
loop_
_space_group_symop_operation_xyz
x,y,z
-x,y,-z
1/2+x,1/2+y,z
1/2-x,1/2+y,-z
loop_
_atom_site_type_symbol
_atom_site_label
_atom_site_fract_x
_atom_site_fract_y
_atom_site_fract_z
Si Si1 0.223815 0.456150 0.959800
Si Si2 0.438615 0.218994 0.401349
Si Si3 0.293283 0.991860 0.706724
Si Si4 0.500000 0.808607 0.500000
Si Si5 0.500000 0.387678 0.500000
Si Si6 0.218885 0.725564 0.135614
Si Si7 0.000827 0.498288 0.221468
O O1 0.489036 0.527675 0.832919
O O2 0.310617 0.330350 0.905490
O O3 0.000000 0.497025 0.000000
O O4 0.116662 0.448836 0.092853
O O5 0.511620 0.095102 0.399879
O O6 0.189492 0.222329 0.457522
O O7 0.366253 0.305504 0.499267
O O8 0.681580 0.260512 0.241482
O O9 0.335488 0.959042 0.777017
O O10 0.351810 0.888380 0.625748
O O11 0.705168 0.462979 0.364606
O O12 0.006243 0.632232 0.210248
O O13 0.500000 0.670500 0.000000
#
# Coordination Sequence:
#
# PCOD8050245 Si02
#       7
#     4   4   4   2   2   4   4
#     4  11  23  44  73 101 139 188 242 299 360 427
#     4  11  24  44  71  99 147 186 239 295 362 426
#     4  11  24  45  70 105 142 189 244 292 358 437
#     4  12  23  47  70 108 144 198 234 290 368 432
#     4  12  23  43  66 110 138 190 236 306 352 434
#     4  10  21  42  68  94 134 189 229 288 365 420
#     4  11  24  41  69 100 144 185 240 297 360 425
#
# _framework density 22.088186
#
# number of rings (size 3 to 8) (size 9 to 14) (size 15 to 20)
#    0.000    1.000    3.333    5.000    0.000    2.667 
#    0.000    6.667    0.000    1.000    0.000    0.000 
#    0.000    0.000    0.000    0.000    0.000    0.000 
#
# Total GULP energy -148687.409982 kJ/mol
# GULP energy per Si atom -12390.617499 kJ/mol
# Density = 2.203791 g / cm^3
# Si number density = 22.088186 Si / 1000 Ang^3
#
#
#
# Elastic Constant Matrix: (Units=GPa)
#
#
# Indices 1 2 3 4 5 6 
#
# 1 107.3772 22.1757 31.6245 -0.0015 -14.2149 -0.0003
# 2 22.1757 91.0745 27.5873 -0.0042 -10.0615 -0.0001
# 3 31.6245 27.5873 119.5410 -0.0145 -12.6271 -0.0003
# 4 -0.0015 -0.0042 -0.0145 32.4001 0.0015 1.3245
# 5 -14.2149 -10.0615 -12.6271 0.0015 50.7112 0.0001
# 6 -0.0003 -0.0001 -0.0003 1.3245 0.0001 30.7348
#
#
#
# Elastic Compliance Matrix: (Units=1/GPa)
#
#
# Indices 1 2 3 4 5 6 
#
# 1 0.010582 -0.001682 -0.002191 -0.000001 0.002087 0.000000
# 2 -0.001682 0.012219 -0.002227 0.000000 0.001398 0.000000
# 3 -0.002191 -0.002227 0.009600 0.000004 0.001334 0.000000
# 4 -0.000001 0.000000 0.000004 0.030919 0.000000 -0.001332
# 5 0.002087 0.001398 0.001334 0.000000 0.020914 0.000000
# 6 0.000000 0.000000 0.000000 -0.001332 0.000000 0.032594
#
#
# Mechanical properties :
#
#
# Convention : Reuss Voigt Hill
#
# Bulk Modulus (GPa) = 49.50488 53.41864 51.46176
# Shear Modulus (GPa) = 36.82952 38.54291 37.68621
#
# Velocity S-wave (km/s) = 4.08779 4.18180 4.13506
# Velocity P-wave (km/s) = 6.68888 6.89589 6.79317
#
# Compressibility (1/GPa) = 0.02020003
#
# Stress axis : x y z
#
# Youngs Moduli (GPa) = 94.50100 81.84162 104.16902
#
# Poissons Ratio (x) = 0.13769 0.22821
# Poissons Ratio (y) = 0.15899 0.23199
# Poissons Ratio (z) = 0.20703 0.18226
#
# Static dielectric constant tensor:
#      x y z
#    x 4.111510 0.000000 0.181200 
#    y 0.000000 3.786560 0.000010 
#    z 0.181200 0.000010 4.530690 
# 
# 
# High freq. dielectric constant tensor:
#      x y z
#    x 1.864130 0.000000 0.007940 
#    y 0.000000 1.854670 0.000000 
#    z 0.007940 0.000000 1.890950 
# 
# From -- ./inp_files/59693.got.cif
#   From: 2010.03.12/outbox.cif.g09.slc.cpg/sg5_30_cif.got.tgz:59693.got - 2010.03.31 09:47:26.
