data_PCOD8050537
_publ_section_title
;
Structure prediction by ZEFSAII (Michael W. Deem and Ramdas Pophale) SiO2 
 PCOD8050537
Probable space group: C 2
;
_chemical_formula_sum "Si O2"
_cell_formula_units_Z 26
_cell_length_a 9.275978
_cell_length_b 14.721875
_cell_length_c 14.277731
_cell_angle_alpha 90.000000
_cell_angle_beta 139.782262
_cell_angle_gamma 90.000000
_cell_volume 1258.951099
_symmetry_space_group_name_H-M "C 2"
_symmetry_group_IT_number 5
_symmetry_cell_setting 'monoclinic'
loop_
_space_group_symop_operation_xyz
x,y,z
-x,y,-z
1/2+x,1/2+y,z
1/2-x,1/2+y,-z
loop_
_atom_site_type_symbol
_atom_site_label
_atom_site_fract_x
_atom_site_fract_y
_atom_site_fract_z
Si Si1 0.754875 0.435410 0.351813
Si Si2 0.500000 0.244422 0.500000
Si Si3 0.978121 0.915359 0.389730
Si Si4 0.305086 0.621244 0.769331
Si Si5 0.981800 0.445880 0.096794
Si Si6 0.436892 0.320000 0.074253
Si Si7 0.698340 0.130674 0.927670
O O1 0.614392 0.464568 0.374941
O O2 0.776543 0.519700 0.292382
O O3 0.629840 0.354449 0.238160
O O4 0.000000 0.400724 0.500000
O O5 0.577858 0.312510 0.454277
O O6 0.707032 0.184206 0.638308
O O7 0.716783 0.902857 0.240678
O O8 0.000000 0.970039 0.500000
O O9 0.223573 0.653767 0.830650
O O10 0.571687 0.621230 0.901209
O O11 0.931386 0.535571 0.131773
O O12 0.797992 0.367319 0.018099
O O13 0.000000 0.479036 0.000000
O O14 0.431985 0.212238 0.087401
O O15 0.500000 0.344261 0.000000
#
# Coordination Sequence:
#
# PCOD8050537 Si02
#       7
#     4   2   4   4   4   4   4
#     4  12  25  44  67 103 139 178 223 282 341 407
#     4  10  22  40  66  94 130 182 226 268 334 408
#     4  10  25  42  66  98 135 180 227 270 341 400
#     4  11  22  41  69 100 135 173 231 280 336 404
#     4  12  23  45  70  97 139 178 230 282 336 411
#     4  12  26  43  71 104 136 179 227 288 341 394
#     4  11  25  41  69 102 134 175 231 283 340 398
#
# _framework density 20.652114000000001
#
# number of rings (size 3 to 8) (size 9 to 14) (size 15 to 20)
#    0.462    0.308    3.846    3.231    6.462    0.000 
#    0.000    0.769    0.000    0.000    0.000    0.000 
#    0.000    0.000    0.000    0.000    0.000    0.000 
#
# Total GULP energy -161181.681982 kJ/mol
# GULP energy per Si atom -12398.590922 kJ/mol
# Density = 2.060511 g / cm^3
# Si number density = 20.652114 Si / 1000 Ang^3
#
#
#
# Elastic Constant Matrix: (Units=GPa)
#
#
# Indices 1 2 3 4 5 6 
#
# 1 96.4597 11.5020 48.5918 -0.0001 -1.8032 -0.0001
# 2 11.5020 85.2821 26.0932 0.0000 2.3525 0.0000
# 3 48.5918 26.0932 154.2614 -0.0004 5.6965 -0.0002
# 4 -0.0001 0.0000 -0.0004 21.3055 -0.0001 -13.7168
# 5 -1.8032 2.3525 5.6965 -0.0001 33.1498 0.0000
# 6 -0.0001 0.0000 -0.0002 -13.7168 0.0000 20.9740
#
#
#
# Elastic Compliance Matrix: (Units=1/GPa)
#
#
# Indices 1 2 3 4 5 6 
#
# 1 0.012405 -0.000527 -0.003869 0.000000 0.001377 0.000000
# 2 -0.000527 0.012397 -0.001909 0.000000 -0.000580 0.000000
# 3 -0.003869 -0.001909 0.008078 0.000000 -0.001463 0.000000
# 4 0.000000 0.000000 0.000000 0.081071 0.000000 0.053020
# 5 0.001377 -0.000580 -0.001463 0.000000 0.030534 0.000000
# 6 0.000000 0.000000 0.000000 0.053020 0.000000 0.082352
#
#
# Mechanical properties :
#
#
# Convention : Reuss Voigt Hill
#
# Bulk Modulus (GPa) = 49.33757 56.48638 52.91197
# Shear Modulus (GPa) = 20.30828 31.74029 26.02428
#
# Velocity S-wave (km/s) = 3.13924 3.92459 3.55368
# Velocity P-wave (km/s) = 6.08946 6.92440 6.52031
#
# Compressibility (1/GPa) = 0.02026853
#
# Stress axis : x y z
#
# Youngs Moduli (GPa) = 80.61461 80.66383 123.78885
#
# Poissons Ratio (x) = 0.04253 0.47895
# Poissons Ratio (y) = 0.04250 0.23637
# Poissons Ratio (z) = 0.31191 0.15403
#
# Static dielectric constant tensor:
#      x y z
#    x 3.726550 0.000000 -0.246980 
#    y 0.000000 3.564590 0.000000 
#    z -0.246980 0.000000 4.172450 
# 
# 
# High freq. dielectric constant tensor:
#      x y z
#    x 1.799590 0.000000 -0.011950 
#    y 0.000000 1.800360 0.000000 
#    z -0.011950 0.000000 1.826040 
# 
# From -- ./inp_files/51089.got.cif
#   From: 2010.03.12/outbox.cif.g09.slc.cpg/sg5_26_cif.got.tgz:51089.got - 2010.03.31 09:47:26.
