data_PCOD8050982
_publ_section_title
;
Structure prediction by ZEFSAII (Michael W. Deem and Ramdas Pophale) SiO2 
 PCOD8050982
Probable space group: C 2
;
_chemical_formula_sum "Si O2"
_cell_formula_units_Z 20
_cell_length_a 7.681920
_cell_length_b 20.199886
_cell_length_c 6.308349
_cell_angle_alpha 90.000000
_cell_angle_beta 106.122718
_cell_angle_gamma 90.000000
_cell_volume 940.390520
_symmetry_space_group_name_H-M "C 2"
_symmetry_group_IT_number 5
_symmetry_cell_setting 'monoclinic'
loop_
_space_group_symop_operation_xyz
x,y,z
-x,y,-z
1/2+x,1/2+y,z
1/2-x,1/2+y,-z
loop_
_atom_site_type_symbol
_atom_site_label
_atom_site_fract_x
_atom_site_fract_y
_atom_site_fract_z
Si Si1 0.324010 0.955680 0.053048
Si Si2 0.681973 0.315157 0.941268
Si Si3 0.682863 0.188077 0.180591
Si Si4 0.000000 0.509823 0.500000
Si Si5 0.000000 0.752913 0.500000
Si Si6 0.318473 0.552507 0.310540
O O1 0.355726 0.966096 0.314764
O O2 0.500000 0.983784 0.000000
O O3 0.310052 0.878216 0.996265
O O4 0.171522 0.000864 0.885257
O O5 0.633655 0.299065 0.682479
O O6 0.500000 0.335772 0.000000
O O7 0.771191 0.251224 0.087710
O O8 0.630938 0.207706 0.402217
O O9 0.824515 0.127665 0.223463
O O10 0.500000 0.166171 0.000000
O O11 0.865132 0.551011 0.606848
O O12 0.500000 0.537285 0.500000
#
# Coordination Sequence:
#
# PCOD8050982 Si02
#       6
#     4   4   4   2   2   4
#     4  10  23  40  59  89 122 160 202 246 301 360
#     4   9  20  35  61  87 117 157 199 246 293 361
#     4   9  18  37  58  86 121 156 199 243 298 356
#     4  10  23  42  62  84 123 164 196 256 301 350
#     4   8  17  34  62  82 113 162 192 244 301 352
#     4  11  24  39  63  94 122 157 203 251 300 362
#
# _framework density 21.267759000000002
#
# number of rings (size 3 to 8) (size 9 to 14) (size 15 to 20)
#    0.000    2.800    0.000    2.400    4.200    6.400 
#    5.400    0.000    0.000    0.000    0.000    0.000 
#    0.000    0.000    0.000    0.000    0.000    0.000 
#
# Total GULP energy -123902.824081 kJ/mol
# GULP energy per Si atom -12390.282408 kJ/mol
# Density = 2.121935 g / cm^3
# Si number density = 21.267759 Si / 1000 Ang^3
#
#
#
# Elastic Constant Matrix: (Units=GPa)
#
#
# Indices 1 2 3 4 5 6 
#
# 1 41.8505 17.3232 26.2460 0.0000 10.2751 0.0000
# 2 17.3232 163.8820 78.6088 0.0000 17.7081 0.0000
# 3 26.2460 78.6088 170.4781 0.0000 13.1891 0.0000
# 4 0.0000 0.0000 0.0000 27.8303 0.0000 7.7847
# 5 10.2751 17.7081 13.1891 0.0000 31.5252 0.0000
# 6 0.0000 0.0000 0.0000 7.7847 0.0000 25.9456
#
#
#
# Elastic Compliance Matrix: (Units=1/GPa)
#
#
# Indices 1 2 3 4 5 6 
#
# 1 0.028132 -0.000475 -0.003538 0.000000 -0.007422 0.000000
# 2 -0.000475 0.008125 -0.003444 0.000000 -0.002968 0.000000
# 3 -0.003538 -0.003444 0.008019 0.000000 -0.000267 0.000000
# 4 0.000000 0.000000 0.000000 0.039224 0.000000 -0.011769
# 5 -0.007422 -0.002968 -0.000267 0.000000 0.035919 0.000000
# 6 0.000000 0.000000 0.000000 -0.011769 0.000000 0.042073
#
#
# Mechanical properties :
#
#
# Convention : Reuss Voigt Hill
#
# Bulk Modulus (GPa) = 34.05592 68.95187 51.50389
# Shear Modulus (GPa) = 26.85388 33.99573 30.42480
#
# Velocity S-wave (km/s) = 3.55724 4.00242 3.78638
# Velocity P-wave (km/s) = 5.73757 7.33828 6.58673
#
# Compressibility (1/GPa) = 0.02936347
#
# Stress axis : x y z
#
# Youngs Moduli (GPa) = 35.54641 123.08220 124.70188
#
# Poissons Ratio (x) = 0.05842 0.44120
# Poissons Ratio (y) = 0.01687 0.42943
# Poissons Ratio (z) = 0.12576 0.42385
#
# Static dielectric constant tensor:
#      x y z
#    x 3.358860 0.000000 0.067480 
#    y 0.000000 3.717110 0.000000 
#    z 0.067480 0.000000 4.424970 
# 
# 
# High freq. dielectric constant tensor:
#      x y z
#    x 1.794220 0.000000 0.001910 
#    y 0.000000 1.836090 0.000000 
#    z 0.001910 0.000000 1.851980 
# 
# From -- ./inp_files/2465.got.cif
#   From: 2010.03.12/outbox.cif.g09.slc.cpg/sg5_2_cif.got.tgz:2465.got - 2010.03.31 09:47:26.
