data_PCOD8050493
_publ_section_title
;
Structure prediction by ZEFSAII (Michael W. Deem and Ramdas Pophale) SiO2 
 PCOD8050493
Probable space group: C 2
;
_chemical_formula_sum "Si O2"
_cell_formula_units_Z 20
_cell_length_a 9.251947
_cell_length_b 24.647776
_cell_length_c 7.747889
_cell_angle_alpha 90.000000
_cell_angle_beta 32.981192
_cell_angle_gamma 90.000000
_cell_volume 961.797013
_symmetry_space_group_name_H-M "C 2"
_symmetry_group_IT_number 5
_symmetry_cell_setting 'monoclinic'
loop_
_space_group_symop_operation_xyz
x,y,z
-x,y,-z
1/2+x,1/2+y,z
1/2-x,1/2+y,-z
loop_
_atom_site_type_symbol
_atom_site_label
_atom_site_fract_x
_atom_site_fract_y
_atom_site_fract_z
Si Si1 0.941893 0.298920 0.260691
Si Si2 0.500000 0.019754 0.000000
Si Si3 0.089438 0.623997 0.090404
Si Si4 0.594466 0.677366 0.714043
Si Si5 0.000000 0.947133 0.500000
Si Si6 0.437332 0.364379 0.868024
O O1 0.921578 0.237386 0.351417
O O2 0.656247 0.323785 0.578882
O O3 0.000000 0.302905 0.000000
O O4 0.160501 0.331889 0.149837
O O5 0.562180 0.058409 0.104003
O O6 0.250498 0.983392 0.300369
O O7 0.888175 0.650909 0.429235
O O8 0.000000 0.651468 0.000000
O O9 0.396771 0.637100 0.812535
O O10 0.500000 0.683712 0.000000
O O11 0.919713 0.913823 0.751129
O O12 0.500000 0.385147 0.000000
#
# Coordination Sequence:
#
# PCOD8050493 Si02
#       6
#     4   2   4   4   2   4
#     4  11  22  41  61  93 136 181 204 258 329 391
#     4  10  24  42  70  86 120 180 218 260 342 370
#     4  10  22  40  61  90 121 162 223 258 304 393
#     4  11  22  37  63  94 134 170 205 257 325 378
#     4  12  22  46  70  88 134 174 208 292 324 370
#     4  12  25  41  66  98 129 167 223 268 320 390
#
# _framework density 20.794408000000001
#
# number of rings (size 3 to 8) (size 9 to 14) (size 15 to 20)
#    0.600    0.400    2.000    5.400    0.000    8.000 
#    0.000    6.000    0.000    0.000    0.000    0.000 
#    0.000    0.000    0.000    0.000    0.000    0.000 
#
# Total GULP energy -123984.430438 kJ/mol
# GULP energy per Si atom -12398.443044 kJ/mol
# Density = 2.074708 g / cm^3
# Si number density = 20.794408 Si / 1000 Ang^3
#
#
#
# Elastic Constant Matrix: (Units=GPa)
#
#
# Indices 1 2 3 4 5 6 
#
# 1 69.5405 24.0369 -6.5490 0.0000 -3.8944 0.0000
# 2 24.0369 128.5660 31.1283 0.0000 -3.9451 0.0000
# 3 -6.5490 31.1283 77.3041 0.0000 -9.8566 0.0000
# 4 0.0000 0.0000 0.0000 17.1439 0.0000 -21.3708
# 5 -3.8944 -3.9451 -9.8566 0.0000 37.1762 0.0000
# 6 0.0000 0.0000 0.0000 -21.3708 0.0000 -17.4719
#
#
#
# Elastic Compliance Matrix: (Units=1/GPa)
#
#
# Indices 1 2 3 4 5 6 
#
# 1 0.016070 -0.003695 0.003119 0.000000 0.002118 0.000000
# 2 -0.003695 0.009468 -0.004188 0.000000 -0.000493 0.000000
# 3 0.003119 -0.004188 0.015392 0.000000 0.003963 0.000000
# 4 0.000000 0.000000 0.000000 0.023103 0.000000 -0.028259
# 5 0.002118 -0.000493 0.003963 0.000000 0.028119 0.000000
# 6 0.000000 0.000000 0.000000 -0.028259 0.000000 -0.022670
#
#
# Mechanical properties :
#
#
# Convention : Reuss Voigt Hill
#
# Bulk Modulus (GPa) = 31.84512 41.40478 36.62495
# Shear Modulus (GPa) = 55.88031 22.48928 39.18479
#
# Velocity S-wave (km/s) = 5.18952 3.29219 4.34567
# Velocity P-wave (km/s) = 7.15930 5.86567 6.54453
#
# Compressibility (1/GPa) = 0.03140199
#
# Stress axis : x y z
#
# Youngs Moduli (GPa) = 62.22950 105.62124 64.96882
#
# Poissons Ratio (x) = 0.39023 -0.20265
# Poissons Ratio (y) = 0.22991 0.27211
# Poissons Ratio (z) = -0.19410 0.44237
#
# Static dielectric constant tensor:
#      x y z
#    x 4.100990 0.000000 -1.017290 
#    y 0.000000 3.840290 0.000000 
#    z -1.017290 0.000000 5.632730 
# 
# 
# High freq. dielectric constant tensor:
#      x y z
#    x 1.806960 0.000000 -0.009030 
#    y 0.000000 1.810540 0.000000 
#    z -0.009030 0.000000 1.830230 
# 
# From -- ./inp_files/17368.got.cif
#   From: 2010.03.12/outbox.cif.g09.slc.cpg/sg5_9_cif.got.tgz:17368.got - 2010.03.31 09:47:26.
