data_PCOD8050670
_publ_section_title
;
Structure prediction by ZEFSAII (Michael W. Deem and Ramdas Pophale) SiO2 
 PCOD8050670
Probable space group: C 2
;
_chemical_formula_sum "Si O2"
_cell_formula_units_Z 32
_cell_length_a 10.509742
_cell_length_b 9.180045
_cell_length_c 27.370063
_cell_angle_alpha 90.000000
_cell_angle_beta 35.236640
_cell_angle_gamma 90.000000
_cell_volume 1523.541953
_symmetry_space_group_name_H-M "C 2"
_symmetry_group_IT_number 5
_symmetry_cell_setting 'monoclinic'
loop_
_space_group_symop_operation_xyz
x,y,z
-x,y,-z
1/2+x,1/2+y,z
1/2-x,1/2+y,-z
loop_
_atom_site_type_symbol
_atom_site_label
_atom_site_fract_x
_atom_site_fract_y
_atom_site_fract_z
Si Si1 0.254486 0.187040 0.353952
Si Si2 0.152538 0.646078 0.164158
Si Si3 0.670617 0.445795 0.809307
Si Si4 0.537925 0.132148 0.351099
Si Si5 0.706885 0.947947 0.903914
Si Si6 0.303495 0.103286 0.197117
Si Si7 0.916773 0.938390 0.651304
Si Si8 0.081920 0.433956 0.526680
O O1 0.465288 0.231981 0.254784
O O2 0.318942 0.184905 0.390463
O O3 0.050016 0.295121 0.410063
O O4 0.199990 0.021978 0.355979
O O5 0.287528 0.525043 0.151887
O O6 0.033589 0.571503 0.154287
O O7 0.319123 0.774461 0.096784
O O8 0.837120 0.507414 0.717178
O O9 0.424772 0.478400 0.867626
O O10 0.725241 0.276300 0.798737
O O11 0.691548 0.277158 0.308617
O O12 0.460304 0.074109 0.427067
O O13 0.702035 0.033792 0.854417
O O14 0.500000 0.003656 0.000000
O O15 0.104658 0.032131 0.291723
O O16 0.161774 0.902010 0.556892
O O17 0.000000 0.482668 0.500000
#
# Coordination Sequence:
#
# PCOD8050670 Si02
#       8
#     4   4   4   4   4   4   4   4
#     4  10  22  45  62  86 123 162 211 261 303 355
#     4   9  21  44  68  92 121 170 210 254 308 368
#     4  10  23  41  69  93 124 166 208 256 306 371
#     4  11  23  42  61  89 122 164 210 254 307 361
#     4  11  24  41  66  97 130 161 198 253 313 377
#     4  10  22  42  63  94 129 159 211 255 310 368
#     4  11  23  39  65  88 117 168 205 258 307 359
#     4  12  24  39  58  87 128 163 204 259 309 353
#
# _framework density 21.003686999999999
#
# number of rings (size 3 to 8) (size 9 to 14) (size 15 to 20)
#    0.000    1.500    1.250    4.500    1.750    6.000 
#    4.500    0.625    0.000    0.000    0.000    0.000 
#    0.000    0.000    0.000    0.000    0.000    0.000 
#
# Total GULP energy -198352.068127 kJ/mol
# GULP energy per Si atom -12397.004258 kJ/mol
# Density = 2.095588 g / cm^3
# Si number density = 21.003687 Si / 1000 Ang^3
#
#
#
# Elastic Constant Matrix: (Units=GPa)
#
#
# Indices 1 2 3 4 5 6 
#
# 1 96.1278 60.8061 32.5239 0.0001 4.0141 0.0005
# 2 60.8061 135.6900 40.7233 0.0001 6.5887 0.0000
# 3 32.5239 40.7233 81.7046 0.0010 -1.5014 0.0008
# 4 0.0001 0.0001 0.0010 33.1588 -0.0001 4.6369
# 5 4.0141 6.5887 -1.5014 -0.0001 20.8683 0.0003
# 6 0.0005 0.0000 0.0008 4.6369 0.0003 40.9644
#
#
#
# Elastic Compliance Matrix: (Units=1/GPa)
#
#
# Indices 1 2 3 4 5 6 
#
# 1 0.015200 -0.005790 -0.003189 0.000000 -0.001325 0.000000
# 2 -0.005790 0.011070 -0.003261 0.000000 -0.002616 0.000000
# 3 -0.003189 -0.003261 0.015184 0.000000 0.002735 0.000000
# 4 0.000000 0.000000 0.000000 0.030643 0.000000 -0.003469
# 5 -0.001325 -0.002616 0.002735 0.000000 0.049197 0.000000
# 6 0.000000 0.000000 0.000000 -0.003469 0.000000 0.024804
#
#
# Mechanical properties :
#
#
# Convention : Reuss Voigt Hill
#
# Bulk Modulus (GPa) = 58.91253 64.62544 61.76898
# Shear Modulus (GPa) = 28.37114 30.96290 29.66702
#
# Velocity S-wave (km/s) = 3.67927 3.84365 3.76236
# Velocity P-wave (km/s) = 6.79403 7.10870 6.95315
#
# Compressibility (1/GPa) = 0.01697432
#
# Stress axis : x y z
#
# Youngs Moduli (GPa) = 65.79154 90.33428 65.85805
#
# Poissons Ratio (x) = 0.52302 0.21002
# Poissons Ratio (y) = 0.38092 0.21475
# Poissons Ratio (z) = 0.20981 0.29456
#
# Static dielectric constant tensor:
#      x y z
#    x 3.857620 0.000000 0.129400 
#    y 0.000000 3.915430 0.000000 
#    z 0.129400 0.000000 3.587230 
# 
# 
# High freq. dielectric constant tensor:
#      x y z
#    x 1.828710 0.000000 0.007860 
#    y 0.000000 1.831280 0.000000 
#    z 0.007860 0.000000 1.805650 
# 
# From -- ./inp_files/71746.got.cif
#   From: 2010.03.12/outbox.cif.g09.slc.cpg/sg5_36_cif.got.tgz:71746.got - 2010.03.31 09:47:26.
