data_PCOD8050861
_publ_section_title
;
Structure prediction by ZEFSAII (Michael W. Deem and Ramdas Pophale) SiO2 
 PCOD8050861
Probable space group: C 2
;
_chemical_formula_sum "Si O2"
_cell_formula_units_Z 20
_cell_length_a 20.695979
_cell_length_b 7.345365
_cell_length_c 13.469088
_cell_angle_alpha 90.000000
_cell_angle_beta 26.185578
_cell_angle_gamma 90.000000
_cell_volume 903.549147
_symmetry_space_group_name_H-M "C 2"
_symmetry_group_IT_number 5
_symmetry_cell_setting 'monoclinic'
loop_
_space_group_symop_operation_xyz
x,y,z
-x,y,-z
1/2+x,1/2+y,z
1/2-x,1/2+y,-z
loop_
_atom_site_type_symbol
_atom_site_label
_atom_site_fract_x
_atom_site_fract_y
_atom_site_fract_z
Si Si1 0.660464 0.900360 0.686283
Si Si2 0.161363 0.310398 0.901376
Si Si3 0.070111 0.798305 0.805674
Si Si4 0.153013 0.530582 0.239204
Si Si5 0.184428 0.670626 0.977017
O O1 0.703303 0.792389 0.727262
O O2 0.791011 0.910065 0.426398
O O3 0.627270 0.104844 0.766281
O O4 0.514593 0.812729 0.839106
O O5 0.219282 0.134148 0.877830
O O6 0.233302 0.496107 0.845088
O O7 0.000000 0.897672 0.000000
O O8 0.954933 0.774390 0.876333
O O9 0.183119 0.314409 0.199980
O O10 0.000000 0.574579 0.500000
O O11 0.141365 0.602201 0.144400
#
# Coordination Sequence:
#
# PCOD8050861 Si02
#       5
#     4   4   4   4   4
#     4  10  22  44  70  98 139 173 217 291 337 402
#     4  10  22  48  69 102 141 174 228 282 342 400
#     4  11  23  43  68 100 135 175 224 277 342 402
#     4  12  26  45  71  98 136 185 228 273 337 402
#     4  11  24  46  67 100 136 176 230 277 329 404
#
# _framework density 22.134931999999999
#
# number of rings (size 3 to 8) (size 9 to 14) (size 15 to 20)
#    0.000    1.200    6.000    1.200    2.800    5.600 
#    3.600    0.000    0.000    0.000    0.000    0.000 
#    0.000    0.000    0.000    0.000    0.000    0.000 
#
# Total GULP energy -124031.208841 kJ/mol
# GULP energy per Si atom -12403.120884 kJ/mol
# Density = 2.208455 g / cm^3
# Si number density = 22.134932 Si / 1000 Ang^3
#
#
#
# Elastic Constant Matrix: (Units=GPa)
#
#
# Indices 1 2 3 4 5 6 
#
# 1 131.4019 35.1329 43.5860 0.0000 18.1846 0.0000
# 2 35.1329 80.1135 32.3893 0.0000 2.9704 0.0000
# 3 43.5860 32.3893 145.7808 0.0000 24.2013 0.0000
# 4 0.0000 0.0000 0.0000 23.7058 0.0000 2.8646
# 5 18.1846 2.9704 24.2013 0.0000 26.2458 0.0000
# 6 0.0000 0.0000 0.0000 2.8646 0.0000 29.2928
#
#
#
# Elastic Compliance Matrix: (Units=1/GPa)
#
#
# Indices 1 2 3 4 5 6 
#
# 1 0.009689 -0.003552 -0.001252 0.000000 -0.005157 0.000000
# 2 -0.003552 0.015065 -0.002847 0.000000 0.003381 0.000000
# 3 -0.001252 -0.002847 0.009055 0.000000 -0.007160 0.000000
# 4 0.000000 0.000000 0.000000 0.042688 0.000000 -0.004175
# 5 -0.005157 0.003381 -0.007160 0.000000 0.047894 0.000000
# 6 0.000000 0.000000 0.000000 -0.004175 0.000000 0.034546
#
#
# Mechanical properties :
#
#
# Convention : Reuss Voigt Hill
#
# Bulk Modulus (GPa) = 54.02643 64.39028 59.20836
# Shear Modulus (GPa) = 27.71516 32.26143 29.98829
#
# Velocity S-wave (km/s) = 3.54234 3.82185 3.68475
# Velocity P-wave (km/s) = 6.41807 6.97341 6.70150
#
# Compressibility (1/GPa) = 0.01850946
#
# Stress axis : x y z
#
# Youngs Moduli (GPa) = 103.21379 66.37763 110.43712
#
# Poissons Ratio (x) = 0.23575 0.13822
# Poissons Ratio (y) = 0.36658 0.31436
# Poissons Ratio (z) = 0.12918 0.18894
#
# Static dielectric constant tensor:
#      x y z
#    x 4.099140 0.000000 0.118590 
#    y 0.000000 3.969250 0.000000 
#    z 0.118590 0.000000 4.048460 
# 
# 
# High freq. dielectric constant tensor:
#      x y z
#    x 1.881580 0.000000 0.007260 
#    y 0.000000 1.872940 0.000000 
#    z 0.007260 0.000000 1.860470 
# 
# From -- ./inp_files/18259.got.cif
#   From: 2010.03.12/outbox.cif.g09.slc.cpg/sg5_10_cif.got.tgz:18259.got - 2010.03.31 09:47:26.
