data_PCOD8050542
_publ_section_title
;
Structure prediction by ZEFSAII (Michael W. Deem and Ramdas Pophale) SiO2 
 PCOD8050542
Probable space group: C 2
;
_chemical_formula_sum "Si O2"
_cell_formula_units_Z 30
_cell_length_a 14.869301
_cell_length_b 11.170816
_cell_length_c 18.173621
_cell_angle_alpha 90.000000
_cell_angle_beta 151.549052
_cell_angle_gamma 90.000000
_cell_volume 1438.117382
_symmetry_space_group_name_H-M "C 2"
_symmetry_group_IT_number 5
_symmetry_cell_setting 'monoclinic'
loop_
_space_group_symop_operation_xyz
x,y,z
-x,y,-z
1/2+x,1/2+y,z
1/2-x,1/2+y,-z
loop_
_atom_site_type_symbol
_atom_site_label
_atom_site_fract_x
_atom_site_fract_y
_atom_site_fract_z
Si Si1 0.129928 0.905270 0.156524
Si Si2 0.463009 0.760404 0.339024
Si Si3 0.542680 0.277114 0.829432
Si Si4 0.000000 0.086605 0.500000
Si Si5 0.536378 0.778726 0.829664
Si Si6 0.786538 0.617843 0.359135
Si Si7 0.651524 0.020538 0.315983
Si Si8 0.783055 0.946756 0.564160
O O1 0.255742 0.805361 0.208562
O O2 0.007948 0.836812 0.129475
O O3 0.253074 0.013663 0.276051
O O4 0.000000 0.962145 0.000000
O O5 0.515500 0.657137 0.434108
O O6 0.466846 0.722694 0.255560
O O7 0.610794 0.863142 0.463137
O O8 0.442068 0.150403 0.743914
O O9 0.476770 0.372919 0.719884
O O10 0.766501 0.252959 0.987712
O O11 0.802681 0.013341 0.357245
O O12 0.366675 0.724536 0.757316
O O13 0.512391 0.922512 0.811069
O O14 0.747319 0.566986 0.411723
O O15 0.000000 0.666613 0.500000
O O16 0.779544 0.985551 0.477838
#
# Coordination Sequence:
#
# PCOD8050542 Si02
#       8
#     4   4   4   2   4   4   4   4
#     4  11  21  39  68 100 126 168 224 279 319 378
#     4  11  19  40  65 100 123 171 232 264 314 381
#     4  11  23  42  67  97 136 168 221 279 324 382
#     4  12  20  40  68  94 130 166 222 272 312 386
#     4  11  27  41  64  98 138 174 211 268 345 394
#     4  11  23  41  65  93 133 170 220 272 321 386
#     4  11  25  41  67  96 131 176 219 268 332 391
#     4  10  22  40  66  98 122 172 231 270 313 386
#
# _framework density 20.860606000000001
#
# number of rings (size 3 to 8) (size 9 to 14) (size 15 to 20)
#    0.000    1.067    5.333    1.600    6.533    0.000 
#    0.000    0.000    0.000    0.000    0.000    0.000 
#    0.000    0.000    0.000    0.000    0.000    0.000 
#
# Total GULP energy -185940.119344 kJ/mol
# GULP energy per Si atom -12396.007956 kJ/mol
# Density = 2.081313 g / cm^3
# Si number density = 20.860606 Si / 1000 Ang^3
#
#
#
# Elastic Constant Matrix: (Units=GPa)
#
#
# Indices 1 2 3 4 5 6 
#
# 1 75.5339 46.3023 43.6756 0.0062 18.4909 0.0015
# 2 46.3023 76.8142 39.8820 -0.0297 3.3452 -0.0053
# 3 43.6756 39.8820 129.5107 -0.0195 19.2722 -0.0030
# 4 0.0062 -0.0297 -0.0195 23.8326 -0.0098 8.9120
# 5 18.4909 3.3452 19.2722 -0.0098 36.6342 -0.0019
# 6 0.0015 -0.0053 -0.0030 8.9120 -0.0019 24.9850
#
#
#
# Elastic Compliance Matrix: (Units=1/GPa)
#
#
# Indices 1 2 3 4 5 6 
#
# 1 0.025762 -0.013524 -0.003007 -0.000032 -0.010186 0.000006
# 2 -0.013524 0.022643 -0.003385 0.000034 0.006539 -0.000006
# 3 -0.003007 -0.003385 0.010314 0.000004 -0.003599 -0.000001
# 4 -0.000032 0.000034 0.000004 0.048417 0.000023 -0.017270
# 5 -0.010186 0.006539 -0.003599 0.000023 0.033734 -0.000004
# 6 0.000006 -0.000006 -0.000001 -0.017270 -0.000004 0.046184
#
#
# Mechanical properties :
#
#
# Convention : Reuss Voigt Hill
#
# Bulk Modulus (GPa) = 52.95030 60.17540 56.56285
# Shear Modulus (GPa) = 21.44246 27.22359 24.33303
#
# Velocity S-wave (km/s) = 3.20955 3.61643 3.41905
# Velocity P-wave (km/s) = 6.25883 6.80787 6.53912
#
# Compressibility (1/GPa) = 0.01888563
#
# Stress axis : x y z
#
# Youngs Moduli (GPa) = 38.81740 44.16354 96.95976
#
# Poissons Ratio (x) = 0.59725 0.29160
# Poissons Ratio (y) = 0.52495 0.32823
# Poissons Ratio (z) = 0.11674 0.14950
#
# Static dielectric constant tensor:
#      x y z
#    x 3.700970 0.000000 0.105310 
#    y 0.000000 3.840390 0.000000 
#    z 0.105310 0.000000 3.949360 
# 
# 
# High freq. dielectric constant tensor:
#      x y z
#    x 1.809370 0.000000 0.009920 
#    y 0.000000 1.810150 0.000000 
#    z 0.009920 0.000000 1.821640 
# 
# From -- ./inp_files/61645.got.cif
#   From: 2010.03.12/outbox.cif.g09.slc.cpg/sg5_31_cif.got.tgz:61645.got - 2010.03.31 09:47:26.
