data_PCOD8050901
_publ_section_title
;
Structure prediction by ZEFSAII (Michael W. Deem and Ramdas Pophale) SiO2 
 PCOD8050901
Probable space group: C 2
;
_chemical_formula_sum "Si O2"
_cell_formula_units_Z 26
_cell_length_a 15.092609
_cell_length_b 8.495666
_cell_length_c 14.244286
_cell_angle_alpha 90.000000
_cell_angle_beta 40.030080
_cell_angle_gamma 90.000000
_cell_volume 1174.739335
_symmetry_space_group_name_H-M "C 2"
_symmetry_group_IT_number 5
_symmetry_cell_setting 'monoclinic'
loop_
_space_group_symop_operation_xyz
x,y,z
-x,y,-z
1/2+x,1/2+y,z
1/2-x,1/2+y,-z
loop_
_atom_site_type_symbol
_atom_site_label
_atom_site_fract_x
_atom_site_fract_y
_atom_site_fract_z
Si Si1 0.395930 0.542980 0.308777
Si Si2 0.251229 0.680681 0.248853
Si Si3 0.401303 0.014936 0.938596
Si Si4 0.830072 0.164965 0.978463
Si Si5 0.695710 0.767980 0.449399
Si Si6 0.000000 0.483294 0.500000
Si Si7 0.807169 0.528997 0.224618
O O1 0.346159 0.615946 0.252870
O O2 0.563030 0.547439 0.163063
O O3 0.345338 0.647890 0.436255
O O4 0.332710 0.366657 0.369383
O O5 0.224701 0.864754 0.291171
O O6 0.106535 0.593745 0.359295
O O7 0.336814 0.646610 0.085080
O O8 0.365824 0.844140 0.927249
O O9 0.566111 0.026706 0.804057
O O10 0.352610 0.059963 0.082199
O O11 0.325419 0.136359 0.931246
O O12 0.571209 0.885393 0.525952
O O13 0.714126 0.671407 0.337338
#
# Coordination Sequence:
#
# PCOD8050901 Si02
#       7
#     4   4   4   4   4   2   4
#     4  11  24  43  68  98 136 182 220 278 343 401
#     4  10  22  45  69  94 134 181 223 283 336 398
#     4  10  24  41  70  99 133 173 225 281 341 399
#     4  11  24  41  70 100 132 174 231 281 331 403
#     4  11  26  44  69  98 139 179 229 279 341 406
#     4  10  26  44  66 102 134 180 230 284 332 404
#     4  10  22  47  66  96 135 179 220 279 350 400
#
# _framework density 22.132570000000001
#
# number of rings (size 3 to 8) (size 9 to 14) (size 15 to 20)
#    0.000    1.538    1.538    1.385    6.462    3.077 
#   13.846    0.000    0.000    0.000    0.000    0.000 
#    0.000    0.000    0.000    0.000    0.000    0.000 
#
# Total GULP energy -161184.041775 kJ/mol
# GULP energy per Si atom -12398.772444 kJ/mol
# Density = 2.208219 g / cm^3
# Si number density = 22.132570 Si / 1000 Ang^3
#
#
#
# Elastic Constant Matrix: (Units=GPa)
#
#
# Indices 1 2 3 4 5 6 
#
# 1 83.0592 28.6951 12.4927 0.0000 -5.0523 0.0000
# 2 28.6951 102.9867 48.8298 0.0000 2.6799 0.0000
# 3 12.4927 48.8298 82.5101 0.0000 -1.4020 0.0000
# 4 0.0000 0.0000 0.0000 32.6350 0.0000 -1.0271
# 5 -5.0523 2.6799 -1.4020 0.0000 29.3520 0.0000
# 6 0.0000 0.0000 0.0000 -1.0271 0.0000 39.3064
#
#
#
# Elastic Compliance Matrix: (Units=1/GPa)
#
#
# Indices 1 2 3 4 5 6 
#
# 1 0.013537 -0.004021 0.000376 0.000000 0.002715 0.000000
# 2 -0.004021 0.014768 -0.008173 0.000000 -0.002431 0.000000
# 3 0.000376 -0.008173 0.016927 0.000000 0.001619 0.000000
# 4 0.000000 0.000000 0.000000 0.030667 0.000000 0.000801
# 5 0.002715 -0.002431 0.001619 0.000000 0.034836 0.000000
# 6 0.000000 0.000000 0.000000 0.000801 0.000000 0.025462
#
#
# Mechanical properties :
#
#
# Convention : Reuss Voigt Hill
#
# Bulk Modulus (GPa) = 46.30074 49.84346 48.07210
# Shear Modulus (GPa) = 29.93439 32.16124 31.04782
#
# Velocity S-wave (km/s) = 3.68163 3.81611 3.74948
# Velocity P-wave (km/s) = 6.24801 6.47968 6.36490
#
# Compressibility (1/GPa) = 0.02159793
#
# Stress axis : x y z
#
# Youngs Moduli (GPa) = 73.86987 67.71172 59.07762
#
# Poissons Ratio (x) = 0.27226 -0.02221
# Poissons Ratio (y) = 0.29702 0.48282
# Poissons Ratio (z) = -0.02778 0.55338
#
# Static dielectric constant tensor:
#      x y z
#    x 4.041770 0.000000 -0.229410 
#    y 0.000000 4.066570 0.000000 
#    z -0.229410 0.000000 4.106990 
# 
# 
# High freq. dielectric constant tensor:
#      x y z
#    x 1.875250 0.000000 0.000860 
#    y 0.000000 1.872560 0.000000 
#    z 0.000860 0.000000 1.868350 
# 
# From -- ./inp_files/29157.got.cif
#   From: 2010.03.12/outbox.cif.g09.slc.cpg/sg5_15_cif.got.tgz:29157.got - 2010.03.31 09:47:26.
