data_PCOD8050324
_publ_section_title
;
Structure prediction by ZEFSAII (Michael W. Deem and Ramdas Pophale) SiO2 
 PCOD8050324
Probable space group: C 2
;
_chemical_formula_sum "Si O2"
_cell_formula_units_Z 26
_cell_length_a 8.153071
_cell_length_b 11.433138
_cell_length_c 18.777733
_cell_angle_alpha 90.000000
_cell_angle_beta 40.329646
_cell_angle_gamma 90.000000
_cell_volume 1132.811923
_symmetry_space_group_name_H-M "C 2"
_symmetry_group_IT_number 5
_symmetry_cell_setting 'monoclinic'
loop_
_space_group_symop_operation_xyz
x,y,z
-x,y,-z
1/2+x,1/2+y,z
1/2-x,1/2+y,-z
loop_
_atom_site_type_symbol
_atom_site_label
_atom_site_fract_x
_atom_site_fract_y
_atom_site_fract_z
Si Si1 0.582167 0.982050 0.656065
Si Si2 0.447733 0.583183 0.757065
Si Si3 0.489588 0.146916 0.812744
Si Si4 0.017550 0.903356 0.841470
Si Si5 0.128177 0.763477 0.386664
Si Si6 0.500000 0.492015 0.000000
Si Si7 0.237334 0.925662 0.552471
O O1 0.310665 0.926977 0.727491
O O2 0.736724 0.887386 0.648586
O O3 0.721473 0.000768 0.534264
O O4 0.574521 0.100634 0.706344
O O5 0.204396 0.643443 0.802949
O O6 0.362615 0.508141 0.853996
O O7 0.665523 0.673650 0.712588
O O8 0.562994 0.502338 0.659196
O O9 0.421881 0.284278 0.835223
O O10 0.246567 0.072487 0.915397
O O11 0.970528 0.906897 0.941743
O O12 0.000000 0.709236 0.500000
O O13 0.895609 0.797901 0.412413
O O14 0.500000 0.892042 0.500000
#
# Coordination Sequence:
#
# PCOD8050324 Si02
#       7
#     4   4   4   4   4   2   4
#     4  10  21  45  65 104 143 182 231 279 336 408
#     4  12  24  42  71 105 138 186 237 276 347 418
#     4  11  25  48  73 101 138 182 224 304 358 409
#     4  11  25  47  72 102 133 176 240 286 362 423
#     4  10  22  40  67  97 148 190 227 276 327 398
#     4  10  28  50  70 102 136 170 236 304 368 428
#     4  11  22  41  66 105 150 192 236 273 331 412
#
# _framework density 22.951736
#
# number of rings (size 3 to 8) (size 9 to 14) (size 15 to 20)
#    0.000    1.231    4.615    0.462    0.000    5.538 
#    2.769    1.538    0.000    0.000    0.000    0.000 
#    0.000    0.000    0.000    0.000    0.000    0.000 
#
# Total GULP energy -161147.655141 kJ/mol
# GULP energy per Si atom -12395.973472 kJ/mol
# Density = 2.289950 g / cm^3
# Si number density = 22.951736 Si / 1000 Ang^3
#
#
#
# Elastic Constant Matrix: (Units=GPa)
#
#
# Indices 1 2 3 4 5 6 
#
# 1 92.6543 46.4749 26.2467 0.0022 7.1074 0.0022
# 2 46.4749 113.7383 38.3466 0.0008 20.3041 0.0011
# 3 26.2467 38.3466 70.9088 -0.0011 16.8649 -0.0004
# 4 0.0022 0.0008 -0.0011 24.8489 -0.0012 -1.5979
# 5 7.1074 20.3041 16.8649 -0.0012 44.1961 -0.0025
# 6 0.0022 0.0011 -0.0004 -1.5979 -0.0025 26.7067
#
#
#
# Elastic Compliance Matrix: (Units=1/GPa)
#
#
# Indices 1 2 3 4 5 6 
#
# 1 0.013986 -0.004985 -0.002739 -0.000001 0.001086 -0.000001
# 2 -0.004985 0.012902 -0.004303 0.000000 -0.003483 -0.000001
# 3 -0.002739 -0.004303 0.018553 0.000001 -0.004662 0.000000
# 4 -0.000001 0.000000 0.000001 0.040399 0.000001 0.002417
# 5 0.001086 -0.003483 -0.004662 0.000001 0.025831 0.000002
# 6 -0.000001 -0.000001 0.000000 0.002417 0.000002 0.037588
#
#
# Mechanical properties :
#
#
# Convention : Reuss Voigt Hill
#
# Bulk Modulus (GPa) = 46.76273 55.49307 51.12790
# Shear Modulus (GPa) = 27.70962 30.23255 28.97109
#
# Velocity S-wave (km/s) = 3.47839 3.63329 3.55669
# Velocity P-wave (km/s) = 6.04573 6.46775 6.26030
#
# Compressibility (1/GPa) = 0.02138455
#
# Stress axis : x y z
#
# Youngs Moduli (GPa) = 71.49989 77.50808 53.90079
#
# Poissons Ratio (x) = 0.38640 0.14765
# Poissons Ratio (y) = 0.35645 0.23196
# Poissons Ratio (z) = 0.19586 0.33355
#
# Static dielectric constant tensor:
#      x y z
#    x 4.998770 -0.000010 -0.359560 
#    y -0.000010 4.064100 0.000010 
#    z -0.359560 0.000010 4.433120 
# 
# 
# High freq. dielectric constant tensor:
#      x y z
#    x 1.921500 0.000000 -0.002780 
#    y 0.000000 1.901360 0.000000 
#    z -0.002780 0.000000 1.891930 
# 
# From -- ./inp_files/50231.got.cif
#   From: 2010.03.12/outbox.cif.g09.slc.cpg/sg5_26_cif.got.tgz:50231.got - 2010.03.31 09:47:26.
