data_PCOD8050671
_publ_section_title
;
Structure prediction by ZEFSAII (Michael W. Deem and Ramdas Pophale) SiO2 
 PCOD8050671
Probable space group: C 2
;
_chemical_formula_sum "Si O2"
_cell_formula_units_Z 28
_cell_length_a 13.912091
_cell_length_b 10.087155
_cell_length_c 11.078160
_cell_angle_alpha 90.000000
_cell_angle_beta 118.886546
_cell_angle_gamma 90.000000
_cell_volume 1361.205111
_symmetry_space_group_name_H-M "C 2"
_symmetry_group_IT_number 5
_symmetry_cell_setting 'monoclinic'
loop_
_space_group_symop_operation_xyz
x,y,z
-x,y,-z
1/2+x,1/2+y,z
1/2-x,1/2+y,-z
loop_
_atom_site_type_symbol
_atom_site_label
_atom_site_fract_x
_atom_site_fract_y
_atom_site_fract_z
Si Si1 0.000000 0.018510 0.000000
Si Si2 0.000000 0.175974 0.500000
Si Si3 0.917830 0.753319 0.680137
Si Si4 0.056089 0.066214 0.293081
Si Si5 0.208679 0.326283 0.668198
Si Si6 0.225944 0.917170 0.053340
Si Si7 0.661454 0.184183 0.850888
Si Si8 0.290024 0.125933 0.392440
O O1 0.002793 0.100366 0.128470
O O2 0.111776 0.932950 0.059889
O O3 0.980232 0.097628 0.362563
O O4 0.106555 0.260726 0.543273
O O5 0.815679 0.733219 0.709239
O O6 0.883642 0.692724 0.530301
O O7 0.029521 0.680521 0.791330
O O8 0.934297 0.909508 0.685740
O O9 0.167141 0.154549 0.366338
O O10 0.193282 0.345045 0.802722
O O11 0.208316 0.467841 0.602925
O O12 0.280774 0.057986 0.048100
O O13 0.209738 0.823132 0.928947
O O14 0.692422 0.183576 0.729890
#
# Coordination Sequence:
#
# PCOD8050671 Si02
#       8
#     2   2   4   4   4   4   4   4
#     4  12  20  46  64  88 136 184 216 250 350 406
#     4  12  26  40  64 104 130 166 232 278 320 386
#     4  11  21  41  66  91 124 173 218 267 326 396
#     4  11  24  41  68  94 131 178 216 273 327 399
#     4  10  23  41  63  90 130 173 211 273 337 388
#     4  11  23  41  66  95 127 178 224 266 333 395
#     4  11  23  39  68  96 130 173 222 270 326 409
#     4  10  22  42  63  95 127 170 217 269 337 386
#
# _framework density 20.570008000000001
#
# number of rings (size 3 to 8) (size 9 to 14) (size 15 to 20)
#    0.000    1.143    7.143    0.429    8.000    0.000 
#    0.000    0.000    0.000    7.714    0.000    0.000 
#    0.000    0.000    0.000    0.000    0.000    0.000 
#
# Total GULP energy -173436.663353 kJ/mol
# GULP energy per Si atom -12388.333097 kJ/mol
# Density = 2.052319 g / cm^3
# Si number density = 20.570008 Si / 1000 Ang^3
#
#
#
# Elastic Constant Matrix: (Units=GPa)
#
#
# Indices 1 2 3 4 5 6 
#
# 1 107.4354 53.7763 42.1631 0.0000 2.9369 0.0000
# 2 53.7763 78.9476 55.1058 0.0000 4.6493 0.0000
# 3 42.1631 55.1058 128.8311 0.0000 -2.9996 0.0000
# 4 0.0000 0.0000 0.0000 26.2693 0.0000 -2.9947
# 5 2.9369 4.6493 -2.9996 0.0000 37.5987 0.0000
# 6 0.0000 0.0000 0.0000 -2.9947 0.0000 18.1656
#
#
#
# Elastic Compliance Matrix: (Units=1/GPa)
#
#
# Indices 1 2 3 4 5 6 
#
# 1 0.014171 -0.009142 -0.000728 0.000000 -0.000034 0.000000
# 2 -0.009142 0.024268 -0.007455 0.000000 -0.002881 0.000000
# 3 -0.000728 -0.007455 0.011233 0.000000 0.001875 0.000000
# 4 0.000000 0.000000 0.000000 0.038796 0.000000 0.006396
# 5 -0.000034 -0.002881 0.001875 0.000000 0.027105 0.000000
# 6 0.000000 0.000000 0.000000 0.006396 0.000000 0.056104
#
#
# Mechanical properties :
#
#
# Convention : Reuss Voigt Hill
#
# Bulk Modulus (GPa) = 66.57768 68.58939 67.58354
# Shear Modulus (GPa) = 23.65923 27.35131 25.50527
#
# Velocity S-wave (km/s) = 3.39511 3.65042 3.52508
# Velocity P-wave (km/s) = 6.91417 7.15431 7.03526
#
# Compressibility (1/GPa) = 0.01502005
#
# Stress axis : x y z
#
# Youngs Moduli (GPa) = 70.56780 41.20727 89.02480
#
# Poissons Ratio (x) = 0.37674 0.06481
# Poissons Ratio (y) = 0.64516 0.66369
# Poissons Ratio (z) = 0.05137 0.30720
#
# Static dielectric constant tensor:
#      x y z
#    x 3.979600 0.000000 0.130240 
#    y 0.000000 3.544740 0.000000 
#    z 0.130240 0.000000 3.894710 
# 
# 
# High freq. dielectric constant tensor:
#      x y z
#    x 1.806130 0.000000 0.006430 
#    y 0.000000 1.777910 0.000000 
#    z 0.006430 0.000000 1.816810 
# 
# From -- ./inp_files/41855.got.cif
#   From: 2010.03.12/outbox.cif.g09.slc.cpg/sg5_21_cif.got.tgz:41855.got - 2010.03.31 09:47:26.
