data_PCOD8050231
_publ_section_title
;
Structure prediction by ZEFSAII (Michael W. Deem and Ramdas Pophale) SiO2 
 PCOD8050231
Probable space group: C 2
;
_chemical_formula_sum "Si O2"
_cell_formula_units_Z 32
_cell_length_a 9.314669
_cell_length_b 10.567794
_cell_length_c 15.786896
_cell_angle_alpha 90.000000
_cell_angle_beta 98.836241
_cell_angle_gamma 90.000000
_cell_volume 1535.547379
_symmetry_space_group_name_H-M "C 2"
_symmetry_group_IT_number 5
_symmetry_cell_setting 'monoclinic'
loop_
_space_group_symop_operation_xyz
x,y,z
-x,y,-z
1/2+x,1/2+y,z
1/2-x,1/2+y,-z
loop_
_atom_site_type_symbol
_atom_site_label
_atom_site_fract_x
_atom_site_fract_y
_atom_site_fract_z
Si Si1 0.934040 0.991810 0.240219
Si Si2 0.155267 0.139553 0.523594
Si Si3 0.356470 0.215687 0.042209
Si Si4 0.436275 0.209835 0.238004
Si Si5 0.158036 0.512289 0.328375
Si Si6 0.360318 0.504724 0.045363
Si Si7 0.425436 0.898230 0.407709
Si Si8 0.708206 0.613228 0.344431
O O1 0.999807 0.851390 0.241690
O O2 0.780870 0.975323 0.273724
O O3 0.905850 0.043719 0.144048
O O4 0.045249 0.085562 0.296826
O O5 0.272626 0.048472 0.574910
O O6 0.132132 0.257605 0.583866
O O7 0.203738 0.185981 0.434321
O O8 0.000000 0.066923 0.500000
O O9 0.389140 0.168676 0.139976
O O10 0.293675 0.360894 0.036531
O O11 0.500000 0.212945 0.000000
O O12 0.248823 0.112714 0.994232
O O13 0.569330 0.128045 0.282097
O O14 0.295943 0.198856 0.286274
O O15 0.045197 0.399575 0.341702
O O16 0.500000 0.510944 0.000000
O O17 0.500000 0.951675 0.500000
O O18 0.288888 0.980768 0.367068
#
# Coordination Sequence:
#
# PCOD8050231 Si02
#       8
#     4   4   4   4   4   4   4   4
#     4  11  23  39  62  90 118 156 198 247 300 358
#     4  11  22  37  58  83 114 160 198 242 292 344
#     4  10  21  42  66  92 125 161 199 249 310 375
#     4  10  24  39  61  91 119 153 199 250 297 357
#     4  11  22  40  58  85 120 154 200 245 294 347
#     4  10  22  41  66  93 126 158 201 250 307 375
#     4  10  22  37  58  80 114 156 200 244 291 339
#     4  11  22  40  59  85 121 156 201 248 295 348
#
# _framework density 20.839473999999999
#
# number of rings (size 3 to 8) (size 9 to 14) (size 15 to 20)
#    0.000    1.500    2.500    2.250    3.500    0.500 
#    0.000    3.750    0.000    0.000    0.000    0.000 
#    0.000    0.000    0.000    0.000    0.000    0.000 
#
# Total GULP energy -198353.981497 kJ/mol
# GULP energy per Si atom -12397.123844 kJ/mol
# Density = 2.079204 g / cm^3
# Si number density = 20.839474 Si / 1000 Ang^3
#
#
#
# Elastic Constant Matrix: (Units=GPa)
#
#
# Indices 1 2 3 4 5 6 
#
# 1 82.5663 24.5351 37.9950 0.0000 -2.0191 0.0000
# 2 24.5351 72.5931 28.5181 0.0000 13.8221 0.0000
# 3 37.9950 28.5181 128.0759 0.0000 -15.3744 0.0000
# 4 0.0000 0.0000 0.0000 28.3722 0.0000 4.0823
# 5 -2.0191 13.8221 -15.3744 0.0000 35.0795 0.0000
# 6 0.0000 0.0000 0.0000 4.0823 0.0000 26.4039
#
#
#
# Elastic Compliance Matrix: (Units=1/GPa)
#
#
# Indices 1 2 3 4 5 6 
#
# 1 0.014859 -0.003827 -0.003454 0.000000 0.000849 0.000000
# 2 -0.003827 0.018439 -0.004084 0.000000 -0.009276 0.000000
# 3 -0.003454 -0.004084 0.010462 0.000000 0.005995 0.000000
# 4 0.000000 0.000000 0.000000 0.036048 0.000000 -0.005573
# 5 0.000849 -0.009276 0.005995 0.000000 0.034838 0.000000
# 6 0.000000 0.000000 0.000000 -0.005573 0.000000 0.038735
#
#
# Mechanical properties :
#
#
# Convention : Reuss Voigt Hill
#
# Bulk Modulus (GPa) = 47.55074 51.70350 49.62712
# Shear Modulus (GPa) = 27.30450 30.78359 29.04405
#
# Velocity S-wave (km/s) = 3.62364 3.84758 3.73728
# Velocity P-wave (km/s) = 6.35412 6.67852 6.51834
#
# Compressibility (1/GPa) = 0.02103017
#
# Stress axis : x y z
#
# Youngs Moduli (GPa) = 67.29995 54.23188 95.58780
#
# Poissons Ratio (x) = 0.20754 0.33016
# Poissons Ratio (y) = 0.25755 0.39038
# Poissons Ratio (z) = 0.23245 0.22148
#
# Static dielectric constant tensor:
#      x y z
#    x 3.857760 0.000000 -0.147100 
#    y 0.000000 3.642720 0.000000 
#    z -0.147100 0.000000 3.905130 
# 
# 
# High freq. dielectric constant tensor:
#      x y z
#    x 1.824010 0.000000 -0.011450 
#    y 0.000000 1.807340 0.000000 
#    z -0.011450 0.000000 1.824300 
# 
# From -- ./inp_files/50521.got.cif
#   From: 2010.03.12/outbox.cif.g09.slc.cpg/sg5_26_cif.got.tgz:50521.got - 2010.03.31 09:47:26.
