data_PCOD8050989
_publ_section_title
;
Structure prediction by ZEFSAII (Michael W. Deem and Ramdas Pophale) SiO2 
 PCOD8050989
Probable space group: C 2
;
_chemical_formula_sum "Si O2"
_cell_formula_units_Z 32
_cell_length_a 8.695481
_cell_length_b 23.340392
_cell_length_c 14.733701
_cell_angle_alpha 90.000000
_cell_angle_beta 150.560132
_cell_angle_gamma 90.000000
_cell_volume 1469.758003
_symmetry_space_group_name_H-M "C 2"
_symmetry_group_IT_number 5
_symmetry_cell_setting 'monoclinic'
loop_
_space_group_symop_operation_xyz
x,y,z
-x,y,-z
1/2+x,1/2+y,z
1/2-x,1/2+y,-z
loop_
_atom_site_type_symbol
_atom_site_label
_atom_site_fract_x
_atom_site_fract_y
_atom_site_fract_z
Si Si1 0.463605 0.651200 0.258632
Si Si2 0.120517 0.353950 0.656042
Si Si3 0.385620 0.976333 0.288178
Si Si4 0.697536 0.977983 0.963221
Si Si5 0.799248 0.590636 0.587024
Si Si6 0.134456 0.278964 0.317987
Si Si7 0.595456 0.102916 0.919266
Si Si8 0.361999 0.855301 0.021354
O O1 0.750018 0.631357 0.472836
O O2 0.484952 0.716408 0.239848
O O3 0.158750 0.642768 0.163931
O O4 0.424029 0.617331 0.140738
O O5 0.978128 0.417540 0.599821
O O6 0.493901 0.351810 0.849867
O O7 0.000000 0.330510 0.500000
O O8 0.973412 0.308693 0.646916
O O9 0.061808 0.990176 0.174244
O O10 0.627459 0.028929 0.420229
O O11 0.320065 0.962784 0.150822
O O12 0.545539 0.922780 0.932958
O O13 0.509599 0.035738 0.892594
O O14 0.500000 0.586490 0.500000
O O15 0.084318 0.611536 0.802221
O O16 0.500000 0.271477 0.500000
O O17 0.026534 0.318215 0.181097
O O18 0.500000 0.828868 0.000000
#
# Coordination Sequence:
#
# PCOD8050989 Si02
#       8
#     4   4   4   4   4   4   4   4
#     4  10  23  40  64  92 132 178 233 281 342 415
#     4  11  24  43  68 103 139 187 234 286 354 421
#     4   9  18  36  62  96 136 178 212 283 355 416
#     4   9  18  37  65  96 138 170 226 282 347 427
#     4   9  19  38  61  96 135 174 225 282 348 415
#     4  12  27  48  68  99 140 188 244 292 347 419
#     4   9  20  38  62 100 124 182 224 276 355 411
#     4  11  24  44  71 102 137 185 234 295 356 417
#
# _framework density 21.772290999999999
#
# number of rings (size 3 to 8) (size 9 to 14) (size 15 to 20)
#    0.000    2.000    1.250    1.125    5.250    5.000 
#    9.000    0.000    0.000    0.000    0.000    0.000 
#    0.000    0.000    0.000    0.000    0.000    0.000 
#
# Total GULP energy -198211.449337 kJ/mol
# GULP energy per Si atom -12388.215584 kJ/mol
# Density = 2.172274 g / cm^3
# Si number density = 21.772291 Si / 1000 Ang^3
#
#
#
# Elastic Constant Matrix: (Units=GPa)
#
#
# Indices 1 2 3 4 5 6 
#
# 1 83.2106 48.9388 30.3631 -0.0001 -16.4466 -0.0001
# 2 48.9388 126.2735 39.0681 -0.0004 -11.1707 0.0006
# 3 30.3631 39.0681 75.1632 -0.0019 -34.1399 0.0035
# 4 -0.0001 -0.0004 -0.0019 67.7806 -0.0003 -51.9519
# 5 -16.4466 -11.1707 -34.1399 -0.0003 41.3904 0.0004
# 6 -0.0001 0.0006 0.0035 -51.9519 0.0004 118.7903
#
#
#
# Elastic Compliance Matrix: (Units=1/GPa)
#
#
# Indices 1 2 3 4 5 6 
#
# 1 0.016751 -0.005434 -0.002535 0.000000 0.003099 0.000000
# 2 -0.005434 0.011350 -0.005267 0.000000 -0.003440 0.000000
# 3 -0.002535 -0.005267 0.025526 0.000000 0.018626 -0.000001
# 4 0.000000 0.000000 0.000000 0.022193 0.000000 0.009706
# 5 0.003099 -0.003440 0.018626 0.000000 0.039826 -0.000001
# 6 0.000000 0.000000 -0.000001 0.009706 -0.000001 0.012663
#
#
# Mechanical properties :
#
#
# Convention : Reuss Voigt Hill
#
# Bulk Modulus (GPa) = 36.82480 57.93190 47.37835
# Shear Modulus (GPa) = 30.51881 56.67741 43.59811
#
# Velocity S-wave (km/s) = 3.74803 5.10768 4.47974
# Velocity P-wave (km/s) = 5.97332 7.83903 6.96889
#
# Compressibility (1/GPa) = 0.02715561
#
# Stress axis : x y z
#
# Youngs Moduli (GPa) = 59.69864 88.10186 39.17507
#
# Poissons Ratio (x) = 0.47870 0.09931
# Poissons Ratio (y) = 0.32437 0.20635
# Poissons Ratio (z) = 0.15134 0.46407
#
# Static dielectric constant tensor:
#      x y z
#    x 3.842400 0.000000 -0.290970 
#    y 0.000000 3.904340 0.000000 
#    z -0.290970 0.000000 4.304280 
# 
# 
# High freq. dielectric constant tensor:
#      x y z
#    x 1.849780 0.000000 -0.016520 
#    y 0.000000 1.850640 0.000000 
#    z -0.016520 0.000000 1.856240 
# 
# From -- ./inp_files/51729.got.cif
#   From: 2010.03.12/outbox.cif.g09.slc.cpg/sg5_26_cif.got.tgz:51729.got - 2010.03.31 09:47:26.
