data_PCOD8050598
_publ_section_title
;
Structure prediction by ZEFSAII (Michael W. Deem and Ramdas Pophale) SiO2 
 PCOD8050598
Probable space group: C 2
;
_chemical_formula_sum "Si O2"
_cell_formula_units_Z 32
_cell_length_a 22.091941
_cell_length_b 9.191684
_cell_length_c 13.997896
_cell_angle_alpha 90.000000
_cell_angle_beta 147.896495
_cell_angle_gamma 90.000000
_cell_volume 1510.617324
_symmetry_space_group_name_H-M "C 2"
_symmetry_group_IT_number 5
_symmetry_cell_setting 'monoclinic'
loop_
_space_group_symop_operation_xyz
x,y,z
-x,y,-z
1/2+x,1/2+y,z
1/2-x,1/2+y,-z
loop_
_atom_site_type_symbol
_atom_site_label
_atom_site_fract_x
_atom_site_fract_y
_atom_site_fract_z
Si Si1 0.344144 0.660780 0.035181
Si Si2 0.957279 0.468608 0.191552
Si Si3 0.525107 0.501558 0.644983
Si Si4 0.714262 0.926793 0.520279
Si Si5 0.189525 0.096787 0.522292
Si Si6 0.582630 0.178647 0.695058
Si Si7 0.398628 0.131183 0.931648
Si Si8 0.393389 0.466184 0.918891
O O1 0.425345 0.800247 0.149912
O O2 0.359746 0.575808 0.158095
O O3 0.213777 0.705539 0.840752
O O4 0.384942 0.561738 0.002003
O O5 0.916571 0.543326 0.233529
O O6 0.091148 0.500493 0.357539
O O7 0.891117 0.543739 0.018243
O O8 0.500000 0.541283 0.500000
O O9 0.429429 0.564985 0.586722
O O10 0.533129 0.328746 0.670835
O O11 0.696300 0.755067 0.483931
O O12 0.777879 0.972039 0.702737
O O13 0.788729 0.977977 0.530190
O O14 0.281726 0.087588 0.727574
O O15 0.500000 0.128438 0.500000
O O16 0.415780 0.300220 0.979372
O O17 0.500000 0.074807 0.000000
O O18 0.500000 0.525282 0.000000
#
# Coordination Sequence:
#
# PCOD8050598 Si02
#       8
#     4   4   4   4   4   4   4   4
#     4  12  25  46  66 101 132 177 230 282 338 398
#     4  12  25  42  68 100 135 169 226 281 339 396
#     4  11  26  47  69  98 136 184 228 274 338 407
#     4  11  24  43  68 105 134 176 219 284 340 400
#     4  11  24  43  70 100 139 174 227 274 340 404
#     4  11  27  46  68  94 132 182 226 277 335 400
#     4  10  22  41  65 100 132 174 213 271 338 407
#     4  10  23  43  69  95 137 178 222 274 347 407
#
# _framework density 21.183392999999999
#
# number of rings (size 3 to 8) (size 9 to 14) (size 15 to 20)
#    0.000    1.000    2.500    3.000    7.000    2.000 
#    2.250    0.000    0.000    0.000    0.000    0.000 
#    0.000    0.000    0.000    0.000    0.000    0.000 
#
# Total GULP energy -198438.507875 kJ/mol
# GULP energy per Si atom -12402.406742 kJ/mol
# Density = 2.113518 g / cm^3
# Si number density = 21.183393 Si / 1000 Ang^3
#
#
#
# Elastic Constant Matrix: (Units=GPa)
#
#
# Indices 1 2 3 4 5 6 
#
# 1 101.8259 52.5714 34.8117 0.0000 -16.4754 0.0000
# 2 52.5714 106.4723 37.6653 0.0000 -29.5469 0.0000
# 3 34.8117 37.6653 92.1654 0.0000 -4.1994 0.0000
# 4 0.0000 0.0000 0.0000 34.3582 0.0000 3.2464
# 5 -16.4754 -29.5469 -4.1994 0.0000 35.4693 0.0000
# 6 0.0000 0.0000 0.0000 3.2464 0.0000 26.2528
#
#
#
# Elastic Compliance Matrix: (Units=1/GPa)
#
#
# Indices 1 2 3 4 5 6 
#
# 1 0.013858 -0.005333 -0.002980 0.000000 0.001642 0.000000
# 2 -0.005333 0.016519 -0.004245 0.000000 0.010781 0.000000
# 3 -0.002980 -0.004245 0.013560 0.000000 -0.003315 0.000000
# 4 0.000000 0.000000 0.000000 0.029449 0.000000 -0.003642
# 5 0.001642 0.010781 -0.003315 0.000000 0.037544 0.000000
# 6 0.000000 0.000000 0.000000 -0.003642 0.000000 0.038541
#
#
# Mechanical properties :
#
#
# Convention : Reuss Voigt Hill
#
# Bulk Modulus (GPa) = 53.13447 61.17338 57.15393
# Shear Modulus (GPa) = 27.64538 30.91040 29.27789
#
# Velocity S-wave (km/s) = 3.61647 3.82407 3.72171
# Velocity P-wave (km/s) = 6.52503 6.95979 6.74591
#
# Compressibility (1/GPa) = 0.01882017
#
# Stress axis : x y z
#
# Youngs Moduli (GPa) = 72.15799 60.53723 73.74835
#
# Poissons Ratio (x) = 0.32283 0.21979
# Poissons Ratio (y) = 0.38480 0.31308
# Poissons Ratio (z) = 0.21505 0.25700
#
# Static dielectric constant tensor:
#      x y z
#    x 3.658220 0.000000 -0.035340 
#    y 0.000000 3.793550 0.000000 
#    z -0.035340 0.000000 4.058230 
# 
# 
# High freq. dielectric constant tensor:
#      x y z
#    x 1.825260 0.000000 0.000350 
#    y 0.000000 1.832400 0.000000 
#    z 0.000350 0.000000 1.857660 
# 
# From -- ./inp_files/57712.got.cif
#   From: 2010.03.12/outbox.cif.g09.slc.cpg/sg5_29_cif.got.tgz:57712.got - 2010.03.31 09:47:26.
