data_PCOD8050487
_publ_section_title
;
Structure prediction by ZEFSAII (Michael W. Deem and Ramdas Pophale) SiO2 
 PCOD8050487
Probable space group: C 2
;
_chemical_formula_sum "Si O2"
_cell_formula_units_Z 26
_cell_length_a 12.169627
_cell_length_b 22.081750
_cell_length_c 6.342706
_cell_angle_alpha 90.000000
_cell_angle_beta 48.998599
_cell_angle_gamma 90.000000
_cell_volume 1286.340574
_symmetry_space_group_name_H-M "C 2"
_symmetry_group_IT_number 5
_symmetry_cell_setting 'monoclinic'
loop_
_space_group_symop_operation_xyz
x,y,z
-x,y,-z
1/2+x,1/2+y,z
1/2-x,1/2+y,-z
loop_
_atom_site_type_symbol
_atom_site_label
_atom_site_fract_x
_atom_site_fract_y
_atom_site_fract_z
Si Si1 0.234132 0.872160 0.013192
Si Si2 0.500000 0.061540 0.500000
Si Si3 0.848618 0.604773 0.304626
Si Si4 0.135133 0.487994 0.960657
Si Si5 0.000000 0.839330 0.000000
Si Si6 0.869690 0.773945 0.544638
Si Si7 0.000000 0.294550 0.500000
Si Si8 0.121886 0.201145 0.689283
O O1 0.378297 0.839841 0.743441
O O2 0.257846 0.935104 0.104733
O O3 0.116840 0.881747 0.973247
O O4 0.158164 0.833004 0.284745
O O5 0.385576 0.101182 0.507562
O O6 0.588920 0.018925 0.234058
O O7 0.795070 0.540060 0.277785
O O8 0.713160 0.650611 0.444029
O O9 0.000000 0.625786 0.000000
O O10 0.000000 0.459338 0.000000
O O11 0.911231 0.793276 0.257923
O O12 0.729665 0.732276 0.718710
O O13 0.000000 0.737851 0.500000
O O14 0.059701 0.251229 0.608426
O O15 0.000000 0.172948 0.000000
#
# Coordination Sequence:
#
# PCOD8050487 Si02
#       8
#     4   2   4   4   2   4   2   4
#     4  11  22  39  65  95 131 162 216 269 326 391
#     4   8  17  40  64  96 110 169 226 254 322 372
#     4   9  22  40  65  94 125 172 225 263 315 384
#     4   9  20  37  65  95 125 161 218 278 313 378
#     4  10  22  40  60  90 126 170 214 256 322 392
#     4  10  23  39  60  93 125 168 212 260 327 397
#     4  12  25  38  62 102 132 169 202 272 338 378
#     4  12  25  41  63  98 135 167 216 269 330 387
#
# _framework density 20.212377
#
# number of rings (size 3 to 8) (size 9 to 14) (size 15 to 20)
#    0.000    2.154    3.077    0.462    4.308    4.923 
#    0.000    0.000   22.000    0.000    0.000    0.000 
#    0.000    0.000    0.000    0.000    0.000    0.000 
#
# Total GULP energy -161091.559190 kJ/mol
# GULP energy per Si atom -12391.658399 kJ/mol
# Density = 2.016637 g / cm^3
# Si number density = 20.212377 Si / 1000 Ang^3
#
#
#
# Elastic Constant Matrix: (Units=GPa)
#
#
# Indices 1 2 3 4 5 6 
#
# 1 142.4644 68.8190 48.5571 0.0000 1.0833 0.0000
# 2 68.8190 95.1939 28.6415 0.0000 -4.4162 0.0000
# 3 48.5571 28.6415 105.5630 0.0000 -0.4111 0.0000
# 4 0.0000 0.0000 0.0000 14.8155 0.0000 3.7091
# 5 1.0833 -4.4162 -0.4111 0.0000 36.3641 0.0000
# 6 0.0000 0.0000 0.0000 3.7091 0.0000 7.9911
#
#
#
# Elastic Compliance Matrix: (Units=1/GPa)
#
#
# Indices 1 2 3 4 5 6 
#
# 1 0.011867 -0.007618 -0.003397 0.000000 -0.001317 0.000000
# 2 -0.007618 0.016396 -0.000936 0.000000 0.002208 0.000000
# 3 -0.003397 -0.000936 0.011290 0.000000 0.000115 0.000000
# 4 0.000000 0.000000 0.000000 0.076371 0.000000 -0.035448
# 5 -0.001317 0.002208 0.000115 0.000000 0.027808 0.000000
# 6 0.000000 0.000000 0.000000 -0.035448 0.000000 0.141592
#
#
# Mechanical properties :
#
#
# Convention : Reuss Voigt Hill
#
# Bulk Modulus (GPa) = 63.89136 70.58405 67.23771
# Shear Modulus (GPa) = 15.90111 24.98106 20.44108
#
# Velocity S-wave (km/s) = 2.80786 3.51939 3.18357
# Velocity P-wave (km/s) = 6.49544 7.17717 6.84480
#
# Compressibility (1/GPa) = 0.01565157
#
# Stress axis : x y z
#
# Youngs Moduli (GPa) = 84.26608 60.98908 88.57519
#
# Poissons Ratio (x) = 0.46463 0.30087
# Poissons Ratio (y) = 0.64196 0.08289
# Poissons Ratio (z) = 0.28624 0.05707
#
# Static dielectric constant tensor:
#      x y z
#    x 4.137700 0.000000 0.134180 
#    y 0.000000 3.516870 0.000000 
#    z 0.134180 0.000000 3.743650 
# 
# 
# High freq. dielectric constant tensor:
#      x y z
#    x 1.799100 0.000000 0.012210 
#    y 0.000000 1.770640 0.000000 
#    z 0.012210 0.000000 1.796030 
# 
# From -- ./inp_files/5598.got.cif
#   From: 2010.03.12/outbox.cif.g09.slc.cpg/sg5_3_cif.got.tgz:5598.got - 2010.03.31 09:47:26.
