data_PCOD8050798
_publ_section_title
;
Structure prediction by ZEFSAII (Michael W. Deem and Ramdas Pophale) SiO2 
 PCOD8050798
Probable space group: C 2
;
_chemical_formula_sum "Si O2"
_cell_formula_units_Z 18
_cell_length_a 11.970667
_cell_length_b 8.629294
_cell_length_c 9.900264
_cell_angle_alpha 90.000000
_cell_angle_beta 52.195086
_cell_angle_gamma 90.000000
_cell_volume 808.023136
_symmetry_space_group_name_H-M "C 2"
_symmetry_group_IT_number 5
_symmetry_cell_setting 'monoclinic'
loop_
_space_group_symop_operation_xyz
x,y,z
-x,y,-z
1/2+x,1/2+y,z
1/2-x,1/2+y,-z
loop_
_atom_site_type_symbol
_atom_site_label
_atom_site_fract_x
_atom_site_fract_y
_atom_site_fract_z
Si Si1 0.368357 0.285070 0.874852
Si Si2 0.500000 0.116150 0.000000
Si Si3 0.619549 0.084224 0.642649
Si Si4 0.587730 0.622066 0.067947
Si Si5 0.586837 0.758521 0.567617
O O1 0.502430 0.215913 0.690168
O O2 0.367168 0.470597 0.879673
O O3 0.380199 0.226024 0.021103
O O4 0.224277 0.219160 0.917451
O O5 0.421241 0.018219 0.176033
O O6 0.771734 0.160241 0.531804
O O7 0.620763 0.942371 0.537121
O O8 0.500712 0.730189 0.232388
O O9 0.500000 0.576100 0.000000
O O10 0.500000 0.710374 0.500000
#
# Coordination Sequence:
#
# PCOD8050798 Si02
#       5
#     4   2   4   4   4
#     4  10  22  43  71 100 141 180 230 287 337 416
#     4   8  20  44  72  94 140 178 224 280 340 404
#     4  10  23  44  72  96 142 180 226 281 350 401
#     4  12  25  43  72 105 137 186 234 279 350 415
#     4  12  27  44  70 103 142 180 228 295 342 402
#
# _framework density 22.276588
#
# number of rings (size 3 to 8) (size 9 to 14) (size 15 to 20)
#    1.333    0.000    1.111    4.000    1.556    7.111 
#    0.000    2.222    0.000    0.000    0.000    0.000 
#    0.000    0.000    0.000    0.000    0.000    0.000 
#
# Total GULP energy -111542.985595 kJ/mol
# GULP energy per Si atom -12393.665066 kJ/mol
# Density = 2.222589 g / cm^3
# Si number density = 22.276588 Si / 1000 Ang^3
#
#
#
# Elastic Constant Matrix: (Units=GPa)
#
#
# Indices 1 2 3 4 5 6 
#
# 1 129.8677 54.3394 35.3474 0.0000 -35.2867 0.0000
# 2 54.3394 135.0419 14.3054 0.0000 -15.6326 0.0000
# 3 35.3474 14.3054 44.0690 0.0000 -14.2022 0.0000
# 4 0.0000 0.0000 0.0000 29.1924 0.0000 -2.4231
# 5 -35.2867 -15.6326 -14.2022 0.0000 36.5002 0.0000
# 6 0.0000 0.0000 0.0000 -2.4231 0.0000 39.2569
#
#
#
# Elastic Compliance Matrix: (Units=1/GPa)
#
#
# Indices 1 2 3 4 5 6 
#
# 1 0.013483 -0.003687 -0.006776 0.000000 0.008820 0.000000
# 2 -0.003687 0.008907 0.000167 0.000000 0.000316 0.000000
# 3 -0.006776 0.000167 0.029710 0.000000 0.005081 0.000000
# 4 0.000000 0.000000 0.000000 0.034432 0.000000 0.002125
# 5 0.008820 0.000316 0.005081 0.000000 0.038036 0.000000
# 6 0.000000 0.000000 0.000000 0.002125 0.000000 0.025604
#
#
# Mechanical properties :
#
#
# Convention : Reuss Voigt Hill
#
# Bulk Modulus (GPa) = 31.73566 57.44032 44.58799
# Shear Modulus (GPa) = 27.58365 34.65565 31.11965
#
# Velocity S-wave (km/s) = 3.52267 3.94851 3.74166
# Velocity P-wave (km/s) = 5.55182 6.82852 6.22300
#
# Compressibility (1/GPa) = 0.03151030
#
# Stress axis : x y z
#
# Youngs Moduli (GPa) = 74.16485 112.26524 33.65902
#
# Poissons Ratio (x) = 0.41390 0.22807
# Poissons Ratio (y) = 0.27343 -0.00564
# Poissons Ratio (z) = 0.50253 -0.01880
#
# Static dielectric constant tensor:
#      x y z
#    x 3.952350 0.000000 -0.162120 
#    y 0.000000 3.816100 0.000000 
#    z -0.162120 0.000000 3.823060 
# 
# 
# High freq. dielectric constant tensor:
#      x y z
#    x 1.882830 0.000000 -0.012550 
#    y 0.000000 1.875740 0.000000 
#    z -0.012550 0.000000 1.857340 
# 
# From -- ./inp_files/18218.got.cif
#   From: 2010.03.12/outbox.cif.g09.slc.cpg/sg5_10_cif.got.tgz:18218.got - 2010.03.31 09:47:26.
