data_PCOD8050449
_publ_section_title
;
Structure prediction by ZEFSAII (Michael W. Deem and Ramdas Pophale) SiO2 
 PCOD8050449
Probable space group: C 2
;
_chemical_formula_sum "Si O2"
_cell_formula_units_Z 30
_cell_length_a 20.059907
_cell_length_b 8.419242
_cell_length_c 8.651730
_cell_angle_alpha 90.000000
_cell_angle_beta 77.852051
_cell_angle_gamma 90.000000
_cell_volume 1428.464257
_symmetry_space_group_name_H-M "C 2"
_symmetry_group_IT_number 5
_symmetry_cell_setting 'monoclinic'
loop_
_space_group_symop_operation_xyz
x,y,z
-x,y,-z
1/2+x,1/2+y,z
1/2-x,1/2+y,-z
loop_
_atom_site_type_symbol
_atom_site_label
_atom_site_fract_x
_atom_site_fract_y
_atom_site_fract_z
Si Si1 0.201598 0.263670 0.114643
Si Si2 0.500000 0.617368 0.500000
Si Si3 0.897696 0.362678 0.584163
Si Si4 0.591069 0.588419 0.987916
Si Si5 0.423118 0.892967 0.217898
Si Si6 0.027708 0.931393 0.764363
Si Si7 0.455956 0.103193 0.767756
Si Si8 0.166043 0.572609 0.954204
O O1 0.172651 0.318051 0.296075
O O2 0.278391 0.207550 0.104340
O O3 0.160223 0.119392 0.050201
O O4 0.202086 0.417216 0.006330
O O5 0.450181 0.730496 0.623300
O O6 0.545891 0.510030 0.591549
O O7 0.894661 0.346508 0.401135
O O8 0.926105 0.538434 0.618176
O O9 0.573992 0.747364 0.900843
O O10 0.591518 0.446279 0.854914
O O11 0.533080 0.537862 0.135911
O O12 0.499863 0.960997 0.181086
O O13 0.369838 0.026715 0.188440
O O14 0.004972 0.754056 0.734531
O O15 0.391561 0.144411 0.905315
#
# Coordination Sequence:
#
# PCOD8050449 Si02
#       8
#     4   2   4   4   4   4   4   4
#     4  10  23  43  64  88 126 173 218 260 319 393
#     4  12  20  36  64  94 134 168 202 258 334 386
#     4  11  21  41  64  91 129 177 206 256 331 409
#     4  10  22  39  62  92 126 165 218 257 315 395
#     4  11  22  40  67  94 126 170 217 261 333 396
#     4  11  24  34  60 102 131 160 207 275 324 364
#     4  11  24  39  65  98 134 158 216 274 328 380
#     4  10  25  40  67  88 121 176 214 271 313 383
#
# _framework density 21.001577000000001
#
# number of rings (size 3 to 8) (size 9 to 14) (size 15 to 20)
#    0.000    1.333    4.000    0.400   16.800    0.000 
#    0.000    5.333    2.933    0.000    0.000    0.000 
#    0.000    0.000    0.000    0.000    0.000    0.000 
#
# Total GULP energy -185839.847271 kJ/mol
# GULP energy per Si atom -12389.323151 kJ/mol
# Density = 2.095378 g / cm^3
# Si number density = 21.001577 Si / 1000 Ang^3
#
#
#
# Elastic Constant Matrix: (Units=GPa)
#
#
# Indices 1 2 3 4 5 6 
#
# 1 69.1484 14.7662 8.7310 0.0000 -11.4280 0.0000
# 2 14.7662 78.6009 19.9740 0.0000 -5.1466 0.0000
# 3 8.7310 19.9740 67.9229 0.0000 0.0036 0.0000
# 4 0.0000 0.0000 0.0000 23.1517 0.0000 -0.1096
# 5 -11.4280 -5.1466 0.0036 0.0000 25.2302 0.0000
# 6 0.0000 0.0000 0.0000 -0.1096 0.0000 42.5114
#
#
#
# Elastic Compliance Matrix: (Units=1/GPa)
#
#
# Indices 1 2 3 4 5 6 
#
# 1 0.016263 -0.002239 -0.001432 0.000000 0.006910 0.000000
# 2 -0.002239 0.014260 -0.003906 0.000000 0.001895 0.000000
# 3 -0.001432 -0.003906 0.016055 0.000000 -0.001448 0.000000
# 4 0.000000 0.000000 0.000000 0.043194 0.000000 0.000111
# 5 0.006910 0.001895 -0.001448 0.000000 0.043152 0.000000
# 6 0.000000 0.000000 0.000000 0.000111 0.000000 0.023523
#
#
# Mechanical properties :
#
#
# Convention : Reuss Voigt Hill
#
# Bulk Modulus (GPa) = 31.82291 33.62383 32.72337
# Shear Modulus (GPa) = 27.46128 29.65873 28.56001
#
# Velocity S-wave (km/s) = 3.61997 3.76202 3.69168
# Velocity P-wave (km/s) = 5.71470 5.90892 5.81262
#
# Compressibility (1/GPa) = 0.03142390
#
# Stress axis : x y z
#
# Youngs Moduli (GPa) = 61.49111 70.12786 62.28470
#
# Poissons Ratio (x) = 0.15699 0.08922
# Poissons Ratio (y) = 0.13766 0.24326
# Poissons Ratio (z) = 0.08808 0.27389
#
# Static dielectric constant tensor:
#      x y z
#    x 3.675390 0.000000 0.266880 
#    y 0.000000 3.871790 0.000000 
#    z 0.266880 0.000000 3.782300 
# 
# 
# High freq. dielectric constant tensor:
#      x y z
#    x 1.792030 0.000000 0.015340 
#    y 0.000000 1.829450 0.000000 
#    z 0.015340 0.000000 1.824020 
# 
# From -- ./inp_files/28935.got.cif
#   From: 2010.03.12/outbox.cif.g09.slc.cpg/sg5_15_cif.got.tgz:28935.got - 2010.03.31 09:47:26.
