data_PCOD8050301
_publ_section_title
;
Structure prediction by ZEFSAII (Michael W. Deem and Ramdas Pophale) SiO2 
 PCOD8050301
Probable space group: C 2
;
_chemical_formula_sum "Si O2"
_cell_formula_units_Z 22
_cell_length_a 6.027030
_cell_length_b 22.793639
_cell_length_c 7.852938
_cell_angle_alpha 90.000000
_cell_angle_beta 118.426104
_cell_angle_gamma 90.000000
_cell_volume 948.749034
_symmetry_space_group_name_H-M "C 2"
_symmetry_group_IT_number 5
_symmetry_cell_setting 'monoclinic'
loop_
_space_group_symop_operation_xyz
x,y,z
-x,y,-z
1/2+x,1/2+y,z
1/2-x,1/2+y,-z
loop_
_atom_site_type_symbol
_atom_site_label
_atom_site_fract_x
_atom_site_fract_y
_atom_site_fract_z
Si Si1 0.539538 0.208340 0.816789
Si Si2 0.745457 0.312094 0.695793
Si Si3 0.000000 0.243121 0.500000
Si Si4 0.000000 0.125246 0.000000
Si Si5 0.988292 0.048427 0.682817
Si Si6 0.339900 0.941908 0.787010
Si Si7 0.000000 0.488971 0.500000
O O1 0.675158 0.269346 0.824434
O O2 0.261042 0.204488 0.621412
O O3 0.500000 0.203130 0.000000
O O4 0.752387 0.160293 0.841004
O O5 0.500000 0.326190 0.500000
O O6 0.812235 0.372932 0.810174
O O7 0.962391 0.283785 0.653887
O O8 0.895517 0.087992 0.123947
O O9 0.000000 0.079768 0.500000
O O10 0.705672 0.036035 0.631587
O O11 0.095197 0.982413 0.703229
O O12 0.461376 0.946885 0.645759
O O13 0.500000 0.968235 0.000000
#
# Coordination Sequence:
#
# PCOD8050301 Si02
#       7
#     4   4   2   2   4   4   2
#     4  11  26  47  70 102 149 189 243 300 357 434
#     4  10  22  44  68 105 142 183 234 292 363 432
#     4  10  23  46  72 102 152 188 239 294 370 426
#     4  12  26  50  72 104 148 188 254 298 354 434
#     4  10  24  47  70 103 137 186 241 296 361 424
#     4  11  23  39  73 104 141 181 230 293 363 430
#     4  10  21  44  66 102 140 180 233 290 362 426
#
# _framework density 23.18843
#
# number of rings (size 3 to 8) (size 9 to 14) (size 15 to 20)
#    0.000    1.455    0.000    4.364    3.818    5.091 
#   22.909    0.000    0.000    0.000    0.000    0.000 
#    0.000    0.000    0.000    0.000    0.000    0.000 
#
# Total GULP energy -136268.556180 kJ/mol
# GULP energy per Si atom -12388.050562 kJ/mol
# Density = 2.313565 g / cm^3
# Si number density = 23.188430 Si / 1000 Ang^3
#
#
#
# Elastic Constant Matrix: (Units=GPa)
#
#
# Indices 1 2 3 4 5 6 
#
# 1 118.1286 48.5641 34.8725 0.0000 8.0014 0.0000
# 2 48.5641 113.8860 47.9110 0.0000 1.8229 0.0000
# 3 34.8725 47.9110 115.6114 0.0000 -4.0192 0.0000
# 4 0.0000 0.0000 0.0000 43.9902 0.0000 4.6025
# 5 8.0014 1.8229 -4.0192 0.0000 40.7150 0.0000
# 6 0.0000 0.0000 0.0000 4.6025 0.0000 21.1376
#
#
#
# Elastic Compliance Matrix: (Units=1/GPa)
#
#
# Indices 1 2 3 4 5 6 
#
# 1 0.010675 -0.003795 -0.001720 0.000000 -0.002098 0.000000
# 2 -0.003795 0.012018 -0.003842 0.000000 -0.000171 0.000000
# 3 -0.001720 -0.003842 0.010815 0.000000 0.001578 0.000000
# 4 0.000000 0.000000 0.000000 0.023262 0.000000 -0.005065
# 5 -0.002098 -0.000171 0.001578 0.000000 0.025137 0.000000
# 6 0.000000 0.000000 0.000000 -0.005065 0.000000 0.048412
#
#
# Mechanical properties :
#
#
# Convention : Reuss Voigt Hill
#
# Bulk Modulus (GPa) = 67.59095 67.81347 67.70221
# Shear Modulus (GPa) = 32.47483 35.58712 34.03097
#
# Velocity S-wave (km/s) = 3.74635 3.92177 3.83506
# Velocity P-wave (km/s) = 6.92282 7.05797 6.99072
#
# Compressibility (1/GPa) = 0.01479488
#
# Stress axis : x y z
#
# Youngs Moduli (GPa) = 93.67267 83.20914 92.46024
#
# Poissons Ratio (x) = 0.31578 0.15906
# Poissons Ratio (y) = 0.35549 0.35520
# Poissons Ratio (z) = 0.16115 0.31966
#
# Static dielectric constant tensor:
#      x y z
#    x 4.346470 0.000000 0.179420 
#    y 0.000000 4.019000 0.000000 
#    z 0.179420 0.000000 4.129430 
# 
# 
# High freq. dielectric constant tensor:
#      x y z
#    x 1.922650 0.000000 -0.001300 
#    y 0.000000 1.908700 0.000000 
#    z -0.001300 0.000000 1.928860 
# 
# From -- ./inp_files/12593.got.cif
#   From: 2010.03.12/outbox.cif.g09.slc.cpg/sg5_7_cif.got.tgz:12593.got - 2010.03.31 09:47:26.
