data_PCOD8050894
_publ_section_title
;
Structure prediction by ZEFSAII (Michael W. Deem and Ramdas Pophale) SiO2 
 PCOD8050894
Probable space group: C 2
;
_chemical_formula_sum "Si O2"
_cell_formula_units_Z 24
_cell_length_a 8.713514
_cell_length_b 8.711128
_cell_length_c 14.024993
_cell_angle_alpha 90.000000
_cell_angle_beta 97.642292
_cell_angle_gamma 90.000000
_cell_volume 1055.104780
_symmetry_space_group_name_H-M "C 2"
_symmetry_group_IT_number 5
_symmetry_cell_setting 'monoclinic'
loop_
_space_group_symop_operation_xyz
x,y,z
-x,y,-z
1/2+x,1/2+y,z
1/2-x,1/2+y,-z
loop_
_atom_site_type_symbol
_atom_site_label
_atom_site_fract_x
_atom_site_fract_y
_atom_site_fract_z
Si Si1 0.869286 0.030520 0.613611
Si Si2 0.148689 0.686403 0.458782
Si Si3 0.701631 0.593487 0.710389
Si Si4 0.862947 0.916650 0.118697
Si Si5 0.835935 0.590455 0.038377
Si Si6 0.280983 0.412127 0.802986
O O1 0.790930 0.158716 0.541552
O O2 0.040320 0.095739 0.641327
O O3 0.868856 0.866998 0.560635
O O4 0.781853 0.014389 0.707443
O O5 0.165813 0.594190 0.359958
O O6 0.000000 0.618459 0.500000
O O7 0.705516 0.445180 0.780085
O O8 0.721528 0.741816 0.778193
O O9 0.796382 0.759723 0.071905
O O10 0.048598 0.909915 0.135758
O O11 0.803757 0.050983 0.044583
O O12 0.839351 0.482162 0.131650
O O13 0.000000 0.576872 0.000000
#
# Coordination Sequence:
#
# PCOD8050894 Si02
#       6
#     4   4   4   4   4   4
#     4  10  24  42  66  95 131 172 213 264 320 379
#     4  11  23  41  66  98 132 169 214 267 319 376
#     4  10  22  45  68  92 131 173 213 263 321 379
#     4  11  24  44  66  95 133 169 214 266 319 382
#     4  12  25  41  67  98 128 168 214 266 324 381
#     4  10  24  45  65  94 131 169 216 266 317 381
#
# _framework density 22.746554
#
# number of rings (size 3 to 8) (size 9 to 14) (size 15 to 20)
#    0.000    1.333    0.000    5.000    0.000   13.333 
#    0.000    4.167    0.000    0.000    0.000    0.000 
#    0.000    0.000    0.000    0.000    0.000    0.000 
#
# Total GULP energy -148818.283866 kJ/mol
# GULP energy per Si atom -12401.523656 kJ/mol
# Density = 2.269478 g / cm^3
# Si number density = 22.746554 Si / 1000 Ang^3
#
#
#
# Elastic Constant Matrix: (Units=GPa)
#
#
# Indices 1 2 3 4 5 6 
#
# 1 114.9501 77.2711 80.0635 0.0000 -14.5611 0.0000
# 2 77.2711 109.3215 76.5921 0.0000 6.3193 0.0000
# 3 80.0635 76.5921 157.2244 0.0000 -7.7271 0.0000
# 4 0.0000 0.0000 0.0000 58.4075 0.0000 5.2253
# 5 -14.5611 6.3193 -7.7271 0.0000 51.4536 0.0000
# 6 0.0000 0.0000 0.0000 5.2253 0.0000 29.2887
#
#
#
# Elastic Compliance Matrix: (Units=1/GPa)
#
#
# Indices 1 2 3 4 5 6 
#
# 1 0.020535 -0.011838 -0.004365 0.000000 0.006610 0.000000
# 2 -0.011838 0.021107 -0.004580 0.000000 -0.006630 0.000000
# 3 -0.004365 -0.004580 0.010861 0.000000 0.000958 0.000000
# 4 0.000000 0.000000 0.000000 0.017399 0.000000 -0.003104
# 5 0.006610 -0.006630 0.000958 0.000000 0.022264 0.000000
# 6 0.000000 0.000000 0.000000 -0.003104 0.000000 0.034697
#
#
# Mechanical properties :
#
#
# Convention : Reuss Voigt Hill
#
# Bulk Modulus (GPa) = 91.43444 94.37214 92.90329
# Shear Modulus (GPa) = 29.05729 37.66792 33.36261
#
# Velocity S-wave (km/s) = 3.57800 4.07379 3.83392
# Velocity P-wave (km/s) = 7.57323 7.98162 7.78011
#
# Compressibility (1/GPa) = 0.01093680
#
# Stress axis : x y z
#
# Youngs Moduli (GPa) = 48.69739 47.37807 92.07087
#
# Poissons Ratio (x) = 0.56088 0.40190
# Poissons Ratio (y) = 0.57650 0.42164
# Poissons Ratio (z) = 0.21257 0.21697
#
# Static dielectric constant tensor:
#      x y z
#    x 3.993210 0.000000 -0.139450 
#    y 0.000000 3.954670 0.000000 
#    z -0.139450 0.000000 4.571020 
# 
# 
# High freq. dielectric constant tensor:
#      x y z
#    x 1.887860 0.000000 -0.006790 
#    y 0.000000 1.886390 0.000000 
#    z -0.006790 0.000000 1.931760 
# 
# From -- ./inp_files/49928.got.cif
#   From: 2010.03.12/outbox.cif.g09.slc.cpg/sg5_25_cif.got.tgz:49928.got - 2010.03.31 09:47:26.
