data_PCOD8050379
_publ_section_title
;
Structure prediction by ZEFSAII (Michael W. Deem and Ramdas Pophale) SiO2 
 PCOD8050379
Probable space group: C 2
;
_chemical_formula_sum "Si O2"
_cell_formula_units_Z 30
_cell_length_a 5.282454
_cell_length_b 31.324898
_cell_length_c 8.733815
_cell_angle_alpha 90.000000
_cell_angle_beta 72.399005
_cell_angle_gamma 90.000000
_cell_volume 1377.548084
_symmetry_space_group_name_H-M "C 2"
_symmetry_group_IT_number 5
_symmetry_cell_setting 'monoclinic'
loop_
_space_group_symop_operation_xyz
x,y,z
-x,y,-z
1/2+x,1/2+y,z
1/2-x,1/2+y,-z
loop_
_atom_site_type_symbol
_atom_site_label
_atom_site_fract_x
_atom_site_fract_y
_atom_site_fract_z
Si Si1 0.402244 0.368950 0.690944
Si Si2 0.096052 0.320500 0.308941
Si Si3 0.500000 0.022460 0.000000
Si Si4 0.405025 0.724425 0.691059
Si Si5 0.221528 0.088167 0.840240
Si Si6 0.302066 0.522467 0.395857
Si Si7 0.438241 0.456763 0.840226
Si Si8 0.093157 0.675975 0.309052
O O1 0.500000 0.372122 0.500000
O O2 0.624205 0.345351 0.753636
O O3 0.343290 0.415975 0.763274
O O4 0.125312 0.343602 0.754096
O O5 0.129964 0.272463 0.240019
O O6 0.000000 0.319333 0.500000
O O7 0.598091 0.051805 0.119195
O O8 0.282777 0.993113 0.119234
O O9 0.500000 0.725591 0.500000
O O10 0.622192 0.699573 0.753637
O O11 0.120623 0.701325 0.754097
O O12 0.099460 0.065242 0.712203
O O13 0.393493 0.128951 0.763294
O O14 0.000000 0.103356 0.000000
O O15 0.500000 0.515819 0.500000
O O16 0.311663 0.479694 0.287787
O O17 0.000000 0.529115 0.500000
O O18 0.500000 0.441582 0.000000
O O19 0.000000 0.672800 0.500000
#
# Coordination Sequence:
#
# PCOD8050379 Si02
#       8
#     4   4   2   4   4   4   4   4
#     4  10  22  37  63 100 129 165 219 276 322 377
#     4   9  18  36  62  95 133 167 207 266 334 391
#     4  12  24  48  68  88 132 182 238 250 334 410
#     4   9  18  36  62  95 133 167 207 266 334 391
#     4  12  26  44  66  95 133 181 225 268 333 410
#     4  12  26  44  69  97 130 172 226 290 340 380
#     4  12  26  44  66  95 133 181 225 268 333 410
#     4  10  22  37  63 100 129 165 219 276 322 377
#
# _framework density 21.777823999999999
#
# number of rings (size 3 to 8) (size 9 to 14) (size 15 to 20)
#    0.000    1.333    2.667    2.400    3.733    6.400 
#    0.000    0.000    0.000    3.200    0.000    0.000 
#    0.000    0.000    0.000    0.000    0.000    0.000 
#
# Total GULP energy -186030.843974 kJ/mol
# GULP energy per Si atom -12402.056265 kJ/mol
# Density = 2.172826 g / cm^3
# Si number density = 21.777824 Si / 1000 Ang^3
#
#
#
# Elastic Constant Matrix: (Units=GPa)
#
#
# Indices 1 2 3 4 5 6 
#
# 1 166.8940 81.2915 28.7696 0.0000 -0.4946 0.0000
# 2 81.2915 198.9964 35.9682 0.0000 -0.2133 0.0000
# 3 28.7696 35.9682 56.3180 0.0000 -0.0095 0.0000
# 4 0.0000 0.0000 0.0000 -2.5934 0.0000 3.0621
# 5 -0.4946 -0.2133 -0.0095 0.0000 13.5220 0.0000
# 6 0.0000 0.0000 0.0000 3.0621 0.0000 -709.7867
#
#
#
# Elastic Compliance Matrix: (Units=1/GPa)
#
#
# Indices 1 2 3 4 5 6 
#
# 1 0.007710 -0.002756 -0.002179 0.000000 0.000237 0.000000
# 2 -0.002756 0.006666 -0.002850 0.000000 0.000002 0.000000
# 3 -0.002179 -0.002850 0.020689 0.000000 -0.000110 0.000000
# 4 0.000000 0.000000 0.000000 -0.387575 0.000000 -0.001672
# 5 0.000237 0.000002 -0.000110 0.000000 0.073962 0.000000
# 6 0.000000 0.000000 0.000000 -0.001672 0.000000 -0.001416
#
#
# Mechanical properties :
#
#
# Convention : Reuss Voigt Hill
#
# Bulk Modulus (GPa) = 51.28872 79.36301 65.32586
# Shear Modulus (GPa) = -19.38769 -121.35968 -70.37369
#
# Velocity S-wave (km/s) = -2.98694 -7.47310 -5.69074
# Velocity P-wave (km/s) = 3.42144 6.15969 3.62184
#
# Compressibility (1/GPa) = 0.01949746
#
# Stress axis : x y z
#
# Youngs Moduli (GPa) = 129.69562 150.01513 48.33428
#
# Poissons Ratio (x) = 0.41339 0.10531
# Poissons Ratio (y) = 0.35740 0.13773
# Poissons Ratio (z) = 0.28258 0.42749
#
# Static dielectric constant tensor:
#      x y z
#    x 4.089930 0.000000 0.015930 
#    y 0.000000 4.008550 0.000000 
#    z 0.015930 0.000000 7.266530 
# 
# 
# High freq. dielectric constant tensor:
#      x y z
#    x 1.861310 0.000000 -0.000120 
#    y 0.000000 1.866820 0.000000 
#    z -0.000120 0.000000 1.834510 
# 
# From -- ./inp_files/13346.got.cif
#   From: 2010.03.12/outbox.cif.g09.slc.cpg/sg5_7_cif.got.tgz:13346.got - 2010.03.31 09:47:26.
