data_PCOD8050260
_publ_section_title
;
Structure prediction by ZEFSAII (Michael W. Deem and Ramdas Pophale) SiO2 
 PCOD8050260
Probable space group: C 2
;
_chemical_formula_sum "Si O2"
_cell_formula_units_Z 24
_cell_length_a 25.469052
_cell_length_b 5.100701
_cell_length_c 16.294332
_cell_angle_alpha 90.000000
_cell_angle_beta 146.808677
_cell_angle_gamma 90.000000
_cell_volume 1158.811921
_symmetry_space_group_name_H-M "C 2"
_symmetry_group_IT_number 5
_symmetry_cell_setting 'monoclinic'
loop_
_space_group_symop_operation_xyz
x,y,z
-x,y,-z
1/2+x,1/2+y,z
1/2-x,1/2+y,-z
loop_
_atom_site_type_symbol
_atom_site_label
_atom_site_fract_x
_atom_site_fract_y
_atom_site_fract_z
Si Si1 0.218254 0.842680 0.004741
Si Si2 0.508175 0.328331 0.773776
Si Si3 0.346101 0.762791 0.801770
Si Si4 0.996772 0.330016 0.865501
Si Si5 0.291123 0.952548 0.280419
Si Si6 0.350851 0.447738 0.433159
O O1 0.261700 0.878059 0.151229
O O2 0.278176 0.617336 0.038126
O O3 0.108625 0.743958 0.864863
O O4 0.528279 0.595976 0.847999
O O5 0.431255 0.385465 0.603688
O O6 0.469642 0.092593 0.780474
O O7 0.404655 0.720707 0.794746
O O8 0.304279 0.490357 0.786321
O O9 0.255067 0.948699 0.663057
O O10 0.415070 0.900109 0.959271
O O11 0.363605 0.732791 0.410227
O O12 0.351062 0.225526 0.361618
#
# Coordination Sequence:
#
# PCOD8050260 Si02
#       6
#     4   4   4   4   4   4
#     4  12  25  44  70  92 121 166 221 276 331 378
#     4  12  24  42  61  98 129 164 216 274 312 380
#     4   9  23  38  65  94 127 178 207 250 320 381
#     4  11  23  37  67  93 132 168 220 254 308 385
#     4  10  21  43  62  89 128 169 208 261 316 387
#     4  10  22  39  65  87 138 167 202 259 329 372
#
# _framework density 20.71087
#
# number of rings (size 3 to 8) (size 9 to 14) (size 15 to 20)
#    1.000    0.333    1.667    4.000    2.333    2.667 
#    0.000    5.000    0.000    0.000    0.000    0.000 
#    0.000    0.000    0.000    0.000    0.000    0.000 
#
# Total GULP energy -148737.681575 kJ/mol
# GULP energy per Si atom -12394.806798 kJ/mol
# Density = 2.066373 g / cm^3
# Si number density = 20.710870 Si / 1000 Ang^3
#
#
#
# Elastic Constant Matrix: (Units=GPa)
#
#
# Indices 1 2 3 4 5 6 
#
# 1 76.7388 27.9860 43.5748 0.0000 -16.1369 0.0003
# 2 27.9860 125.5251 33.3208 0.0023 -14.7966 -0.0002
# 3 43.5748 33.3208 110.8004 0.0004 -13.7584 -0.0003
# 4 0.0000 0.0023 0.0004 35.4123 -0.0003 -6.3207
# 5 -16.1369 -14.7966 -13.7584 -0.0003 12.7785 0.0001
# 6 0.0003 -0.0002 -0.0003 -6.3207 0.0001 28.6500
#
#
#
# Elastic Compliance Matrix: (Units=1/GPa)
#
#
# Indices 1 2 3 4 5 6 
#
# 1 0.020403 -0.000883 -0.005409 0.000000 0.018919 0.000000
# 2 -0.000883 0.009540 -0.001487 -0.000001 0.008331 0.000000
# 3 -0.005409 -0.001487 0.012164 0.000000 0.004544 0.000000
# 4 0.000000 -0.000001 0.000000 0.029396 0.000000 0.006485
# 5 0.018919 0.008331 0.004544 0.000000 0.116687 -0.000001
# 6 0.000000 0.000000 0.000000 0.006485 -0.000001 0.036335
#
#
# Mechanical properties :
#
#
# Convention : Reuss Voigt Hill
#
# Bulk Modulus (GPa) = 37.66706 58.09193 47.87949
# Shear Modulus (GPa) = 20.08569 29.24701 24.66635
#
# Velocity S-wave (km/s) = 3.11756 3.76194 3.45481
# Velocity P-wave (km/s) = 5.58440 6.85416 6.25160
#
# Compressibility (1/GPa) = 0.02654840
#
# Stress axis : x y z
#
# Youngs Moduli (GPa) = 49.01209 104.81995 82.20950
#
# Poissons Ratio (x) = 0.09254 0.44469
# Poissons Ratio (y) = 0.04327 0.12228
# Poissons Ratio (z) = 0.26512 0.15591
#
# Static dielectric constant tensor:
#      x y z
#    x 3.653840 0.000000 0.008210 
#    y 0.000000 3.760600 0.000000 
#    z 0.008210 0.000000 3.634440 
# 
# 
# High freq. dielectric constant tensor:
#      x y z
#    x 1.792280 0.000000 -0.003120 
#    y 0.000000 1.815830 0.000000 
#    z -0.003120 0.000000 1.812650 
# 
# From -- ./inp_files/57406.got.cif
#   From: 2010.03.12/outbox.cif.g09.slc.cpg/sg5_29_cif.got.tgz:57406.got - 2010.03.31 09:47:26.
