data_PCOD8050166
_publ_section_title
;
Structure prediction by ZEFSAII (Michael W. Deem and Ramdas Pophale) SiO2 
 PCOD8050166
Probable space group: C 2
;
_chemical_formula_sum "Si O2"
_cell_formula_units_Z 26
_cell_length_a 9.467456
_cell_length_b 11.479997
_cell_length_c 13.948056
_cell_angle_alpha 90.000000
_cell_angle_beta 127.569984
_cell_angle_gamma 90.000000
_cell_volume 1201.566602
_symmetry_space_group_name_H-M "C 2"
_symmetry_group_IT_number 5
_symmetry_cell_setting 'monoclinic'
loop_
_space_group_symop_operation_xyz
x,y,z
-x,y,-z
1/2+x,1/2+y,z
1/2-x,1/2+y,-z
loop_
_atom_site_type_symbol
_atom_site_label
_atom_site_fract_x
_atom_site_fract_y
_atom_site_fract_z
Si Si1 0.500000 0.293630 0.500000
Si Si2 0.885205 0.283958 0.230378
Si Si3 0.441880 0.091523 0.333891
Si Si4 0.974245 0.502790 0.145208
Si Si5 0.789922 0.031879 0.135298
Si Si6 0.817568 0.384159 0.529389
Si Si7 0.153123 0.912571 0.264076
O O1 0.456159 0.217360 0.387497
O O2 0.665693 0.377487 0.547699
O O3 0.943721 0.372700 0.171315
O O4 0.883510 0.156068 0.187410
O O5 0.691318 0.322026 0.192665
O O6 0.026331 0.293693 0.376835
O O7 0.465308 0.097056 0.228003
O O8 0.603855 0.014222 0.443053
O O9 0.251734 0.034201 0.280470
O O10 0.167494 0.503373 0.175719
O O11 0.821606 0.536782 0.007810
O O12 0.943066 0.934291 0.189424
O O13 0.734217 0.353302 0.392698
#
# Coordination Sequence:
#
# PCOD8050166 Si02
#       7
#     2   4   4   4   4   4   4
#     4  12  22  36  66  92 122 170 208 244 338 374
#     4  10  23  44  63  91 134 165 211 269 322 377
#     4  10  21  44  60  89 135 159 203 277 303 383
#     4   9  24  44  62  96 133 156 227 273 300 380
#     4  11  23  43  68  93 124 181 211 262 323 378
#     4  10  22  38  61  97 125 163 212 262 308 392
#     4  10  21  41  65  91 129 164 214 261 320 374
#
# _framework density 21.638418000000001
#
# number of rings (size 3 to 8) (size 9 to 14) (size 15 to 20)
#    0.000    2.154    1.538    2.308    6.462    4.923 
#    0.000    4.615    0.000    0.000    0.000    0.000 
#    0.000    0.000    0.000    0.000    0.000    0.000 
#
# Total GULP energy -161181.688142 kJ/mol
# GULP energy per Si atom -12398.591396 kJ/mol
# Density = 2.158917 g / cm^3
# Si number density = 21.638418 Si / 1000 Ang^3
#
#
#
# Elastic Constant Matrix: (Units=GPa)
#
#
# Indices 1 2 3 4 5 6 
#
# 1 152.5666 17.2608 36.8744 0.0000 0.5793 0.0000
# 2 17.2608 39.2763 -0.8627 0.0000 -0.6080 0.0000
# 3 36.8744 -0.8627 80.6460 0.0000 -10.9450 0.0000
# 4 0.0000 0.0000 0.0000 18.6048 0.0000 -6.4499
# 5 0.5793 -0.6080 -10.9450 0.0000 37.7453 0.0000
# 6 0.0000 0.0000 0.0000 -6.4499 0.0000 27.1578
#
#
#
# Elastic Compliance Matrix: (Units=1/GPa)
#
#
# Indices 1 2 3 4 5 6 
#
# 1 0.007886 -0.003570 -0.003819 0.000000 -0.001286 0.000000
# 2 -0.003570 0.027092 0.002070 0.000000 0.001091 0.000000
# 3 -0.003819 0.002070 0.014761 0.000000 0.004372 0.000000
# 4 0.000000 0.000000 0.000000 0.058572 0.000000 0.013911
# 5 -0.001286 0.001091 0.004372 0.000000 0.027798 0.000000
# 6 0.000000 0.000000 0.000000 0.013911 0.000000 0.040126
#
#
# Mechanical properties :
#
#
# Convention : Reuss Voigt Hill
#
# Bulk Modulus (GPa) = 25.57335 42.11489 33.84412
# Shear Modulus (GPa) = 25.01179 31.31602 28.16391
#
# Velocity S-wave (km/s) = 3.40354 3.80839 3.61164
# Velocity P-wave (km/s) = 5.22394 6.23247 5.75036
#
# Compressibility (1/GPa) = 0.03910320
#
# Stress axis : x y z
#
# Youngs Moduli (GPa) = 126.80454 36.91171 67.74436
#
# Poissons Ratio (x) = 0.13176 0.25868
# Poissons Ratio (y) = 0.45263 -0.14023
# Poissons Ratio (z) = 0.48421 -0.07641
#
# Static dielectric constant tensor:
#      x y z
#    x 4.237230 0.000000 -0.087440 
#    y 0.000000 3.502740 0.000000 
#    z -0.087440 0.000000 3.855860 
# 
# 
# High freq. dielectric constant tensor:
#      x y z
#    x 1.870980 0.000000 -0.007760 
#    y 0.000000 1.820240 0.000000 
#    z -0.007760 0.000000 1.846120 
# 
# From -- ./inp_files/50383.got.cif
#   From: 2010.03.12/outbox.cif.g09.slc.cpg/sg5_26_cif.got.tgz:50383.got - 2010.03.31 09:47:26.
