data_PCOD8050113
_publ_section_title
;
Structure prediction by ZEFSAII (Michael W. Deem and Ramdas Pophale) SiO2 
 PCOD8050113
Probable space group: C 2
;
_chemical_formula_sum "Si O2"
_cell_formula_units_Z 28
_cell_length_a 18.800164
_cell_length_b 9.401833
_cell_length_c 13.890613
_cell_angle_alpha 90.000000
_cell_angle_beta 31.708002
_cell_angle_gamma 90.000000
_cell_volume 1290.455596
_symmetry_space_group_name_H-M "C 2"
_symmetry_group_IT_number 5
_symmetry_cell_setting 'monoclinic'
loop_
_space_group_symop_operation_xyz
x,y,z
-x,y,-z
1/2+x,1/2+y,z
1/2-x,1/2+y,-z
loop_
_atom_site_type_symbol
_atom_site_label
_atom_site_fract_x
_atom_site_fract_y
_atom_site_fract_z
Si Si1 0.626156 0.097430 0.566463
Si Si2 0.149992 0.181791 0.213658
Si Si3 0.151235 0.690451 0.329240
Si Si4 0.338641 0.998643 0.870108
Si Si5 0.239661 0.335328 0.504324
Si Si6 0.347570 0.890081 0.200134
Si Si7 0.659992 0.655955 0.419341
O O1 0.653843 0.094703 0.421384
O O2 0.484012 0.023038 0.751487
O O3 0.621968 0.253973 0.622943
O O4 0.746468 0.005636 0.479814
O O5 0.177801 0.330404 0.127222
O O6 0.196603 0.208204 0.269736
O O7 0.998125 0.121859 0.388205
O O8 0.230815 0.053066 0.071491
O O9 0.178427 0.588564 0.208111
O O10 0.271314 0.807131 0.200550
O O11 0.000000 0.761692 0.500000
O O12 0.146146 0.300107 0.706958
O O13 0.184346 0.280796 0.466942
O O14 0.255024 0.023707 0.334082
O O15 0.500000 0.934266 0.000000
#
# Coordination Sequence:
#
# PCOD8050113 Si02
#       7
#     4   4   4   4   4   4   4
#     4  10  21  40  67  97 132 180 221 271 347 408
#     4  11  27  42  70 101 136 180 232 288 339 402
#     4   9  22  41  70  99 136 178 230 281 341 407
#     4  11  24  44  70 101 136 176 232 291 336 401
#     4  11  21  42  67  93 133 180 218 271 344 414
#     4  11  26  42  70 103 136 179 227 290 344 410
#     4  11  25  43  68  97 139 181 226 276 349 408
#
# _framework density 21.697763999999999
#
# number of rings (size 3 to 8) (size 9 to 14) (size 15 to 20)
#    0.000    1.429    2.857    0.857   12.000    2.286 
#    0.000    0.000    0.000    3.429    0.000    0.000 
#    0.000    0.000    0.000    0.000    0.000    0.000 
#
# Total GULP energy -173442.990527 kJ/mol
# GULP energy per Si atom -12388.785038 kJ/mol
# Density = 2.164838 g / cm^3
# Si number density = 21.697764 Si / 1000 Ang^3
#
#
#
# Elastic Constant Matrix: (Units=GPa)
#
#
# Indices 1 2 3 4 5 6 
#
# 1 110.7934 38.5177 44.1974 0.0000 8.5973 0.0000
# 2 38.5177 103.8628 53.9720 0.0000 -13.2292 0.0000
# 3 44.1974 53.9720 112.3985 0.0000 3.1727 0.0000
# 4 0.0000 0.0000 0.0000 30.7208 0.0000 -3.2105
# 5 8.5973 -13.2292 3.1727 0.0000 26.6421 0.0000
# 6 0.0000 0.0000 0.0000 -3.2105 0.0000 39.9388
#
#
#
# Elastic Compliance Matrix: (Units=1/GPa)
#
#
# Indices 1 2 3 4 5 6 
#
# 1 0.011789 -0.003613 -0.002752 0.000000 -0.005271 0.000000
# 2 -0.003613 0.015444 -0.006266 0.000000 0.009581 0.000000
# 3 -0.002752 -0.006266 0.013094 0.000000 -0.003783 0.000000
# 4 0.000000 0.000000 0.000000 0.032827 0.000000 0.002639
# 5 -0.005271 0.009581 -0.003783 0.000000 0.044443 0.000000
# 6 0.000000 0.000000 0.000000 0.002639 0.000000 0.025250
#
#
# Mechanical properties :
#
#
# Convention : Reuss Voigt Hill
#
# Bulk Modulus (GPa) = 66.37478 66.71434 66.54456
# Shear Modulus (GPa) = 28.87967 32.15150 30.51559
#
# Velocity S-wave (km/s) = 3.65224 3.85358 3.75426
# Velocity P-wave (km/s) = 6.96004 7.11435 7.03762
#
# Compressibility (1/GPa) = 0.01506596
#
# Stress axis : x y z
#
# Youngs Moduli (GPa) = 84.82712 64.74818 76.36800
#
# Poissons Ratio (x) = 0.23395 0.21015
# Poissons Ratio (y) = 0.30650 0.47851
# Poissons Ratio (z) = 0.23342 0.40570
#
# Static dielectric constant tensor:
#      x y z
#    x 4.295250 0.000000 0.098120 
#    y 0.000000 3.852820 0.000000 
#    z 0.098120 0.000000 3.736750 
# 
# 
# High freq. dielectric constant tensor:
#      x y z
#    x 1.878440 0.000000 0.018890 
#    y 0.000000 1.849150 0.000000 
#    z 0.018890 0.000000 1.828770 
# 
# From -- ./inp_files/56871.got.cif
#   From: 2010.03.12/outbox.cif.g09.slc.cpg/sg5_29_cif.got.tgz:56871.got - 2010.03.31 09:47:26.
