data_PCOD8050095
_publ_section_title
;
Structure prediction by ZEFSAII (Michael W. Deem and Ramdas Pophale) SiO2 
 PCOD8050095
Probable space group: C 2
;
_chemical_formula_sum "Si O2"
_cell_formula_units_Z 32
_cell_length_a 16.728194
_cell_length_b 15.211587
_cell_length_c 10.214200
_cell_angle_alpha 90.000000
_cell_angle_beta 143.707784
_cell_angle_gamma 90.000000
_cell_volume 1538.434397
_symmetry_space_group_name_H-M "C 2"
_symmetry_group_IT_number 5
_symmetry_cell_setting 'monoclinic'
loop_
_space_group_symop_operation_xyz
x,y,z
-x,y,-z
1/2+x,1/2+y,z
1/2-x,1/2+y,-z
loop_
_atom_site_type_symbol
_atom_site_label
_atom_site_fract_x
_atom_site_fract_y
_atom_site_fract_z
Si Si1 0.873959 0.583580 0.042979
Si Si2 0.903445 0.833466 0.488220
Si Si3 0.540291 0.738083 0.760919
Si Si4 0.823630 0.070770 0.970487
Si Si5 0.885954 0.391327 0.952290
Si Si6 0.902279 0.632159 0.482760
Si Si7 0.285405 0.738894 0.267069
Si Si8 0.931164 0.885208 0.048192
O O1 0.773710 0.574865 0.032731
O O2 0.023630 0.617492 0.281552
O O3 0.902626 0.491506 0.014479
O O4 0.814121 0.654256 0.860457
O O5 0.763197 0.885418 0.305823
O O6 0.868517 0.733283 0.409847
O O7 0.000000 0.871475 0.500000
O O8 0.971721 0.837379 0.720388
O O9 0.379013 0.741973 0.520538
O O10 0.619879 0.730409 0.732027
O O11 0.569039 0.650682 0.883756
O O12 0.594357 0.826398 0.899888
O O13 0.738287 0.079623 0.722079
O O14 0.900709 0.979278 0.071388
O O15 0.000000 0.364519 0.000000
O O16 0.000000 0.594947 0.500000
O O17 0.203639 0.829252 0.149987
O O18 0.000000 0.897624 0.000000
#
# Coordination Sequence:
#
# PCOD8050095 Si02
#       8
#     4   4   4   4   4   4   4   4
#     4  10  21  40  65  94 122 166 220 268 318 385
#     4  11  22  45  72  93 124 179 233 266 306 390
#     4  10  22  42  67  93 125 167 218 272 323 382
#     4  10  21  40  65  94 122 166 220 268 318 385
#     4  12  27  41  62  97 137 170 209 266 331 392
#     4   9  18  37  66  91 117 157 219 274 309 364
#     4  10  22  42  67  93 125 167 218 272 323 382
#     4  12  27  41  62  97 137 170 209 266 331 392
#
# _framework density 20.800367000000001
#
# number of rings (size 3 to 8) (size 9 to 14) (size 15 to 20)
#    0.000    1.500    2.500    2.250    5.250    1.000 
#    0.000    0.000    0.000    0.000    0.000    0.000 
#    0.000    0.000    0.000    0.000    0.000    0.000 
#
# Total GULP energy -198400.505939 kJ/mol
# GULP energy per Si atom -12400.031621 kJ/mol
# Density = 2.075302 g / cm^3
# Si number density = 20.800367 Si / 1000 Ang^3
#
#
#
# Elastic Constant Matrix: (Units=GPa)
#
#
# Indices 1 2 3 4 5 6 
#
# 1 43.2244 2.9996 21.2805 0.0000 2.0461 0.0000
# 2 2.9996 110.0951 37.0960 0.0000 2.3084 0.0000
# 3 21.2805 37.0960 149.9901 0.0000 -0.0244 0.0000
# 4 0.0000 0.0000 0.0000 21.0949 0.0000 -9.8689
# 5 2.0461 2.3084 -0.0244 0.0000 21.8018 0.0000
# 6 0.0000 0.0000 0.0000 -9.8689 0.0000 -0.4502
#
#
#
# Elastic Compliance Matrix: (Units=1/GPa)
#
#
# Indices 1 2 3 4 5 6 
#
# 1 0.025030 0.000617 -0.003704 0.000000 -0.002419 0.000000
# 2 0.000617 0.009948 -0.002548 0.000000 -0.001114 0.000000
# 3 -0.003704 -0.002548 0.007823 0.000000 0.000626 0.000000
# 4 0.000000 0.000000 0.000000 0.004212 0.000000 -0.092326
# 5 -0.002419 -0.001114 0.000626 0.000000 0.046213 0.000000
# 6 0.000000 0.000000 0.000000 -0.092326 0.000000 -0.197348
#
#
# Mechanical properties :
#
#
# Convention : Reuss Voigt Hill
#
# Bulk Modulus (GPa) = 31.71521 47.34021 39.52771
# Shear Modulus (GPa) = -60.72348 24.61819 -18.05265
#
# Velocity S-wave (km/s) = -5.40896 3.44400 -2.94921
# Velocity P-wave (km/s) = 4.87120 6.21479 2.72901
#
# Compressibility (1/GPa) = 0.03153061
#
# Stress axis : x y z
#
# Youngs Moduli (GPa) = 39.95130 100.52084 127.82859
#
# Poissons Ratio (x) = -0.06201 0.47351
# Poissons Ratio (y) = -0.02465 0.32572
# Poissons Ratio (z) = 0.14799 0.25614
#
# Static dielectric constant tensor:
#      x y z
#    x 3.520920 0.000000 0.037740 
#    y 0.000000 3.737410 0.000000 
#    z 0.037740 0.000000 4.263630 
# 
# 
# High freq. dielectric constant tensor:
#      x y z
#    x 1.780620 0.000000 -0.001870 
#    y 0.000000 1.819730 0.000000 
#    z -0.001870 0.000000 1.834420 
# 
# From -- ./inp_files/44984.got.cif
#   From: 2010.03.12/outbox.cif.g09.slc.cpg/sg5_23_cif.got.tgz:44984.got - 2010.03.31 09:47:26.
