data_PCOD8050592
_publ_section_title
;
Structure prediction by ZEFSAII (Michael W. Deem and Ramdas Pophale) SiO2 
 PCOD8050592
Probable space group: C 2
;
_chemical_formula_sum "Si O2"
_cell_formula_units_Z 26
_cell_length_a 19.882749
_cell_length_b 10.642699
_cell_length_c 7.114203
_cell_angle_alpha 90.000000
_cell_angle_beta 55.755845
_cell_angle_gamma 90.000000
_cell_volume 1244.441944
_symmetry_space_group_name_H-M "C 2"
_symmetry_group_IT_number 5
_symmetry_cell_setting 'monoclinic'
loop_
_space_group_symop_operation_xyz
x,y,z
-x,y,-z
1/2+x,1/2+y,z
1/2-x,1/2+y,-z
loop_
_atom_site_type_symbol
_atom_site_label
_atom_site_fract_x
_atom_site_fract_y
_atom_site_fract_z
Si Si1 0.119732 0.417490 0.659392
Si Si2 0.698540 0.006628 0.888205
Si Si3 0.592417 0.110249 0.394704
Si Si4 0.222208 0.251921 0.246393
Si Si5 0.922773 0.136042 0.752511
Si Si6 0.500000 0.732618 0.000000
Si Si7 0.155072 0.868970 0.199783
O O1 0.130517 0.455317 0.857908
O O2 0.106936 0.548022 0.573039
O O3 0.195101 0.343113 0.454079
O O4 0.046220 0.319184 0.775862
O O5 0.751252 0.118177 0.711478
O O6 0.764026 0.897311 0.809823
O O7 0.655571 0.046041 0.150627
O O8 0.500000 0.076210 0.500000
O O9 0.603276 0.261104 0.388266
O O10 0.151642 0.228086 0.196488
O O11 0.307987 0.310161 0.046592
O O12 0.942957 0.151802 0.945553
O O13 0.000000 0.166629 0.500000
O O14 0.899196 0.990330 0.759240
#
# Coordination Sequence:
#
# PCOD8050592 Si02
#       7
#     4   4   4   4   4   2   4
#     4  12  24  38  66  94 127 170 217 264 321 386
#     4  10  23  41  64  94 125 165 219 263 321 382
#     4  11  24  42  65  93 131 174 208 267 326 384
#     4  10  22  41  64  93 128 167 212 270 317 383
#     4  11  23  45  67  97 129 170 218 269 328 381
#     4  12  26  38  68 102 128 174 222 270 318 400
#     4  10  22  45  66  92 133 168 213 270 326 384
#
# _framework density 20.892900000000001
#
# number of rings (size 3 to 8) (size 9 to 14) (size 15 to 20)
#    0.000    1.231    3.077    2.308    4.308    1.231 
#    0.000    3.077    0.000    0.000    0.000    0.000 
#    0.000    0.000    0.000    0.000    0.000    0.000 
#
# Total GULP energy -161090.203765 kJ/mol
# GULP energy per Si atom -12391.554136 kJ/mol
# Density = 2.084535 g / cm^3
# Si number density = 20.892900 Si / 1000 Ang^3
#
#
#
# Elastic Constant Matrix: (Units=GPa)
#
#
# Indices 1 2 3 4 5 6 
#
# 1 81.3821 25.3882 20.6694 0.0000 6.8364 0.0000
# 2 25.3882 91.7964 31.3695 0.0000 8.8605 0.0000
# 3 20.6694 31.3695 63.8953 0.0000 3.6025 0.0000
# 4 0.0000 0.0000 0.0000 29.5755 0.0000 -5.0850
# 5 6.8364 8.8605 3.6025 0.0000 35.8167 0.0000
# 6 0.0000 0.0000 0.0000 -5.0850 0.0000 26.6036
#
#
#
# Elastic Compliance Matrix: (Units=1/GPa)
#
#
# Indices 1 2 3 4 5 6 
#
# 1 0.014057 -0.002645 -0.003152 0.000000 -0.001712 0.000000
# 2 -0.002645 0.013834 -0.005805 0.000000 -0.002334 0.000000
# 3 -0.003152 -0.005805 0.019516 0.000000 0.000075 0.000000
# 4 0.000000 0.000000 0.000000 0.034961 0.000000 0.006682
# 5 -0.001712 -0.002334 0.000075 0.000000 0.028816 0.000000
# 6 0.000000 0.000000 0.000000 0.006682 0.000000 0.038866
#
#
# Mechanical properties :
#
#
# Convention : Reuss Voigt Hill
#
# Bulk Modulus (GPa) = 41.31701 43.54755 42.43228
# Shear Modulus (GPa) = 27.57518 29.04229 28.30873
#
# Velocity S-wave (km/s) = 3.63689 3.73239 3.68495
# Velocity P-wave (km/s) = 6.12001 6.28194 6.20151
#
# Compressibility (1/GPa) = 0.02420310
#
# Stress axis : x y z
#
# Youngs Moduli (GPa) = 71.13712 72.28485 51.24053
#
# Poissons Ratio (x) = 0.19123 0.16151
# Poissons Ratio (y) = 0.18819 0.29743
# Poissons Ratio (z) = 0.22423 0.41958
#
# Static dielectric constant tensor:
#      x y z
#    x 3.704870 0.000000 -0.177470 
#    y 0.000000 4.098430 0.000000 
#    z -0.177470 0.000000 3.708330 
# 
# 
# High freq. dielectric constant tensor:
#      x y z
#    x 1.813710 0.000000 -0.016710 
#    y 0.000000 1.835820 0.000000 
#    z -0.016710 0.000000 1.806820 
# 
# From -- ./inp_files/9530.got.cif
#   From: 2010.03.12/outbox.cif.g09.slc.cpg/sg5_5_cif.got.tgz:9530.got - 2010.03.31 09:47:26.
