data_PCOD8050084
_publ_section_title
;
Structure prediction by ZEFSAII (Michael W. Deem and Ramdas Pophale) SiO2 
 PCOD8050084
Probable space group: C 2
;
_chemical_formula_sum "Si O2"
_cell_formula_units_Z 26
_cell_length_a 12.888386
_cell_length_b 13.995611
_cell_length_c 10.979731
_cell_angle_alpha 90.000000
_cell_angle_beta 39.574347
_cell_angle_gamma 90.000000
_cell_volume 1261.755916
_symmetry_space_group_name_H-M "C 2"
_symmetry_group_IT_number 5
_symmetry_cell_setting 'monoclinic'
loop_
_space_group_symop_operation_xyz
x,y,z
-x,y,-z
1/2+x,1/2+y,z
1/2-x,1/2+y,-z
loop_
_atom_site_type_symbol
_atom_site_label
_atom_site_fract_x
_atom_site_fract_y
_atom_site_fract_z
Si Si1 0.500000 0.441310 0.000000
Si Si2 0.000000 0.321948 0.000000
Si Si3 0.338155 0.265662 0.265522
Si Si4 0.195122 0.722271 0.964702
Si Si5 0.000000 0.739631 0.500000
Si Si6 0.918316 0.059695 0.858734
Si Si7 0.308716 0.376312 0.844883
Si Si8 0.807809 0.197736 0.361596
O O1 0.610382 0.375431 0.810819
O O2 0.389981 0.511281 0.016231
O O3 0.144192 0.389818 0.916313
O O4 0.061718 0.255720 0.834937
O O5 0.245008 0.223861 0.230479
O O6 0.225068 0.259055 0.486263
O O7 0.500943 0.203209 0.142903
O O8 0.285600 0.642692 0.962152
O O9 0.230804 0.827371 0.989134
O O10 0.934267 0.805780 0.666629
O O11 0.855311 0.676648 0.570453
O O12 0.103865 0.098895 0.680881
O O13 0.891326 0.979673 0.780177
#
# Coordination Sequence:
#
# PCOD8050084 Si02
#       8
#     2   2   4   4   2   4   4   4
#     4  10  21  40  67  96 128 178 225 272 321 406
#     4  10  23  40  65  96 134 170 225 266 347 384
#     4  10  21  44  65  87 139 187 213 267 354 389
#     4  10  21  40  64  92 132 176 214 280 333 392
#     4  10  22  40  68  86 136 172 218 272 348 378
#     4  12  23  37  69  99 130 173 233 268 334 396
#     4  11  21  43  63  96 130 177 211 286 331 393
#     4  11  22  38  69  99 129 180 223 274 331 407
#
# _framework density 20.606204000000002
#
# number of rings (size 3 to 8) (size 9 to 14) (size 15 to 20)
#    0.000    1.538    6.154    0.462    2.154    3.077 
#    0.000    3.077    0.000    5.538    0.000    0.000 
#    0.000    0.000    0.000    0.000    0.000    0.000 
#
# Total GULP energy -161137.510929 kJ/mol
# GULP energy per Si atom -12395.193148 kJ/mol
# Density = 2.055930 g / cm^3
# Si number density = 20.606204 Si / 1000 Ang^3
#
#
#
# Elastic Constant Matrix: (Units=GPa)
#
#
# Indices 1 2 3 4 5 6 
#
# 1 140.8058 77.8273 52.7222 0.0000 -10.1878 0.0000
# 2 77.8273 120.9216 41.3689 0.0000 -10.6565 0.0000
# 3 52.7222 41.3689 107.7319 0.0000 14.5761 0.0000
# 4 0.0000 0.0000 0.0000 20.9170 0.0000 -5.8256
# 5 -10.1878 -10.6565 14.5761 0.0000 42.9005 0.0000
# 6 0.0000 0.0000 0.0000 -5.8256 0.0000 46.9085
#
#
#
# Elastic Compliance Matrix: (Units=1/GPa)
#
#
# Indices 1 2 3 4 5 6 
#
# 1 0.012256 -0.006303 -0.003940 0.000000 0.002683 0.000000
# 2 -0.006303 0.013386 -0.002414 0.000000 0.002648 0.000000
# 3 -0.003940 -0.002414 0.012940 0.000000 -0.005932 0.000000
# 4 0.000000 0.000000 0.000000 0.049521 0.000000 0.006150
# 5 0.002683 0.002648 -0.005932 0.000000 0.026620 0.000000
# 6 0.000000 0.000000 0.000000 0.006150 0.000000 0.022082
#
#
# Mechanical properties :
#
#
# Convention : Reuss Voigt Hill
#
# Bulk Modulus (GPa) = 75.37591 79.25511 77.31551
# Shear Modulus (GPa) = 30.02257 35.31460 32.66858
#
# Velocity S-wave (km/s) = 3.82117 4.14428 3.98600
# Velocity P-wave (km/s) = 7.49180 7.83871 7.66722
#
# Compressibility (1/GPa) = 0.01326684
#
# Stress axis : x y z
#
# Youngs Moduli (GPa) = 81.59572 74.70519 77.27960
#
# Poissons Ratio (x) = 0.47090 0.30450
# Poissons Ratio (y) = 0.51433 0.18653
# Poissons Ratio (z) = 0.32150 0.18032
#
# Static dielectric constant tensor:
#      x y z
#    x 4.249050 0.000000 0.100210 
#    y 0.000000 3.518580 0.000000 
#    z 0.100210 0.000000 3.547680 
# 
# 
# High freq. dielectric constant tensor:
#      x y z
#    x 1.840990 0.000000 0.008940 
#    y 0.000000 1.777860 0.000000 
#    z 0.008940 0.000000 1.779930 
# 
# From -- ./inp_files/43047.got.cif
#   From: 2010.03.12/outbox.cif.g09.slc.cpg/sg5_22_cif.got.tgz:43047.got - 2010.03.31 09:47:26.
