data_PCOD8050666
_publ_section_title
;
Structure prediction by ZEFSAII (Michael W. Deem and Ramdas Pophale) SiO2 
 PCOD8050666
Probable space group: C 2
;
_chemical_formula_sum "Si O2"
_cell_formula_units_Z 20
_cell_length_a 10.531587
_cell_length_b 8.831453
_cell_length_c 10.860992
_cell_angle_alpha 90.000000
_cell_angle_beta 103.667998
_cell_angle_gamma 90.000000
_cell_volume 981.565531
_symmetry_space_group_name_H-M "C 2"
_symmetry_group_IT_number 5
_symmetry_cell_setting 'monoclinic'
loop_
_space_group_symop_operation_xyz
x,y,z
-x,y,-z
1/2+x,1/2+y,z
1/2-x,1/2+y,-z
loop_
_atom_site_type_symbol
_atom_site_label
_atom_site_fract_x
_atom_site_fract_y
_atom_site_fract_z
Si Si1 0.928794 0.853790 0.665552
Si Si2 0.892301 0.799053 0.075653
Si Si3 0.880142 0.440855 0.059269
Si Si4 0.500000 0.103380 0.500000
Si Si5 0.500000 0.604861 0.500000
Si Si6 0.147381 0.355949 0.678003
O O1 0.922765 0.705120 0.579840
O O2 0.803646 0.851454 0.725713
O O3 0.058011 0.851485 0.778875
O O4 0.921982 0.001535 0.578533
O O5 0.869464 0.620362 0.068463
O O6 0.755582 0.882366 0.026220
O O7 0.000000 0.848421 0.000000
O O8 0.910733 0.365183 0.198178
O O9 0.000000 0.391773 0.000000
O O10 0.607962 0.001958 0.590972
O O11 0.601131 0.705047 0.599587
#
# Coordination Sequence:
#
# PCOD8050666 Si02
#       6
#     4   4   4   2   2   4
#     4  11  22  42  67  94 126 168 215 262 317 382
#     4  11  24  44  67  93 130 171 217 266 321 377
#     4  11  26  43  66  97 128 173 214 267 320 381
#     4  10  22  42  62  94 126 172 208 260 328 368
#     4  10  26  38  64 102 124 166 214 260 314 388
#     4  11  22  44  65  92 133 165 211 267 316 376
#
# _framework density 20.375613000000001
#
# number of rings (size 3 to 8) (size 9 to 14) (size 15 to 20)
#    0.000    1.200    4.000    1.200    2.800    2.400 
#   14.400    0.000    0.000    0.000    0.000    0.000 
#    0.000    0.000    0.000    0.000    0.000    0.000 
#
# Total GULP energy -124047.210132 kJ/mol
# GULP energy per Si atom -12404.721013 kJ/mol
# Density = 2.032924 g / cm^3
# Si number density = 20.375613 Si / 1000 Ang^3
#
#
#
# Elastic Constant Matrix: (Units=GPa)
#
#
# Indices 1 2 3 4 5 6 
#
# 1 147.0942 53.5366 67.6360 0.0000 0.5440 0.0000
# 2 53.5366 116.8063 59.4254 0.0000 0.5574 0.0000
# 3 67.6360 59.4254 155.2391 0.0000 3.1359 0.0000
# 4 0.0000 0.0000 0.0000 -41.4589 0.0000 7.0769
# 5 0.5440 0.5574 3.1359 0.0000 40.1304 0.0000
# 6 0.0000 0.0000 0.0000 7.0769 0.0000 21.9583
#
#
#
# Elastic Compliance Matrix: (Units=1/GPa)
#
#
# Indices 1 2 3 4 5 6 
#
# 1 0.009133 -0.002683 -0.002955 0.000000 0.000144 0.000000
# 2 -0.002683 0.011421 -0.003206 0.000000 0.000128 0.000000
# 3 -0.002955 -0.003206 0.008969 0.000000 -0.000616 0.000000
# 4 0.000000 0.000000 0.000000 -0.022863 0.000000 0.007368
# 5 0.000144 0.000128 -0.000616 0.000000 0.024963 0.000000
# 6 0.000000 0.000000 0.000000 0.007368 0.000000 0.043166
#
#
# Mechanical properties :
#
#
# Convention : Reuss Voigt Hill
#
# Bulk Modulus (GPa) = 84.49258 86.70396 85.59827
# Shear Modulus (GPa) = 51.85490 20.02873 35.94182
#
# Velocity S-wave (km/s) = 5.05022 3.13865 4.20451
# Velocity P-wave (km/s) = 8.69275 7.46860 8.10382
#
# Compressibility (1/GPa) = 0.01183536
#
# Stress axis : x y z
#
# Youngs Moduli (GPa) = 109.49034 87.55574 111.49981
#
# Poissons Ratio (x) = 0.23495 0.32948
# Poissons Ratio (y) = 0.29381 0.35741
# Poissons Ratio (z) = 0.32354 0.28066
#
# Static dielectric constant tensor:
#      x y z
#    x 3.555480 0.000000 -0.044600 
#    y 0.000000 3.834630 0.000000 
#    z -0.044600 0.000000 3.851380 
# 
# 
# High freq. dielectric constant tensor:
#      x y z
#    x 1.792910 0.000000 0.000960 
#    y 0.000000 1.803380 0.000000 
#    z 0.000960 0.000000 1.814210 
# 
# From -- ./inp_files/18282.got.cif
#   From: 2010.03.12/outbox.cif.g09.slc.cpg/sg5_10_cif.got.tgz:18282.got - 2010.03.31 09:47:26.
