data_PCOD8050006
_publ_section_title
;
Structure prediction by ZEFSAII (Michael W. Deem and Ramdas Pophale) SiO2 
 PCOD8050006
Probable space group: C 2
;
_chemical_formula_sum "Si O2"
_cell_formula_units_Z 28
_cell_length_a 9.759257
_cell_length_b 15.281795
_cell_length_c 12.167654
_cell_angle_alpha 90.000000
_cell_angle_beta 50.291386
_cell_angle_gamma 90.000000
_cell_volume 1396.033022
_symmetry_space_group_name_H-M "C 2"
_symmetry_group_IT_number 5
_symmetry_cell_setting 'monoclinic'
loop_
_space_group_symop_operation_xyz
x,y,z
-x,y,-z
1/2+x,1/2+y,z
1/2-x,1/2+y,-z
loop_
_atom_site_type_symbol
_atom_site_label
_atom_site_fract_x
_atom_site_fract_y
_atom_site_fract_z
Si Si1 0.236104 0.101270 0.982791
Si Si2 0.806052 0.466724 0.640930
Si Si3 0.047532 0.845533 0.654395
Si Si4 0.894992 0.776055 0.947567
Si Si5 0.634869 0.918725 0.146019
Si Si6 0.773390 0.324733 0.334094
Si Si7 0.152911 0.134964 0.781036
O O1 0.339312 0.175709 0.997983
O O2 0.219032 0.142321 0.871109
O O3 0.341900 0.009719 0.932277
O O4 0.038843 0.087999 0.132597
O O5 0.645916 0.432307 0.646841
O O6 0.776577 0.430009 0.779252
O O7 0.791016 0.572357 0.645579
O O8 0.000000 0.437383 0.500000
O O9 0.180620 0.802529 0.497869
O O10 0.012266 0.782040 0.776165
O O11 0.862547 0.864857 0.686093
O O12 0.726602 0.842002 0.027694
O O13 0.000000 0.808320 0.000000
O O14 0.426687 0.897344 0.266556
O O15 0.856998 0.232479 0.258345
#
# Coordination Sequence:
#
# PCOD8050006 Si02
#       7
#     4   4   4   4   4   4   4
#     4  10  22  40  61  97 127 159 220 264 313 377
#     4  11  22  40  66  92 126 168 217 261 318 385
#     4  11  24  40  64  96 129 164 208 262 320 379
#     4  12  23  41  65  92 131 172 210 263 318 378
#     4  11  23  41  68  92 127 173 212 264 321 375
#     4  11  23  42  66  94 131 166 210 263 323 374
#     4  10  21  39  65  93 121 167 214 266 304 380
#
# _framework density 20.056832
#
# number of rings (size 3 to 8) (size 9 to 14) (size 15 to 20)
#    0.000    1.143    5.714    0.857    4.000    0.571 
#    5.143    0.000    0.000    0.000    0.000    0.000 
#    0.000    0.000    0.000    0.000    0.000    0.000 
#
# Total GULP energy -173572.361524 kJ/mol
# GULP energy per Si atom -12398.025823 kJ/mol
# Density = 2.001118 g / cm^3
# Si number density = 20.056832 Si / 1000 Ang^3
#
#
#
# Elastic Constant Matrix: (Units=GPa)
#
#
# Indices 1 2 3 4 5 6 
#
# 1 93.3939 39.5237 37.0164 0.0000 -5.3180 0.0000
# 2 39.5237 123.9581 39.2570 0.0000 -10.2200 0.0000
# 3 37.0164 39.2570 98.2093 0.0000 -4.5572 0.0000
# 4 0.0000 0.0000 0.0000 30.9838 0.0000 -4.3651
# 5 -5.3180 -10.2200 -4.5572 0.0000 25.7300 0.0000
# 6 0.0000 0.0000 0.0000 -4.3651 0.0000 31.4013
#
#
#
# Elastic Compliance Matrix: (Units=1/GPa)
#
#
# Indices 1 2 3 4 5 6 
#
# 1 0.013572 -0.003029 -0.003862 0.000000 0.000918 0.000000
# 2 -0.003029 0.010154 -0.002782 0.000000 0.002915 0.000000
# 3 -0.003862 -0.002782 0.012767 0.000000 0.000358 0.000000
# 4 0.000000 0.000000 0.000000 0.032920 0.000000 0.004576
# 5 0.000918 0.002915 0.000358 0.000000 0.040276 0.000000
# 6 0.000000 0.000000 0.000000 0.004576 0.000000 0.032482
#
#
# Mechanical properties :
#
#
# Convention : Reuss Voigt Hill
#
# Bulk Modulus (GPa) = 58.31897 60.79506 59.55702
# Shear Modulus (GPa) = 29.89848 30.94063 30.41955
#
# Velocity S-wave (km/s) = 3.86513 3.93192 3.89867
# Velocity P-wave (km/s) = 7.00421 7.14076 7.07282
#
# Compressibility (1/GPa) = 0.01714708
#
# Stress axis : x y z
#
# Youngs Moduli (GPa) = 73.68052 98.48038 78.32804
#
# Poissons Ratio (x) = 0.29825 0.30253
# Poissons Ratio (y) = 0.22315 0.21792
# Poissons Ratio (z) = 0.28458 0.27399
#
# Static dielectric constant tensor:
#      x y z
#    x 3.560680 0.000000 -0.049150 
#    y 0.000000 3.387970 0.000000 
#    z -0.049150 0.000000 3.752730 
# 
# 
# High freq. dielectric constant tensor:
#      x y z
#    x 1.775440 0.000000 -0.008800 
#    y 0.000000 1.774430 0.000000 
#    z -0.008800 0.000000 1.789230 
# 
# From -- ./inp_files/36291.got.cif
#   From: 2010.03.12/outbox.cif.g09.slc.cpg/sg5_19_cif.got.tgz:36291.got - 2010.03.31 09:47:26.
