data_PCOD8050594
_publ_section_title
;
Structure prediction by ZEFSAII (Michael W. Deem and Ramdas Pophale) SiO2 
 PCOD8050594
Probable space group: C 2
;
_chemical_formula_sum "Si O2"
_cell_formula_units_Z 28
_cell_length_a 17.022271
_cell_length_b 8.339337
_cell_length_c 14.502191
_cell_angle_alpha 90.000000
_cell_angle_beta 40.801818
_cell_angle_gamma 90.000000
_cell_volume 1345.214173
_symmetry_space_group_name_H-M "C 2"
_symmetry_group_IT_number 5
_symmetry_cell_setting 'monoclinic'
loop_
_space_group_symop_operation_xyz
x,y,z
-x,y,-z
1/2+x,1/2+y,z
1/2-x,1/2+y,-z
loop_
_atom_site_type_symbol
_atom_site_label
_atom_site_fract_x
_atom_site_fract_y
_atom_site_fract_z
Si Si1 0.500000 0.631590 0.000000
Si Si2 0.553765 0.371073 0.102744
Si Si3 0.825156 0.176395 0.390509
Si Si4 0.227236 0.336789 0.739606
Si Si5 0.446319 0.553614 0.728447
Si Si6 0.767883 0.686417 0.179932
Si Si7 0.500000 0.375026 0.500000
Si Si8 0.209731 0.839725 0.654917
O O1 0.480620 0.525263 0.927499
O O2 0.625649 0.729222 0.879795
O O3 0.614301 0.421212 0.147835
O O4 0.427800 0.287787 0.238101
O O5 0.627723 0.238632 0.981944
O O6 0.800448 0.327024 0.345099
O O7 0.779112 0.211130 0.532966
O O8 0.965829 0.146119 0.280139
O O9 0.761312 0.021149 0.401755
O O10 0.206998 0.515502 0.795231
O O11 0.369776 0.283338 0.628576
O O12 0.350688 0.680284 0.776536
O O13 0.516804 0.478276 0.578485
O O14 0.750994 0.821095 0.273312
#
# Coordination Sequence:
#
# PCOD8050594 Si02
#       8
#     2   4   4   4   4   4   2   4
#     4  12  22  42  70  98 136 174 230 280 336 400
#     4  11  22  44  64  92 140 181 215 281 346 400
#     4  11  21  42  67  93 131 177 232 271 338 406
#     4  11  23  40  69 100 131 176 232 275 334 404
#     4  10  22  41  64  94 137 178 216 278 345 392
#     4  11  23  41  67  97 133 177 225 277 347 402
#     4  10  22  44  64  98 138 176 216 288 336 390
#     4  11  21  39  64  94 128 178 221 283 331 395
#
# _framework density 20.814530999999999
#
# number of rings (size 3 to 8) (size 9 to 14) (size 15 to 20)
#    0.000    1.143    4.286    4.286    2.000    2.286 
#    0.000    2.857    0.000    1.714    0.000    0.000 
#    0.000    0.000    0.000    0.000    0.000    0.000 
#
# Total GULP energy -173440.367712 kJ/mol
# GULP energy per Si atom -12388.597694 kJ/mol
# Density = 2.076716 g / cm^3
# Si number density = 20.814531 Si / 1000 Ang^3
#
#
#
# Elastic Constant Matrix: (Units=GPa)
#
#
# Indices 1 2 3 4 5 6 
#
# 1 119.8342 35.2003 28.1925 0.0000 3.8657 0.0000
# 2 35.2003 72.2318 29.6212 0.0000 -5.0804 0.0000
# 3 28.1925 29.6212 111.2152 0.0000 -0.5695 0.0000
# 4 0.0000 0.0000 0.0000 35.8895 0.0000 11.2037
# 5 3.8657 -5.0804 -0.5695 0.0000 43.2956 0.0000
# 6 0.0000 0.0000 0.0000 11.2037 0.0000 42.0690
#
#
#
# Elastic Compliance Matrix: (Units=1/GPa)
#
#
# Indices 1 2 3 4 5 6 
#
# 1 0.010011 -0.004418 -0.001368 0.000000 -0.001430 0.000000
# 2 -0.004418 0.017628 -0.003563 0.000000 0.002416 0.000000
# 3 -0.001368 -0.003563 0.010287 0.000000 -0.000161 0.000000
# 4 0.000000 0.000000 0.000000 0.030390 0.000000 -0.008093
# 5 -0.001430 0.002416 -0.000161 0.000000 0.023506 0.000000
# 6 0.000000 0.000000 0.000000 -0.008093 0.000000 0.025926
#
#
# Mechanical properties :
#
#
# Convention : Reuss Voigt Hill
#
# Bulk Modulus (GPa) = 52.00920 54.36767 53.18843
# Shear Modulus (GPa) = 35.00065 38.26864 36.63465
#
# Velocity S-wave (km/s) = 4.10512 4.29249 4.19985
# Velocity P-wave (km/s) = 6.89279 7.12348 7.00909
#
# Compressibility (1/GPa) = 0.01922737
#
# Stress axis : x y z
#
# Youngs Moduli (GPa) = 99.89378 56.72700 97.21435
#
# Poissons Ratio (x) = 0.25061 0.13302
# Poissons Ratio (y) = 0.44132 0.34636
# Poissons Ratio (z) = 0.13668 0.20211
#
# Static dielectric constant tensor:
#      x y z
#    x 3.923880 0.000000 0.153810 
#    y 0.000000 3.588400 0.000000 
#    z 0.153810 0.000000 4.161930 
# 
# 
# High freq. dielectric constant tensor:
#      x y z
#    x 1.819090 0.000000 0.017410 
#    y 0.000000 1.787260 0.000000 
#    z 0.017410 0.000000 1.836800 
# 
# From -- ./inp_files/55754.got.cif
#   From: 2010.03.12/outbox.cif.g09.slc.cpg/sg5_28_cif.got.tgz:55754.got - 2010.03.31 09:47:26.
