data_PCOD8050416
_publ_section_title
;
Structure prediction by ZEFSAII (Michael W. Deem and Ramdas Pophale) SiO2 
 PCOD8050416
Probable space group: C 2
;
_chemical_formula_sum "Si O2"
_cell_formula_units_Z 28
_cell_length_a 20.904358
_cell_length_b 8.237693
_cell_length_c 9.217774
_cell_angle_alpha 90.000000
_cell_angle_beta 58.587431
_cell_angle_gamma 90.000000
_cell_volume 1354.689289
_symmetry_space_group_name_H-M "C 2"
_symmetry_group_IT_number 5
_symmetry_cell_setting 'monoclinic'
loop_
_space_group_symop_operation_xyz
x,y,z
-x,y,-z
1/2+x,1/2+y,z
1/2-x,1/2+y,-z
loop_
_atom_site_type_symbol
_atom_site_label
_atom_site_fract_x
_atom_site_fract_y
_atom_site_fract_z
Si Si1 0.660225 0.585760 0.176453
Si Si2 0.784238 0.417008 0.522248
Si Si3 0.500000 0.362201 0.000000
Si Si4 0.771352 0.834584 0.119668
Si Si5 0.376862 0.123955 0.195956
Si Si6 0.009792 0.109327 0.215681
Si Si7 0.655859 0.562466 0.512090
Si Si8 0.000000 0.378145 0.000000
O O1 0.711824 0.743303 0.085751
O O2 0.572866 0.635624 0.263411
O O3 0.676808 0.531952 0.320660
O O4 0.678142 0.443613 0.042895
O O5 0.773313 0.444387 0.708397
O O6 0.835393 0.557398 0.389469
O O7 0.700606 0.425516 0.550542
O O8 0.819213 0.239034 0.456813
O O9 0.561293 0.259676 0.837605
O O10 0.456953 0.477156 0.936606
O O11 0.818665 0.696342 0.148971
O O12 0.423783 0.979237 0.066600
O O13 0.932926 0.040445 0.371230
O O14 0.991860 0.276406 0.156292
#
# Coordination Sequence:
#
# PCOD8050416 Si02
#       8
#     4   4   2   4   4   4   4   2
#     4  11  25  43  64  96 138 171 219 269 340 390
#     4  11  22  41  67  97 126 169 227 269 319 389
#     4  10  22  38  66  94 128 164 226 272 324 392
#     4  11  25  44  66  97 130 178 218 275 327 394
#     4  11  20  43  63  96 130 164 226 271 323 382
#     4  11  22  40  64  97 130 177 217 266 334 392
#     4  11  24  41  68  98 129 173 219 277 329 389
#     4  10  24  34  72  98 128 174 214 280 320 398
#
# _framework density 20.668945000000001
#
# number of rings (size 3 to 8) (size 9 to 14) (size 15 to 20)
#    0.000    1.143    5.714    1.286    4.000    1.143 
#    0.000    0.000    0.000    0.000    0.000    0.000 
#    0.000    0.000    0.000    0.000    0.000    0.000 
#
# Total GULP energy -173534.909822 kJ/mol
# GULP energy per Si atom -12395.350702 kJ/mol
# Density = 2.062190 g / cm^3
# Si number density = 20.668945 Si / 1000 Ang^3
#
#
#
# Elastic Constant Matrix: (Units=GPa)
#
#
# Indices 1 2 3 4 5 6 
#
# 1 137.3845 47.9270 37.3236 0.0000 -9.2943 0.0000
# 2 47.9270 86.5218 50.6042 0.0000 0.7885 0.0000
# 3 37.3236 50.6042 94.6582 0.0000 -9.4311 0.0000
# 4 0.0000 0.0000 0.0000 37.5779 0.0000 -3.2303
# 5 -9.2943 0.7885 -9.4311 0.0000 34.9438 0.0000
# 6 0.0000 0.0000 0.0000 -3.2303 0.0000 30.7648
#
#
#
# Elastic Compliance Matrix: (Units=1/GPa)
#
#
# Indices 1 2 3 4 5 6 
#
# 1 0.009308 -0.004605 -0.000977 0.000000 0.002316 0.000000
# 2 -0.004605 0.019382 -0.008952 0.000000 -0.004078 0.000000
# 3 -0.000977 -0.008952 0.016164 0.000000 0.004305 0.000000
# 4 0.000000 0.000000 0.000000 0.026854 0.000000 0.002820
# 5 0.002316 -0.004078 0.004305 0.000000 0.030487 0.000000
# 6 0.000000 0.000000 0.000000 0.002820 0.000000 0.032801
#
#
# Mechanical properties :
#
#
# Convention : Reuss Voigt Hill
#
# Bulk Modulus (GPa) = 63.35293 65.58601 64.46947
# Shear Modulus (GPa) = 29.52892 32.83793 31.18342
#
# Velocity S-wave (km/s) = 3.78386 3.99025 3.88842
# Velocity P-wave (km/s) = 7.05748 7.28217 7.17070
#
# Compressibility (1/GPa) = 0.01578459
#
# Stress axis : x y z
#
# Youngs Moduli (GPa) = 107.43941 51.59514 61.86504
#
# Poissons Ratio (x) = 0.23761 0.06046
# Poissons Ratio (y) = 0.49479 0.55381
# Poissons Ratio (z) = 0.10500 0.46187
#
# Static dielectric constant tensor:
#      x y z
#    x 3.870310 0.000000 -0.212520 
#    y 0.000000 3.778610 0.000000 
#    z -0.212520 0.000000 3.686300 
# 
# 
# High freq. dielectric constant tensor:
#      x y z
#    x 1.814910 0.000000 -0.021530 
#    y 0.000000 1.804600 0.000000 
#    z -0.021530 0.000000 1.803740 
# 
# From -- ./inp_files/28710.got.cif
#   From: 2010.03.12/outbox.cif.g09.slc.cpg/sg5_15_cif.got.tgz:28710.got - 2010.03.31 09:47:26.
