data_PCOD8050750
_publ_section_title
;
Structure prediction by ZEFSAII (Michael W. Deem and Ramdas Pophale) SiO2 
 PCOD8050750
Probable space group: C 2
;
_chemical_formula_sum "Si O2"
_cell_formula_units_Z 22
_cell_length_a 18.556934
_cell_length_b 10.815573
_cell_length_c 5.144725
_cell_angle_alpha 90.000000
_cell_angle_beta 79.141612
_cell_angle_gamma 90.000000
_cell_volume 1014.078954
_symmetry_space_group_name_H-M "C 2"
_symmetry_group_IT_number 5
_symmetry_cell_setting 'monoclinic'
loop_
_space_group_symop_operation_xyz
x,y,z
-x,y,-z
1/2+x,1/2+y,z
1/2-x,1/2+y,-z
loop_
_atom_site_type_symbol
_atom_site_label
_atom_site_fract_x
_atom_site_fract_y
_atom_site_fract_z
Si Si1 0.192960 0.750000 0.281747
Si Si2 0.577069 0.439382 0.308176
Si Si3 0.081972 0.221116 0.347231
Si Si4 0.635286 0.126251 0.799269
Si Si5 0.353907 0.835885 0.190222
Si Si6 0.000000 0.767626 0.000000
O O1 0.144328 0.869318 0.398315
O O2 0.193182 0.666993 0.540219
O O3 0.272713 0.799607 0.151761
O O4 0.161346 0.668816 0.066433
O O5 0.500000 0.427506 0.500000
O O6 0.600350 0.580365 0.253191
O O7 0.562758 0.360305 0.060517
O O8 0.133333 0.265629 0.546576
O O9 0.000000 0.236722 0.500000
O O10 0.091094 0.297078 0.076787
O O11 0.552116 0.177108 0.790359
O O12 0.633877 0.979705 0.781487
#
# Coordination Sequence:
#
# PCOD8050750 Si02
#       6
#     4   4   4   4   4   2
#     4  11  25  43  72  97 136 176 230 275 345 393
#     4  10  22  43  69  99 128 176 228 283 324 404
#     4  11  27  45  72  99 136 179 229 278 344 399
#     4  11  25  45  69 100 133 181 225 280 338 403
#     4  12  27  46  68 103 141 179 221 283 344 403
#     4  10  22  42  72  94 136 170 238 274 338 388
#
# _framework density 21.694562000000001
#
# number of rings (size 3 to 8) (size 9 to 14) (size 15 to 20)
#    0.000    1.091    1.818    2.727   12.727    0.000 
#    0.000    0.000    0.000    0.000    0.000    0.000 
#    0.000    0.000    0.000    0.000    0.000    0.000 
#
# Total GULP energy -136322.396836 kJ/mol
# GULP energy per Si atom -12392.945167 kJ/mol
# Density = 2.164518 g / cm^3
# Si number density = 21.694562 Si / 1000 Ang^3
#
#
#
# Elastic Constant Matrix: (Units=GPa)
#
#
# Indices 1 2 3 4 5 6 
#
# 1 65.5317 67.9849 10.1663 0.0000 4.5153 0.0000
# 2 67.9849 173.8318 55.3388 0.0000 -9.6858 0.0000
# 3 10.1663 55.3388 114.1061 0.0000 -0.8248 0.0000
# 4 0.0000 0.0000 0.0000 32.4098 0.0000 -0.7271
# 5 4.5153 -9.6858 -0.8248 0.0000 28.8354 0.0000
# 6 0.0000 0.0000 0.0000 -0.7271 0.0000 26.2004
#
#
#
# Elastic Compliance Matrix: (Units=1/GPa)
#
#
# Indices 1 2 3 4 5 6 
#
# 1 0.028591 -0.012812 0.003604 0.000000 -0.008678 0.000000
# 2 -0.012812 0.012686 -0.004967 0.000000 0.006125 0.000000
# 3 0.003604 -0.004967 0.010837 0.000000 -0.001923 0.000000
# 4 0.000000 0.000000 0.000000 0.030874 0.000000 0.000857
# 5 -0.008678 0.006125 -0.001923 0.000000 0.038041 0.000000
# 6 0.000000 0.000000 0.000000 0.000857 0.000000 0.038191
#
#
# Mechanical properties :
#
#
# Convention : Reuss Voigt Hill
#
# Bulk Modulus (GPa) = 42.08127 68.93884 55.51005
# Shear Modulus (GPa) = 25.57644 32.15442 28.86543
#
# Velocity S-wave (km/s) = 3.43728 3.85404 3.65161
# Velocity P-wave (km/s) = 5.93233 7.18685 6.58951
#
# Compressibility (1/GPa) = 0.02376354
#
# Stress axis : x y z
#
# Youngs Moduli (GPa) = 34.97633 78.82702 92.27231
#
# Poissons Ratio (x) = 1.00997 -0.33252
# Poissons Ratio (y) = 0.44813 0.45828
# Poissons Ratio (z) = -0.12605 0.39150
#
# Static dielectric constant tensor:
#      x y z
#    x 4.004600 0.000000 -0.100440 
#    y 0.000000 4.141690 0.000000 
#    z -0.100440 0.000000 3.747040 
# 
# 
# High freq. dielectric constant tensor:
#      x y z
#    x 1.854650 0.000000 -0.009940 
#    y 0.000000 1.866500 0.000000 
#    z -0.009940 0.000000 1.850870 
# 
# From -- ./inp_files/9238.got.cif
#   From: 2010.03.12/outbox.cif.g09.slc.cpg/sg5_5_cif.got.tgz:9238.got - 2010.03.31 09:47:26.
