data_PCOD8050626
_publ_section_title
;
Structure prediction by ZEFSAII (Michael W. Deem and Ramdas Pophale) SiO2 
 PCOD8050626
Probable space group: C 2
;
_chemical_formula_sum "Si O2"
_cell_formula_units_Z 32
_cell_length_a 12.062264
_cell_length_b 7.338175
_cell_length_c 30.117860
_cell_angle_alpha 90.000000
_cell_angle_beta 145.909680
_cell_angle_gamma 90.000000
_cell_volume 1494.224710
_symmetry_space_group_name_H-M "C 2"
_symmetry_group_IT_number 5
_symmetry_cell_setting 'monoclinic'
loop_
_space_group_symop_operation_xyz
x,y,z
-x,y,-z
1/2+x,1/2+y,z
1/2-x,1/2+y,-z
loop_
_atom_site_type_symbol
_atom_site_label
_atom_site_fract_x
_atom_site_fract_y
_atom_site_fract_z
Si Si1 0.686720 0.531550 0.017416
Si Si2 0.214993 0.675223 0.694489
Si Si3 0.523979 0.437378 0.332506
Si Si4 0.995518 0.551783 0.701855
Si Si5 0.806598 0.725586 0.410358
Si Si6 0.368280 0.569456 0.193302
Si Si7 0.750184 0.161016 0.867560
Si Si8 0.963733 0.641281 0.034264
O O1 0.799226 0.609394 0.097949
O O2 0.832605 0.524172 0.024065
O O3 0.485899 0.638509 0.938010
O O4 0.645444 0.324363 0.015683
O O5 0.138717 0.634271 0.619187
O O6 0.452807 0.658698 0.775471
O O7 0.132647 0.878436 0.681087
O O8 0.130596 0.528510 0.702059
O O9 0.605543 0.253402 0.335314
O O10 0.704458 0.569092 0.407876
O O11 0.417229 0.567248 0.261471
O O12 0.829577 0.398112 0.646714
O O13 0.126779 0.541097 0.790432
O O14 0.000000 0.795490 0.500000
O O15 0.309586 0.369824 0.157256
O O16 0.175538 0.695814 0.125301
O O17 0.000000 0.529879 0.000000
#
# Coordination Sequence:
#
# PCOD8050626 Si02
#       8
#     4   4   4   4   4   4   4   4
#     4  11  26  44  61  96 133 175 228 290 339 399
#     4   9  22  45  64  96 133 168 221 278 324 401
#     4   8  21  45  61  97 131 165 221 273 325 394
#     4   9  22  44  67  96 133 177 224 274 332 405
#     4  11  23  41  70 104 138 175 220 268 341 413
#     4  10  22  41  68  89 121 174 224 274 335 396
#     4  10  22  45  67  92 131 179 234 278 345 399
#     4  12  27  41  63  91 128 172 223 280 347 396
#
# _framework density 21.415789
#
# number of rings (size 3 to 8) (size 9 to 14) (size 15 to 20)
#    0.750    1.250    1.250    0.750    8.750    3.500 
#    6.750    0.000    0.000    0.000    0.000    0.000 
#    0.000    0.000    0.000    0.000    0.000    0.000 
#
# Total GULP energy -198220.936704 kJ/mol
# GULP energy per Si atom -12388.808544 kJ/mol
# Density = 2.136705 g / cm^3
# Si number density = 21.415789 Si / 1000 Ang^3
#
#
#
# Elastic Constant Matrix: (Units=GPa)
#
#
# Indices 1 2 3 4 5 6 
#
# 1 153.9008 24.2039 57.0270 -0.0001 3.0651 0.0001
# 2 24.2039 44.9126 42.1334 -0.0002 5.3096 0.0003
# 3 57.0270 42.1334 134.8035 -0.0002 3.5807 0.0000
# 4 -0.0001 -0.0002 -0.0002 27.0146 0.0001 2.0661
# 5 3.0651 5.3096 3.5807 0.0001 22.7787 0.0000
# 6 0.0001 0.0003 0.0000 2.0661 0.0000 27.1761
#
#
#
# Elastic Compliance Matrix: (Units=1/GPa)
#
#
# Indices 1 2 3 4 5 6 
#
# 1 0.007784 -0.001532 -0.002808 0.000000 -0.000249 0.000000
# 2 -0.001532 0.032591 -0.009381 0.000000 -0.005916 0.000000
# 3 -0.002808 -0.009381 0.011518 0.000000 0.000754 0.000000
# 4 0.000000 0.000000 0.000000 0.037234 0.000000 -0.002831
# 5 -0.000249 -0.005916 0.000754 0.000000 0.045195 0.000000
# 6 0.000000 0.000000 0.000000 -0.002831 0.000000 0.037012
#
#
# Mechanical properties :
#
#
# Convention : Reuss Voigt Hill
#
# Bulk Modulus (GPa) = 40.89646 64.48282 52.68964
# Shear Modulus (GPa) = 24.16330 29.41071 26.78701
#
# Velocity S-wave (km/s) = 3.36265 3.70985 3.54051
# Velocity P-wave (km/s) = 5.84931 6.96606 6.43197
#
# Compressibility (1/GPa) = 0.02445199
#
# Stress axis : x y z
#
# Youngs Moduli (GPa) = 128.47134 30.68319 86.81988
#
# Poissons Ratio (x) = 0.04699 0.24375
# Poissons Ratio (y) = 0.19676 0.81450
# Poissons Ratio (z) = 0.36069 0.28785
#
# Static dielectric constant tensor:
#      x y z
#    x 4.454120 0.000000 0.112620 
#    y 0.000000 3.717340 0.000000 
#    z 0.112620 0.000000 3.899900 
# 
# 
# High freq. dielectric constant tensor:
#      x y z
#    x 1.837030 0.000000 -0.006020 
#    y 0.000000 1.837900 0.000000 
#    z -0.006020 0.000000 1.826320 
# 
# From -- ./inp_files/71758.got.cif
#   From: 2010.03.12/outbox.cif.g09.slc.cpg/sg5_36_cif.got.tgz:71758.got - 2010.03.31 09:47:26.
