data_PCOD8050492
_publ_section_title
;
Structure prediction by ZEFSAII (Michael W. Deem and Ramdas Pophale) SiO2 
 PCOD8050492
Probable space group: C 2
;
_chemical_formula_sum "Si O2"
_cell_formula_units_Z 28
_cell_length_a 13.459861
_cell_length_b 12.219801
_cell_length_c 8.966322
_cell_angle_alpha 90.000000
_cell_angle_beta 105.524574
_cell_angle_gamma 90.000000
_cell_volume 1420.946925
_symmetry_space_group_name_H-M "C 2"
_symmetry_group_IT_number 5
_symmetry_cell_setting 'monoclinic'
loop_
_space_group_symop_operation_xyz
x,y,z
-x,y,-z
1/2+x,1/2+y,z
1/2-x,1/2+y,-z
loop_
_atom_site_type_symbol
_atom_site_label
_atom_site_fract_x
_atom_site_fract_y
_atom_site_fract_z
Si Si1 0.607667 0.793490 0.626115
Si Si2 0.724866 0.399810 0.780406
Si Si3 0.109721 0.265838 0.968859
Si Si4 0.758829 0.098806 0.420399
Si Si5 0.888344 0.770067 0.514846
Si Si6 0.883242 0.015559 0.006619
Si Si7 0.200658 0.938700 0.324898
O O1 0.500000 0.812481 0.500000
O O2 0.594035 0.809264 0.796023
O O3 0.651090 0.672543 0.612953
O O4 0.689635 0.881216 0.597457
O O5 0.771048 0.500759 0.703757
O O6 0.680855 0.307438 0.653052
O O7 0.813574 0.346080 0.914524
O O8 0.633901 0.447717 0.848657
O O9 0.152031 0.141315 0.986742
O O10 0.000000 0.271356 0.000000
O O11 0.655533 0.164061 0.418905
O O12 0.804220 0.054457 0.594132
O O13 0.891152 0.865401 0.640908
O O14 0.000000 0.740020 0.500000
O O15 0.812688 0.956988 0.855022
O O16 0.000000 0.007863 0.000000
#
# Coordination Sequence:
#
# PCOD8050492 Si02
#       7
#     4   4   4   4   4   4   4
#     4  11  24  40  64  92 123 161 209 260 306 375
#     4  11  22  43  64  91 129 164 205 263 310 367
#     4  11  25  41  63  93 126 163 209 259 314 366
#     4  10  23  40  63  87 124 165 207 250 311 368
#     4  10  22  40  62  90 124 162 206 253 305 373
#     4  11  22  38  65  95 123 162 208 255 311 370
#     4  10  22  40  61  89 124 160 203 253 312 366
#
# _framework density 19.705169000000001
#
# number of rings (size 3 to 8) (size 9 to 14) (size 15 to 20)
#    0.000    1.429    2.857    1.714   10.000    2.857 
#    0.000    0.000    0.000    0.000    0.000    0.000 
#    0.000    0.000    0.000    0.000    0.000    0.000 
#
# Total GULP energy -173614.713627 kJ/mol
# GULP energy per Si atom -12401.050973 kJ/mol
# Density = 1.966032 g / cm^3
# Si number density = 19.705169 Si / 1000 Ang^3
#
#
#
# Elastic Constant Matrix: (Units=GPa)
#
#
# Indices 1 2 3 4 5 6 
#
# 1 96.2764 30.7755 32.5850 0.0000 -0.6532 0.0000
# 2 30.7755 78.3209 36.8744 0.0000 6.4074 0.0000
# 3 32.5850 36.8744 127.7651 0.0000 -1.8604 0.0000
# 4 0.0000 0.0000 0.0000 50.7257 0.0000 -31.1162
# 5 -0.6532 6.4074 -1.8604 0.0000 35.0202 0.0000
# 6 0.0000 0.0000 0.0000 -31.1162 0.0000 62.4731
#
#
#
# Elastic Compliance Matrix: (Units=1/GPa)
#
#
# Indices 1 2 3 4 5 6 
#
# 1 0.012338 -0.003983 -0.001984 0.000000 0.000854 0.000000
# 2 -0.003983 0.016369 -0.003756 0.000000 -0.003269 0.000000
# 3 -0.001984 -0.003756 0.009434 0.000000 0.001151 0.000000
# 4 0.000000 0.000000 0.000000 0.028387 0.000000 0.014139
# 5 0.000854 -0.003269 0.001151 0.000000 0.029230 0.000000
# 6 0.000000 0.000000 0.000000 0.014139 0.000000 0.023049
#
#
# Mechanical properties :
#
#
# Convention : Reuss Voigt Hill
#
# Bulk Modulus (GPa) = 53.49706 55.87023 54.68365
# Shear Modulus (GPa) = 34.60574 43.11897 38.86235
#
# Velocity S-wave (km/s) = 4.19522 4.68290 4.44575
# Velocity P-wave (km/s) = 7.11858 7.59303 7.35963
#
# Compressibility (1/GPa) = 0.01869262
#
# Stress axis : x y z
#
# Youngs Moduli (GPa) = 81.05350 61.09113 106.00250
#
# Poissons Ratio (x) = 0.24335 0.21036
# Poissons Ratio (y) = 0.32287 0.39814
# Poissons Ratio (z) = 0.16085 0.22945
#
# Static dielectric constant tensor:
#      x y z
#    x 3.457940 0.000000 -0.265880 
#    y 0.000000 3.735310 0.000000 
#    z -0.265880 0.000000 3.631090 
# 
# 
# High freq. dielectric constant tensor:
#      x y z
#    x 1.764090 0.000000 -0.023110 
#    y 0.000000 1.772730 0.000000 
#    z -0.023110 0.000000 1.777710 
# 
# From -- ./inp_files/23381.got.cif
#   From: 2010.03.12/outbox.cif.g09.slc.cpg/sg5_12_cif.got.tgz:23381.got - 2010.03.31 09:47:26.
