data_PCOD8050791
_publ_section_title
;
Structure prediction by ZEFSAII (Michael W. Deem and Ramdas Pophale) SiO2 
 PCOD8050791
Probable space group: C 2
;
_chemical_formula_sum "Si O2"
_cell_formula_units_Z 12
_cell_length_a 12.671621
_cell_length_b 5.003203
_cell_length_c 8.184208
_cell_angle_alpha 90.000000
_cell_angle_beta 125.781992
_cell_angle_gamma 90.000000
_cell_volume 420.930504
_symmetry_space_group_name_H-M "C 2"
_symmetry_group_IT_number 5
_symmetry_cell_setting 'monoclinic'
loop_
_space_group_symop_operation_xyz
x,y,z
-x,y,-z
1/2+x,1/2+y,z
1/2-x,1/2+y,-z
loop_
_atom_site_type_symbol
_atom_site_label
_atom_site_fract_x
_atom_site_fract_y
_atom_site_fract_z
Si Si1 0.369964 0.417970 0.482256
Si Si2 0.456088 0.678808 0.127727
Si Si3 0.785385 0.407274 0.236213
O O1 0.500000 0.465189 0.500000
O O2 0.415608 0.500584 0.706485
O O3 0.264320 0.628952 0.314054
O O4 0.315350 0.121322 0.407518
O O5 0.409978 0.890717 0.223571
O O6 0.500000 0.825667 0.000000
O O7 0.336938 0.474679 0.987996
#
# Coordination Sequence:
#
# PCOD8050791 Si02
#       3
#     4   4   4
#     4  10  22  43  68  97 141 184 223 285 354 410
#     4  11  25  46  76 107 139 188 242 291 351 422
#     4  11  24  45  67 100 144 180 227 290 348 414
#
# _framework density 28.508268999999999
#
# number of rings (size 3 to 8) (size 9 to 14) (size 15 to 20)
#    0.000    1.333    0.000    7.000    0.000    5.333 
#    0.000   38.333    0.000    0.000    0.000    0.000 
#    0.000    0.000    0.000    0.000    0.000    0.000 
#
# Total GULP energy -74377.022624 kJ/mol
# GULP energy per Si atom -12396.170437 kJ/mol
# Density = 2.844338 g / cm^3
# Si number density = 28.508269 Si / 1000 Ang^3
#
#
#
# Elastic Constant Matrix: (Units=GPa)
#
#
# Indices 1 2 3 4 5 6 
#
# 1 71.2346 16.6615 36.7613 0.0000 -13.3113 0.0000
# 2 16.6615 129.7607 37.8272 0.0000 0.4110 0.0000
# 3 36.7613 37.8272 150.6739 0.0000 -3.4202 0.0000
# 4 0.0000 0.0000 0.0000 45.6804 0.0000 7.5164
# 5 -13.3113 0.4110 -3.4202 0.0000 57.2336 0.0000
# 6 0.0000 0.0000 0.0000 7.5164 0.0000 22.4211
#
#
#
# Elastic Compliance Matrix: (Units=1/GPa)
#
#
# Indices 1 2 3 4 5 6 
#
# 1 0.016935 -0.001086 -0.003775 0.000000 0.003721 0.000000
# 2 -0.001086 0.008387 -0.001850 0.000000 -0.000423 0.000000
# 3 -0.003775 -0.001850 0.008014 0.000000 -0.000386 0.000000
# 4 0.000000 0.000000 0.000000 0.023169 0.000000 -0.007767
# 5 0.003721 -0.000423 -0.000386 0.000000 0.018318 0.000000
# 6 0.000000 0.000000 0.000000 -0.007767 0.000000 0.047205
#
#
# Mechanical properties :
#
#
# Convention : Reuss Voigt Hill
#
# Bulk Modulus (GPa) = 50.21624 59.35214 54.78419
# Shear Modulus (GPa) = 35.18971 42.42831 38.80901
#
# Velocity S-wave (km/s) = 3.51717 3.86201 3.69362
# Velocity P-wave (km/s) = 5.84353 6.38367 6.11956
#
# Compressibility (1/GPa) = 0.01991388
#
# Stress axis : x y z
#
# Youngs Moduli (GPa) = 59.04758 119.23760 124.78841
#
# Poissons Ratio (x) = 0.12948 0.47105
# Poissons Ratio (y) = 0.06412 0.23088
# Poissons Ratio (z) = 0.22289 0.22061
#
# Static dielectric constant tensor:
#      x y z
#    x 5.347710 0.000000 -0.200490 
#    y 0.000000 4.807420 0.000000 
#    z -0.200490 0.000000 6.307680 
# 
# 
# High freq. dielectric constant tensor:
#      x y z
#    x 2.168200 0.000000 -0.004010 
#    y 0.000000 2.122650 0.000000 
#    z -0.004010 0.000000 2.174240 
# 
# From -- ./inp_files/22262.got.cif
#   From: 2010.03.12/outbox.cif.g09.slc.cpg/sg5_12_cif.got.tgz:22262.got - 2010.03.31 09:47:26.
