data_PCOD8050780
_publ_section_title
;
Structure prediction by ZEFSAII (Michael W. Deem and Ramdas Pophale) SiO2 
 PCOD8050780
Probable space group: C 2
;
_chemical_formula_sum "Si O2"
_cell_formula_units_Z 28
_cell_length_a 12.132661
_cell_length_b 8.619882
_cell_length_c 14.328024
_cell_angle_alpha 90.000000
_cell_angle_beta 127.115093
_cell_angle_gamma 90.000000
_cell_volume 1194.905424
_symmetry_space_group_name_H-M "C 2"
_symmetry_group_IT_number 5
_symmetry_cell_setting 'monoclinic'
loop_
_space_group_symop_operation_xyz
x,y,z
-x,y,-z
1/2+x,1/2+y,z
1/2-x,1/2+y,-z
loop_
_atom_site_type_symbol
_atom_site_label
_atom_site_fract_x
_atom_site_fract_y
_atom_site_fract_z
Si Si1 0.156432 0.854360 0.991084
Si Si2 0.840328 0.549155 0.425002
Si Si3 0.638192 0.511916 0.627625
Si Si4 0.857138 0.335964 0.266765
Si Si5 0.000000 0.115886 0.000000
Si Si6 0.000000 0.609255 0.000000
Si Si7 0.285888 0.860306 0.857299
Si Si8 0.830763 0.353235 0.597364
O O1 0.253175 0.824579 0.128857
O O2 0.047127 0.714432 0.936435
O O3 0.238531 0.846762 0.938599
O O4 0.075251 0.016003 0.958492
O O5 0.807408 0.482186 0.304639
O O6 0.817073 0.400715 0.481555
O O7 0.744093 0.691653 0.410626
O O8 0.000000 0.604101 0.500000
O O9 0.500000 0.473477 0.500000
O O10 0.636359 0.682598 0.667396
O O11 0.658608 0.379803 0.719917
O O12 0.766480 0.494611 0.623201
O O13 0.007395 0.351116 0.296340
O O14 0.885495 0.215899 0.885696
O O15 0.123637 0.513592 0.107851
#
# Coordination Sequence:
#
# PCOD8050780 Si02
#       8
#     4   4   4   4   2   2   4   4
#     4  11  24  45  71 107 138 183 236 302 363 422
#     4  10  22  43  66  98 137 189 244 291 346 425
#     4  12  26  48  71 106 147 193 242 291 355 437
#     4  11  25  43  70 103 143 182 242 298 357 428
#     4  10  26  44  72 106 140 180 244 294 362 430
#     4  10  22  48  70 104 138 180 234 294 368 426
#     4  11  25  45  73 102 146 183 234 301 356 430
#     4  11  24  44  69  97 141 191 234 292 356 413
#
# _framework density 23.432817
#
# number of rings (size 3 to 8) (size 9 to 14) (size 15 to 20)
#    0.000    1.143    1.429    4.286    6.000    0.000 
#    7.714    0.000    0.000    0.000    0.000    0.000 
#    0.000    0.000    0.000    0.000    0.000    0.000 
#
# Total GULP energy -173540.908902 kJ/mol
# GULP energy per Si atom -12395.779207 kJ/mol
# Density = 2.337948 g / cm^3
# Si number density = 23.432817 Si / 1000 Ang^3
#
#
#
# Elastic Constant Matrix: (Units=GPa)
#
#
# Indices 1 2 3 4 5 6 
#
# 1 155.5698 72.0564 54.2854 0.0000 -0.3385 0.0000
# 2 72.0564 116.8211 43.3889 0.0000 15.1905 0.0000
# 3 54.2854 43.3889 127.1200 0.0000 -6.1045 0.0000
# 4 0.0000 0.0000 0.0000 198.6021 0.0000 965.7389
# 5 -0.3385 15.1905 -6.1045 0.0000 27.4318 0.0000
# 6 0.0000 0.0000 0.0000 965.7389 0.0000 5595.5597
#
#
#
# Elastic Compliance Matrix: (Units=1/GPa)
#
#
# Indices 1 2 3 4 5 6 
#
# 1 0.009766 -0.005589 -0.002131 0.000000 0.002741 0.000000
# 2 -0.005589 0.014185 -0.002866 0.000000 -0.008562 0.000000
# 3 -0.002131 -0.002866 0.009936 0.000000 0.003772 0.000000
# 4 0.000000 0.000000 0.000000 0.031323 0.000000 -0.005406
# 5 0.002741 -0.008562 0.003772 0.000000 0.042069 0.000000
# 6 0.000000 0.000000 0.000000 -0.005406 0.000000 0.001112
#
#
# Mechanical properties :
#
#
# Convention : Reuss Voigt Hill
#
# Bulk Modulus (GPa) = 78.64790 82.10803 80.37797
# Shear Modulus (GPa) = 37.36855 1179.63740 608.50298
#
# Velocity S-wave (km/s) = 3.99771 22.46120 16.13207
# Velocity P-wave (km/s) = 7.41249 26.60432 19.52863
#
# Compressibility (1/GPa) = 0.01271490
#
# Stress axis : x y z
#
# Youngs Moduli (GPa) = 102.39333 70.49622 100.64177
#
# Poissons Ratio (x) = 0.39398 0.21451
# Poissons Ratio (y) = 0.57225 0.28846
# Poissons Ratio (z) = 0.21824 0.20206
#
# Static dielectric constant tensor:
#      x y z
#    x 4.392980 0.000000 0.177640 
#    y 0.000000 4.407990 0.000000 
#    z 0.177640 0.000000 3.928110 
# 
# 
# High freq. dielectric constant tensor:
#      x y z
#    x 1.941160 0.000000 0.002200 
#    y 0.000000 1.941060 0.000000 
#    z 0.002200 0.000000 1.918580 
# 
# From -- ./inp_files/52527.got.cif
#   From: 2010.03.12/outbox.cif.g09.slc.cpg/sg5_27_cif.got.tgz:52527.got - 2010.03.31 09:47:26.
