data_PCOD8050987
_publ_section_title
;
Structure prediction by ZEFSAII (Michael W. Deem and Ramdas Pophale) SiO2 
 PCOD8050987
Probable space group: C 2
;
_chemical_formula_sum "Si O2"
_cell_formula_units_Z 32
_cell_length_a 15.433998
_cell_length_b 21.363832
_cell_length_c 14.872713
_cell_angle_alpha 90.000000
_cell_angle_beta 161.107030
_cell_angle_gamma 90.000000
_cell_volume 1587.911980
_symmetry_space_group_name_H-M "C 2"
_symmetry_group_IT_number 5
_symmetry_cell_setting 'monoclinic'
loop_
_space_group_symop_operation_xyz
x,y,z
-x,y,-z
1/2+x,1/2+y,z
1/2-x,1/2+y,-z
loop_
_atom_site_type_symbol
_atom_site_label
_atom_site_fract_x
_atom_site_fract_y
_atom_site_fract_z
Si Si1 0.335539 0.754620 0.931139
Si Si2 0.865371 0.012948 0.200151
Si Si3 0.415570 0.590409 0.724171
Si Si4 0.552298 0.214837 0.150675
Si Si5 0.368105 0.069943 0.780726
Si Si6 0.486900 0.715406 0.271309
Si Si7 0.398664 0.126832 0.305427
Si Si8 0.765504 0.893128 0.203389
O O1 0.098922 0.702604 0.699627
O O2 0.206077 0.823057 0.806890
O O3 0.500000 0.744477 0.000000
O O4 0.509206 0.746516 0.193303
O O5 0.010149 0.022749 0.245101
O O6 0.073412 0.040685 0.478411
O O7 0.793827 0.940366 0.147167
O O8 0.584176 0.050506 0.917085
O O9 0.471519 0.640812 0.699894
O O10 0.101691 0.595854 0.434703
O O11 0.595706 0.603908 0.989085
O O12 0.647935 0.144255 0.227119
O O13 0.795158 0.245684 0.446588
O O14 0.500000 0.245322 0.000000
O O15 0.299016 0.225309 0.964826
O O16 0.500000 0.040017 0.000000
O O17 0.500000 0.102800 0.500000
O O18 0.000000 0.908836 0.500000
O O19 0.500000 0.902878 0.000000
#
# Coordination Sequence:
#
# PCOD8050987 Si02
#       8
#     4   4   4   4   4   4   4   4
#     4  10  23  40  62  87 119 159 208 249 293 354
#     4  12  21  35  52  80 116 151 190 235 281 342
#     4  11  21  33  53  82 113 144 190 235 294 364
#     4  11  21  34  52  82 116 153 194 233 288 362
#     4  11  20  32  51  75 111 155 188 222 274 342
#     4  11  20  36  55  82 115 154 193 244 298 347
#     4  11  21  36  56  81 111 148 184 244 304 350
#     4  11  24  40  57  83 119 162 205 236 275 349
#
# _framework density 20.152249999999999
#
# number of rings (size 3 to 8) (size 9 to 14) (size 15 to 20)
#    0.000    1.000    2.500    7.125    0.000    6.000 
#    0.000    0.000    0.000    0.000    0.000    3.500 
#    0.000    0.000    0.000    0.000    0.000    0.000 
#
# Total GULP energy -198293.622759 kJ/mol
# GULP energy per Si atom -12393.351422 kJ/mol
# Density = 2.010638 g / cm^3
# Si number density = 20.152250 Si / 1000 Ang^3
#
#
#
# Elastic Constant Matrix: (Units=GPa)
#
#
# Indices 1 2 3 4 5 6 
#
# 1 103.8256 26.5454 23.8025 -0.0010 -12.3956 -0.0043
# 2 26.5454 62.5260 -9.5800 0.0004 8.2931 -0.0074
# 3 23.8025 -9.5800 83.8005 0.0042 -6.9603 -0.0264
# 4 -0.0010 0.0004 0.0042 17.5520 0.0008 3.7457
# 5 -12.3956 8.2931 -6.9603 0.0008 46.7047 -0.0041
# 6 -0.0043 -0.0074 -0.0264 3.7457 -0.0041 19.3864
#
#
#
# Elastic Compliance Matrix: (Units=1/GPa)
#
#
# Indices 1 2 3 4 5 6 
#
# 1 0.012692 -0.006526 -0.004025 0.000003 0.003927 -0.000005
# 2 -0.006526 0.019963 0.003744 -0.000004 -0.004719 0.000011
# 3 -0.004025 0.003744 0.013528 -0.000008 0.000283 0.000021
# 4 0.000003 -0.000004 -0.000008 0.059424 -0.000002 -0.011481
# 5 0.003927 -0.004719 0.000283 -0.000002 0.023334 0.000005
# 6 -0.000005 0.000011 0.000021 -0.011481 0.000005 0.053801
#
#
# Mechanical properties :
#
#
# Convention : Reuss Voigt Hill
#
# Bulk Modulus (GPa) = 30.70365 36.85421 33.77893
# Shear Modulus (GPa) = 24.13003 30.68757 27.40880
#
# Velocity S-wave (km/s) = 3.46408 3.90652 3.69194
# Velocity P-wave (km/s) = 5.59184 6.21896 5.91372
#
# Compressibility (1/GPa) = 0.03256942
#
# Stress axis : x y z
#
# Youngs Moduli (GPa) = 78.79251 50.09183 73.92191
#
# Poissons Ratio (x) = 0.32689 0.29751
# Poissons Ratio (y) = 0.51418 -0.27675
# Poissons Ratio (z) = 0.31712 -0.18754
#
# Static dielectric constant tensor:
#      x y z
#    x 3.758580 0.000000 -0.120820 
#    y 0.000000 3.329000 0.000000 
#    z -0.120820 0.000000 3.968850 
# 
# 
# High freq. dielectric constant tensor:
#      x y z
#    x 1.786590 0.000000 -0.003060 
#    y 0.000000 1.724780 0.000000 
#    z -0.003060 0.000000 1.811740 
# 
# From -- ./inp_files/55048.got.cif
#   From: 2010.03.12/outbox.cif.g09.slc.cpg/sg5_28_cif.got.tgz:55048.got - 2010.03.31 09:47:26.
