data_PCOD8050141
_publ_section_title
;
Structure prediction by ZEFSAII (Michael W. Deem and Ramdas Pophale) SiO2 
 PCOD8050141
Probable space group: C 2
;
_chemical_formula_sum "Si O2"
_cell_formula_units_Z 32
_cell_length_a 14.728415
_cell_length_b 23.156045
_cell_length_c 8.702050
_cell_angle_alpha 90.000000
_cell_angle_beta 149.059442
_cell_angle_gamma 90.000000
_cell_volume 1525.915779
_symmetry_space_group_name_H-M "C 2"
_symmetry_group_IT_number 5
_symmetry_cell_setting 'monoclinic'
loop_
_space_group_symop_operation_xyz
x,y,z
-x,y,-z
1/2+x,1/2+y,z
1/2-x,1/2+y,-z
loop_
_atom_site_type_symbol
_atom_site_label
_atom_site_fract_x
_atom_site_fract_y
_atom_site_fract_z
Si Si1 0.987885 0.976770 0.309631
Si Si2 0.813900 0.909110 0.810942
Si Si3 0.041825 0.601320 0.899986
Si Si4 0.140453 0.703370 0.825824
Si Si5 0.921380 0.097593 0.532954
Si Si6 0.356119 0.983480 0.670626
Si Si7 0.178825 0.283771 0.672341
Si Si8 0.992278 0.201343 0.810536
O O1 0.169534 0.976217 0.481114
O O2 0.000000 0.952150 0.500000
O O3 0.939862 0.045280 0.240324
O O4 0.834081 0.939507 0.006579
O O5 0.653157 0.940936 0.489483
O O6 0.775181 0.841931 0.766627
O O7 0.000000 0.917604 0.000000
O O8 0.054028 0.645222 0.774391
O O9 0.901690 0.548592 0.675065
O O10 0.232125 0.571389 0.208234
O O11 0.000000 0.635153 0.000000
O O12 0.000000 0.729183 0.500000
O O13 0.182796 0.747931 0.023443
O O14 0.315736 0.692174 0.983035
O O15 0.000000 0.134595 0.500000
O O16 0.899284 0.139158 0.648075
O O17 0.500000 0.960730 0.000000
O O18 0.000000 0.299239 0.500000
O O19 0.127575 0.249687 0.443439
O O20 0.000000 0.216692 0.000000
#
# Coordination Sequence:
#
# PCOD8050141 Si02
#       8
#     4   4   4   4   4   4   4   4
#     4  10  22  39  63  90 127 168 208 256 313 372
#     4  10  24  43  67  92 121 169 216 258 311 377
#     4  11  21  39  64  94 134 168 202 259 320 374
#     4  11  25  41  64  97 128 164 212 264 315 381
#     4  11  19  40  65  90 132 170 203 256 319 379
#     4  10  21  41  60  91 129 165 207 259 311 373
#     4  10  23  48  65  87 130 166 210 265 317 369
#     4  11  24  41  67  94 125 171 212 257 321 380
#
# _framework density 20.971012000000002
#
# number of rings (size 3 to 8) (size 9 to 14) (size 15 to 20)
#    0.000    1.500    5.000    0.375    1.750    6.000 
#    0.000    5.000    0.000    0.000    0.000    0.000 
#    0.000    0.000    0.000    0.000    0.000    0.000 
#
# Total GULP energy -198250.558140 kJ/mol
# GULP energy per Si atom -12390.659884 kJ/mol
# Density = 2.092328 g / cm^3
# Si number density = 20.971012 Si / 1000 Ang^3
#
#
#
# Elastic Constant Matrix: (Units=GPa)
#
#
# Indices 1 2 3 4 5 6 
#
# 1 100.6582 47.8634 48.0910 0.0000 -26.4858 0.0000
# 2 47.8634 113.3835 67.4388 0.0000 -24.0742 0.0000
# 3 48.0910 67.4388 135.1832 0.0000 -32.7952 0.0000
# 4 0.0000 0.0000 0.0000 26.1207 0.0000 0.0848
# 5 -26.4858 -24.0742 -32.7952 0.0000 40.6307 0.0000
# 6 0.0000 0.0000 0.0000 0.0848 0.0000 25.4154
#
#
#
# Elastic Compliance Matrix: (Units=1/GPa)
#
#
# Indices 1 2 3 4 5 6 
#
# 1 0.013986 -0.003657 -0.001822 0.000000 0.005480 0.000000
# 2 -0.003657 0.013790 -0.005191 0.000000 0.001597 0.000000
# 3 -0.001822 -0.005191 0.011939 0.000000 0.005373 0.000000
# 4 0.000000 0.000000 0.000000 0.038284 0.000000 -0.000128
# 5 0.005480 0.001597 0.005373 0.000000 0.033467 0.000000
# 6 0.000000 0.000000 0.000000 -0.000128 0.000000 0.039347
#
#
# Mechanical properties :
#
#
# Convention : Reuss Voigt Hill
#
# Bulk Modulus (GPa) = 54.42201 75.11236 64.76719
# Shear Modulus (GPa) = 28.04635 30.82213 29.43424
#
# Velocity S-wave (km/s) = 3.66100 3.83789 3.75049
# Velocity P-wave (km/s) = 6.62404 7.45213 7.05025
#
# Compressibility (1/GPa) = 0.01837492
#
# Stress axis : x y z
#
# Youngs Moduli (GPa) = 71.50185 72.51643 83.76213
#
# Poissons Ratio (x) = 0.26518 0.15259
# Poissons Ratio (y) = 0.26147 0.43481
# Poissons Ratio (z) = 0.13025 0.37644
#
# Static dielectric constant tensor:
#      x y z
#    x 4.008140 0.000000 -0.150140 
#    y 0.000000 3.614370 0.000000 
#    z -0.150140 0.000000 4.043900 
# 
# 
# High freq. dielectric constant tensor:
#      x y z
#    x 1.828760 0.000000 -0.000030 
#    y 0.000000 1.802150 0.000000 
#    z -0.000030 0.000000 1.822100 
# 
# From -- ./inp_files/25617.got.cif
#   From: 2010.03.12/outbox.cif.g09.slc.cpg/sg5_13_cif.got.tgz:25617.got - 2010.03.31 09:47:26.
