data_PCOD8050739
_publ_section_title
;
Structure prediction by ZEFSAII (Michael W. Deem and Ramdas Pophale) SiO2 
 PCOD8050739
Probable space group: C 2
;
_chemical_formula_sum "Si O2"
_cell_formula_units_Z 22
_cell_length_a 5.384377
_cell_length_b 23.991328
_cell_length_c 7.781833
_cell_angle_alpha 90.000000
_cell_angle_beta 107.391415
_cell_angle_gamma 90.000000
_cell_volume 959.289762
_symmetry_space_group_name_H-M "C 2"
_symmetry_group_IT_number 5
_symmetry_cell_setting 'monoclinic'
loop_
_space_group_symop_operation_xyz
x,y,z
-x,y,-z
1/2+x,1/2+y,z
1/2-x,1/2+y,-z
loop_
_atom_site_type_symbol
_atom_site_label
_atom_site_fract_x
_atom_site_fract_y
_atom_site_fract_z
Si Si1 0.213477 0.548060 0.393090
Si Si2 0.000000 0.231732 0.000000
Si Si3 0.104173 0.881610 0.208926
Si Si4 0.482544 0.266873 0.295779
Si Si5 0.303838 0.159016 0.814009
Si Si6 0.399348 0.935460 0.790055
O O1 0.500000 0.526026 0.500000
O O2 0.277111 0.605970 0.311662
O O3 0.105343 0.501714 0.241582
O O4 0.000000 0.557002 0.500000
O O5 0.930232 0.190219 0.140954
O O6 0.211606 0.272016 0.132783
O O7 0.385785 0.910245 0.297879
O O8 0.153753 0.815422 0.244213
O O9 0.883321 0.905767 0.295008
O O10 0.000000 0.896502 0.000000
O O11 0.500000 0.279493 0.500000
O O12 0.578377 0.204357 0.290200
O O13 0.500000 0.138248 0.000000
O O14 0.500000 0.923408 0.000000
#
# Coordination Sequence:
#
# PCOD8050739 Si02
#       6
#     4   2   4   4   4   4
#     4  12  27  44  70 101 143 180 233 300 352 423
#     4  10  24  44  70 100 148 182 244 284 358 432
#     4  10  22  42  71 100 135 184 234 284 346 420
#     4  11  25  42  69 105 142 186 233 294 357 426
#     4  10  24  44  68  99 136 187 235 290 350 427
#     4  10  23  45  70  96 135 185 232 282 346 419
#
# _framework density 22.933633
#
# number of rings (size 3 to 8) (size 9 to 14) (size 15 to 20)
#    0.000    1.455    0.000    3.818   14.000    2.182 
#    4.909    0.000    0.000    0.000    0.000    0.000 
#    0.000    0.000    0.000    0.000    0.000    0.000 
#
# Total GULP energy -136308.302868 kJ/mol
# GULP energy per Si atom -12391.663897 kJ/mol
# Density = 2.288144 g / cm^3
# Si number density = 22.933633 Si / 1000 Ang^3
#
#
#
# Elastic Constant Matrix: (Units=GPa)
#
#
# Indices 1 2 3 4 5 6 
#
# 1 151.3390 34.6442 35.5158 0.0000 0.2768 0.0000
# 2 34.6442 120.0673 33.5496 0.0000 17.4031 0.0000
# 3 35.5158 33.5496 63.7704 0.0000 -2.0152 0.0000
# 4 0.0000 0.0000 0.0000 19.2611 0.0000 9.1184
# 5 0.2768 17.4031 -2.0152 0.0000 14.8566 0.0000
# 6 0.0000 0.0000 0.0000 9.1184 0.0000 40.6958
#
#
#
# Elastic Compliance Matrix: (Units=1/GPa)
#
#
# Indices 1 2 3 4 5 6 
#
# 1 0.007759 -0.001389 -0.003559 0.000000 0.001000 0.000000
# 2 -0.001389 0.012848 -0.006488 0.000000 -0.015904 0.000000
# 3 -0.003559 -0.006488 0.021411 0.000000 0.010570 0.000000
# 4 0.000000 0.000000 0.000000 0.058079 0.000000 -0.013013
# 5 0.001000 -0.015904 0.010570 0.000000 0.087355 0.000000
# 6 0.000000 0.000000 0.000000 -0.013013 0.000000 0.027488
#
#
# Mechanical properties :
#
#
# Convention : Reuss Voigt Hill
#
# Bulk Modulus (GPa) = 52.23239 60.28842 56.26041
# Shear Modulus (GPa) = 20.47562 30.39384 25.43473
#
# Velocity S-wave (km/s) = 2.99125 3.64441 3.33387
# Velocity P-wave (km/s) = 5.89534 6.63734 6.27731
#
# Compressibility (1/GPa) = 0.01914521
#
# Stress axis : x y z
#
# Youngs Moduli (GPa) = 128.88164 77.83558 46.70599
#
# Poissons Ratio (x) = 0.10814 0.16621
# Poissons Ratio (y) = 0.17907 0.30302
# Poissons Ratio (z) = 0.45865 0.50499
#
# Static dielectric constant tensor:
#      x y z
#    x 4.512390 0.000000 -0.142610 
#    y 0.000000 3.934880 0.000000 
#    z -0.142610 0.000000 3.783280 
# 
# 
# High freq. dielectric constant tensor:
#      x y z
#    x 1.910400 0.000000 -0.002890 
#    y 0.000000 1.914900 0.000000 
#    z -0.002890 0.000000 1.899480 
# 
# From -- ./inp_files/12576.got.cif
#   From: 2010.03.12/outbox.cif.g09.slc.cpg/sg5_7_cif.got.tgz:12576.got - 2010.03.31 09:47:26.
