data_PCOD8050146
_publ_section_title
;
Structure prediction by ZEFSAII (Michael W. Deem and Ramdas Pophale) SiO2 
 PCOD8050146
Probable space group: C 2
;
_chemical_formula_sum "Si O2"
_cell_formula_units_Z 32
_cell_length_a 10.263042
_cell_length_b 9.504429
_cell_length_c 25.684014
_cell_angle_alpha 90.000000
_cell_angle_beta 140.251842
_cell_angle_gamma 90.000000
_cell_volume 1601.944143
_symmetry_space_group_name_H-M "C 2"
_symmetry_group_IT_number 5
_symmetry_cell_setting 'monoclinic'
loop_
_space_group_symop_operation_xyz
x,y,z
-x,y,-z
1/2+x,1/2+y,z
1/2-x,1/2+y,-z
loop_
_atom_site_type_symbol
_atom_site_label
_atom_site_fract_x
_atom_site_fract_y
_atom_site_fract_z
Si Si1 0.946084 0.239040 0.322494
Si Si2 0.942255 0.036371 0.847052
Si Si3 0.835052 0.568113 0.407143
Si Si4 0.507159 0.237859 0.149671
Si Si5 0.696725 0.524476 0.084152
Si Si6 0.319187 0.235493 0.978527
Si Si7 0.955272 0.568260 0.329319
Si Si8 0.165820 0.239264 0.594021
O O1 0.746227 0.199479 0.226951
O O2 0.997943 0.403486 0.333681
O O3 0.914975 0.197911 0.373515
O O4 0.128444 0.152524 0.353151
O O5 0.856186 0.969378 0.874483
O O6 0.761386 0.114345 0.761421
O O7 0.118123 0.145582 0.911005
O O8 0.018867 0.899312 0.838054
O O9 0.941288 0.608180 0.385512
O O10 0.781633 0.403631 0.393274
O O11 0.000000 0.613973 0.500000
O O12 0.386602 0.129028 0.149190
O O13 0.400178 0.225472 0.061393
O O14 0.737356 0.392642 0.058191
O O15 0.500000 0.606808 0.000000
O O16 0.500000 0.169343 0.000000
O O17 0.129645 0.654821 0.354462
O O18 0.000000 0.195550 0.500000
#
# Coordination Sequence:
#
# PCOD8050146 Si02
#       8
#     4   4   4   4   4   4   4   4
#     4  10  23  38  59  89 120 149 191 243 285 340
#     4  11  23  40  57  83 117 149 192 239 280 335
#     4  10  22  40  61  88 119 150 189 237 289 347
#     4  11  21  39  58  82 116 150 190 236 283 332
#     4  11  21  39  57  79 113 150 194 236 281 330
#     4  11  22  38  58  81 113 154 191 234 282 333
#     4  10  23  38  60  89 117 152 193 238 286 343
#     4  10  21  41  62  86 118 152 190 235 289 350
#
# _framework density 19.975726999999999
#
# number of rings (size 3 to 8) (size 9 to 14) (size 15 to 20)
#    0.000    1.500    3.750    1.500    1.750    3.000 
#    2.250    0.000    0.000    0.000    0.000    0.000 
#    0.000    0.000    0.000    0.000    0.000    0.000 
#
# Total GULP energy -198358.621324 kJ/mol
# GULP energy per Si atom -12397.413833 kJ/mol
# Density = 1.993026 g / cm^3
# Si number density = 19.975727 Si / 1000 Ang^3
#
#
#
# Elastic Constant Matrix: (Units=GPa)
#
#
# Indices 1 2 3 4 5 6 
#
# 1 57.8130 34.2629 6.0377 0.0000 12.4432 0.0000
# 2 34.2629 72.8062 34.3279 0.0000 22.5404 0.0000
# 3 6.0377 34.3279 107.4277 0.0000 11.9229 0.0000
# 4 0.0000 0.0000 0.0000 33.9418 0.0000 9.5586
# 5 12.4432 22.5404 11.9229 0.0000 34.7378 0.0000
# 6 0.0000 0.0000 0.0000 9.5586 0.0000 22.1998
#
#
#
# Elastic Compliance Matrix: (Units=1/GPa)
#
#
# Indices 1 2 3 4 5 6 
#
# 1 0.024737 -0.012400 0.002768 0.000000 -0.001765 0.000000
# 2 -0.012400 0.025695 -0.006400 0.000000 -0.010034 0.000000
# 3 0.002768 -0.006400 0.011277 0.000000 -0.000709 0.000000
# 4 0.000000 0.000000 0.000000 0.033528 0.000000 -0.014436
# 5 -0.001765 -0.010034 -0.000709 0.000000 0.036174 0.000000
# 6 0.000000 0.000000 0.000000 -0.014436 0.000000 0.051261
#
#
# Mechanical properties :
#
#
# Convention : Reuss Voigt Hill
#
# Bulk Modulus (GPa) = 33.73336 43.03377 38.38357
# Shear Modulus (GPa) = 22.26020 29.07044 25.66532
#
# Velocity S-wave (km/s) = 3.34183 3.81896 3.58833
# Velocity P-wave (km/s) = 5.64041 6.40592 6.03531
#
# Compressibility (1/GPa) = 0.02964424
#
# Stress axis : x y z
#
# Youngs Moduli (GPa) = 40.42563 38.91849 88.67747
#
# Poissons Ratio (x) = 0.48259 -0.24545
# Poissons Ratio (y) = 0.50128 0.56754
# Poissons Ratio (z) = -0.11190 0.24908
#
# Static dielectric constant tensor:
#      x y z
#    x 3.681680 0.000000 -0.051610 
#    y 0.000000 3.528310 0.000000 
#    z -0.051610 0.000000 3.972940 
# 
# 
# High freq. dielectric constant tensor:
#      x y z
#    x 1.775880 0.000000 -0.006900 
#    y 0.000000 1.769120 0.000000 
#    z -0.006900 0.000000 1.800390 
# 
# From -- ./inp_files/71761.got.cif
#   From: 2010.03.12/outbox.cif.g09.slc.cpg/sg5_36_cif.got.tgz:71761.got - 2010.03.31 09:47:26.
