data_PCOD8050770
_publ_section_title
;
Structure prediction by ZEFSAII (Michael W. Deem and Ramdas Pophale) SiO2 
 PCOD8050770
Probable space group: C 2
;
_chemical_formula_sum "Si O2"
_cell_formula_units_Z 30
_cell_length_a 18.160754
_cell_length_b 5.227905
_cell_length_c 14.652328
_cell_angle_alpha 90.000000
_cell_angle_beta 115.690942
_cell_angle_gamma 90.000000
_cell_volume 1253.612015
_symmetry_space_group_name_H-M "C 2"
_symmetry_group_IT_number 5
_symmetry_cell_setting 'monoclinic'
loop_
_space_group_symop_operation_xyz
x,y,z
-x,y,-z
1/2+x,1/2+y,z
1/2-x,1/2+y,-z
loop_
_atom_site_type_symbol
_atom_site_label
_atom_site_fract_x
_atom_site_fract_y
_atom_site_fract_z
Si Si1 0.941579 0.905450 0.147920
Si Si2 0.233547 0.743380 0.935978
Si Si3 0.307051 0.220850 0.622833
Si Si4 0.916464 0.569297 0.831391
Si Si5 0.355984 0.950545 0.479039
Si Si6 0.500000 0.237202 0.500000
Si Si7 0.884958 0.079794 0.923677
Si Si8 0.052756 0.066600 0.356258
O O1 0.857269 0.807528 0.146341
O O2 0.997357 0.653233 0.165532
O O3 0.983423 0.102926 0.241802
O O4 0.927926 0.053872 0.045359
O O5 0.290546 0.664668 0.881810
O O6 0.228176 0.501432 0.000807
O O7 0.347398 0.021500 0.716084
O O8 0.212988 0.272676 0.605226
O O9 0.367395 0.463679 0.654290
O O10 0.301662 0.134537 0.514157
O O11 0.930385 0.301700 0.891112
O O12 0.886682 0.801654 0.879514
O O13 0.422200 0.828986 0.583635
O O14 0.415201 0.079988 0.435815
O O15 0.516701 0.390923 0.417079
#
# Coordination Sequence:
#
# PCOD8050770 Si02
#       8
#     4   4   4   4   4   2   4   4
#     4  10  24  44  69  97 132 187 222 288 340 420
#     4  10  22  43  65  90 130 177 225 273 341 405
#     4  10  23  40  71  98 132 186 222 283 353 413
#     4  11  26  43  67 105 137 177 236 283 343 409
#     4  11  21  44  69  96 138 178 225 293 341 427
#     4  10  24  42  66 102 140 168 234 286 350 408
#     4  11  24  45  66  99 141 176 229 290 338 410
#     4  10  22  45  66 100 133 175 233 274 356 416
#
# _framework density 23.930847
#
# number of rings (size 3 to 8) (size 9 to 14) (size 15 to 20)
#    0.000    1.600    1.333    2.400    3.733    6.400 
#   19.200    0.000    0.000    0.000    0.000    0.000 
#    0.000    0.000    0.000    0.000    0.000    0.000 
#
# Total GULP energy -185885.584655 kJ/mol
# GULP energy per Si atom -12392.372310 kJ/mol
# Density = 2.387638 g / cm^3
# Si number density = 23.930847 Si / 1000 Ang^3
#
#
#
# Elastic Constant Matrix: (Units=GPa)
#
#
# Indices 1 2 3 4 5 6 
#
# 1 128.3795 6.7950 35.4474 0.0000 19.3468 0.0000
# 2 6.7950 65.9420 8.1255 0.0000 1.5971 0.0000
# 3 35.4474 8.1255 102.9437 0.0000 15.1959 0.0000
# 4 0.0000 0.0000 0.0000 24.0118 0.0000 -3.9438
# 5 19.3468 1.5971 15.1959 0.0000 34.6667 0.0000
# 6 0.0000 0.0000 0.0000 -3.9438 0.0000 27.9721
#
#
#
# Elastic Compliance Matrix: (Units=1/GPa)
#
#
# Indices 1 2 3 4 5 6 
#
# 1 0.009107 -0.000533 -0.002510 0.000000 -0.003958 0.000000
# 2 -0.000533 0.015346 -0.001034 0.000000 0.000044 0.000000
# 3 -0.002510 -0.001034 0.011169 0.000000 -0.003448 0.000000
# 4 0.000000 0.000000 0.000000 0.042633 0.000000 0.006011
# 5 -0.003958 0.000044 -0.003448 0.000000 0.032564 0.000000
# 6 0.000000 0.000000 0.000000 0.006011 0.000000 0.036597
#
#
# Mechanical properties :
#
#
# Convention : Reuss Voigt Hill
#
# Bulk Modulus (GPa) = 36.40623 44.22231 40.31427
# Shear Modulus (GPa) = 30.35330 33.78995 32.07163
#
# Velocity S-wave (km/s) = 3.56529 3.76171 3.66482
# Velocity P-wave (km/s) = 5.67402 6.11446 5.89835
#
# Compressibility (1/GPa) = 0.02746783
#
# Stress axis : x y z
#
# Youngs Moduli (GPa) = 109.80570 65.16284 89.53579
#
# Poissons Ratio (x) = 0.03475 0.22470
# Poissons Ratio (y) = 0.05856 0.09259
# Poissons Ratio (z) = 0.27556 0.06739
#
# Static dielectric constant tensor:
#      x y z
#    x 4.649940 0.000000 0.054200 
#    y 0.000000 4.220520 0.000000 
#    z 0.054200 0.000000 4.302200 
# 
# 
# High freq. dielectric constant tensor:
#      x y z
#    x 1.962970 0.000000 0.010600 
#    y 0.000000 1.944700 0.000000 
#    z 0.010600 0.000000 1.931560 
# 
# From -- ./inp_files/56561.got.cif
#   From: 2010.03.12/outbox.cif.g09.slc.cpg/sg5_29_cif.got.tgz:56561.got - 2010.03.31 09:47:26.
