data_PCOD8050921
_publ_section_title
;
Structure prediction by ZEFSAII (Michael W. Deem and Ramdas Pophale) SiO2 
 PCOD8050921
Probable space group: C 2
;
_chemical_formula_sum "Si O2"
_cell_formula_units_Z 30
_cell_length_a 11.935648
_cell_length_b 8.770294
_cell_length_c 13.602116
_cell_angle_alpha 90.000000
_cell_angle_beta 111.463873
_cell_angle_gamma 90.000000
_cell_volume 1325.111121
_symmetry_space_group_name_H-M "C 2"
_symmetry_group_IT_number 5
_symmetry_cell_setting 'monoclinic'
loop_
_space_group_symop_operation_xyz
x,y,z
-x,y,-z
1/2+x,1/2+y,z
1/2-x,1/2+y,-z
loop_
_atom_site_type_symbol
_atom_site_label
_atom_site_fract_x
_atom_site_fract_y
_atom_site_fract_z
Si Si1 0.045371 0.972300 0.117073
Si Si2 0.500000 0.996987 0.500000
Si Si3 0.213391 0.033141 0.895450
Si Si4 0.809292 0.261221 0.496699
Si Si5 0.086196 0.948957 0.440524
Si Si6 0.034236 0.686329 0.698711
Si Si7 0.313192 0.203193 0.742294
Si Si8 0.729193 0.701275 0.099251
O O1 0.141644 0.864322 0.200285
O O2 0.110879 0.131380 0.111873
O O3 0.930069 0.002898 0.148615
O O4 0.000000 0.895648 0.000000
O O5 0.406769 0.894164 0.529955
O O6 0.555989 0.104912 0.601565
O O7 0.244354 0.113387 0.803861
O O8 0.291454 0.879463 0.923580
O O9 0.256627 0.130246 0.001974
O O10 0.688214 0.327234 0.508355
O O11 0.785229 0.225568 0.374409
O O12 0.851732 0.110227 0.571150
O O13 0.000000 0.996392 0.500000
O O14 0.008683 0.863985 0.331231
O O15 0.157331 0.674771 0.795130
O O16 0.928190 0.612699 0.732687
#
# Coordination Sequence:
#
# PCOD8050921 Si02
#       8
#     4   2   4   4   4   4   4   4
#     4  10  22  46  68 100 142 184 224 279 344 409
#     4  12  24  46  66 106 142 180 242 296 338 428
#     4  11  24  45  71 100 146 175 230 288 340 419
#     4  11  25  44  72 102 139 185 236 289 355 418
#     4  11  24  46  70  98 139 182 234 291 353 406
#     4  11  25  45  72 100 141 189 231 291 355 409
#     4  11  24  43  70 103 138 183 227 280 352 412
#     4  11  24  46  72 103 137 187 228 282 353 408
#
# _framework density 22.639612
#
# number of rings (size 3 to 8) (size 9 to 14) (size 15 to 20)
#    0.000    1.067    2.667    4.000    1.867    0.000 
#   12.000    0.000    0.000    0.000    0.000    0.000 
#    0.000    0.000    0.000    0.000    0.000    0.000 
#
# Total GULP energy -185952.389449 kJ/mol
# GULP energy per Si atom -12396.825963 kJ/mol
# Density = 2.258808 g / cm^3
# Si number density = 22.639612 Si / 1000 Ang^3
#
#
#
# Elastic Constant Matrix: (Units=GPa)
#
#
# Indices 1 2 3 4 5 6 
#
# 1 84.2846 28.9325 8.6315 0.0000 -15.3970 0.0000
# 2 28.9325 122.5165 31.5276 0.0000 -7.9064 0.0000
# 3 8.6315 31.5276 92.2260 0.0000 7.5081 0.0000
# 4 0.0000 0.0000 0.0000 25.3142 0.0000 -4.0584
# 5 -15.3970 -7.9064 7.5081 0.0000 33.2444 0.0000
# 6 0.0000 0.0000 0.0000 -4.0584 0.0000 42.4985
#
#
#
# Elastic Compliance Matrix: (Units=1/GPa)
#
#
# Indices 1 2 3 4 5 6 
#
# 1 0.013979 -0.002685 -0.000882 0.000000 0.006035 0.000000
# 2 -0.002685 0.009743 -0.003226 0.000000 0.001802 0.000000
# 3 -0.000882 -0.003226 0.012351 0.000000 -0.003965 0.000000
# 4 0.000000 0.000000 0.000000 0.040118 0.000000 0.003831
# 5 0.006035 0.001802 -0.003965 0.000000 0.034199 0.000000
# 6 0.000000 0.000000 0.000000 0.003831 0.000000 0.023896
#
#
# Mechanical properties :
#
#
# Convention : Reuss Voigt Hill
#
# Bulk Modulus (GPa) = 44.46915 48.57893 46.52404
# Shear Modulus (GPa) = 32.18190 35.54045 33.86118
#
# Velocity S-wave (km/s) = 3.77435 3.96641 3.87157
# Velocity P-wave (km/s) = 6.21925 6.51772 6.37023
#
# Compressibility (1/GPa) = 0.02248750
#
# Stress axis : x y z
#
# Youngs Moduli (GPa) = 71.53616 102.64161 80.96466
#
# Poissons Ratio (x) = 0.27557 0.07139
# Poissons Ratio (y) = 0.19206 0.26119
# Poissons Ratio (z) = 0.06308 0.33112
#
# Static dielectric constant tensor:
#      x y z
#    x 4.320430 0.000000 -0.031880 
#    y 0.000000 4.164550 0.000000 
#    z -0.031880 0.000000 4.088720 
# 
# 
# High freq. dielectric constant tensor:
#      x y z
#    x 1.904590 0.000000 -0.002070 
#    y 0.000000 1.887050 0.000000 
#    z -0.002070 0.000000 1.893770 
# 
# From -- ./inp_files/52488.got.cif
#   From: 2010.03.12/outbox.cif.g09.slc.cpg/sg5_27_cif.got.tgz:52488.got - 2010.03.31 09:47:26.
