data_PCOD8050496
_publ_section_title
;
Structure prediction by ZEFSAII (Michael W. Deem and Ramdas Pophale) SiO2 
 PCOD8050496
Probable space group: C 2
;
_chemical_formula_sum "Si O2"
_cell_formula_units_Z 26
_cell_length_a 8.925419
_cell_length_b 10.901435
_cell_length_c 13.089214
_cell_angle_alpha 90.000000
_cell_angle_beta 108.823930
_cell_angle_gamma 90.000000
_cell_volume 1205.460987
_symmetry_space_group_name_H-M "C 2"
_symmetry_group_IT_number 5
_symmetry_cell_setting 'monoclinic'
loop_
_space_group_symop_operation_xyz
x,y,z
-x,y,-z
1/2+x,1/2+y,z
1/2-x,1/2+y,-z
loop_
_atom_site_type_symbol
_atom_site_label
_atom_site_fract_x
_atom_site_fract_y
_atom_site_fract_z
Si Si1 0.285936 0.702230 0.140423
Si Si2 0.623552 0.001352 0.615466
Si Si3 0.058195 0.056302 0.126023
Si Si4 0.000000 0.583729 0.000000
Si Si5 0.382345 0.329618 0.734909
Si Si6 0.787216 0.732678 0.271366
Si Si7 0.991160 0.418519 0.799797
O O1 0.422143 0.599361 0.175264
O O2 0.206868 0.711281 0.236487
O O3 0.369359 0.830128 0.129690
O O4 0.155527 0.669515 0.024731
O O5 0.500000 0.974590 0.500000
O O6 0.688891 0.142153 0.624748
O O7 0.767701 0.904207 0.632067
O O8 0.540890 0.988626 0.708102
O O9 0.214193 0.141993 0.168809
O O10 0.090665 0.915928 0.160124
O O11 0.000000 0.070245 0.000000
O O12 0.964912 0.507588 0.889664
O O13 0.543608 0.289357 0.718732
O O14 0.667837 0.844257 0.265116
#
# Coordination Sequence:
#
# PCOD8050496 Si02
#       7
#     4   4   4   2   4   4   4
#     4  10  24  35  54  85 121 167 206 243 299 361
#     4  10  23  44  66  90 121 160 212 267 313 367
#     4  10  23  35  54  85 128 166 208 250 296 368
#     4  12  24  34  62  90 126 164 208 248 300 376
#     4  10  22  40  62  88 123 162 208 257 310 370
#     4  10  22  41  63  90 124 163 207 257 312 370
#     4  10  24  41  59  90 128 161 204 256 312 367
#
# _framework density 21.568512999999999
#
# number of rings (size 3 to 8) (size 9 to 14) (size 15 to 20)
#    0.000    1.846    0.000    1.846   14.000    1.231 
#    0.000    0.000    0.000    0.000    0.000    0.000 
#    0.000    0.000    0.000    0.000    0.000    0.000 
#
# Total GULP energy -161104.284839 kJ/mol
# GULP energy per Si atom -12392.637295 kJ/mol
# Density = 2.151942 g / cm^3
# Si number density = 21.568513 Si / 1000 Ang^3
#
#
#
# Elastic Constant Matrix: (Units=GPa)
#
#
# Indices 1 2 3 4 5 6 
#
# 1 132.6874 44.5935 47.7284 0.0000 31.7776 0.0000
# 2 44.5935 78.1880 46.7947 0.0000 16.3748 0.0000
# 3 47.7284 46.7947 117.3154 0.0000 28.8769 0.0000
# 4 0.0000 0.0000 0.0000 26.6615 0.0000 15.4403
# 5 31.7776 16.3748 28.8769 0.0000 32.5060 0.0000
# 6 0.0000 0.0000 0.0000 15.4403 0.0000 33.6554
#
#
#
# Elastic Compliance Matrix: (Units=1/GPa)
#
#
# Indices 1 2 3 4 5 6 
#
# 1 0.011183 -0.004147 -0.000920 0.000000 -0.008026 0.000000
# 2 -0.004147 0.018604 -0.005663 0.000000 -0.000287 0.000000
# 3 -0.000920 -0.005663 0.013098 0.000000 -0.007883 0.000000
# 4 0.000000 0.000000 0.000000 0.051078 0.000000 -0.023434
# 5 -0.008026 -0.000287 -0.007883 0.000000 0.045758 0.000000
# 6 0.000000 0.000000 0.000000 -0.023434 0.000000 0.040464
#
#
# Mechanical properties :
#
#
# Convention : Reuss Voigt Hill
#
# Bulk Modulus (GPa) = 46.67339 67.38045 57.02692
# Shear Modulus (GPa) = 23.94791 31.16952 27.55871
#
# Velocity S-wave (km/s) = 3.33576 3.80562 3.57841
# Velocity P-wave (km/s) = 6.04342 7.11466 6.60081
#
# Compressibility (1/GPa) = 0.02142548
#
# Stress axis : x y z
#
# Youngs Moduli (GPa) = 89.41860 53.75153 76.34946
#
# Poissons Ratio (x) = 0.22289 0.07025
# Poissons Ratio (y) = 0.37079 0.43237
# Poissons Ratio (z) = 0.08227 0.30440
#
# Static dielectric constant tensor:
#      x y z
#    x 4.188850 0.000000 0.391040 
#    y 0.000000 4.149950 0.000000 
#    z 0.391040 0.000000 3.573860 
# 
# 
# High freq. dielectric constant tensor:
#      x y z
#    x 1.859450 0.000000 0.033860 
#    y 0.000000 1.861290 0.000000 
#    z 0.033860 0.000000 1.807140 
# 
# From -- ./inp_files/50212.got.cif
#   From: 2010.03.12/outbox.cif.g09.slc.cpg/sg5_26_cif.got.tgz:50212.got - 2010.03.31 09:47:26.
