data_PCOD8050503
_publ_section_title
;
Structure prediction by ZEFSAII (Michael W. Deem and Ramdas Pophale) SiO2 
 PCOD8050503
Probable space group: C 2
;
_chemical_formula_sum "Si O2"
_cell_formula_units_Z 22
_cell_length_a 32.420951
_cell_length_b 5.090679
_cell_length_c 13.239842
_cell_angle_alpha 90.000000
_cell_angle_beta 26.430198
_cell_angle_gamma 90.000000
_cell_volume 972.632754
_symmetry_space_group_name_H-M "C 2"
_symmetry_group_IT_number 5
_symmetry_cell_setting 'monoclinic'
loop_
_space_group_symop_operation_xyz
x,y,z
-x,y,-z
1/2+x,1/2+y,z
1/2-x,1/2+y,-z
loop_
_atom_site_type_symbol
_atom_site_label
_atom_site_fract_x
_atom_site_fract_y
_atom_site_fract_z
Si Si1 0.088118 0.531920 0.070762
Si Si2 0.000000 0.278460 0.000000
Si Si3 0.019073 0.032693 0.748733
Si Si4 0.359048 0.602744 0.699466
Si Si5 0.359949 0.104320 0.815269
Si Si6 0.306845 0.978865 0.346176
O O1 0.057475 0.229095 0.129448
O O2 0.106124 0.603524 0.145596
O O3 0.010966 0.730485 0.196213
O O4 0.180755 0.558464 0.798854
O O5 0.089328 0.453223 0.834620
O O6 0.034299 0.093412 0.833204
O O7 0.112690 0.081061 0.479800
O O8 0.400361 0.361327 0.672717
O O9 0.399995 0.863274 0.662047
O O10 0.249695 0.600200 0.944328
O O11 0.250690 0.706193 0.472648
#
# Coordination Sequence:
#
# PCOD8050503 Si02
#       6
#     4   2   4   4   4   4
#     4  11  24  42  63  98 128 163 225 272 317 410
#     4  10  26  48  66 104 144 168 236 286 314 426
#     4  11  24  42  66  93 131 172 213 269 342 374
#     4  10  22  40  62  93 123 177 206 262 340 380
#     4  10  22  41  61  92 132 157 224 267 309 412
#     4  11  25  45  69 100 134 184 228 274 347 392
#
# _framework density 22.619019999999999
#
# number of rings (size 3 to 8) (size 9 to 14) (size 15 to 20)
#    0.000    1.455    0.000    4.364    2.545   10.909 
#    6.545    0.000    0.000    0.000    0.000    0.000 
#    0.000    0.000    0.000    0.000    0.000    0.000 
#
# Total GULP energy -136405.927436 kJ/mol
# GULP energy per Si atom -12400.538858 kJ/mol
# Density = 2.256754 g / cm^3
# Si number density = 22.619020 Si / 1000 Ang^3
#
#
#
# Elastic Constant Matrix: (Units=GPa)
#
#
# Indices 1 2 3 4 5 6 
#
# 1 111.4597 22.2325 39.6518 0.0027 24.4231 -0.0077
# 2 22.2325 120.9589 36.5169 0.0034 -1.5240 -0.0099
# 3 39.6518 36.5169 107.2123 -0.0009 25.9460 0.0022
# 4 0.0027 0.0034 -0.0009 33.7942 -0.0006 10.5421
# 5 24.4231 -1.5240 25.9460 -0.0006 42.7418 0.0019
# 6 -0.0077 -0.0099 0.0022 10.5421 0.0019 24.5681
#
#
#
# Elastic Compliance Matrix: (Units=1/GPa)
#
#
# Indices 1 2 3 4 5 6 
#
# 1 0.011213 -0.001374 -0.002481 -0.000002 -0.004950 0.000005
# 2 -0.001374 0.009640 -0.003573 -0.000002 0.003298 0.000005
# 3 -0.002481 -0.003573 0.013070 0.000002 -0.006644 -0.000004
# 4 -0.000002 -0.000002 0.000002 0.034164 0.000001 -0.014660
# 5 -0.004950 0.003298 -0.006644 0.000001 0.030375 -0.000002
# 6 0.000005 0.000005 -0.000004 -0.014660 -0.000002 0.046994
#
#
# Mechanical properties :
#
#
# Convention : Reuss Voigt Hill
#
# Bulk Modulus (GPa) = 52.45018 59.60368 56.02693
# Shear Modulus (GPa) = 29.99951 36.30282 33.15116
#
# Velocity S-wave (km/s) = 3.64579 4.01055 3.83251
# Velocity P-wave (km/s) = 6.40009 6.91769 6.66392
#
# Compressibility (1/GPa) = 0.01906571
#
# Stress axis : x y z
#
# Youngs Moduli (GPa) = 89.17949 103.73196 76.51228
#
# Poissons Ratio (x) = 0.14257 0.18983
# Poissons Ratio (y) = 0.12257 0.27341
# Poissons Ratio (z) = 0.22126 0.37067
#
# Static dielectric constant tensor:
#      x y z
#    x 4.029420 0.000000 0.292070 
#    y 0.000000 4.342270 0.000000 
#    z 0.292070 0.000000 4.291390 
# 
# 
# High freq. dielectric constant tensor:
#      x y z
#    x 1.879410 0.000000 0.021950 
#    y 0.000000 1.904080 0.000000 
#    z 0.021950 0.000000 1.908170 
# 
# From -- ./inp_files/48204.got.cif
#   From: 2010.03.12/outbox.cif.g09.slc.cpg/sg5_25_cif.got.tgz:48204.got - 2010.03.31 09:47:26.
