data_PCOD8050674
_publ_section_title
;
Structure prediction by ZEFSAII (Michael W. Deem and Ramdas Pophale) SiO2 
 PCOD8050674
Probable space group: C 2
;
_chemical_formula_sum "Si O2"
_cell_formula_units_Z 28
_cell_length_a 14.051328
_cell_length_b 19.573604
_cell_length_c 9.152634
_cell_angle_alpha 90.000000
_cell_angle_beta 30.561437
_cell_angle_gamma 90.000000
_cell_volume 1279.949240
_symmetry_space_group_name_H-M "C 2"
_symmetry_group_IT_number 5
_symmetry_cell_setting 'monoclinic'
loop_
_space_group_symop_operation_xyz
x,y,z
-x,y,-z
1/2+x,1/2+y,z
1/2-x,1/2+y,-z
loop_
_atom_site_type_symbol
_atom_site_label
_atom_site_fract_x
_atom_site_fract_y
_atom_site_fract_z
Si Si1 0.054323 0.347090 0.264935
Si Si2 0.587736 0.251725 0.222502
Si Si3 0.783772 0.536145 0.273437
Si Si4 0.673654 0.639747 0.184557
Si Si5 0.708950 0.394197 0.276187
Si Si6 0.926828 0.132716 0.244047
Si Si7 0.718474 0.786654 0.592252
O O1 0.000000 0.369137 0.500000
O O2 0.860051 0.321900 0.449537
O O3 0.211982 0.288820 0.039529
O O4 0.153429 0.409818 0.045058
O O5 0.500000 0.238926 0.500000
O O6 0.445240 0.287410 0.296979
O O7 0.633706 0.181036 0.078830
O O8 0.718770 0.569387 0.207227
O O9 0.683666 0.461652 0.408487
O O10 0.732582 0.584797 0.476436
O O11 0.000000 0.521822 0.000000
O O12 0.500000 0.677338 0.500000
O O13 0.607458 0.629450 0.107523
O O14 0.500000 0.367900 0.500000
O O15 0.823143 0.333210 0.208521
O O16 0.854584 0.209012 0.300585
O O17 0.000000 0.097968 0.000000
#
# Coordination Sequence:
#
# PCOD8050674 Si02
#       7
#     4   4   4   4   4   4   4
#     4  12  25  42  64 101 139 172 232 291 343 409
#     4  12  22  39  64 100 138 178 232 283 349 411
#     4  11  25  46  70  97 138 193 232 282 352 426
#     4  10  22  42  63  98 138 183 227 289 344 404
#     4  12  24  50  72  98 137 191 237 277 359 424
#     4  11  22  40  69 102 137 179 233 286 345 407
#     4  12  23  41  72 100 139 187 227 283 350 413
#
# _framework density 21.875865999999998
#
# number of rings (size 3 to 8) (size 9 to 14) (size 15 to 20)
#    0.000    0.571    4.286    5.571    2.000    0.571 
#    0.000    6.429    0.000    0.000    0.000    0.000 
#    0.000    0.000    0.000    0.000    0.000    0.000 
#
# Total GULP energy -173439.974392 kJ/mol
# GULP energy per Si atom -12388.569599 kJ/mol
# Density = 2.182608 g / cm^3
# Si number density = 21.875866 Si / 1000 Ang^3
#
#
#
# Elastic Constant Matrix: (Units=GPa)
#
#
# Indices 1 2 3 4 5 6 
#
# 1 155.6344 37.4737 58.0057 0.0404 -3.8285 -0.0221
# 2 37.4737 113.0891 36.6895 0.0259 12.6292 -0.0186
# 3 58.0057 36.6895 98.8897 0.0410 10.2736 -0.0384
# 4 0.0404 0.0259 0.0410 27.4089 -0.0271 -2.3746
# 5 -3.8285 12.6292 10.2736 -0.0271 42.4516 0.0185
# 6 -0.0221 -0.0186 -0.0384 -2.3746 0.0185 32.9165
#
#
#
# Elastic Compliance Matrix: (Units=1/GPa)
#
#
# Indices 1 2 3 4 5 6 
#
# 1 0.008626 -0.001596 -0.004717 -0.000002 0.002394 -0.000002
# 2 -0.001596 0.010541 -0.002702 -0.000006 -0.002626 0.000003
# 3 -0.004717 -0.002702 0.014199 -0.000014 -0.003058 0.000013
# 4 -0.000002 -0.000006 -0.000014 0.036714 0.000027 0.002649
# 5 0.002394 -0.002626 -0.003058 0.000027 0.025293 -0.000016
# 6 -0.000002 0.000003 0.000013 0.002649 -0.000016 0.030571
#
#
# Mechanical properties :
#
#
# Convention : Reuss Voigt Hill
#
# Bulk Modulus (GPa) = 65.19851 70.21679 67.70765
# Shear Modulus (GPa) = 33.53753 36.25169 34.89461
#
# Velocity S-wave (km/s) = 3.91971 4.07523 3.99823
# Velocity P-wave (km/s) = 7.09606 7.36959 7.23412
#
# Compressibility (1/GPa) = 0.01533777
#
# Stress axis : x y z
#
# Youngs Moduli (GPa) = 115.92424 94.86556 70.42660
#
# Poissons Ratio (x) = 0.15137 0.33218
# Poissons Ratio (y) = 0.18497 0.19031
# Poissons Ratio (z) = 0.54678 0.25635
#
# Static dielectric constant tensor:
#      x y z
#    x 4.263650 -0.000010 -0.090990 
#    y -0.000010 3.964900 -0.000010 
#    z -0.090990 -0.000010 4.154020 
# 
# 
# High freq. dielectric constant tensor:
#      x y z
#    x 1.877830 0.000000 -0.015950 
#    y 0.000000 1.840200 0.000000 
#    z -0.015950 0.000000 1.854070 
# 
# From -- ./inp_files/25486.got.cif
#   From: 2010.03.12/outbox.cif.g09.slc.cpg/sg5_13_cif.got.tgz:25486.got - 2010.03.31 09:47:26.
