data_PCOD8050461
_publ_section_title
;
Structure prediction by ZEFSAII (Michael W. Deem and Ramdas Pophale) SiO2 
 PCOD8050461
Probable space group: C 2
;
_chemical_formula_sum "Si O2"
_cell_formula_units_Z 26
_cell_length_a 15.976889
_cell_length_b 13.699140
_cell_length_c 9.658830
_cell_angle_alpha 90.000000
_cell_angle_beta 38.624064
_cell_angle_gamma 90.000000
_cell_volume 1319.590620
_symmetry_space_group_name_H-M "C 2"
_symmetry_group_IT_number 5
_symmetry_cell_setting 'monoclinic'
loop_
_space_group_symop_operation_xyz
x,y,z
-x,y,-z
1/2+x,1/2+y,z
1/2-x,1/2+y,-z
loop_
_atom_site_type_symbol
_atom_site_label
_atom_site_fract_x
_atom_site_fract_y
_atom_site_fract_z
Si Si1 0.500000 0.773790 0.000000
Si Si2 0.291706 0.656985 0.439864
Si Si3 0.756455 0.352401 0.155583
Si Si4 0.653254 0.142977 0.333486
Si Si5 0.298811 0.453764 0.041159
Si Si6 0.108316 0.954766 0.580471
Si Si7 0.651100 0.317012 0.771586
O O1 0.426945 0.703342 0.203480
O O2 0.396628 0.844079 0.055091
O O3 0.179722 0.647690 0.464018
O O4 0.321365 0.553698 0.466932
O O5 0.238057 0.719844 0.638836
O O6 0.690808 0.246254 0.215706
O O7 0.653054 0.422497 0.370138
O O8 0.786700 0.402056 0.968951
O O9 0.500000 0.118055 0.500000
O O10 0.743730 0.060297 0.146524
O O11 0.287493 0.385754 0.190159
O O12 0.449694 0.466256 0.793828
O O13 0.160868 0.871219 0.613425
O O14 0.500000 0.286369 0.000000
#
# Coordination Sequence:
#
# PCOD8050461 Si02
#       7
#     2   4   4   4   4   4   4
#     4  10  22  42  66  94 126 172 206 266 320 372
#     4  11  22  41  65  94 125 170 211 260 314 382
#     4  11  24  41  65  92 130 165 213 262 318 378
#     4  11  23  39  62  91 128 167 211 264 315 367
#     4  11  24  40  65  95 124 170 210 263 316 378
#     4  11  20  41  66  89 125 170 211 250 318 383
#     4  10  22  39  64  92 123 163 209 253 312 375
#
# _framework density 19.70308
#
# number of rings (size 3 to 8) (size 9 to 14) (size 15 to 20)
#    0.000    1.231    4.615    3.231    3.231    3.692 
#    1.385    1.538    0.000    0.000    0.000    0.000 
#    0.000    0.000    0.000    0.000    0.000    0.000 
#
# Total GULP energy -161255.932054 kJ/mol
# GULP energy per Si atom -12404.302466 kJ/mol
# Density = 1.965823 g / cm^3
# Si number density = 19.703080 Si / 1000 Ang^3
#
#
#
# Elastic Constant Matrix: (Units=GPa)
#
#
# Indices 1 2 3 4 5 6 
#
# 1 78.8594 25.1624 31.3334 0.0000 -8.3747 0.0000
# 2 25.1624 103.9715 41.3123 0.0000 -4.3492 0.0000
# 3 31.3334 41.3123 82.7843 0.0000 -1.8047 0.0000
# 4 0.0000 0.0000 0.0000 -22.1822 0.0000 -37.6709
# 5 -8.3747 -4.3492 -1.8047 0.0000 31.2974 0.0000
# 6 0.0000 0.0000 0.0000 -37.6709 0.0000 -3.9855
#
#
#
# Elastic Compliance Matrix: (Units=1/GPa)
#
#
# Indices 1 2 3 4 5 6 
#
# 1 0.015576 -0.001629 -0.005003 0.000000 0.003653 0.000000
# 2 -0.001629 0.012222 -0.005462 0.000000 0.000948 0.000000
# 3 -0.005003 -0.005462 0.016674 0.000000 -0.001136 0.000000
# 4 0.000000 0.000000 0.000000 0.002995 0.000000 -0.028309
# 5 0.003653 0.000948 -0.001136 0.000000 0.032995 0.000000
# 6 0.000000 0.000000 0.000000 -0.028309 0.000000 0.016670
#
#
# Mechanical properties :
#
#
# Convention : Reuss Voigt Hill
#
# Bulk Modulus (GPa) = 49.29841 51.24793 50.27317
# Shear Modulus (GPa) = 39.03732 12.21308 25.62520
#
# Velocity S-wave (km/s) = 4.45599 2.49239 3.61025
# Velocity P-wave (km/s) = 7.17979 5.86083 6.55357
#
# Compressibility (1/GPa) = 0.02028463
#
# Stress axis : x y z
#
# Youngs Moduli (GPa) = 64.19971 81.81822 59.97277
#
# Poissons Ratio (x) = 0.13328 0.30005
# Poissons Ratio (y) = 0.10458 0.32758
# Poissons Ratio (z) = 0.32119 0.44690
#
# Static dielectric constant tensor:
#      x y z
#    x 4.071370 0.000000 0.158090 
#    y 0.000000 3.610180 0.000000 
#    z 0.158090 0.000000 3.585600 
# 
# 
# High freq. dielectric constant tensor:
#      x y z
#    x 1.768410 0.000000 0.000370 
#    y 0.000000 1.776490 0.000000 
#    z 0.000370 0.000000 1.766170 
# 
# From -- ./inp_files/20260.got.cif
#   From: 2010.03.12/outbox.cif.g09.slc.cpg/sg5_11_cif.got.tgz:20260.got - 2010.03.31 09:47:26.
