data_PCOD8050078
_publ_section_title
;
Structure prediction by ZEFSAII (Michael W. Deem and Ramdas Pophale) SiO2 
 PCOD8050078
Probable space group: C 2
;
_chemical_formula_sum "Si O2"
_cell_formula_units_Z 20
_cell_length_a 8.066427
_cell_length_b 23.881205
_cell_length_c 9.285414
_cell_angle_alpha 90.000000
_cell_angle_beta 32.621610
_cell_angle_gamma 90.000000
_cell_volume 964.270269
_symmetry_space_group_name_H-M "C 2"
_symmetry_group_IT_number 5
_symmetry_cell_setting 'monoclinic'
loop_
_space_group_symop_operation_xyz
x,y,z
-x,y,-z
1/2+x,1/2+y,z
1/2-x,1/2+y,-z
loop_
_atom_site_type_symbol
_atom_site_label
_atom_site_fract_x
_atom_site_fract_y
_atom_site_fract_z
Si Si1 0.646882 0.385340 0.240355
Si Si2 0.760614 0.213850 0.430962
Si Si3 0.355566 0.600384 0.255143
Si Si4 0.120051 0.775850 0.069746
Si Si5 0.637653 0.476900 0.747635
O O1 0.500000 0.370165 0.500000
O O2 0.468471 0.437506 0.303452
O O3 0.601814 0.331722 0.174431
O O4 0.000000 0.402126 0.000000
O O5 0.500000 0.215835 0.500000
O O6 0.903576 0.150645 0.335782
O O7 0.027796 0.256503 0.191835
O O8 0.606747 0.229227 0.695865
O O9 0.491816 0.539499 0.198008
O O10 0.000000 0.588410 0.500000
O O11 0.500000 0.622081 0.000000
O O12 0.000000 0.789597 0.000000
O O13 0.000000 0.473572 0.500000
O O14 0.500000 0.456722 0.000000
#
# Coordination Sequence:
#
# PCOD8050078 Si02
#       5
#     4   4   4   4   4
#     4  12  25  41  61  87 118 155 197 244 295 347
#     4  11  21  39  64  89 118 154 196 240 285 347
#     4   9  18  34  61  90 116 151 194 234 283 347
#     4  12  25  40  59  87 120 156 195 242 296 348
#     4  10  21  40  64  89 117 154 197 240 286 345
#
# _framework density 20.741071999999999
#
# number of rings (size 3 to 8) (size 9 to 14) (size 15 to 20)
#    0.000    1.200    0.000    8.400    0.000    1.600 
#    0.000    3.000    0.000    0.000    0.000    0.000 
#    0.000    0.000    0.000    0.000    0.000    0.000 
#
# Total GULP energy -124000.090772 kJ/mol
# GULP energy per Si atom -12400.009077 kJ/mol
# Density = 2.069386 g / cm^3
# Si number density = 20.741072 Si / 1000 Ang^3
#
#
#
# Elastic Constant Matrix: (Units=GPa)
#
#
# Indices 1 2 3 4 5 6 
#
# 1 101.4438 73.0749 51.4508 0.0000 11.9500 0.0000
# 2 73.0749 123.6842 36.9106 0.0000 7.0469 0.0000
# 3 51.4508 36.9106 151.0921 0.0000 3.8995 0.0000
# 4 0.0000 0.0000 0.0000 33.7662 0.0000 7.0385
# 5 11.9500 7.0469 3.8995 0.0000 33.4350 0.0000
# 6 0.0000 0.0000 0.0000 7.0385 0.0000 50.2823
#
#
#
# Elastic Compliance Matrix: (Units=1/GPa)
#
#
# Indices 1 2 3 4 5 6 
#
# 1 0.019867 -0.010246 -0.004147 0.000000 -0.004457 0.000000
# 2 -0.010246 0.014091 0.000029 0.000000 0.000689 0.000000
# 3 -0.004147 0.000029 0.008010 0.000000 0.000542 0.000000
# 4 0.000000 0.000000 0.000000 0.030505 0.000000 -0.004270
# 5 -0.004457 0.000689 0.000542 0.000000 0.031293 0.000000
# 6 0.000000 0.000000 0.000000 -0.004270 0.000000 0.020485
#
#
# Mechanical properties :
#
#
# Convention : Reuss Voigt Hill
#
# Bulk Modulus (GPa) = 75.53525 77.67698 76.60612
# Shear Modulus (GPa) = 31.76755 37.81563 34.79159
#
# Velocity S-wave (km/s) = 3.91784 4.27456 4.10008
# Velocity P-wave (km/s) = 7.54740 7.86731 7.70901
#
# Compressibility (1/GPa) = 0.01323885
#
# Stress axis : x y z
#
# Youngs Moduli (GPa) = 50.33484 70.96809 124.85020
#
# Poissons Ratio (x) = 0.72715 0.51777
# Poissons Ratio (y) = 0.51574 -0.00363
# Poissons Ratio (z) = 0.20874 -0.00206
#
# Static dielectric constant tensor:
#      x y z
#    x 3.442650 0.000000 -0.029060 
#    y 0.000000 4.235110 0.000000 
#    z -0.029060 0.000000 4.129850 
# 
# 
# High freq. dielectric constant tensor:
#      x y z
#    x 1.776280 0.000000 -0.004530 
#    y 0.000000 1.830240 0.000000 
#    z -0.004530 0.000000 1.839890 
# 
# From -- ./inp_files/16926.got.cif
#   From: 2010.03.12/outbox.cif.g09.slc.cpg/sg5_9_cif.got.tgz:16926.got - 2010.03.31 09:47:26.
