data_PCOD8050903
_publ_section_title
;
Structure prediction by ZEFSAII (Michael W. Deem and Ramdas Pophale) SiO2 
 PCOD8050903
Probable space group: C 2
;
_chemical_formula_sum "Si O2"
_cell_formula_units_Z 32
_cell_length_a 7.519670
_cell_length_b 14.258737
_cell_length_c 22.988420
_cell_angle_alpha 90.000000
_cell_angle_beta 33.713608
_cell_angle_gamma 90.000000
_cell_volume 1368.090461
_symmetry_space_group_name_H-M "C 2"
_symmetry_group_IT_number 5
_symmetry_cell_setting 'monoclinic'
loop_
_space_group_symop_operation_xyz
x,y,z
-x,y,-z
1/2+x,1/2+y,z
1/2-x,1/2+y,-z
loop_
_atom_site_type_symbol
_atom_site_label
_atom_site_fract_x
_atom_site_fract_y
_atom_site_fract_z
Si Si1 0.246019 0.381710 0.758630
Si Si2 0.619212 0.299852 0.907005
Si Si3 0.833503 0.566583 0.679953
Si Si4 0.128939 0.455509 0.029027
Si Si5 0.337762 0.062581 0.291153
Si Si6 0.735400 0.184964 0.488842
Si Si7 0.558753 0.879835 0.419701
Si Si8 0.401485 0.121011 0.149738
O O1 0.283653 0.461632 0.698762
O O2 0.586169 0.334469 0.678554
O O3 0.003690 0.304169 0.800320
O O4 0.114462 0.416856 0.856320
O O5 0.527969 0.229829 0.880696
O O6 0.500000 0.255886 0.000000
O O7 0.472191 0.404004 0.939040
O O8 0.959202 0.468447 0.618409
O O9 0.461567 0.585968 0.766305
O O10 0.884794 0.555672 0.735430
O O11 0.053013 0.651940 0.596804
O O12 0.153490 0.564866 0.039824
O O13 0.000000 0.439128 0.000000
O O14 0.486267 0.113031 0.194332
O O15 0.044822 0.120832 0.396790
O O16 0.500000 0.167299 0.500000
O O17 0.815782 0.295738 0.470420
O O18 0.500000 0.919526 0.500000
#
# Coordination Sequence:
#
# PCOD8050903 Si02
#       8
#     4   4   4   4   4   4   4   4
#     4  10  23  45  69 107 142 188 240 300 358 431
#     4  10  24  45  73 101 143 185 240 301 367 431
#     4  12  25  48  71 102 146 195 238 298 362 423
#     4  10  22  45  70 103 140 182 239 301 363 429
#     4  11  24  44  73 102 144 190 242 292 356 430
#     4  12  26  47  66 107 149 189 247 296 353 433
#     4  12  26  44  76 106 148 192 240 298 356 433
#     4  11  24  47  73 102 143 188 239 304 362 432
#
# _framework density 23.390264999999999
#
# number of rings (size 3 to 8) (size 9 to 14) (size 15 to 20)
#    0.000    1.000    3.750    2.625    5.250    4.000 
#    2.250    1.875    0.000    0.000    0.000    0.000 
#    0.000    0.000    0.000    0.000    0.000    0.000 
#
# Total GULP energy -198335.229416 kJ/mol
# GULP energy per Si atom -12395.951839 kJ/mol
# Density = 2.333703 g / cm^3
# Si number density = 23.390265 Si / 1000 Ang^3
#
#
#
# Elastic Constant Matrix: (Units=GPa)
#
#
# Indices 1 2 3 4 5 6 
#
# 1 137.5384 30.1577 46.8763 -0.0578 27.7422 0.0227
# 2 30.1577 119.3915 41.8544 -0.1847 3.2764 -0.0521
# 3 46.8763 41.8544 59.5408 -0.5692 0.2345 -0.2063
# 4 -0.0578 -0.1847 -0.5692 6.9964 0.1016 -3.6958
# 5 27.7422 3.2764 0.2345 0.1016 40.1033 0.0529
# 6 0.0227 -0.0521 -0.2063 -3.6958 0.0529 29.4659
#
#
#
# Elastic Compliance Matrix: (Units=1/GPa)
#
#
# Indices 1 2 3 4 5 6 
#
# 1 0.012284 0.000677 -0.010121 -0.000658 -0.008492 -0.000146
# 2 0.000677 0.011183 -0.008393 -0.000409 -0.001332 -0.000088
# 3 -0.010121 -0.008393 0.030658 0.002338 0.007501 0.000487
# 4 -0.000658 -0.000409 0.002338 0.153268 0.000062 0.019240
# 5 -0.008492 -0.001332 0.007501 0.000062 0.030875 0.000009
# 6 -0.000146 -0.000088 0.000487 0.019240 0.000009 0.036354
#
#
# Mechanical properties :
#
#
# Convention : Reuss Voigt Hill
#
# Bulk Modulus (GPa) = 54.19640 61.58307 57.88973
# Shear Modulus (GPa) = 15.80052 28.48525 22.14288
#
# Velocity S-wave (km/s) = 2.60189 3.49352 3.08014
# Velocity P-wave (km/s) = 5.67867 6.53135 6.11988
#
# Compressibility (1/GPa) = 0.01845141
#
# Stress axis : x y z
#
# Youngs Moduli (GPa) = 81.40511 89.42146 32.61839
#
# Poissons Ratio (x) = -0.06053 0.33012
# Poissons Ratio (y) = -0.05511 0.27377
# Poissons Ratio (z) = 0.82387 0.75052
#
# Static dielectric constant tensor:
#      x y z
#    x 4.252450 0.000090 0.044320 
#    y 0.000090 4.236150 -0.000630 
#    z 0.044320 -0.000630 4.440480 
# 
# 
# High freq. dielectric constant tensor:
#      x y z
#    x 1.926900 0.000000 0.006430 
#    y 0.000000 1.923650 0.000000 
#    z 0.006430 0.000000 1.930640 
# 
# From -- ./inp_files/68042.got.cif
#   From: 2010.03.12/outbox.cif.g09.slc.cpg/sg5_35_cif.got.tgz:68042.got - 2010.03.31 09:47:26.
