data_PCOD8050710
_publ_section_title
;
Structure prediction by ZEFSAII (Michael W. Deem and Ramdas Pophale) SiO2 
 PCOD8050710
Probable space group: C 2
;
_chemical_formula_sum "Si O2"
_cell_formula_units_Z 28
_cell_length_a 15.988192
_cell_length_b 7.337168
_cell_length_c 14.817232
_cell_angle_alpha 90.000000
_cell_angle_beta 131.170310
_cell_angle_gamma 90.000000
_cell_volume 1308.426109
_symmetry_space_group_name_H-M "C 2"
_symmetry_group_IT_number 5
_symmetry_cell_setting 'monoclinic'
loop_
_space_group_symop_operation_xyz
x,y,z
-x,y,-z
1/2+x,1/2+y,z
1/2-x,1/2+y,-z
loop_
_atom_site_type_symbol
_atom_site_label
_atom_site_fract_x
_atom_site_fract_y
_atom_site_fract_z
Si Si1 0.839214 0.227480 0.170197
Si Si2 0.500000 0.070267 0.000000
Si Si3 0.297457 0.878018 0.946578
Si Si4 0.199610 0.699866 0.238111
Si Si5 0.743803 0.003987 0.590644
Si Si6 0.202388 0.809672 0.705787
Si Si7 0.087133 0.230751 0.405399
Si Si8 0.500000 0.503325 0.500000
O O1 0.779883 0.296073 0.219961
O O2 0.970656 0.254548 0.271580
O O3 0.802702 0.020063 0.135302
O O4 0.795241 0.319317 0.047837
O O5 0.427303 0.203981 0.886239
O O6 0.419833 0.948030 0.006482
O O7 0.253449 0.734926 0.838046
O O8 0.225945 0.485908 0.275412
O O9 0.203928 0.819983 0.330678
O O10 0.703873 0.146568 0.636364
O O11 0.836395 0.097449 0.597039
O O12 0.640370 0.932357 0.456441
O O13 0.074575 0.878965 0.619306
O O14 0.076961 0.136203 0.495736
#
# Coordination Sequence:
#
# PCOD8050710 Si02
#       8
#     4   2   4   4   4   4   4   2
#     4  10  23  42  68  96 140 173 228 279 340 397
#     4   8  20  40  66  92 132 186 212 276 340 388
#     4  10  22  42  67  99 136 175 224 281 337 409
#     4  10  22  46  66  95 140 181 222 287 329 414
#     4  12  27  43  70 101 138 178 235 272 357 393
#     4  10  23  44  68  96 133 179 223 283 335 403
#     4  12  25  44  69 102 132 185 221 292 328 423
#     4  12  20  50  70  88 138 170 232 282 342 394
#
# _framework density 21.399757000000001
#
# number of rings (size 3 to 8) (size 9 to 14) (size 15 to 20)
#    0.000    1.714    4.286    0.857    6.000    4.000 
#    0.000    0.000    0.000    0.000    0.000    0.000 
#    0.000    0.000    0.000    0.000    0.000    0.000 
#
# Total GULP energy -173474.691275 kJ/mol
# GULP energy per Si atom -12391.049377 kJ/mol
# Density = 2.135105 g / cm^3
# Si number density = 21.399757 Si / 1000 Ang^3
#
#
#
# Elastic Constant Matrix: (Units=GPa)
#
#
# Indices 1 2 3 4 5 6 
#
# 1 78.2290 24.2236 45.9616 0.0000 4.0016 0.0000
# 2 24.2236 71.1487 38.7190 0.0000 -0.2607 0.0000
# 3 45.9616 38.7190 137.9682 0.0000 17.9181 0.0000
# 4 0.0000 0.0000 0.0000 35.8104 0.0000 -16.8419
# 5 4.0016 -0.2607 17.9181 0.0000 45.7253 0.0000
# 6 0.0000 0.0000 0.0000 -16.8419 0.0000 25.7098
#
#
#
# Elastic Compliance Matrix: (Units=1/GPa)
#
#
# Indices 1 2 3 4 5 6 
#
# 1 0.016456 -0.003059 -0.004672 0.000000 0.000373 0.000000
# 2 -0.003059 0.017336 -0.004103 0.000000 0.001974 0.000000
# 3 -0.004672 -0.004103 0.010437 0.000000 -0.003704 0.000000
# 4 0.000000 0.000000 0.000000 0.040359 0.000000 0.026438
# 5 0.000373 0.001974 -0.003704 0.000000 0.023300 0.000000
# 6 0.000000 0.000000 0.000000 0.026438 0.000000 0.056215
#
#
# Mechanical properties :
#
#
# Convention : Reuss Voigt Hill
#
# Bulk Modulus (GPa) = 48.63276 56.12825 52.38050
# Shear Modulus (GPa) = 25.69056 33.34521 29.51789
#
# Velocity S-wave (km/s) = 3.46859 3.95169 3.71800
# Velocity P-wave (km/s) = 6.23030 6.86342 6.55451
#
# Compressibility (1/GPa) = 0.02056227
#
# Stress axis : x y z
#
# Youngs Moduli (GPa) = 60.76802 57.68222 95.81375
#
# Poissons Ratio (x) = 0.17644 0.44765
# Poissons Ratio (y) = 0.18588 0.39309
# Poissons Ratio (z) = 0.28391 0.23665
#
# Static dielectric constant tensor:
#      x y z
#    x 4.120760 0.000000 -0.250240 
#    y 0.000000 3.687110 0.000000 
#    z -0.250240 0.000000 4.426920 
# 
# 
# High freq. dielectric constant tensor:
#      x y z
#    x 1.831120 0.000000 -0.000180 
#    y 0.000000 1.818410 0.000000 
#    z -0.000180 0.000000 1.868090 
# 
# From -- ./inp_files/54239.got.cif
#   From: 2010.03.12/outbox.cif.g09.slc.cpg/sg5_28_cif.got.tgz:54239.got - 2010.03.31 09:47:26.
