data_PCOD8050404
_publ_section_title
;
Structure prediction by ZEFSAII (Michael W. Deem and Ramdas Pophale) SiO2 
 PCOD8050404
Probable space group: C 2
;
_chemical_formula_sum "Si O2"
_cell_formula_units_Z 26
_cell_length_a 10.889268
_cell_length_b 10.851089
_cell_length_c 11.966495
_cell_angle_alpha 90.000000
_cell_angle_beta 116.105789
_cell_angle_gamma 90.000000
_cell_volume 1269.717628
_symmetry_space_group_name_H-M "C 2"
_symmetry_group_IT_number 5
_symmetry_cell_setting 'monoclinic'
loop_
_space_group_symop_operation_xyz
x,y,z
-x,y,-z
1/2+x,1/2+y,z
1/2-x,1/2+y,-z
loop_
_atom_site_type_symbol
_atom_site_label
_atom_site_fract_x
_atom_site_fract_y
_atom_site_fract_z
Si Si1 0.307943 0.967640 0.127734
Si Si2 0.948188 0.319467 0.691597
Si Si3 0.000000 0.158915 0.500000
Si Si4 0.744940 0.016936 0.304004
Si Si5 0.494106 0.172865 0.871041
Si Si6 0.123828 0.909970 0.853648
Si Si7 0.074012 0.111889 0.144652
O O1 0.396694 0.866804 0.229237
O O2 0.405288 0.057507 0.097321
O O3 0.217534 0.044047 0.179781
O O4 0.213807 0.896523 0.001599
O O5 0.942781 0.245016 0.574927
O O6 0.843909 0.435246 0.644521
O O7 0.900484 0.235079 0.775738
O O8 0.878580 0.068548 0.416502
O O9 0.782445 0.927729 0.216384
O O10 0.658061 0.132949 0.224479
O O11 0.539182 0.283527 0.807556
O O12 0.500000 0.222026 0.000000
O O13 0.021748 0.024699 0.819750
O O14 0.000000 0.148533 0.000000
#
# Coordination Sequence:
#
# PCOD8050404 Si02
#       7
#     4   4   2   4   4   4   4
#     4  10  23  38  63 103 139 171 218 278 346 400
#     4  11  26  44  70  95 134 184 225 281 325 404
#     4  12  28  48  68  92 140 194 230 268 328 408
#     4  11  26  46  66 102 130 184 231 275 334 399
#     4  11  22  38  65 101 141 173 217 284 343 403
#     4  11  22  37  67 101 140 173 215 280 344 405
#     4  10  22  38  63 104 137 171 216 274 345 403
#
# _framework density 20.476994999999999
#
# number of rings (size 3 to 8) (size 9 to 14) (size 15 to 20)
#    0.000    1.231    3.077    2.308   10.769    2.462 
#    0.000    0.000    0.000    0.000    0.000    0.000 
#    0.000    0.000    0.000    0.000    0.000    0.000 
#
# Total GULP energy -161282.147850 kJ/mol
# GULP energy per Si atom -12406.319065 kJ/mol
# Density = 2.043039 g / cm^3
# Si number density = 20.476995 Si / 1000 Ang^3
#
#
#
# Elastic Constant Matrix: (Units=GPa)
#
#
# Indices 1 2 3 4 5 6 
#
# 1 111.4815 40.6838 50.6724 0.0000 9.9805 0.0000
# 2 40.6838 100.5280 52.3102 0.0000 5.1320 0.0000
# 3 50.6724 52.3102 87.1186 0.0000 8.5221 0.0000
# 4 0.0000 0.0000 0.0000 40.7073 0.0000 3.1262
# 5 9.9805 5.1320 8.5221 0.0000 35.9235 0.0000
# 6 0.0000 0.0000 0.0000 3.1262 0.0000 50.7825
#
#
#
# Elastic Compliance Matrix: (Units=1/GPa)
#
#
# Indices 1 2 3 4 5 6 
#
# 1 0.012537 -0.001860 -0.005999 0.000000 -0.001794 0.000000
# 2 -0.001860 0.014744 -0.007796 0.000000 0.000260 0.000000
# 3 -0.005999 -0.007796 0.019838 0.000000 -0.001925 0.000000
# 4 0.000000 0.000000 0.000000 0.024682 0.000000 -0.001519
# 5 -0.001794 0.000260 -0.001925 0.000000 0.028755 0.000000
# 6 0.000000 0.000000 0.000000 -0.001519 0.000000 0.019785
#
#
# Mechanical properties :
#
#
# Convention : Reuss Voigt Hill
#
# Bulk Modulus (GPa) = 63.26599 65.16233 64.21416
# Shear Modulus (GPa) = 31.86299 35.84676 33.85488
#
# Velocity S-wave (km/s) = 3.94894 4.18854 4.07051
# Velocity P-wave (km/s) = 7.19412 7.43526 7.31569
#
# Compressibility (1/GPa) = 0.01580628
#
# Stress axis : x y z
#
# Youngs Moduli (GPa) = 79.76703 67.82451 50.40847
#
# Poissons Ratio (x) = 0.12616 0.30242
# Poissons Ratio (y) = 0.14838 0.39301
# Poissons Ratio (z) = 0.47856 0.52879
#
# Static dielectric constant tensor:
#      x y z
#    x 3.846870 0.000000 0.096220 
#    y 0.000000 3.696050 0.000000 
#    z 0.096220 0.000000 3.417960 
# 
# 
# High freq. dielectric constant tensor:
#      x y z
#    x 1.820220 0.000000 0.002510 
#    y 0.000000 1.812550 0.000000 
#    z 0.002510 0.000000 1.769800 
# 
# From -- ./inp_files/38743.got.cif
#   From: 2010.03.12/outbox.cif.g09.slc.cpg/sg5_20_cif.got.tgz:38743.got - 2010.03.31 09:47:26.
