data_PCOD8050900
_publ_section_title
;
Structure prediction by ZEFSAII (Michael W. Deem and Ramdas Pophale) SiO2 
 PCOD8050900
Probable space group: C 2
;
_chemical_formula_sum "Si O2"
_cell_formula_units_Z 32
_cell_length_a 10.414816
_cell_length_b 9.115110
_cell_length_c 27.199972
_cell_angle_alpha 90.000000
_cell_angle_beta 143.923202
_cell_angle_gamma 90.000000
_cell_volume 1520.550148
_symmetry_space_group_name_H-M "C 2"
_symmetry_group_IT_number 5
_symmetry_cell_setting 'monoclinic'
loop_
_space_group_symop_operation_xyz
x,y,z
-x,y,-z
1/2+x,1/2+y,z
1/2-x,1/2+y,-z
loop_
_atom_site_type_symbol
_atom_site_label
_atom_site_fract_x
_atom_site_fract_y
_atom_site_fract_z
Si Si1 0.666615 0.588290 0.686064
Si Si2 0.594308 0.442509 0.978624
Si Si3 0.788310 0.589244 0.402482
Si Si4 0.899844 0.436554 0.842771
Si Si5 0.207707 0.929747 0.595974
Si Si6 0.845189 0.433048 0.317023
Si Si7 0.062207 0.126255 0.159691
Si Si8 0.353879 0.145093 0.912245
O O1 0.427232 0.547554 0.633092
O O2 0.856244 0.515095 0.777431
O O3 0.701185 0.527961 0.642327
O O4 0.702919 0.761327 0.696714
O O5 0.544412 0.557475 0.921188
O O6 0.484096 0.285713 0.931763
O O7 0.500000 0.506593 0.000000
O O8 0.850300 0.427330 0.064003
O O9 0.794177 0.496911 0.354573
O O10 0.000000 0.548634 0.500000
O O11 0.788885 0.759564 0.387522
O O12 0.797651 0.271531 0.810997
O O13 0.782318 0.531982 0.848162
O O14 0.000000 0.971634 0.500000
O O15 0.409101 0.968259 0.623022
O O16 0.696406 0.503851 0.229209
O O17 0.874207 0.197023 0.135655
O O18 0.500000 0.067769 0.000000
#
# Coordination Sequence:
#
# PCOD8050900 Si02
#       8
#     4   4   4   4   4   4   4   4
#     4  11  25  41  64  99 133 164 211 267 313 377
#     4  11  23  43  64  87 123 167 209 263 313 364
#     4  10  22  45  69  94 129 170 210 257 319 382
#     4  12  23  41  65  90 124 167 210 258 315 368
#     4  10  23  44  69  96 128 167 210 259 318 381
#     4  11  25  41  65  98 131 168 210 262 317 377
#     4  12  25  42  64  91 126 167 211 260 314 373
#     4  11  22  44  62  86 123 162 213 262 310 364
#
# _framework density 21.045013999999998
#
# number of rings (size 3 to 8) (size 9 to 14) (size 15 to 20)
#    0.000    1.000    3.750    3.000    1.750    6.000 
#    2.250    0.000    0.000    0.000    0.000    0.000 
#    0.000    0.000    0.000    0.000    0.000    0.000 
#
# Total GULP energy -198408.552144 kJ/mol
# GULP energy per Si atom -12400.534509 kJ/mol
# Density = 2.099711 g / cm^3
# Si number density = 21.045014 Si / 1000 Ang^3
#
#
#
# Elastic Constant Matrix: (Units=GPa)
#
#
# Indices 1 2 3 4 5 6 
#
# 1 72.1218 49.9575 11.8788 0.0000 -17.4155 0.0000
# 2 49.9575 126.3821 48.5338 0.0000 -22.7310 0.0000
# 3 11.8788 48.5338 84.5337 0.0000 -14.2100 0.0000
# 4 0.0000 0.0000 0.0000 32.8067 0.0000 -9.3834
# 5 -17.4155 -22.7310 -14.2100 0.0000 33.4169 0.0000
# 6 0.0000 0.0000 0.0000 -9.3834 0.0000 33.7604
#
#
#
# Elastic Compliance Matrix: (Units=1/GPa)
#
#
# Indices 1 2 3 4 5 6 
#
# 1 0.020519 -0.008035 0.002809 0.000000 0.006423 0.000000
# 2 -0.008035 0.014054 -0.006502 0.000000 0.002608 0.000000
# 3 0.002809 -0.006502 0.015800 0.000000 0.003760 0.000000
# 4 0.000000 0.000000 0.000000 0.033114 0.000000 0.009204
# 5 0.006423 0.002608 0.003760 0.000000 0.036645 0.000000
# 6 0.000000 0.000000 0.000000 0.009204 0.000000 0.032179
#
#
# Mechanical properties :
#
#
# Convention : Reuss Voigt Hill
#
# Bulk Modulus (GPa) = 37.14813 55.97531 46.56172
# Shear Modulus (GPa) = 27.06531 31.50797 29.28664
#
# Velocity S-wave (km/s) = 3.59007 3.87353 3.73449
# Velocity P-wave (km/s) = 5.90549 6.83090 6.38499
#
# Compressibility (1/GPa) = 0.02691926
#
# Stress axis : x y z
#
# Youngs Moduli (GPa) = 48.73503 71.15213 63.29222
#
# Poissons Ratio (x) = 0.57168 -0.17780
# Poissons Ratio (y) = 0.39157 0.41150
# Poissons Ratio (z) = -0.13691 0.46261
#
# Static dielectric constant tensor:
#      x y z
#    x 4.194550 0.000000 -0.206080 
#    y 0.000000 3.906740 0.000000 
#    z -0.206080 0.000000 4.157580 
# 
# 
# High freq. dielectric constant tensor:
#      x y z
#    x 1.830830 0.000000 -0.003110 
#    y 0.000000 1.828850 0.000000 
#    z -0.003110 0.000000 1.835920 
# 
# From -- ./inp_files/71779.got.cif
#   From: 2010.03.12/outbox.cif.g09.slc.cpg/sg5_36_cif.got.tgz:71779.got - 2010.03.31 09:47:26.
