data_PCOD8050325
_publ_section_title
;
Structure prediction by ZEFSAII (Michael W. Deem and Ramdas Pophale) SiO2 
 PCOD8050325
Probable space group: C 2
;
_chemical_formula_sum "Si O2"
_cell_formula_units_Z 20
_cell_length_a 22.996495
_cell_length_b 7.110286
_cell_length_c 10.918040
_cell_angle_alpha 90.000000
_cell_angle_beta 150.542803
_cell_angle_gamma 90.000000
_cell_volume 877.926736
_symmetry_space_group_name_H-M "C 2"
_symmetry_group_IT_number 5
_symmetry_cell_setting 'monoclinic'
loop_
_space_group_symop_operation_xyz
x,y,z
-x,y,-z
1/2+x,1/2+y,z
1/2-x,1/2+y,-z
loop_
_atom_site_type_symbol
_atom_site_label
_atom_site_fract_x
_atom_site_fract_y
_atom_site_fract_z
Si Si1 0.048712 0.066180 0.840555
Si Si2 0.905631 0.405198 0.230156
Si Si3 0.285271 0.274670 0.939095
Si Si4 0.757935 0.476087 0.374261
Si Si5 0.895048 0.811145 0.711753
O O1 0.023342 0.265319 0.730011
O O2 0.929958 0.971791 0.677343
O O3 0.107094 0.923397 0.848342
O O4 0.142512 0.098538 0.123079
O O5 0.802967 0.286065 0.108691
O O6 0.000000 0.488853 0.500000
O O7 0.843944 0.569431 0.040100
O O8 0.216093 0.321026 0.684540
O O9 0.869621 0.614466 0.595102
O O10 0.725889 0.371348 0.442211
O O11 0.000000 0.772916 0.000000
#
# Coordination Sequence:
#
# PCOD8050325 Si02
#       5
#     4   4   4   4   4
#     4   9  23  44  65  98 138 174 226 281 333 407
#     4  12  25  42  71  99 133 189 224 278 341 398
#     4  10  23  45  63 101 137 174 233 274 335 403
#     4   9  22  41  69  95 137 181 213 295 329 401
#     4  10  21  45  67 100 136 178 231 276 346 402
#
# _framework density 22.780943000000001
#
# number of rings (size 3 to 8) (size 9 to 14) (size 15 to 20)
#    1.200    0.800    2.000    0.000    2.800    5.600 
#    0.000    1.000    0.000    0.000    0.000    0.000 
#    0.000    0.000    0.000    0.000    0.000    0.000 
#
# Total GULP energy -123937.137570 kJ/mol
# GULP energy per Si atom -12393.713757 kJ/mol
# Density = 2.272909 g / cm^3
# Si number density = 22.780943 Si / 1000 Ang^3
#
#
#
# Elastic Constant Matrix: (Units=GPa)
#
#
# Indices 1 2 3 4 5 6 
#
# 1 87.9775 65.0860 31.3032 0.0000 -11.2058 0.0000
# 2 65.0860 162.1943 62.2901 0.0000 -12.2039 0.0000
# 3 31.3032 62.2901 71.0903 0.0000 -6.3093 0.0000
# 4 0.0000 0.0000 0.0000 43.1385 0.0000 -0.0181
# 5 -11.2058 -12.2039 -6.3093 0.0000 22.7536 0.0000
# 6 0.0000 0.0000 0.0000 -0.0181 0.0000 35.5116
#
#
#
# Elastic Compliance Matrix: (Units=1/GPa)
#
#
# Indices 1 2 3 4 5 6 
#
# 1 0.016860 -0.005607 -0.002092 0.000000 0.004716 0.000000
# 2 -0.005607 0.011334 -0.007348 0.000000 0.001280 0.000000
# 3 -0.002092 -0.007348 0.021515 0.000000 0.000994 0.000000
# 4 0.000000 0.000000 0.000000 0.023181 0.000000 0.000012
# 5 0.004716 0.001280 0.000994 0.000000 0.047234 0.000000
# 6 0.000000 0.000000 0.000000 0.000012 0.000000 0.028160
#
#
# Mechanical properties :
#
#
# Convention : Reuss Voigt Hill
#
# Bulk Modulus (GPa) = 50.98659 70.95788 60.97223
# Shear Modulus (GPa) = 27.03925 31.11959 29.07942
#
# Velocity S-wave (km/s) = 3.44891 3.70000 3.57666
# Velocity P-wave (km/s) = 6.18788 7.03341 6.62415
#
# Compressibility (1/GPa) = 0.01961300
#
# Stress axis : x y z
#
# Youngs Moduli (GPa) = 59.31238 88.23056 46.47967
#
# Poissons Ratio (x) = 0.49473 0.09725
# Poissons Ratio (y) = 0.33258 0.34155
# Poissons Ratio (z) = 0.12410 0.64834
#
# Static dielectric constant tensor:
#      x y z
#    x 4.056290 0.000000 0.022790 
#    y 0.000000 3.740270 0.000000 
#    z 0.022790 0.000000 3.698160 
# 
# 
# High freq. dielectric constant tensor:
#      x y z
#    x 1.902870 0.000000 0.006540 
#    y 0.000000 1.885280 0.000000 
#    z 0.006540 0.000000 1.875300 
# 
# From -- ./inp_files/47779.got.cif
#   From: 2010.03.12/outbox.cif.g09.slc.cpg/sg5_24_cif.got.tgz:47779.got - 2010.03.31 09:47:26.
