data_PCOD8050347
_publ_section_title
;
Structure prediction by ZEFSAII (Michael W. Deem and Ramdas Pophale) SiO2 
 PCOD8050347
Probable space group: C 2
;
_chemical_formula_sum "Si O2"
_cell_formula_units_Z 26
_cell_length_a 10.935771
_cell_length_b 22.089462
_cell_length_c 7.563320
_cell_angle_alpha 90.000000
_cell_angle_beta 46.237624
_cell_angle_gamma 90.000000
_cell_volume 1319.511779
_symmetry_space_group_name_H-M "C 2"
_symmetry_group_IT_number 5
_symmetry_cell_setting 'monoclinic'
loop_
_space_group_symop_operation_xyz
x,y,z
-x,y,-z
1/2+x,1/2+y,z
1/2-x,1/2+y,-z
loop_
_atom_site_type_symbol
_atom_site_label
_atom_site_fract_x
_atom_site_fract_y
_atom_site_fract_z
Si Si1 0.000000 0.884490 0.000000
Si Si2 0.499982 0.268695 0.196277
Si Si3 0.196894 0.571124 0.604007
Si Si4 0.198405 0.477416 0.301580
Si Si5 0.683133 0.700980 0.526865
Si Si6 0.183168 0.200979 0.106849
Si Si7 0.696884 0.071122 0.002184
O O1 0.000020 0.841833 0.823515
O O2 0.175150 0.920943 0.824867
O O3 0.329697 0.244226 0.463248
O O4 0.500000 0.238566 0.000000
O O5 0.670253 0.244223 0.122685
O O6 0.242944 0.515705 0.431073
O O7 0.290715 0.631278 0.443629
O O8 0.000005 0.586435 0.791829
O O9 0.252159 0.553131 0.747822
O O10 0.242938 0.515701 0.083001
O O11 0.000000 0.456837 0.500000
O O12 0.682870 0.706793 0.317137
O O13 0.499974 0.721760 0.785185
O O14 0.209307 0.131275 0.025065
#
# Coordination Sequence:
#
# PCOD8050347 Si02
#       7
#     2   4   4   4   4   4   4
#     4  10  22  34  52  74 118 156 182 228 258 340
#     4   8  16  30  46  71 105 140 175 226 257 310
#     4   9  17  32  54  79 113 142 173 230 283 323
#     4  10  22  36  50  82 114 148 184 217 276 332
#     4   9  15  25  47  78 102 129 175 222 270 315
#     4   9  15  25  47  78 102 129 175 222 270 315
#     4   9  17  32  54  79 113 142 173 230 283 323
#
# _framework density 19.704257999999999
#
# number of rings (size 3 to 8) (size 9 to 14) (size 15 to 20)
#    0.462    2.462    1.538    0.000    2.154    1.231 
#    0.000    0.000    0.000    0.000    8.000    0.000 
#    0.000    0.000    0.000    0.000    0.000    0.000 
#
# Total GULP energy -161066.698219 kJ/mol
# GULP energy per Si atom -12389.746017 kJ/mol
# Density = 1.965941 g / cm^3
# Si number density = 19.704258 Si / 1000 Ang^3
#
#
#
# Elastic Constant Matrix: (Units=GPa)
#
#
# Indices 1 2 3 4 5 6 
#
# 1 62.5919 58.9501 61.8552 0.0000 -22.1317 0.0000
# 2 58.9501 132.1642 68.4935 0.0000 -31.1931 0.0000
# 3 61.8552 68.4935 80.0895 0.0000 -35.1155 0.0000
# 4 0.0000 0.0000 0.0000 16.3246 0.0000 -19.2632
# 5 -22.1317 -31.1931 -35.1155 0.0000 46.1283 0.0000
# 6 0.0000 0.0000 0.0000 -19.2632 0.0000 10.4236
#
#
#
# Elastic Compliance Matrix: (Units=1/GPa)
#
#
# Indices 1 2 3 4 5 6 
#
# 1 0.074183 -0.006294 -0.057295 0.000000 -0.012281 0.000000
# 2 -0.006294 0.014131 -0.006542 0.000000 0.001556 0.000000
# 3 -0.057295 -0.006542 0.072557 0.000000 0.023321 0.000000
# 4 0.000000 0.000000 0.000000 -0.051882 0.000000 -0.095880
# 5 -0.012281 0.001556 0.023321 0.000000 0.034592 0.000000
# 6 0.000000 0.000000 0.000000 -0.095880 0.000000 -0.081254
#
#
# Mechanical properties :
#
#
# Convention : Reuss Voigt Hill
#
# Bulk Modulus (GPa) = 48.52393 72.60480 60.56437
# Shear Modulus (GPa) = 23.87100 20.27841 22.07471
#
# Velocity S-wave (km/s) = 3.48439 3.21150 3.35072
# Velocity P-wave (km/s) = 6.39277 7.11891 6.76559
#
# Compressibility (1/GPa) = 0.02060839
#
# Stress axis : x y z
#
# Youngs Moduli (GPa) = 13.48022 70.76493 13.78227
#
# Poissons Ratio (x) = 0.44537 0.78966
# Poissons Ratio (y) = 0.08484 0.09017
# Poissons Ratio (z) = 0.77235 0.46297
#
# Static dielectric constant tensor:
#      x y z
#    x 3.639030 0.000000 -0.284740 
#    y 0.000000 3.263920 0.000000 
#    z -0.284740 0.000000 3.726150 
# 
# 
# High freq. dielectric constant tensor:
#      x y z
#    x 1.753490 0.000000 -0.028040 
#    y 0.000000 1.736580 0.000000 
#    z -0.028040 0.000000 1.762060 
# 
# From -- ./inp_files/22080.got.cif
#   From: 2010.03.12/outbox.cif.g09.slc.cpg/sg5_12_cif.got.tgz:22080.got - 2010.03.31 09:47:26.
