data_PCOD8050460
_publ_section_title
;
Structure prediction by ZEFSAII (Michael W. Deem and Ramdas Pophale) SiO2 
 PCOD8050460
Probable space group: C 2
;
_chemical_formula_sum "Si O2"
_cell_formula_units_Z 26
_cell_length_a 9.502962
_cell_length_b 15.568325
_cell_length_c 7.956734
_cell_angle_alpha 90.000000
_cell_angle_beta 85.500492
_cell_angle_gamma 90.000000
_cell_volume 1173.532610
_symmetry_space_group_name_H-M "C 2"
_symmetry_group_IT_number 5
_symmetry_cell_setting 'monoclinic'
loop_
_space_group_symop_operation_xyz
x,y,z
-x,y,-z
1/2+x,1/2+y,z
1/2-x,1/2+y,-z
loop_
_atom_site_type_symbol
_atom_site_label
_atom_site_fract_x
_atom_site_fract_y
_atom_site_fract_z
Si Si1 0.500000 0.178200 0.000000
Si Si2 0.500000 0.971435 0.500000
Si Si3 0.184900 0.784158 0.759158
Si Si4 0.000000 0.852146 0.500000
Si Si5 0.683784 0.088891 0.252148
Si Si6 0.247000 0.961403 0.321797
Si Si7 0.835483 0.145836 0.543518
Si Si8 0.666786 0.449288 0.956209
O O1 0.368138 0.234291 0.072109
O O2 0.558446 0.123663 0.148915
O O3 0.395090 0.921728 0.381047
O O4 0.610350 0.023930 0.382547
O O5 0.310603 0.732062 0.656210
O O6 0.230913 0.878020 0.821619
O O7 0.053407 0.791181 0.643688
O O8 0.877381 0.913604 0.573196
O O9 0.762064 0.157830 0.366160
O O10 0.803576 0.041560 0.129919
O O11 0.229907 0.064047 0.351607
O O12 0.248039 0.941987 0.124148
O O13 0.000000 0.132223 0.500000
O O14 0.500000 0.436864 0.000000
#
# Coordination Sequence:
#
# PCOD8050460 Si02
#       8
#     2   2   4   2   4   4   4   4
#     4  12  22  42  66 102 130 178 224 286 332 404
#     4  10  22  39  64 107 128 174 218 290 320 393
#     4  12  24  41  68  99 140 174 227 276 350 390
#     4  12  22  45  70  97 134 188 226 276 324 435
#     4  11  23  41  70  99 137 175 233 274 337 400
#     4  11  22  43  74 101 133 177 239 274 334 403
#     4  11  23  43  69 101 134 180 227 282 331 412
#     4  12  23  42  67 104 136 179 223 289 334 407
#
# _framework density 22.155328999999998
#
# number of rings (size 3 to 8) (size 9 to 14) (size 15 to 20)
#    0.000    0.615    3.077    7.385    0.000    0.615 
#    5.538    0.000   10.154    0.000    0.000    0.000 
#    0.000    0.000    0.000    0.000    0.000    0.000 
#
# Total GULP energy -161173.519133 kJ/mol
# GULP energy per Si atom -12397.963010 kJ/mol
# Density = 2.210490 g / cm^3
# Si number density = 22.155329 Si / 1000 Ang^3
#
#
#
# Elastic Constant Matrix: (Units=GPa)
#
#
# Indices 1 2 3 4 5 6 
#
# 1 85.3858 11.7527 40.4585 0.0000 8.1493 0.0000
# 2 11.7527 58.7216 16.3396 0.0000 -3.3691 0.0000
# 3 40.4585 16.3396 126.4051 0.0000 20.5549 0.0000
# 4 0.0000 0.0000 0.0000 54.6318 0.0000 -32.0934
# 5 8.1493 -3.3691 20.5549 0.0000 41.5265 0.0000
# 6 0.0000 0.0000 0.0000 -32.0934 0.0000 46.0587
#
#
#
# Elastic Compliance Matrix: (Units=1/GPa)
#
#
# Indices 1 2 3 4 5 6 
#
# 1 0.013977 -0.001700 -0.004117 0.000000 -0.000843 0.000000
# 2 -0.001700 0.018174 -0.002283 0.000000 0.002938 0.000000
# 3 -0.004117 -0.002283 0.010247 0.000000 -0.004450 0.000000
# 4 0.000000 0.000000 0.000000 0.030989 0.000000 0.021593
# 5 -0.000843 0.002938 -0.004450 0.000000 0.026687 0.000000
# 6 0.000000 0.000000 0.000000 0.021593 0.000000 0.036757
#
#
# Mechanical properties :
#
#
# Convention : Reuss Voigt Hill
#
# Bulk Modulus (GPa) = 38.17041 45.29044 41.73042
# Shear Modulus (GPa) = 30.90937 41.90751 36.40844
#
# Velocity S-wave (km/s) = 3.73918 4.35389 4.05819
# Velocity P-wave (km/s) = 5.99232 6.76475 6.39022
#
# Compressibility (1/GPa) = 0.02619831
#
# Stress axis : x y z
#
# Youngs Moduli (GPa) = 71.54803 55.02500 97.58657
#
# Poissons Ratio (x) = 0.09356 0.40173
# Poissons Ratio (y) = 0.12165 0.22276
# Poissons Ratio (z) = 0.29454 0.12561
#
# Static dielectric constant tensor:
#      x y z
#    x 3.788460 0.000000 -0.357610 
#    y 0.000000 3.899210 0.000000 
#    z -0.357610 0.000000 3.188450 
# 
# 
# High freq. dielectric constant tensor:
#      x y z
#    x 1.867050 0.000000 0.004410 
#    y 0.000000 1.852090 0.000000 
#    z 0.004410 0.000000 1.897400 
# 
# From -- ./inp_files/15799.got.cif
#   From: 2010.03.12/outbox.cif.g09.slc.cpg/sg5_8_cif.got.tgz:15799.got - 2010.03.31 09:47:26.
