data_PCOD8050316
_publ_section_title
;
Structure prediction by ZEFSAII (Michael W. Deem and Ramdas Pophale) SiO2 
 PCOD8050316
Probable space group: C 2
;
_chemical_formula_sum "Si O2"
_cell_formula_units_Z 26
_cell_length_a 8.855235
_cell_length_b 14.349156
_cell_length_c 15.742566
_cell_angle_alpha 90.000000
_cell_angle_beta 144.163026
_cell_angle_gamma 90.000000
_cell_volume 1171.155973
_symmetry_space_group_name_H-M "C 2"
_symmetry_group_IT_number 5
_symmetry_cell_setting 'monoclinic'
loop_
_space_group_symop_operation_xyz
x,y,z
-x,y,-z
1/2+x,1/2+y,z
1/2-x,1/2+y,-z
loop_
_atom_site_type_symbol
_atom_site_label
_atom_site_fract_x
_atom_site_fract_y
_atom_site_fract_z
Si Si1 0.721059 0.863500 0.529558
Si Si2 0.500000 0.200152 0.000000
Si Si3 0.525707 0.545807 0.613319
Si Si4 0.500000 0.601702 0.000000
Si Si5 0.967789 0.235180 0.694475
Si Si6 0.598541 0.034770 0.930408
Si Si7 0.500000 0.888286 0.000000
Si Si8 0.223619 0.749343 0.761473
O O1 0.500000 0.870879 0.500000
O O2 0.595895 0.827657 0.385976
O O3 0.933188 0.783620 0.650057
O O4 0.840121 0.964658 0.564186
O O5 0.608046 0.138676 0.971962
O O6 0.255735 0.259251 0.858452
O O7 0.500000 0.561527 0.500000
O O8 0.455935 0.641151 0.631912
O O9 0.815501 0.512219 0.764921
O O10 0.317468 0.528532 0.961576
O O11 0.302672 0.659493 0.851338
O O12 0.767078 0.228324 0.681691
O O13 0.699414 0.961329 0.047814
O O14 0.595522 0.831726 0.123750
#
# Coordination Sequence:
#
# PCOD8050316 Si02
#       8
#     4   2   4   2   4   4   2   4
#     4  12  28  46  71 107 146 198 250 297 373 439
#     4   9  20  41  71 104 133 184 238 293 362 430
#     4  11  25  49  75 105 150 194 244 307 367 438
#     4  11  24  39  75 105 138 184 254 293 382 430
#     4  11  24  45  78 103 149 190 247 306 371 438
#     4  10  21  44  71 102 139 184 242 299 358 436
#     4  10  22  44  72  93 151 188 228 314 364 414
#     4  11  24  44  68 106 144 189 237 308 371 429
#
# _framework density 22.200288
#
# number of rings (size 3 to 8) (size 9 to 14) (size 15 to 20)
#    0.000    1.231    3.077    1.846    6.462    1.231 
#    2.769    0.769    0.000    0.000    0.000    0.000 
#    0.000    0.000    0.000    0.000    0.000    0.000 
#
# Total GULP energy -161066.479718 kJ/mol
# GULP energy per Si atom -12389.729209 kJ/mol
# Density = 2.214976 g / cm^3
# Si number density = 22.200288 Si / 1000 Ang^3
#
#
#
# Elastic Constant Matrix: (Units=GPa)
#
#
# Indices 1 2 3 4 5 6 
#
# 1 188.6907 59.6348 46.8290 0.0000 -5.1381 0.0000
# 2 59.6348 93.0084 41.2068 -0.0006 1.4776 -0.0002
# 3 46.8290 41.2068 105.6788 0.0006 -4.4210 -0.0001
# 4 0.0000 -0.0006 0.0006 7.2323 0.0004 4.4192
# 5 -5.1381 1.4776 -4.4210 0.0004 40.0826 0.0000
# 6 0.0000 -0.0002 -0.0001 4.4192 0.0000 30.2496
#
#
#
# Elastic Compliance Matrix: (Units=1/GPa)
#
#
# Indices 1 2 3 4 5 6 
#
# 1 0.006892 -0.003742 -0.001560 0.000000 0.000849 0.000000
# 2 -0.003742 0.015072 -0.004282 0.000002 -0.001508 0.000000
# 3 -0.001560 -0.004282 0.011876 -0.000002 0.001268 0.000000
# 4 0.000000 0.000002 -0.000002 0.151822 -0.000002 -0.022180
# 5 0.000849 -0.001508 0.001268 -0.000002 0.025253 0.000000
# 6 0.000000 0.000000 0.000000 -0.022180 0.000000 0.036299
#
#
# Mechanical properties :
#
#
# Convention : Reuss Voigt Hill
#
# Bulk Modulus (GPa) = 68.14743 75.85767 72.00255
# Shear Modulus (GPa) = 18.43169 31.49337 24.96253
#
# Velocity S-wave (km/s) = 2.88452 3.77052 3.35688
# Velocity P-wave (km/s) = 6.46972 7.29381 6.89409
#
# Compressibility (1/GPa) = 0.01467407
#
# Stress axis : x y z
#
# Youngs Moduli (GPa) = 145.08612 66.34879 84.20039
#
# Poissons Ratio (x) = 0.24826 0.13133
# Poissons Ratio (y) = 0.54288 0.36054
# Poissons Ratio (z) = 0.22629 0.28410
#
# Static dielectric constant tensor:
#      x y z
#    x 4.136690 0.000000 -0.125340 
#    y 0.000000 3.916480 0.000000 
#    z -0.125340 0.000000 4.412810 
# 
# 
# High freq. dielectric constant tensor:
#      x y z
#    x 1.879600 0.000000 -0.010340 
#    y 0.000000 1.871000 0.000000 
#    z -0.010340 0.000000 1.882610 
# 
# From -- ./inp_files/50860.got.cif
#   From: 2010.03.12/outbox.cif.g09.slc.cpg/sg5_26_cif.got.tgz:50860.got - 2010.03.31 09:47:26.
