data_PCOD8050689
_publ_section_title
;
Structure prediction by ZEFSAII (Michael W. Deem and Ramdas Pophale) SiO2 
 PCOD8050689
Probable space group: C 2
;
_chemical_formula_sum "Si O2"
_cell_formula_units_Z 22
_cell_length_a 14.198598
_cell_length_b 4.806684
_cell_length_c 18.844185
_cell_angle_alpha 90.000000
_cell_angle_beta 134.259757
_cell_angle_gamma 90.000000
_cell_volume 921.069637
_symmetry_space_group_name_H-M "C 2"
_symmetry_group_IT_number 5
_symmetry_cell_setting 'monoclinic'
loop_
_space_group_symop_operation_xyz
x,y,z
-x,y,-z
1/2+x,1/2+y,z
1/2-x,1/2+y,-z
loop_
_atom_site_type_symbol
_atom_site_label
_atom_site_fract_x
_atom_site_fract_y
_atom_site_fract_z
Si Si1 0.342259 0.109170 0.724743
Si Si2 0.500000 0.298261 0.000000
Si Si3 0.195904 0.336893 0.433774
Si Si4 0.193562 0.104088 0.201616
Si Si5 0.427822 0.910410 0.234875
Si Si6 0.739568 0.074615 0.043034
O O1 0.255036 0.982100 0.614183
O O2 0.296109 0.419226 0.720754
O O3 0.496156 0.106493 0.782324
O O4 0.325407 0.924123 0.786964
O O5 0.568135 0.499446 0.092534
O O6 0.603241 0.101839 0.013694
O O7 0.266767 0.041943 0.481718
O O8 0.037844 0.285597 0.346919
O O9 0.324475 0.095506 0.223491
O O10 0.358707 0.657350 0.157500
O O11 0.756979 0.755981 0.027927
#
# Coordination Sequence:
#
# PCOD8050689 Si02
#       6
#     4   2   4   4   4   4
#     4  10  23  39  65  84 127 157 205 253 310 356
#     4  10  24  36  64  88 134 154 214 244 296 370
#     4  10  22  42  65  88 121 162 206 262 314 355
#     4  11  22  41  59  97 118 171 197 252 304 370
#     4   9  24  39  65  88 128 161 202 261 302 365
#     4  11  23  39  61  93 123 166 205 245 309 368
#
# _framework density 23.885272000000001
#
# number of rings (size 3 to 8) (size 9 to 14) (size 15 to 20)
#    1.091    0.727    0.000    3.273    0.000   11.636 
#    0.000    5.455    0.000    0.000    0.000    0.000 
#    0.000    0.000    0.000    0.000    0.000    0.000 
#
# Total GULP energy -136403.477414 kJ/mol
# GULP energy per Si atom -12400.316129 kJ/mol
# Density = 2.383091 g / cm^3
# Si number density = 23.885272 Si / 1000 Ang^3
#
#
#
# Elastic Constant Matrix: (Units=GPa)
#
#
# Indices 1 2 3 4 5 6 
#
# 1 112.2788 8.5151 12.5750 0.0000 0.4308 0.0000
# 2 8.5151 62.4469 -1.0312 -0.0001 5.8388 0.0000
# 3 12.5750 -1.0312 84.7004 0.0002 7.9274 0.0006
# 4 0.0000 -0.0001 0.0002 12.9877 0.0000 -6.8052
# 5 0.4308 5.8388 7.9274 0.0000 25.1627 0.0000
# 6 0.0000 0.0000 0.0006 -6.8052 0.0000 23.3205
#
#
#
# Elastic Compliance Matrix: (Units=1/GPa)
#
#
# Indices 1 2 3 4 5 6 
#
# 1 0.009165 -0.001330 -0.001433 0.000000 0.000603 0.000000
# 2 -0.001330 0.016589 0.000781 0.000000 -0.004072 0.000000
# 3 -0.001433 0.000781 0.012409 0.000000 -0.004066 0.000000
# 4 0.000000 0.000000 0.000000 0.090894 0.000000 0.026524
# 5 0.000603 -0.004072 -0.004066 0.000000 0.041957 0.000000
# 6 0.000000 0.000000 0.000000 0.026524 0.000000 0.050621
#
#
# Mechanical properties :
#
#
# Convention : Reuss Voigt Hill
#
# Bulk Modulus (GPa) = 29.24161 33.28266 31.26213
# Shear Modulus (GPa) = 21.09704 28.25197 24.67451
#
# Velocity S-wave (km/s) = 2.97520 3.44295 3.21759
# Velocity P-wave (km/s) = 4.90628 5.45617 5.18851
#
# Compressibility (1/GPa) = 0.03419785
#
# Stress axis : x y z
#
# Youngs Moduli (GPa) = 109.10507 60.28236 80.58542
#
# Poissons Ratio (x) = 0.08017 0.11551
# Poissons Ratio (y) = 0.14509 -0.06290
# Poissons Ratio (z) = 0.15639 -0.04705
#
# Static dielectric constant tensor:
#      x y z
#    x 4.227480 0.000000 -0.120520 
#    y 0.000000 3.959450 0.000000 
#    z -0.120520 0.000000 4.313410 
# 
# 
# High freq. dielectric constant tensor:
#      x y z
#    x 1.940960 0.000000 -0.013580 
#    y 0.000000 1.941200 0.000000 
#    z -0.013580 0.000000 1.945900 
# 
# From -- ./inp_files/41094.got.cif
#   From: 2010.03.12/outbox.cif.g09.slc.cpg/sg5_21_cif.got.tgz:41094.got - 2010.03.31 09:47:26.
