data_PCOD8050068
_publ_section_title
;
Structure prediction by ZEFSAII (Michael W. Deem and Ramdas Pophale) SiO2 
 PCOD8050068
Probable space group: C 2
;
_chemical_formula_sum "Si O2"
_cell_formula_units_Z 32
_cell_length_a 14.165918
_cell_length_b 12.554388
_cell_length_c 14.214347
_cell_angle_alpha 90.000000
_cell_angle_beta 39.660264
_cell_angle_gamma 90.000000
_cell_volume 1613.418993
_symmetry_space_group_name_H-M "C 2"
_symmetry_group_IT_number 5
_symmetry_cell_setting 'monoclinic'
loop_
_space_group_symop_operation_xyz
x,y,z
-x,y,-z
1/2+x,1/2+y,z
1/2-x,1/2+y,-z
loop_
_atom_site_type_symbol
_atom_site_label
_atom_site_fract_x
_atom_site_fract_y
_atom_site_fract_z
Si Si1 0.634785 0.571640 0.333525
Si Si2 0.103501 0.529443 0.113540
Si Si3 0.201229 0.425212 0.647897
Si Si4 0.855589 0.712486 0.062891
Si Si5 0.221123 0.171447 0.891551
Si Si6 0.565080 0.495925 0.677229
Si Si7 0.823407 0.856078 0.922561
Si Si8 0.604895 0.689532 0.778473
O O1 0.500000 0.615707 0.500000
O O2 0.721121 0.475858 0.319664
O O3 0.740807 0.671242 0.229492
O O4 0.570386 0.529275 0.285595
O O5 0.200694 0.565291 0.129208
O O6 0.942614 0.492480 0.269449
O O7 0.085667 0.618099 0.048209
O O8 0.189455 0.433218 0.998462
O O9 0.307401 0.434708 0.476585
O O10 0.161125 0.302201 0.695842
O O11 0.781971 0.802478 0.054488
O O12 0.000000 0.762560 0.000000
O O13 0.329629 0.269537 0.833553
O O14 0.201546 0.159220 0.795473
O O15 0.067211 0.193509 0.063395
O O16 0.484316 0.412627 0.809130
O O17 0.631605 0.597936 0.680314
#
# Coordination Sequence:
#
# PCOD8050068 Si02
#       8
#     4   4   4   4   4   4   4   4
#     4  10  21  40  63  89 125 159 203 260 307 358
#     4  11  21  39  61  91 125 158 203 257 304 357
#     4  11  24  39  66  92 122 162 206 257 309 365
#     4  11  22  36  61  95 121 159 213 251 303 371
#     4  10  22  37  65  96 119 157 214 255 300 364
#     4  11  23  42  62  90 131 160 201 256 316 365
#     4  11  21  38  62  89 127 163 200 257 306 362
#     4  11  22  39  66  94 118 163 209 255 304 368
#
# _framework density 19.833658
#
# number of rings (size 3 to 8) (size 9 to 14) (size 15 to 20)
#    0.000    1.250    5.000    1.500    0.000    3.000 
#    0.000    1.875    0.000    0.000    0.000    0.000 
#    0.000    0.000    0.000    0.000    0.000    0.000 
#
# Total GULP energy -198405.876414 kJ/mol
# GULP energy per Si atom -12400.367276 kJ/mol
# Density = 1.978852 g / cm^3
# Si number density = 19.833658 Si / 1000 Ang^3
#
#
#
# Elastic Constant Matrix: (Units=GPa)
#
#
# Indices 1 2 3 4 5 6 
#
# 1 115.1420 47.1822 32.8583 0.0000 1.7707 0.0000
# 2 47.1822 83.0275 40.7416 0.0000 10.8225 0.0000
# 3 32.8583 40.7416 99.4924 -0.0001 -7.0145 0.0000
# 4 0.0000 0.0000 -0.0001 26.2969 0.0000 0.0630
# 5 1.7707 10.8225 -7.0145 0.0000 26.3209 0.0000
# 6 0.0000 0.0000 0.0000 0.0630 0.0000 21.7074
#
#
#
# Elastic Compliance Matrix: (Units=1/GPa)
#
#
# Indices 1 2 3 4 5 6 
#
# 1 0.011523 -0.006155 -0.001183 0.000000 0.001440 0.000000
# 2 -0.006155 0.020213 -0.006932 0.000000 -0.009744 0.000000
# 3 -0.001183 -0.006932 0.013745 0.000000 0.006593 0.000000
# 4 0.000000 0.000000 0.000000 0.038028 0.000000 -0.000110
# 5 0.001440 -0.009744 0.006593 0.000000 0.043659 0.000000
# 6 0.000000 0.000000 0.000000 -0.000110 0.000000 0.046068
#
#
# Mechanical properties :
#
#
# Convention : Reuss Voigt Hill
#
# Bulk Modulus (GPa) = 59.02798 59.91401 59.47099
# Shear Modulus (GPa) = 24.10537 26.65705 25.38121
#
# Velocity S-wave (km/s) = 3.49001 3.67008 3.58118
# Velocity P-wave (km/s) = 6.78722 6.94501 6.86657
#
# Compressibility (1/GPa) = 0.01694112
#
# Stress axis : x y z
#
# Youngs Moduli (GPa) = 86.78545 49.47222 72.75319
#
# Poissons Ratio (x) = 0.30450 0.08610
# Poissons Ratio (y) = 0.53416 0.50429
# Poissons Ratio (z) = 0.10271 0.34292
#
# Static dielectric constant tensor:
#      x y z
#    x 3.654990 0.000000 -0.050060 
#    y 0.000000 3.599220 0.000000 
#    z -0.050060 0.000000 3.540460 
# 
# 
# High freq. dielectric constant tensor:
#      x y z
#    x 1.778110 0.000000 -0.006670 
#    y 0.000000 1.770290 0.000000 
#    z -0.006670 0.000000 1.762160 
# 
# From -- ./inp_files/54566.got.cif
#   From: 2010.03.12/outbox.cif.g09.slc.cpg/sg5_28_cif.got.tgz:54566.got - 2010.03.31 09:47:26.
