data_PCOD8050346
_publ_section_title
;
Structure prediction by ZEFSAII (Michael W. Deem and Ramdas Pophale) SiO2 
 PCOD8050346
Probable space group: C 2
;
_chemical_formula_sum "Si O2"
_cell_formula_units_Z 28
_cell_length_a 15.250217
_cell_length_b 16.953522
_cell_length_c 8.672456
_cell_angle_alpha 90.000000
_cell_angle_beta 39.366513
_cell_angle_gamma 90.000000
_cell_volume 1422.192031
_symmetry_space_group_name_H-M "C 2"
_symmetry_group_IT_number 5
_symmetry_cell_setting 'monoclinic'
loop_
_space_group_symop_operation_xyz
x,y,z
-x,y,-z
1/2+x,1/2+y,z
1/2-x,1/2+y,-z
loop_
_atom_site_type_symbol
_atom_site_label
_atom_site_fract_x
_atom_site_fract_y
_atom_site_fract_z
Si Si1 0.807269 0.111080 0.015926
Si Si2 0.307268 0.512276 0.515926
Si Si3 0.500000 0.544437 0.000000
Si Si4 0.418425 0.995454 0.765062
Si Si5 0.000000 0.078919 0.500000
Si Si6 0.361539 0.243577 0.610715
Si Si7 0.638461 0.879779 0.889284
Si Si8 0.081577 0.627903 0.734937
O O1 0.910006 0.134122 0.735976
O O2 0.897843 0.101622 0.045716
O O3 0.730776 0.029215 0.080463
O O4 0.693918 0.177971 0.195099
O O5 0.410004 0.489234 0.235977
O O6 0.397842 0.521733 0.545717
O O7 0.193916 0.445385 0.695100
O O8 0.230778 0.594141 0.580463
O O9 0.500000 0.971028 0.500000
O O10 0.500001 0.061679 0.749997
O O11 0.394467 0.917388 0.899346
O O12 0.500000 0.278444 0.500000
O O13 0.250001 0.311679 0.749999
O O14 0.394465 0.205970 0.399347
O O15 0.500000 0.844911 0.000000
O O16 0.000000 0.652328 0.000000
#
# Coordination Sequence:
#
# PCOD8050346 Si02
#       8
#     4   4   2   4   2   4   4   4
#     4  11  20  39  64  95 131 167 228 268 330 396
#     4  11  20  39  64  95 131 167 228 268 330 396
#     4  10  22  32  64  98 126 162 214 288 312 382
#     4  12  20  41  74  99 121 176 242 276 322 415
#     4  10  22  32  64  98 126 162 214 288 312 382
#     4  12  27  44  66  98 143 179 221 288 352 395
#     4  12  27  44  66  98 143 179 221 288 352 395
#     4  12  20  41  74  99 121 176 242 276 322 415
#
# _framework density 19.687919000000001
#
# number of rings (size 3 to 8) (size 9 to 14) (size 15 to 20)
#    0.000    0.571    8.571    0.000    2.000    0.000 
#    2.571    1.429    0.000    0.000    0.000    0.000 
#    0.000    0.000    0.000    0.000    0.000    0.000 
#
# Total GULP energy -173627.259351 kJ/mol
# GULP energy per Si atom -12401.947096 kJ/mol
# Density = 1.964311 g / cm^3
# Si number density = 19.687919 Si / 1000 Ang^3
#
#
#
# Elastic Constant Matrix: (Units=GPa)
#
#
# Indices 1 2 3 4 5 6 
#
# 1 146.0879 48.4429 60.8444 0.0000 -12.7392 0.0000
# 2 48.4429 81.1614 52.5058 0.0000 4.1569 0.0000
# 3 60.8444 52.5058 154.7124 0.0000 15.8912 0.0000
# 4 0.0000 0.0000 0.0000 37.2574 0.0000 -9.6687
# 5 -12.7392 4.1569 15.8912 0.0000 43.8033 0.0000
# 6 0.0000 0.0000 0.0000 -9.6687 0.0000 28.3700
#
#
#
# Elastic Compliance Matrix: (Units=1/GPa)
#
#
# Indices 1 2 3 4 5 6 
#
# 1 0.009814 -0.004223 -0.002868 0.000000 0.004295 0.000000
# 2 -0.004223 0.017613 -0.004175 0.000000 -0.001385 0.000000
# 3 -0.002868 -0.004175 0.009404 0.000000 -0.003849 0.000000
# 4 0.000000 0.000000 0.000000 0.029444 0.000000 0.010035
# 5 0.004295 -0.001385 -0.003849 0.000000 0.025607 0.000000
# 6 0.000000 0.000000 0.000000 0.010035 0.000000 0.038668
#
#
# Mechanical properties :
#
#
# Convention : Reuss Voigt Hill
#
# Bulk Modulus (GPa) = 69.92540 78.39422 74.15981
# Shear Modulus (GPa) = 31.67610 36.56405 34.12008
#
# Velocity S-wave (km/s) = 4.01547 4.31418 4.16750
# Velocity P-wave (km/s) = 7.55597 8.04494 7.80429
#
# Compressibility (1/GPa) = 0.01430096
#
# Stress axis : x y z
#
# Youngs Moduli (GPa) = 101.89045 56.77601 106.34211
#
# Poissons Ratio (x) = 0.23974 0.30498
# Poissons Ratio (y) = 0.43025 0.44393
# Poissons Ratio (z) = 0.29221 0.23701
#
# Static dielectric constant tensor:
#      x y z
#    x 3.854150 0.000000 0.041740 
#    y 0.000000 3.172780 0.000000 
#    z 0.041740 0.000000 4.079870 
# 
# 
# High freq. dielectric constant tensor:
#      x y z
#    x 1.789460 0.000000 -0.005590 
#    y 0.000000 1.711730 0.000000 
#    z -0.005590 0.000000 1.797280 
# 
# From -- ./inp_files/24811.got.cif
#   From: 2010.03.12/outbox.cif.g09.slc.cpg/sg5_13_cif.got.tgz:24811.got - 2010.03.31 09:47:26.
