data_PCOD8050754
_publ_section_title
;
Structure prediction by ZEFSAII (Michael W. Deem and Ramdas Pophale) SiO2 
 PCOD8050754
Probable space group: C 2
;
_chemical_formula_sum "Si O2"
_cell_formula_units_Z 26
_cell_length_a 6.251296
_cell_length_b 16.044429
_cell_length_c 14.551440
_cell_angle_alpha 90.000000
_cell_angle_beta 125.976041
_cell_angle_gamma 90.000000
_cell_volume 1181.108604
_symmetry_space_group_name_H-M "C 2"
_symmetry_group_IT_number 5
_symmetry_cell_setting 'monoclinic'
loop_
_space_group_symop_operation_xyz
x,y,z
-x,y,-z
1/2+x,1/2+y,z
1/2-x,1/2+y,-z
loop_
_atom_site_type_symbol
_atom_site_label
_atom_site_fract_x
_atom_site_fract_y
_atom_site_fract_z
Si Si1 0.500000 0.633030 0.000000
Si Si2 0.002338 0.522720 0.871745
Si Si3 0.052601 0.450783 0.694729
Si Si4 0.000000 0.985185 0.500000
Si Si5 0.500000 0.873531 0.000000
Si Si6 0.943316 0.820745 0.884725
Si Si7 0.272032 0.577425 0.609656
Si Si8 0.881255 0.159200 0.167735
O O1 0.253987 0.576012 0.959382
O O2 0.489818 0.683012 0.899736
O O3 0.984110 0.516024 0.757825
O O4 0.033664 0.430037 0.918626
O O5 0.752116 0.567257 0.857050
O O6 0.227460 0.373272 0.773572
O O7 0.224329 0.497333 0.662157
O O8 0.762101 0.426780 0.579828
O O9 0.965198 0.046483 0.578124
O O10 0.237597 0.817620 0.914258
O O11 0.840774 0.726532 0.863162
O O12 0.000000 0.858505 0.000000
O O13 0.390594 0.655392 0.697306
O O14 0.000000 0.612304 0.500000
#
# Coordination Sequence:
#
# PCOD8050754 Si02
#       8
#     2   4   4   2   2   4   4   4
#     4  12  22  39  68 103 136 180 230 282 341 428
#     4  12  21  39  69  95 127 182 234 275 337 411
#     4  11  22  42  70  99 135 178 235 289 341 417
#     4  10  22  42  74 102 128 178 244 294 340 406
#     4  12  24  43  64  97 142 184 234 280 337 426
#     4  12  27  43  62 105 148 180 224 282 367 422
#     4  10  22  43  73 100 128 179 245 293 337 412
#     4  12  25  43  66 101 143 184 229 288 352 417
#
# _framework density 22.013217000000001
#
# number of rings (size 3 to 8) (size 9 to 14) (size 15 to 20)
#    0.000    0.615    6.154    2.769    0.000    2.462 
#    1.385    0.000    5.077    0.000    0.000    0.000 
#    0.000    0.000    0.000    0.000    0.000    0.000 
#
# Total GULP energy -161100.361358 kJ/mol
# GULP energy per Si atom -12392.335489 kJ/mol
# Density = 2.196311 g / cm^3
# Si number density = 22.013217 Si / 1000 Ang^3
#
#
#
# Elastic Constant Matrix: (Units=GPa)
#
#
# Indices 1 2 3 4 5 6 
#
# 1 133.5498 46.8020 63.1029 0.0000 -1.2698 0.0000
# 2 46.8020 76.7700 46.6297 0.0000 3.7002 0.0000
# 3 63.1029 46.6297 142.6463 0.0000 8.6623 0.0000
# 4 0.0000 0.0000 0.0000 -80.8671 0.0000 -135.2275
# 5 -1.2698 3.7002 8.6623 0.0000 53.3331 0.0000
# 6 0.0000 0.0000 0.0000 -135.2275 0.0000 -145.2643
#
#
#
# Elastic Compliance Matrix: (Units=1/GPa)
#
#
# Indices 1 2 3 4 5 6 
#
# 1 0.010646 -0.004544 -0.003291 0.000000 0.001103 0.000000
# 2 -0.004544 0.018197 -0.003893 0.000000 -0.000738 0.000000
# 3 -0.003291 -0.003893 0.009824 0.000000 -0.001404 0.000000
# 4 0.000000 0.000000 0.000000 0.022214 0.000000 -0.020679
# 5 0.001103 -0.000738 -0.001404 0.000000 0.019056 0.000000
# 6 0.000000 0.000000 0.000000 -0.020679 0.000000 0.012366
#
#
# Mechanical properties :
#
#
# Convention : Reuss Voigt Hill
#
# Bulk Modulus (GPa) = 65.74799 74.00391 69.87595
# Shear Modulus (GPa) = 41.38081 -21.46421 9.95830
#
# Velocity S-wave (km/s) = 4.34039 -3.12598 2.12923
# Velocity P-wave (km/s) = 7.41964 4.54554 6.15276
#
# Compressibility (1/GPa) = 0.01520959
#
# Stress axis : x y z
#
# Youngs Moduli (GPa) = 93.93303 54.95525 101.79117
#
# Poissons Ratio (x) = 0.24974 0.33499
# Poissons Ratio (y) = 0.42687 0.39629
# Poissons Ratio (z) = 0.30913 0.21395
#
# Static dielectric constant tensor:
#      x y z
#    x 8.503140 0.000000 3.185440 
#    y 0.000000 3.428860 0.000000 
#    z 3.185440 0.000000 6.682790 
# 
# 
# High freq. dielectric constant tensor:
#      x y z
#    x 1.891890 0.000000 0.004970 
#    y 0.000000 1.821180 0.000000 
#    z 0.004970 0.000000 1.878390 
# 
# From -- ./inp_files/49273.got.cif
#   From: 2010.03.12/outbox.cif.g09.slc.cpg/sg5_25_cif.got.tgz:49273.got - 2010.03.31 09:47:26.
