data_PCOD8050984
_publ_section_title
;
Structure prediction by ZEFSAII (Michael W. Deem and Ramdas Pophale) SiO2 
 PCOD8050984
Probable space group: C 2
;
_chemical_formula_sum "Si O2"
_cell_formula_units_Z 24
_cell_length_a 10.511532
_cell_length_b 9.192651
_cell_length_c 20.583500
_cell_angle_alpha 90.000000
_cell_angle_beta 147.523451
_cell_angle_gamma 90.000000
_cell_volume 1067.980666
_symmetry_space_group_name_H-M "C 2"
_symmetry_group_IT_number 5
_symmetry_cell_setting 'monoclinic'
loop_
_space_group_symop_operation_xyz
x,y,z
-x,y,-z
1/2+x,1/2+y,z
1/2-x,1/2+y,-z
loop_
_atom_site_type_symbol
_atom_site_label
_atom_site_fract_x
_atom_site_fract_y
_atom_site_fract_z
Si Si1 0.620434 0.223410 0.222252
Si Si2 0.247340 0.894732 0.862286
Si Si3 0.923770 0.200979 0.236900
Si Si4 0.693790 0.886948 0.262724
Si Si5 0.148114 0.729049 0.475913
Si Si6 0.020207 0.429300 0.439021
O O1 0.360589 0.268923 0.136500
O O2 0.673872 0.232967 0.167371
O O3 0.783519 0.343545 0.324942
O O4 0.681538 0.059147 0.269861
O O5 0.280746 0.842949 0.802089
O O6 0.500000 0.937322 0.000000
O O7 0.080998 0.037706 0.792996
O O8 0.958017 0.312620 0.191759
O O9 0.141554 0.220734 0.380772
O O10 0.915797 0.818677 0.398301
O O11 0.071265 0.569587 0.415348
O O12 0.257344 0.819426 0.463037
O O13 0.000000 0.506901 0.500000
#
# Coordination Sequence:
#
# PCOD8050984 Si02
#       6
#     4   4   4   4   4   4
#     4  10  23  40  59  93 128 164 215 262 314 377
#     4  11  25  46  67  90 127 173 221 268 314 372
#     4  10  23  42  64  94 130 167 210 263 320 380
#     4  11  23  40  64  96 129 165 211 260 320 385
#     4  11  21  37  62  95 131 168 206 253 320 389
#     4  11  21  35  57  86 128 169 205 252 311 377
#
# _framework density 22.472318000000001
#
# number of rings (size 3 to 8) (size 9 to 14) (size 15 to 20)
#    0.000    1.333    0.000    7.500    0.000   10.667 
#    0.000    3.333    0.000    0.000    0.000    0.000 
#    0.000    0.000    0.000    0.000    0.000    0.000 
#
# Total GULP energy -148663.274625 kJ/mol
# GULP energy per Si atom -12388.606219 kJ/mol
# Density = 2.242117 g / cm^3
# Si number density = 22.472318 Si / 1000 Ang^3
#
#
#
# Elastic Constant Matrix: (Units=GPa)
#
#
# Indices 1 2 3 4 5 6 
#
# 1 132.2292 69.2638 26.9521 0.0000 14.3730 0.0000
# 2 69.2638 155.9055 37.9431 0.0000 13.7224 0.0000
# 3 26.9521 37.9431 61.3845 0.0000 6.1655 0.0000
# 4 0.0000 0.0000 0.0000 18.3615 0.0000 8.5106
# 5 14.3730 13.7224 6.1655 0.0000 17.5850 0.0000
# 6 0.0000 0.0000 0.0000 8.5106 0.0000 44.6587
#
#
#
# Elastic Compliance Matrix: (Units=1/GPa)
#
#
# Indices 1 2 3 4 5 6 
#
# 1 0.010436 -0.003773 -0.001751 0.000000 -0.004972 0.000000
# 2 -0.003773 0.009259 -0.003784 0.000000 -0.002815 0.000000
# 3 -0.001751 -0.003784 0.019650 0.000000 -0.002506 0.000000
# 4 0.000000 0.000000 0.000000 0.059739 0.000000 -0.011384
# 5 -0.004972 -0.002815 -0.002506 0.000000 0.064006 0.000000
# 6 0.000000 0.000000 0.000000 -0.011384 0.000000 0.024562
#
#
# Mechanical properties :
#
#
# Convention : Reuss Voigt Hill
#
# Bulk Modulus (GPa) = 48.23865 68.64857 58.44361
# Shear Modulus (GPa) = 23.45481 30.47839 26.96660
#
# Velocity S-wave (km/s) = 3.23417 3.68674 3.46785
# Velocity P-wave (km/s) = 5.95474 6.98120 6.48830
#
# Compressibility (1/GPa) = 0.02073026
#
# Stress axis : x y z
#
# Youngs Moduli (GPa) = 95.82071 108.00424 50.89034
#
# Poissons Ratio (x) = 0.40747 0.08910
# Poissons Ratio (y) = 0.36150 0.19256
# Poissons Ratio (z) = 0.16776 0.40868
#
# Static dielectric constant tensor:
#      x y z
#    x 4.623090 0.000000 0.300200 
#    y 0.000000 4.128150 0.000000 
#    z 0.300200 0.000000 3.652290 
# 
# 
# High freq. dielectric constant tensor:
#      x y z
#    x 1.902840 0.000000 0.021780 
#    y 0.000000 1.897280 0.000000 
#    z 0.021780 0.000000 1.841940 
# 
# From -- ./inp_files/38252.got.cif
#   From: 2010.03.12/outbox.cif.g09.slc.cpg/sg5_20_cif.got.tgz:38252.got - 2010.03.31 09:47:26.
