data_PCOD8050828
_publ_section_title
;
Structure prediction by ZEFSAII (Michael W. Deem and Ramdas Pophale) SiO2 
 PCOD8050828
Probable space group: C 2
;
_chemical_formula_sum "Si O2"
_cell_formula_units_Z 32
_cell_length_a 20.243425
_cell_length_b 13.669577
_cell_length_c 14.395978
_cell_angle_alpha 90.000000
_cell_angle_beta 158.396330
_cell_angle_gamma 90.000000
_cell_volume 1466.713473
_symmetry_space_group_name_H-M "C 2"
_symmetry_group_IT_number 5
_symmetry_cell_setting 'monoclinic'
loop_
_space_group_symop_operation_xyz
x,y,z
-x,y,-z
1/2+x,1/2+y,z
1/2-x,1/2+y,-z
loop_
_atom_site_type_symbol
_atom_site_label
_atom_site_fract_x
_atom_site_fract_y
_atom_site_fract_z
Si Si1 0.277809 0.092620 0.495898
Si Si2 0.505274 0.803547 0.616303
Si Si3 0.577005 0.643125 0.853665
Si Si4 0.485950 0.932237 0.872924
Si Si5 0.329930 0.300612 0.510882
Si Si6 0.804002 0.944331 0.769014
Si Si7 0.170804 0.936974 0.982862
Si Si8 0.794483 0.798312 0.251989
O O1 0.377722 0.196500 0.617657
O O2 0.087904 0.108284 0.297896
O O3 0.420350 0.031186 0.740393
O O4 0.240595 0.041897 0.347740
O O5 0.500000 0.781365 0.500000
O O6 0.515509 0.701559 0.682746
O O7 0.332120 0.857077 0.431805
O O8 0.673738 0.872948 0.860047
O O9 0.662939 0.543303 0.924192
O O10 0.724967 0.704751 0.104022
O O11 0.343307 0.846107 0.665154
O O12 0.500000 0.954805 0.000000
O O13 0.672788 0.894569 0.072250
O O14 0.488980 0.377059 0.731395
O O15 0.275246 0.275958 0.334786
O O16 0.788647 0.965726 0.857756
O O17 0.000000 0.904110 0.000000
O O18 0.000000 0.823780 0.500000
#
# Coordination Sequence:
#
# PCOD8050828 Si02
#       8
#     4   4   4   4   4   4   4   4
#     4  12  24  41  72 106 130 183 235 293 343 412
#     4  10  26  47  67  99 142 185 225 285 354 422
#     4  12  23  43  73 100 136 182 239 288 342 419
#     4  10  22  44  66  96 136 178 227 282 346 411
#     4  11  23  42  67 100 138 175 230 287 347 415
#     4  11  22  41  70 104 134 181 231 285 347 406
#     4  11  24  45  68 101 143 177 229 293 352 417
#     4  11  24  42  70 101 138 184 228 288 348 412
#
# _framework density 21.817484
#
# number of rings (size 3 to 8) (size 9 to 14) (size 15 to 20)
#    0.000    1.000    3.750    2.250    1.750    3.500 
#    4.500    1.875    0.000    0.000    0.000    0.000 
#    0.000    0.000    0.000    0.000    0.000    0.000 
#
# Total GULP energy -198418.099558 kJ/mol
# GULP energy per Si atom -12401.131222 kJ/mol
# Density = 2.176783 g / cm^3
# Si number density = 21.817484 Si / 1000 Ang^3
#
#
#
# Elastic Constant Matrix: (Units=GPa)
#
#
# Indices 1 2 3 4 5 6 
#
# 1 55.9006 50.5615 28.3507 0.0000 2.3967 0.0000
# 2 50.5615 173.7042 77.0492 0.0000 -8.9600 0.0000
# 3 28.3507 77.0492 140.1624 0.0000 14.7792 0.0000
# 4 0.0000 0.0000 0.0000 34.5348 0.0000 -2.3795
# 5 2.3967 -8.9600 14.7792 0.0000 37.6817 0.0000
# 6 0.0000 0.0000 0.0000 -2.3795 0.0000 29.7712
#
#
#
# Elastic Compliance Matrix: (Units=1/GPa)
#
#
# Indices 1 2 3 4 5 6 
#
# 1 0.024758 -0.006969 -0.000872 0.000000 -0.002890 0.000000
# 2 -0.006969 0.010074 -0.004618 0.000000 0.004650 0.000000
# 3 -0.000872 -0.004618 0.010389 0.000000 -0.005118 0.000000
# 4 0.000000 0.000000 0.000000 0.029117 0.000000 0.002327
# 5 -0.002890 0.004650 -0.005118 0.000000 0.029835 0.000000
# 6 0.000000 0.000000 0.000000 0.002327 0.000000 0.033775
#
#
# Mechanical properties :
#
#
# Convention : Reuss Voigt Hill
#
# Bulk Modulus (GPa) = 49.25497 75.74332 62.49915
# Shear Modulus (GPa) = 29.47504 34.65128 32.06316
#
# Velocity S-wave (km/s) = 3.67956 3.98959 3.83771
# Velocity P-wave (km/s) = 6.37786 7.48429 6.95312
#
# Compressibility (1/GPa) = 0.02030252
#
# Stress axis : x y z
#
# Youngs Moduli (GPa) = 40.39045 99.26746 96.25113
#
# Poissons Ratio (x) = 0.69176 0.08397
# Poissons Ratio (y) = 0.28147 0.44453
# Poissons Ratio (z) = 0.03524 0.45846
#
# Static dielectric constant tensor:
#      x y z
#    x 3.954950 0.000000 -0.025700 
#    y 0.000000 4.050800 0.000000 
#    z -0.025700 0.000000 4.147460 
# 
# 
# High freq. dielectric constant tensor:
#      x y z
#    x 1.857100 0.000000 -0.003450 
#    y 0.000000 1.859720 0.000000 
#    z -0.003450 0.000000 1.866930 
# 
# From -- ./inp_files/57197.got.cif
#   From: 2010.03.12/outbox.cif.g09.slc.cpg/sg5_29_cif.got.tgz:57197.got - 2010.03.31 09:47:26.
