data_PCOD8050593
_publ_section_title
;
Structure prediction by ZEFSAII (Michael W. Deem and Ramdas Pophale) SiO2 
 PCOD8050593
Probable space group: C 2
;
_chemical_formula_sum "Si O2"
_cell_formula_units_Z 28
_cell_length_a 6.755807
_cell_length_b 12.727364
_cell_length_c 19.231167
_cell_angle_alpha 90.000000
_cell_angle_beta 56.329593
_cell_angle_gamma 90.000000
_cell_volume 1376.164117
_symmetry_space_group_name_H-M "C 2"
_symmetry_group_IT_number 5
_symmetry_cell_setting 'monoclinic'
loop_
_space_group_symop_operation_xyz
x,y,z
-x,y,-z
1/2+x,1/2+y,z
1/2-x,1/2+y,-z
loop_
_atom_site_type_symbol
_atom_site_label
_atom_site_fract_x
_atom_site_fract_y
_atom_site_fract_z
Si Si1 0.370799 0.542990 0.289004
Si Si2 0.769520 0.898227 0.428779
Si Si3 0.929243 0.679988 0.360799
Si Si4 0.488295 0.281707 0.924616
Si Si5 0.500000 0.541839 0.500000
Si Si6 0.147113 0.016307 0.868980
Si Si7 0.000000 0.184906 0.000000
Si Si8 0.627324 0.130125 0.782699
O O1 0.273805 0.443662 0.350088
O O2 0.399646 0.512923 0.203480
O O3 0.622415 0.572810 0.272880
O O4 0.181259 0.635422 0.336801
O O5 0.500000 0.873357 0.500000
O O6 0.916945 0.791259 0.400546
O O7 0.892201 0.973606 0.459619
O O8 0.709927 0.609843 0.427268
O O9 0.928248 0.691768 0.277550
O O10 0.573246 0.402139 0.911239
O O11 0.651372 0.213051 0.841183
O O12 0.500000 0.235447 0.000000
O O13 0.219225 0.264999 0.950983
O O14 0.422199 0.041968 0.834852
O O15 0.986478 0.107702 0.935432
#
# Coordination Sequence:
#
# PCOD8050593 Si02
#       8
#     4   4   4   4   2   4   2   4
#     4  11  23  42  65  94 129 169 213 262 326 378
#     4  12  25  40  66  94 124 171 215 260 327 380
#     4  11  24  43  65  93 130 164 213 270 313 382
#     4  11  22  40  66  96 129 171 215 259 321 375
#     4  12  24  42  64  94 128 162 214 268 314 384
#     4  10  22  41  64  94 132 166 211 267 311 381
#     4  10  22  42  62  96 130 162 216 266 306 380
#     4  10  23  41  65  93 133 165 215 267 312 381
#
# _framework density 20.346409999999999
#
# number of rings (size 3 to 8) (size 9 to 14) (size 15 to 20)
#    0.000    1.143    4.286    1.714    0.000    4.571 
#    1.286    0.000    0.000    0.000    0.000    0.000 
#    0.000    0.000    0.000    0.000    0.000    0.000 
#
# Total GULP energy -173626.810996 kJ/mol
# GULP energy per Si atom -12401.915071 kJ/mol
# Density = 2.030010 g / cm^3
# Si number density = 20.346410 Si / 1000 Ang^3
#
#
#
# Elastic Constant Matrix: (Units=GPa)
#
#
# Indices 1 2 3 4 5 6 
#
# 1 69.6932 36.4117 25.6586 -0.0002 -6.3413 0.0009
# 2 36.4117 119.5462 49.4146 0.0003 -2.0072 0.0001
# 3 25.6586 49.4146 110.4321 0.0007 -0.8228 0.0009
# 4 -0.0002 0.0003 0.0007 31.6460 -0.0001 -13.9214
# 5 -6.3413 -2.0072 -0.8228 -0.0001 39.3864 -0.0014
# 6 0.0009 0.0001 0.0009 -13.9214 -0.0014 28.1504
#
#
#
# Elastic Compliance Matrix: (Units=1/GPa)
#
#
# Indices 1 2 3 4 5 6 
#
# 1 0.017693 -0.004484 -0.002085 0.000000 0.002577 0.000000
# 2 -0.004484 0.011407 -0.004064 0.000000 -0.000225 0.000000
# 3 -0.002085 -0.004064 0.011356 0.000000 -0.000306 -0.000001
# 4 0.000000 0.000000 0.000000 0.040385 0.000001 0.019972
# 5 0.002577 -0.000225 -0.000306 0.000001 0.025786 0.000002
# 6 0.000000 0.000000 -0.000001 0.019972 0.000002 0.045400
#
#
# Mechanical properties :
#
#
# Convention : Reuss Voigt Hill
#
# Bulk Modulus (GPa) = 52.11127 58.07126 55.09127
# Shear Modulus (GPa) = 27.82544 32.38234 30.10389
#
# Velocity S-wave (km/s) = 3.70210 3.99375 3.85069
# Velocity P-wave (km/s) = 6.62885 7.06187 6.84878
#
# Compressibility (1/GPa) = 0.01918971
#
# Stress axis : x y z
#
# Youngs Moduli (GPa) = 56.51817 87.66750 88.05825
#
# Poissons Ratio (x) = 0.39308 0.18364
# Poissons Ratio (y) = 0.25342 0.35787
# Poissons Ratio (z) = 0.11787 0.35628
#
# Static dielectric constant tensor:
#      x y z
#    x 3.578480 0.000000 -0.005750 
#    y 0.000000 3.534600 0.000000 
#    z -0.005750 0.000000 4.035450 
# 
# 
# High freq. dielectric constant tensor:
#      x y z
#    x 1.792340 0.000000 0.000500 
#    y 0.000000 1.788450 0.000000 
#    z 0.000500 0.000000 1.822280 
# 
# From -- ./inp_files/58745.got.cif
#   From: 2010.03.12/outbox.cif.g09.slc.cpg/sg5_30_cif.got.tgz:58745.got - 2010.03.31 09:47:26.
