data_PCOD8050215
_publ_section_title
;
Structure prediction by ZEFSAII (Michael W. Deem and Ramdas Pophale) SiO2 
 PCOD8050215
Probable space group: C 2
;
_chemical_formula_sum "Si O2"
_cell_formula_units_Z 32
_cell_length_a 8.706218
_cell_length_b 15.546663
_cell_length_c 21.027285
_cell_angle_alpha 90.000000
_cell_angle_beta 148.409843
_cell_angle_gamma 90.000000
_cell_volume 1490.899025
_symmetry_space_group_name_H-M "C 2"
_symmetry_group_IT_number 5
_symmetry_cell_setting 'monoclinic'
loop_
_space_group_symop_operation_xyz
x,y,z
-x,y,-z
1/2+x,1/2+y,z
1/2-x,1/2+y,-z
loop_
_atom_site_type_symbol
_atom_site_label
_atom_site_fract_x
_atom_site_fract_y
_atom_site_fract_z
Si Si1 0.716746 0.365830 0.248703
Si Si2 0.262300 0.013339 0.041978
Si Si3 0.352848 0.834012 0.016822
Si Si4 0.098082 0.053820 0.201382
Si Si5 0.284491 0.738675 0.754123
Si Si6 0.655040 0.378443 0.369216
Si Si7 0.158141 0.233087 0.367846
Si Si8 0.109276 0.056006 0.729167
O O1 0.784417 0.466096 0.255393
O O2 0.565461 0.365117 0.264278
O O3 0.013640 0.311215 0.355973
O O4 0.495401 0.323197 0.119200
O O5 0.546598 0.064084 0.168693
O O6 0.399805 0.921056 0.072816
O O7 0.000000 0.007593 0.000000
O O8 0.150746 0.061111 0.939897
O O9 0.484579 0.759974 0.108212
O O10 0.500000 0.837204 0.000000
O O11 0.306831 0.137975 0.269618
O O12 0.931127 0.051366 0.209350
O O13 0.435477 0.746955 0.738494
O O14 0.998584 0.798753 0.649795
O O15 0.538306 0.470532 0.353767
O O16 0.000000 0.374247 0.500000
O O17 0.500000 0.237859 0.500000
O O18 0.046239 0.140765 0.354072
#
# Coordination Sequence:
#
# PCOD8050215 Si02
#       8
#     4   4   4   4   4   4   4   4
#     4  10  22  40  62  88 129 169 204 268 328 363
#     4  11  22  36  61  98 130 160 208 266 325 384
#     4  11  21  40  64  93 131 169 207 262 326 388
#     4   9  22  39  60  88 130 167 206 256 323 390
#     4  11  23  39  65  93 125 167 222 256 317 381
#     4  11  21  39  66  91 121 170 222 258 307 383
#     4  11  25  43  63  93 130 169 219 267 310 374
#     4  10  21  42  63  89 124 173 209 256 321 385
#
# _framework density 21.463560000000001
#
# number of rings (size 3 to 8) (size 9 to 14) (size 15 to 20)
#    0.000    1.500    2.500    3.000    5.250    1.500 
#    0.000    0.625    0.000    0.000    0.000    0.000 
#    0.000    0.000    0.000    0.000    0.000    0.000 
#
# Total GULP energy -198337.424032 kJ/mol
# GULP energy per Si atom -12396.089002 kJ/mol
# Density = 2.141471 g / cm^3
# Si number density = 21.463560 Si / 1000 Ang^3
#
#
#
# Elastic Constant Matrix: (Units=GPa)
#
#
# Indices 1 2 3 4 5 6 
#
# 1 58.7144 45.2094 16.9178 0.0013 11.4905 -0.0001
# 2 45.2094 166.0178 52.7048 0.0017 31.6629 0.0017
# 3 16.9178 52.7048 83.4813 0.0046 16.4333 0.0026
# 4 0.0013 0.0017 0.0046 31.0321 0.0040 6.5713
# 5 11.4905 31.6629 16.4333 0.0040 28.6746 -0.0004
# 6 -0.0001 0.0017 0.0026 6.5713 -0.0004 27.0648
#
#
#
# Elastic Compliance Matrix: (Units=1/GPa)
#
#
# Indices 1 2 3 4 5 6 
#
# 1 0.021743 -0.005240 -0.000588 0.000000 -0.002589 0.000001
# 2 -0.005240 0.009964 -0.003918 0.000001 -0.006657 -0.000001
# 3 -0.000588 -0.003918 0.015412 -0.000001 -0.004270 -0.000001
# 4 0.000000 0.000001 -0.000001 0.033971 -0.000005 -0.008248
# 5 -0.002589 -0.006657 -0.004270 -0.000005 0.045710 0.000003
# 6 0.000001 -0.000001 -0.000001 -0.008248 0.000003 0.038951
#
#
# Mechanical properties :
#
#
# Convention : Reuss Voigt Hill
#
# Bulk Modulus (GPa) = 36.19829 59.76415 47.98122
# Shear Modulus (GPa) = 25.71312 30.24640 27.97976
#
# Velocity S-wave (km/s) = 3.46495 3.75800 3.61445
# Velocity P-wave (km/s) = 5.73668 6.83630 6.31049
#
# Compressibility (1/GPa) = 0.02762562
#
# Stress axis : x y z
#
# Youngs Moduli (GPa) = 45.99216 100.36126 64.88329
#
# Poissons Ratio (x) = 0.52593 0.03816
# Poissons Ratio (y) = 0.24102 0.25423
# Poissons Ratio (z) = 0.02705 0.39324
#
# Static dielectric constant tensor:
#      x y z
#    x 3.701990 0.000000 -0.147620 
#    y 0.000000 4.110540 -0.000010 
#    z -0.147620 -0.000010 3.703620 
# 
# 
# High freq. dielectric constant tensor:
#      x y z
#    x 1.822330 0.000000 -0.005550 
#    y 0.000000 1.850360 0.000000 
#    z -0.005550 0.000000 1.836640 
# 
# From -- ./inp_files/68039.got.cif
#   From: 2010.03.12/outbox.cif.g09.slc.cpg/sg5_35_cif.got.tgz:68039.got - 2010.03.31 09:47:26.
