data_PCOD8050847
_publ_section_title
;
Structure prediction by ZEFSAII (Michael W. Deem and Ramdas Pophale) SiO2 
 PCOD8050847
Probable space group: C 2
;
_chemical_formula_sum "Si O2"
_cell_formula_units_Z 30
_cell_length_a 18.781516
_cell_length_b 12.953890
_cell_length_c 11.162554
_cell_angle_alpha 90.000000
_cell_angle_beta 150.468080
_cell_angle_gamma 90.000000
_cell_volume 1338.630181
_symmetry_space_group_name_H-M "C 2"
_symmetry_group_IT_number 5
_symmetry_cell_setting 'monoclinic'
loop_
_space_group_symop_operation_xyz
x,y,z
-x,y,-z
1/2+x,1/2+y,z
1/2-x,1/2+y,-z
loop_
_atom_site_type_symbol
_atom_site_label
_atom_site_fract_x
_atom_site_fract_y
_atom_site_fract_z
Si Si1 0.295161 0.567850 0.878257
Si Si2 0.889844 0.423181 0.237854
Si Si3 0.000000 0.953220 0.500000
Si Si4 0.263465 0.800282 0.852647
Si Si5 0.218137 0.372021 0.382013
Si Si6 0.593136 0.550491 0.405206
Si Si7 0.648710 0.193888 0.282400
Si Si8 0.898049 0.525867 0.613078
O O1 0.249751 0.480246 0.909586
O O2 0.218945 0.679570 0.790202
O O3 0.249148 0.522592 0.681446
O O4 0.467602 0.590243 0.131317
O O5 0.000000 0.382411 0.500000
O O6 0.964421 0.513187 0.269621
O O7 0.868648 0.324917 0.118934
O O8 0.135284 0.877416 0.698520
O O9 0.013541 0.036362 0.414203
O O10 0.332298 0.826560 0.821476
O O11 0.362817 0.437287 0.574316
O O12 0.255512 0.289068 0.537189
O O13 0.098656 0.444021 0.271747
O O14 0.737371 0.621806 0.624391
O O15 0.590479 0.139089 0.316004
O O16 0.500000 0.226393 0.000000
#
# Coordination Sequence:
#
# PCOD8050847 Si02
#       8
#     4   4   2   4   4   4   4   4
#     4  11  23  45  70  98 133 178 227 281 328 408
#     4  10  24  44  66 100 138 175 217 284 336 389
#     4  10  22  44  68  98 134 174 230 276 340 400
#     4  11  23  43  72 100 131 180 227 274 336 408
#     4  10  24  44  66  98 132 180 221 275 338 403
#     4  10  24  44  67  98 133 177 225 282 340 392
#     4  11  25  42  65 100 134 179 223 277 340 402
#     4  10  24  43  65  98 138 173 225 271 337 395
#
# _framework density 22.410969000000001
#
# number of rings (size 3 to 8) (size 9 to 14) (size 15 to 20)
#    0.000    1.600    2.667    0.000   12.133    1.600 
#    1.200    0.000    0.000    0.000    0.000    0.000 
#    0.000    0.000    0.000    0.000    0.000    0.000 
#
# Total GULP energy -185829.738146 kJ/mol
# GULP energy per Si atom -12388.649210 kJ/mol
# Density = 2.235996 g / cm^3
# Si number density = 22.410969 Si / 1000 Ang^3
#
#
#
# Elastic Constant Matrix: (Units=GPa)
#
#
# Indices 1 2 3 4 5 6 
#
# 1 79.5543 10.9514 21.3546 0.0000 -20.0326 0.0000
# 2 10.9514 73.3613 5.4318 0.0000 -17.4685 0.0000
# 3 21.3546 5.4318 81.6316 0.0000 -9.5144 0.0000
# 4 0.0000 0.0000 0.0000 28.7577 0.0000 -11.4697
# 5 -20.0326 -17.4685 -9.5144 0.0000 29.0759 0.0000
# 6 0.0000 0.0000 0.0000 -11.4697 0.0000 25.3439
#
#
#
# Elastic Compliance Matrix: (Units=1/GPa)
#
#
# Indices 1 2 3 4 5 6 
#
# 1 0.015887 0.000260 -0.002993 0.000000 0.010122 0.000000
# 2 0.000260 0.015911 0.000009 0.000000 0.009742 0.000000
# 3 -0.002993 0.000009 0.013300 0.000000 0.002295 0.000000
# 4 0.000000 0.000000 0.000000 0.042432 0.000000 0.019203
# 5 0.010122 0.009742 0.002295 0.000000 0.047970 0.000000
# 6 0.000000 0.000000 0.000000 0.019203 0.000000 0.048148
#
#
# Mechanical properties :
#
#
# Convention : Reuss Voigt Hill
#
# Bulk Modulus (GPa) = 25.22130 34.44698 29.83414
# Shear Modulus (GPa) = 24.71406 29.75613 27.23509
#
# Velocity S-wave (km/s) = 3.32439 3.64778 3.48984
# Velocity P-wave (km/s) = 5.10038 5.75723 5.43873
#
# Compressibility (1/GPa) = 0.03964902
#
# Stress axis : x y z
#
# Youngs Moduli (GPa) = 62.94599 62.84853 75.18720
#
# Poissons Ratio (x) = -0.01637 0.22507
# Poissons Ratio (y) = -0.01639 -0.00064
# Poissons Ratio (z) = 0.18842 -0.00054
#
# Static dielectric constant tensor:
#      x y z
#    x 4.139530 0.000000 -0.225670 
#    y 0.000000 3.912100 0.000000 
#    z -0.225670 0.000000 4.136400 
# 
# 
# High freq. dielectric constant tensor:
#      x y z
#    x 1.886330 0.000000 -0.009220 
#    y 0.000000 1.873610 0.000000 
#    z -0.009220 0.000000 1.880740 
# 
# From -- ./inp_files/46455.got.cif
#   From: 2010.03.12/outbox.cif.g09.slc.cpg/sg5_24_cif.got.tgz:46455.got - 2010.03.31 09:47:26.
