data_PCOD8050540
_publ_section_title
;
Structure prediction by ZEFSAII (Michael W. Deem and Ramdas Pophale) SiO2 
 PCOD8050540
Probable space group: C 2
;
_chemical_formula_sum "Si O2"
_cell_formula_units_Z 18
_cell_length_a 9.973216
_cell_length_b 8.925022
_cell_length_c 9.247157
_cell_angle_alpha 90.000000
_cell_angle_beta 64.883529
_cell_angle_gamma 90.000000
_cell_volume 745.273531
_symmetry_space_group_name_H-M "C 2"
_symmetry_group_IT_number 5
_symmetry_cell_setting 'monoclinic'
loop_
_space_group_symop_operation_xyz
x,y,z
-x,y,-z
1/2+x,1/2+y,z
1/2-x,1/2+y,-z
loop_
_atom_site_type_symbol
_atom_site_label
_atom_site_fract_x
_atom_site_fract_y
_atom_site_fract_z
Si Si1 0.462320 0.052150 0.348613
Si Si2 0.050886 0.246168 0.173326
Si Si3 0.675676 0.305675 0.127940
Si Si4 0.159717 0.054932 0.361033
Si Si5 0.000000 0.005002 0.000000
O O1 0.500000 0.036706 0.500000
O O2 0.564526 0.170129 0.216764
O O3 0.288135 0.095166 0.418023
O O4 0.470916 0.897306 0.255839
O O5 0.151447 0.198848 0.262513
O O6 0.945066 0.108412 0.164660
O O7 0.158605 0.254418 0.984277
O O8 0.697343 0.404890 0.258774
O O9 0.626524 0.397614 0.007215
O O10 0.000000 0.027234 0.500000
#
# Coordination Sequence:
#
# PCOD8050540 Si02
#       5
#     4   4   4   4   2
#     4  12  27  45  70 105 143 183 231 286 348 415
#     4  11  24  43  70 100 135 177 229 286 344 407
#     4  11  24  43  70 100 135 177 229 286 344 407
#     4  11  26  45  66  98 142 188 229 278 344 415
#     4  10  22  40  66  96 130 170 218 274 336 398
#
# _framework density 24.152206
#
# number of rings (size 3 to 8) (size 9 to 14) (size 15 to 20)
#    0.000    0.889    0.000    6.667    0.000   16.889 
#    0.000    0.000    0.000    0.000    0.000    0.000 
#    0.000    0.000    0.000    0.000    0.000    0.000 
#
# Total GULP energy -111510.440467 kJ/mol
# GULP energy per Si atom -12390.048941 kJ/mol
# Density = 2.409723 g / cm^3
# Si number density = 24.152206 Si / 1000 Ang^3
#
#
#
# Elastic Constant Matrix: (Units=GPa)
#
#
# Indices 1 2 3 4 5 6 
#
# 1 141.1466 16.0157 50.3223 0.0000 18.3204 0.0000
# 2 16.0157 111.4042 30.6503 0.0000 9.7296 0.0000
# 3 50.3223 30.6503 129.5168 0.0000 -2.9851 0.0000
# 4 0.0000 0.0000 0.0000 42.0191 0.0000 13.4351
# 5 18.3204 9.7296 -2.9851 0.0000 47.4273 0.0000
# 6 0.0000 0.0000 0.0000 13.4351 0.0000 37.6576
#
#
#
# Elastic Compliance Matrix: (Units=1/GPa)
#
#
# Indices 1 2 3 4 5 6 
#
# 1 0.008804 0.000016 -0.003508 0.000000 -0.003625 0.000000
# 2 0.000016 0.009818 -0.002380 0.000000 -0.002170 0.000000
# 3 -0.003508 -0.002380 0.009704 0.000000 0.002454 0.000000
# 4 0.000000 0.000000 0.000000 0.026863 0.000000 -0.009584
# 5 -0.003625 -0.002170 0.002454 0.000000 0.023085 0.000000
# 6 0.000000 0.000000 0.000000 -0.009584 0.000000 0.029974
#
#
# Mechanical properties :
#
#
# Convention : Reuss Voigt Hill
#
# Bulk Modulus (GPa) = 60.30401 64.00491 62.15446
# Shear Modulus (GPa) = 39.83432 44.42608 42.13020
#
# Velocity S-wave (km/s) = 4.06557 4.29350 4.18109
# Velocity P-wave (km/s) = 6.86010 7.15102 7.00707
#
# Compressibility (1/GPa) = 0.01658264
#
# Stress axis : x y z
#
# Youngs Moduli (GPa) = 113.58119 101.85073 103.05240
#
# Poissons Ratio (x) = -0.00164 0.36152
# Poissons Ratio (y) = -0.00183 0.24524
# Poissons Ratio (z) = 0.39846 0.24238
#
# Static dielectric constant tensor:
#      x y z
#    x 4.342510 0.000000 0.189770 
#    y 0.000000 4.518950 0.000000 
#    z 0.189770 0.000000 3.928090 
# 
# 
# High freq. dielectric constant tensor:
#      x y z
#    x 1.975820 0.000000 0.023480 
#    y 0.000000 1.973690 0.000000 
#    z 0.023480 0.000000 1.950310 
# 
# From -- ./inp_files/18227.got.cif
#   From: 2010.03.12/outbox.cif.g09.slc.cpg/sg5_10_cif.got.tgz:18227.got - 2010.03.31 09:47:26.
