data_PCOD8050976
_publ_section_title
;
Structure prediction by ZEFSAII (Michael W. Deem and Ramdas Pophale) SiO2 
 PCOD8050976
Probable space group: C 2
;
_chemical_formula_sum "Si O2"
_cell_formula_units_Z 28
_cell_length_a 17.320047
_cell_length_b 13.914629
_cell_length_c 5.286207
_cell_angle_alpha 90.000000
_cell_angle_beta 69.770587
_cell_angle_gamma 90.000000
_cell_volume 1195.401559
_symmetry_space_group_name_H-M "C 2"
_symmetry_group_IT_number 5
_symmetry_cell_setting 'monoclinic'
loop_
_space_group_symop_operation_xyz
x,y,z
-x,y,-z
1/2+x,1/2+y,z
1/2-x,1/2+y,-z
loop_
_atom_site_type_symbol
_atom_site_label
_atom_site_fract_x
_atom_site_fract_y
_atom_site_fract_z
Si Si1 0.123437 0.566990 0.851376
Si Si2 0.284233 0.178987 0.891701
Si Si3 0.909274 0.355261 0.100501
Si Si4 0.950362 0.953567 0.294942
Si Si5 0.220283 0.023126 0.651056
Si Si6 0.923111 0.741768 0.408176
Si Si7 0.695589 0.832428 0.285038
O O1 0.144825 0.602073 0.109630
O O2 0.073219 0.468931 0.898242
O O3 0.211576 0.549300 0.627559
O O4 0.070648 0.650637 0.782210
O O5 0.253009 0.239354 0.170153
O O6 0.211501 0.115587 0.847854
O O7 0.333041 0.248721 0.643999
O O8 0.854912 0.316984 0.397760
O O9 0.864599 0.334525 0.887870
O O10 0.000000 0.306330 0.000000
O O11 0.931434 0.842343 0.253088
O O12 0.000000 0.968197 0.500000
O O13 0.864556 0.010414 0.404350
O O14 0.000000 0.995729 0.000000
O O15 0.247131 0.926789 0.772802
O O16 0.000000 0.729725 0.500000
#
# Coordination Sequence:
#
# PCOD8050976 Si02
#       7
#     4   4   4   4   4   4   4
#     4  10  23  39  68 100 134 181 225 291 342 421
#     4  11  24  42  72 101 135 183 235 286 340 416
#     4  11  25  44  70  99 140 181 228 285 352 406
#     4  11  27  44  70 103 141 187 228 289 353 409
#     4  10  24  44  69 103 139 181 240 276 351 416
#     4  10  25  38  63 108 143 178 224 288 363 413
#     4  11  25  43  72 102 138 184 229 285 342 416
#
# _framework density 23.423090999999999
#
# number of rings (size 3 to 8) (size 9 to 14) (size 15 to 20)
#    0.000    1.429    1.429    1.286   20.000    0.000 
#    0.000    0.714    3.143    0.000    0.000    0.000 
#    0.000    0.000    0.000    0.000    0.000    0.000 
#
# Total GULP energy -173561.523867 kJ/mol
# GULP energy per Si atom -12397.251705 kJ/mol
# Density = 2.336978 g / cm^3
# Si number density = 23.423091 Si / 1000 Ang^3
#
#
#
# Elastic Constant Matrix: (Units=GPa)
#
#
# Indices 1 2 3 4 5 6 
#
# 1 128.4320 29.7601 32.5924 0.0000 -3.6749 0.0000
# 2 29.7601 59.5533 11.0171 0.0000 -6.8983 0.0000
# 3 32.5924 11.0171 88.3725 0.0000 1.5851 0.0000
# 4 0.0000 0.0000 0.0000 29.9783 0.0000 0.8272
# 5 -3.6749 -6.8983 1.5851 0.0000 33.5312 0.0000
# 6 0.0000 0.0000 0.0000 0.8272 0.0000 32.9689
#
#
#
# Elastic Compliance Matrix: (Units=1/GPa)
#
#
# Indices 1 2 3 4 5 6 
#
# 1 0.009522 -0.004166 -0.002998 0.000000 0.000328 0.000000
# 2 -0.004166 0.019466 -0.000955 0.000000 0.003593 0.000000
# 3 -0.002998 -0.000955 0.012561 0.000000 -0.001119 0.000000
# 4 0.000000 0.000000 0.000000 0.033381 0.000000 -0.000838
# 5 0.000328 0.003593 -0.001119 0.000000 0.030651 0.000000
# 6 0.000000 0.000000 0.000000 -0.000838 0.000000 0.030353
#
#
# Mechanical properties :
#
#
# Convention : Reuss Voigt Hill
#
# Bulk Modulus (GPa) = 39.50845 47.01076 43.25961
# Shear Modulus (GPa) = 31.13183 32.82823 31.98003
#
# Velocity S-wave (km/s) = 3.64965 3.74777 3.69903
# Velocity P-wave (km/s) = 5.88760 6.23230 6.06240
#
# Compressibility (1/GPa) = 0.02531104
#
# Stress axis : x y z
#
# Youngs Moduli (GPa) = 105.02308 51.37120 79.61381
#
# Poissons Ratio (x) = 0.21399 0.23870
# Poissons Ratio (y) = 0.43747 0.07603
# Poissons Ratio (z) = 0.31489 0.04906
#
# Static dielectric constant tensor:
#      x y z
#    x 4.164750 0.000000 0.055880 
#    y 0.000000 4.552650 0.000000 
#    z 0.055880 0.000000 4.131960 
# 
# 
# High freq. dielectric constant tensor:
#      x y z
#    x 1.935820 0.000000 0.004040 
#    y 0.000000 1.918700 0.000000 
#    z 0.004040 0.000000 1.923540 
# 
# From -- ./inp_files/8564.got.cif
#   From: 2010.03.12/outbox.cif.g09.slc.cpg/sg5_5_cif.got.tgz:8564.got - 2010.03.31 09:47:26.
