data_PCOD8050304
_publ_section_title
;
Structure prediction by ZEFSAII (Michael W. Deem and Ramdas Pophale) SiO2 
 PCOD8050304
Probable space group: C 2
;
_chemical_formula_sum "Si O2"
_cell_formula_units_Z 30
_cell_length_a 11.060423
_cell_length_b 9.364578
_cell_length_c 23.316033
_cell_angle_alpha 90.000000
_cell_angle_beta 40.156315
_cell_angle_gamma 90.000000
_cell_volume 1557.364421
_symmetry_space_group_name_H-M "C 2"
_symmetry_group_IT_number 5
_symmetry_cell_setting 'monoclinic'
loop_
_space_group_symop_operation_xyz
x,y,z
-x,y,-z
1/2+x,1/2+y,z
1/2-x,1/2+y,-z
loop_
_atom_site_type_symbol
_atom_site_label
_atom_site_fract_x
_atom_site_fract_y
_atom_site_fract_z
Si Si1 0.691809 0.663370 0.688829
Si Si2 0.500000 0.190929 0.000000
Si Si3 0.294053 0.089402 0.767239
Si Si4 0.641043 0.869623 0.159479
Si Si5 0.960271 0.188491 0.950887
Si Si6 0.365360 0.992881 0.955701
Si Si7 0.800456 0.500493 0.542889
Si Si8 0.928157 0.722356 0.407054
O O1 0.708070 0.548689 0.735567
O O2 0.515472 0.762772 0.762238
O O3 0.670646 0.580624 0.636638
O O4 0.885478 0.758552 0.621814
O O5 0.684684 0.287452 0.931817
O O6 0.507177 0.093037 0.940092
O O7 0.499278 0.160209 0.681219
O O8 0.154831 0.206828 0.845832
O O9 0.298458 0.953294 0.805998
O O10 0.567921 0.975254 0.135126
O O11 0.852036 0.338678 0.990837
O O12 0.000000 0.134450 0.000000
O O13 0.839029 0.064046 0.965505
O O14 0.813885 0.600674 0.482334
O O15 0.702810 0.356830 0.556551
O O16 0.000000 0.464221 0.500000
#
# Coordination Sequence:
#
# PCOD8050304 Si02
#       8
#     4   2   4   4   4   4   4   4
#     4   9  22  40  63  89 128 166 205 261 314 376
#     4  12  26  38  62  96 126 176 224 266 318 378
#     4  10  22  41  60  89 128 161 210 259 315 377
#     4  12  23  41  61  93 132 171 213 265 323 371
#     4  12  23  41  62  85 128 169 215 269 313 372
#     4  12  23  39  62  90 121 171 220 261 321 367
#     4  10  21  44  67  95 128 162 200 262 326 383
#     4   9  22  43  66  94 126 160 208 256 319 389
#
# _framework density 19.263314999999999
#
# number of rings (size 3 to 8) (size 9 to 14) (size 15 to 20)
#    0.800    0.533    4.667    0.800    1.867    2.133 
#    7.200    0.000    0.000    0.000    0.000    0.000 
#    0.000    0.000    0.000    0.000    0.000    0.000 
#
# Total GULP energy -185865.341518 kJ/mol
# GULP energy per Si atom -12391.022768 kJ/mol
# Density = 1.921947 g / cm^3
# Si number density = 19.263315 Si / 1000 Ang^3
#
#
#
# Elastic Constant Matrix: (Units=GPa)
#
#
# Indices 1 2 3 4 5 6 
#
# 1 81.9346 58.5976 35.5345 0.0000 9.5076 0.0000
# 2 58.5976 122.3650 61.4236 0.0000 -1.1831 0.0000
# 3 35.5345 61.4236 118.2092 0.0001 12.9864 0.0000
# 4 0.0000 0.0000 0.0001 17.2159 0.0000 1.7472
# 5 9.5076 -1.1831 12.9864 0.0000 28.6103 0.0000
# 6 0.0000 0.0000 0.0000 1.7472 0.0000 33.7770
#
#
#
# Elastic Compliance Matrix: (Units=1/GPa)
#
#
# Indices 1 2 3 4 5 6 
#
# 1 0.019880 -0.009421 -0.000328 0.000000 -0.006847 0.000000
# 2 -0.009421 0.015811 -0.006104 0.000000 0.006555 0.000000
# 3 -0.000328 -0.006104 0.012362 0.000000 -0.005755 0.000000
# 4 0.000000 0.000000 0.000000 0.058392 0.000000 -0.003021
# 5 -0.006847 0.006555 -0.005755 0.000000 0.040111 0.000000
# 6 0.000000 0.000000 0.000000 -0.003021 0.000000 0.029762
#
#
# Mechanical properties :
#
#
# Convention : Reuss Voigt Hill
#
# Bulk Modulus (GPa) = 61.17657 70.40224 65.78941
# Shear Modulus (GPa) = 23.42207 27.05085 25.23646
#
# Velocity S-wave (km/s) = 3.49074 3.75142 3.62343
# Velocity P-wave (km/s) = 6.93355 7.44250 7.19253
#
# Compressibility (1/GPa) = 0.01634613
#
# Stress axis : x y z
#
# Youngs Moduli (GPa) = 50.30286 63.24626 80.89231
#
# Poissons Ratio (x) = 0.59586 0.02656
# Poissons Ratio (y) = 0.47392 0.49375
# Poissons Ratio (z) = 0.01651 0.38605
#
# Static dielectric constant tensor:
#      x y z
#    x 3.615940 0.000000 0.110920 
#    y 0.000000 3.331020 0.000000 
#    z 0.110920 0.000000 3.639510 
# 
# 
# High freq. dielectric constant tensor:
#      x y z
#    x 1.750560 0.000000 0.011110 
#    y 0.000000 1.732560 0.000000 
#    z 0.011110 0.000000 1.751830 
# 
# From -- ./inp_files/68281.got.cif
#   From: 2010.03.12/outbox.cif.g09.slc.cpg/sg5_35_cif.got.tgz:68281.got - 2010.03.31 09:47:26.
