data_PCOD8050525
_publ_section_title
;
Structure prediction by ZEFSAII (Michael W. Deem and Ramdas Pophale) SiO2 
 PCOD8050525
Probable space group: C 2
;
_chemical_formula_sum "Si O2"
_cell_formula_units_Z 32
_cell_length_a 22.238816
_cell_length_b 8.675591
_cell_length_c 13.586330
_cell_angle_alpha 90.000000
_cell_angle_beta 144.378060
_cell_angle_gamma 90.000000
_cell_volume 1526.721499
_symmetry_space_group_name_H-M "C 2"
_symmetry_group_IT_number 5
_symmetry_cell_setting 'monoclinic'
loop_
_space_group_symop_operation_xyz
x,y,z
-x,y,-z
1/2+x,1/2+y,z
1/2-x,1/2+y,-z
loop_
_atom_site_type_symbol
_atom_site_label
_atom_site_fract_x
_atom_site_fract_y
_atom_site_fract_z
Si Si1 0.929995 0.449840 0.230183
Si Si2 0.853440 0.670312 0.971357
Si Si3 0.020416 0.908005 0.143959
Si Si4 0.738200 0.294706 0.503932
Si Si5 0.379219 0.905192 0.866239
Si Si6 0.393398 0.672138 0.054198
Si Si7 0.835893 0.491188 0.490943
Si Si8 0.217806 0.449940 0.798119
O O1 0.854077 0.552105 0.062771
O O2 0.926258 0.270947 0.193082
O O3 0.892031 0.463814 0.292672
O O4 0.043590 0.516917 0.366674
O O5 0.952389 0.780757 0.108154
O O6 0.856679 0.578632 0.872653
O O7 0.749816 0.770663 0.842228
O O8 0.136856 0.885812 0.333427
O O9 0.990991 0.078237 0.142350
O O10 0.000000 0.899015 0.000000
O O11 0.799100 0.377549 0.672714
O O12 0.814092 0.322555 0.510602
O O13 0.710489 0.119881 0.495706
O O14 0.500000 0.890873 0.000000
O O15 0.352120 0.785439 0.915198
O O16 0.302085 0.556245 0.964667
O O17 0.783119 0.507333 0.315177
#
# Coordination Sequence:
#
# PCOD8050525 Si02
#       8
#     4   4   4   4   4   4   4   4
#     4  11  23  44  67  92 130 171 223 272 322 392
#     4  10  22  40  64  98 125 169 223 259 336 392
#     4  11  23  39  64  95 140 173 213 271 331 402
#     4  12  26  42  65  97 137 173 218 275 341 395
#     4  11  23  39  64  95 140 173 213 271 331 402
#     4  10  22  40  64  98 125 169 223 259 336 392
#     4  12  27  42  63  99 126 177 216 271 341 395
#     4  11  23  44  67  92 130 171 223 272 322 392
#
# _framework density 20.959947
#
# number of rings (size 3 to 8) (size 9 to 14) (size 15 to 20)
#    0.000    1.000    2.500    4.875    7.000    0.000 
#    0.000    0.000    0.000    0.000    0.000    0.000 
#    0.000    0.000    0.000    0.000    0.000    0.000 
#
# Total GULP energy -198339.971505 kJ/mol
# GULP energy per Si atom -12396.248219 kJ/mol
# Density = 2.091224 g / cm^3
# Si number density = 20.959947 Si / 1000 Ang^3
#
#
#
# Elastic Constant Matrix: (Units=GPa)
#
#
# Indices 1 2 3 4 5 6 
#
# 1 100.4370 32.5586 13.2596 0.0000 17.6781 0.0000
# 2 32.5586 106.2528 22.5910 0.0000 5.9391 0.0000
# 3 13.2596 22.5910 92.8572 0.0000 9.7814 0.0000
# 4 0.0000 0.0000 0.0000 14.8413 0.0000 0.2334
# 5 17.6781 5.9391 9.7814 0.0000 25.5856 0.0000
# 6 0.0000 0.0000 0.0000 0.2334 0.0000 25.8751
#
#
#
# Elastic Compliance Matrix: (Units=1/GPa)
#
#
# Indices 1 2 3 4 5 6 
#
# 1 0.012424 -0.003343 -0.000144 0.000000 -0.007753 0.000000
# 2 -0.003343 0.010876 -0.002236 0.000000 0.000640 0.000000
# 3 -0.000144 -0.002236 0.011741 0.000000 -0.003870 0.000000
# 4 0.000000 0.000000 0.000000 0.067389 0.000000 -0.000608
# 5 -0.007753 0.000640 -0.003870 0.000000 0.045772 0.000000
# 6 0.000000 0.000000 0.000000 -0.000608 0.000000 0.038653
#
#
# Mechanical properties :
#
#
# Convention : Reuss Voigt Hill
#
# Bulk Modulus (GPa) = 42.38226 48.48506 45.43366
# Shear Modulus (GPa) = 24.25236 28.66961 26.46098
#
# Velocity S-wave (km/s) = 3.40528 3.70243 3.55696
# Velocity P-wave (km/s) = 5.97710 6.43893 6.21231
#
# Compressibility (1/GPa) = 0.02359478
#
# Stress axis : x y z
#
# Youngs Moduli (GPa) = 80.49059 91.94974 85.16834
#
# Poissons Ratio (x) = 0.30739 0.01227
# Poissons Ratio (y) = 0.26908 0.19043
# Poissons Ratio (z) = 0.01160 0.20559
#
# Static dielectric constant tensor:
#      x y z
#    x 3.756910 0.000000 -0.021120 
#    y 0.000000 3.935420 0.000000 
#    z -0.021120 0.000000 3.768860 
# 
# 
# High freq. dielectric constant tensor:
#      x y z
#    x 1.816200 0.000000 0.002250 
#    y 0.000000 1.830200 0.000000 
#    z 0.002250 0.000000 1.817990 
# 
# From -- ./inp_files/57708.got.cif
#   From: 2010.03.12/outbox.cif.g09.slc.cpg/sg5_29_cif.got.tgz:57708.got - 2010.03.31 09:47:26.
