data_PCOD8050874
_publ_section_title
;
Structure prediction by ZEFSAII (Michael W. Deem and Ramdas Pophale) SiO2 
 PCOD8050874
Probable space group: C 2
;
_chemical_formula_sum "Si O2"
_cell_formula_units_Z 24
_cell_length_a 13.166800
_cell_length_b 5.281536
_cell_length_c 27.332116
_cell_angle_alpha 90.000000
_cell_angle_beta 146.766720
_cell_angle_gamma 90.000000
_cell_volume 1041.677435
_symmetry_space_group_name_H-M "C 2"
_symmetry_group_IT_number 5
_symmetry_cell_setting 'monoclinic'
loop_
_space_group_symop_operation_xyz
x,y,z
-x,y,-z
1/2+x,1/2+y,z
1/2-x,1/2+y,-z
loop_
_atom_site_type_symbol
_atom_site_label
_atom_site_fract_x
_atom_site_fract_y
_atom_site_fract_z
Si Si1 0.866211 0.611620 0.044229
Si Si2 0.500000 0.901330 0.000000
Si Si3 0.515158 0.269742 0.595826
Si Si4 0.096141 0.712167 0.835592
Si Si5 0.216980 0.991205 0.419021
Si Si6 0.589375 0.714997 0.275676
Si Si7 0.000000 0.134260 0.500000
O O1 0.980254 0.692595 0.139105
O O2 0.989989 0.576113 0.045151
O O3 0.776351 0.340832 0.023017
O O4 0.679758 0.719769 0.074102
O O5 0.372239 0.048165 0.523078
O O6 0.462785 0.374420 0.627861
O O7 0.728942 0.190181 0.685402
O O8 0.488282 0.480847 0.544529
O O9 0.026415 0.469861 0.777865
O O10 0.033633 0.971229 0.785161
O O11 0.151873 0.223140 0.358268
O O12 0.313282 0.799507 0.419798
#
# Coordination Sequence:
#
# PCOD8050874 Si02
#       7
#     4   2   4   4   4   4   2
#     4  10  22  44  73 105 134 176 233 284 344 425
#     4  10  24  50  78 104 136 190 238 280 356 438
#     4  12  25  42  70  98 137 193 243 286 349 420
#     4  11  26  46  74 104 143 187 230 294 360 416
#     4  12  25  42  72  99 135 197 237 287 352 419
#     4  12  26  47  68 106 152 180 231 307 349 407
#     4  12  20  44  66  98 134 180 246 292 336 410
#
# _framework density 23.039764000000002
#
# number of rings (size 3 to 8) (size 9 to 14) (size 15 to 20)
#    0.000    0.667    5.000    3.000    0.000    7.333 
#    0.000   11.667    0.000    0.000    0.000    0.000 
#    0.000    0.000    0.000    0.000    0.000    0.000 
#
# Total GULP energy -148758.529446 kJ/mol
# GULP energy per Si atom -12396.544121 kJ/mol
# Density = 2.298732 g / cm^3
# Si number density = 23.039764 Si / 1000 Ang^3
#
#
#
# Elastic Constant Matrix: (Units=GPa)
#
#
# Indices 1 2 3 4 5 6 
#
# 1 145.3578 24.6132 28.7726 -0.0160 5.7371 0.0827
# 2 24.6132 113.4435 30.9973 0.0228 11.1092 -0.0662
# 3 28.7726 30.9973 89.5417 -0.0101 17.1387 0.0555
# 4 -0.0160 0.0228 -0.0101 10.2952 0.0099 113.2830
# 5 5.7371 11.1092 17.1387 0.0099 37.9828 -0.0486
# 6 0.0827 -0.0662 0.0555 113.2830 -0.0486 -457.6372
#
#
#
# Elastic Compliance Matrix: (Units=1/GPa)
#
#
# Indices 1 2 3 4 5 6 
#
# 1 0.007462 -0.001070 -0.002048 -0.000001 0.000110 0.000001
# 2 -0.001070 0.009963 -0.002822 -0.000001 -0.001479 -0.000002
# 3 -0.002048 -0.002822 0.013776 -0.000001 -0.005081 0.000002
# 4 -0.000001 -0.000001 -0.000001 0.026084 0.000002 0.006457
# 5 0.000110 -0.001479 -0.005081 0.000002 0.029036 -0.000003
# 6 0.000001 -0.000002 0.000002 0.006457 -0.000003 -0.000587
#
#
# Mechanical properties :
#
#
# Convention : Reuss Voigt Hill
#
# Bulk Modulus (GPa) = 51.76088 57.45657 54.60872
# Shear Modulus (GPa) = 48.05132 -64.27451 -8.11160
#
# Velocity S-wave (km/s) = 4.57177 -5.28751 -1.87839
# Velocity P-wave (km/s) = 7.09808 3.50498 4.36451
#
# Compressibility (1/GPa) = 0.01931961
#
# Stress axis : x y z
#
# Youngs Moduli (GPa) = 134.01439 100.37086 72.59169
#
# Poissons Ratio (x) = 0.10740 0.14870
# Poissons Ratio (y) = 0.14340 0.20486
# Poissons Ratio (z) = 0.27452 0.28325
#
# Static dielectric constant tensor:
#      x y z
#    x 5.545750 0.000100 -2.160490 
#    y 0.000100 4.182290 -0.000180 
#    z -2.160490 -0.000180 7.987070 
# 
# 
# High freq. dielectric constant tensor:
#      x y z
#    x 1.914080 0.000000 -0.007950 
#    y 0.000000 1.917950 0.000000 
#    z -0.007950 0.000000 1.898750 
# 
# From -- ./inp_files/53715.got.cif
#   From: 2010.03.12/outbox.cif.g09.slc.cpg/sg5_27_cif.got.tgz:53715.got - 2010.03.31 09:47:26.
