data_PCOD8050080
_publ_section_title
;
Structure prediction by ZEFSAII (Michael W. Deem and Ramdas Pophale) SiO2 
 PCOD8050080
Probable space group: C 2
;
_chemical_formula_sum "Si O2"
_cell_formula_units_Z 30
_cell_length_a 26.300300
_cell_length_b 9.148689
_cell_length_c 9.462915
_cell_angle_alpha 90.000000
_cell_angle_beta 40.060186
_cell_angle_gamma 90.000000
_cell_volume 1465.396344
_symmetry_space_group_name_H-M "C 2"
_symmetry_group_IT_number 5
_symmetry_cell_setting 'monoclinic'
loop_
_space_group_symop_operation_xyz
x,y,z
-x,y,-z
1/2+x,1/2+y,z
1/2-x,1/2+y,-z
loop_
_atom_site_type_symbol
_atom_site_label
_atom_site_fract_x
_atom_site_fract_y
_atom_site_fract_z
Si Si1 0.332935 0.251720 0.003171
Si Si2 0.500000 0.341248 0.000000
Si Si3 0.910779 0.974330 0.646391
Si Si4 0.676121 0.416507 0.697771
Si Si5 0.313357 0.747788 0.884374
Si Si6 0.416329 0.015475 0.674538
Si Si7 0.914630 0.727878 0.428984
Si Si8 0.250943 0.204895 0.667769
O O1 0.313436 0.290092 0.205655
O O2 0.259142 0.209410 0.061559
O O3 0.365908 0.402571 0.872654
O O4 0.392256 0.112810 0.863435
O O5 0.416915 0.430517 0.153261
O O6 0.487079 0.240257 0.165010
O O7 0.894311 0.889353 0.534339
O O8 0.000000 0.975741 0.500000
O O9 0.881870 0.138685 0.692239
O O10 0.735471 0.355259 0.450216
O O11 0.704790 0.577606 0.681796
O O12 0.345041 0.909791 0.784558
O O13 0.294898 0.739936 0.090226
O O14 0.500000 0.927602 0.500000
O O15 0.439737 0.130526 0.504956
O O16 0.839421 0.651464 0.515222
#
# Coordination Sequence:
#
# PCOD8050080 Si02
#       8
#     4   2   4   4   4   4   4   4
#     4  11  21  39  67  89 120 165 211 255 305 378
#     4  10  22  42  68  88 126 170 214 252 310 384
#     4  11  21  37  63  91 122 161 209 258 306 365
#     4  11  24  42  66  93 126 166 214 260 313 372
#     4  12  23  39  63  94 130 160 207 262 319 367
#     4  11  22  36  60  93 126 156 204 256 315 361
#     4  10  21  40  64  90 118 166 211 256 303 380
#     4  11  24  41  63  93 127 165 212 258 313 379
#
# _framework density 20.472276999999998
#
# number of rings (size 3 to 8) (size 9 to 14) (size 15 to 20)
#    0.000    1.067    4.000    5.200    1.867    1.067 
#    0.000    0.000    0.000    0.800    0.000    0.000 
#    0.000    0.000    0.000    0.000    0.000    0.000 
#
# Total GULP energy -185865.745015 kJ/mol
# GULP energy per Si atom -12391.049668 kJ/mol
# Density = 2.042568 g / cm^3
# Si number density = 20.472277 Si / 1000 Ang^3
#
#
#
# Elastic Constant Matrix: (Units=GPa)
#
#
# Indices 1 2 3 4 5 6 
#
# 1 98.9386 31.5146 42.6787 0.0000 -15.2012 0.0000
# 2 31.5146 88.1121 49.0077 0.0000 -19.3430 0.0000
# 3 42.6787 49.0077 130.2172 0.0000 -14.2861 0.0000
# 4 0.0000 0.0000 0.0000 24.7099 0.0000 -7.2319
# 5 -15.2012 -19.3430 -14.2861 0.0000 51.2120 0.0000
# 6 0.0000 0.0000 0.0000 -7.2319 0.0000 30.1237
#
#
#
# Elastic Compliance Matrix: (Units=1/GPa)
#
#
# Indices 1 2 3 4 5 6 
#
# 1 0.012446 -0.002365 -0.002973 0.000000 0.001972 0.000000
# 2 -0.002365 0.015661 -0.004691 0.000000 0.003905 0.000000
# 3 -0.002973 -0.004691 0.010448 0.000000 0.000260 0.000000
# 4 0.000000 0.000000 0.000000 0.043528 0.000000 0.010450
# 5 0.001972 0.003905 0.000260 0.000000 0.021659 0.000000
# 6 0.000000 0.000000 0.000000 0.010450 0.000000 0.035705
#
#
# Mechanical properties :
#
#
# Convention : Reuss Voigt Hill
#
# Bulk Modulus (GPa) = 54.06032 62.62999 58.34515
# Shear Modulus (GPa) = 30.18039 34.14691 32.16365
#
# Velocity S-wave (km/s) = 3.84371 4.08850 3.96799
# Velocity P-wave (km/s) = 6.79431 7.27645 7.03951
#
# Compressibility (1/GPa) = 0.01849786
#
# Stress axis : x y z
#
# Youngs Moduli (GPa) = 80.34770 63.85203 95.71529
#
# Poissons Ratio (x) = 0.15102 0.28453
# Poissons Ratio (y) = 0.19004 0.44896
# Poissons Ratio (z) = 0.23885 0.29950
#
# Static dielectric constant tensor:
#      x y z
#    x 3.775600 0.000000 0.050990 
#    y 0.000000 3.384540 0.000000 
#    z 0.050990 0.000000 3.859640 
# 
# 
# High freq. dielectric constant tensor:
#      x y z
#    x 1.805790 0.000000 -0.005310 
#    y 0.000000 1.779460 0.000000 
#    z -0.005310 0.000000 1.810840 
# 
# From -- ./inp_files/31760.got.cif
#   From: 2010.03.12/outbox.cif.g09.slc.cpg/sg5_16_cif.got.tgz:31760.got - 2010.03.31 09:47:26.
