data_PCOD8050087
_publ_section_title
;
Structure prediction by ZEFSAII (Michael W. Deem and Ramdas Pophale) SiO2 
 PCOD8050087
Probable space group: C 2
;
_chemical_formula_sum "Si O2"
_cell_formula_units_Z 28
_cell_length_a 29.652688
_cell_length_b 8.208700
_cell_length_c 9.500027
_cell_angle_alpha 90.000000
_cell_angle_beta 146.424061
_cell_angle_gamma 90.000000
_cell_volume 1278.854649
_symmetry_space_group_name_H-M "C 2"
_symmetry_group_IT_number 5
_symmetry_cell_setting 'monoclinic'
loop_
_space_group_symop_operation_xyz
x,y,z
-x,y,-z
1/2+x,1/2+y,z
1/2-x,1/2+y,-z
loop_
_atom_site_type_symbol
_atom_site_label
_atom_site_fract_x
_atom_site_fract_y
_atom_site_fract_z
Si Si1 0.265520 0.515230 0.901695
Si Si2 0.361120 0.997158 0.794834
Si Si3 0.805839 0.139651 0.716335
Si Si4 0.491484 0.067937 0.640477
Si Si5 0.146778 0.803243 0.653734
Si Si6 0.392628 0.855465 0.589288
Si Si7 0.409244 0.503178 0.740138
O O1 0.318181 0.574292 0.905980
O O2 0.214644 0.663594 0.835553
O O3 0.203679 0.371619 0.694471
O O4 0.328811 0.450119 0.180610
O O5 0.327914 0.828841 0.771886
O O6 0.409835 0.959406 0.776505
O O7 0.287437 0.121482 0.576518
O O8 0.419680 0.087788 0.058146
O O9 0.864477 0.032748 0.770567
O O10 0.500000 0.020700 0.500000
O O11 0.440512 0.234353 0.523377
O O12 0.446353 0.919508 0.600607
O O13 0.140345 0.869077 0.477735
O O14 0.415809 0.668752 0.667956
O O15 0.500000 0.435162 0.000000
#
# Coordination Sequence:
#
# PCOD8050087 Si02
#       7
#     4   4   4   4   4   4   4
#     4  10  22  42  64  92 123 160 210 250 302 363
#     4  10  21  40  64  93 124 157 205 252 306 362
#     4  10  22  39  68  94 119 161 206 257 298 360
#     4  11  25  41  61  89 124 166 205 251 306 364
#     4  11  25  41  62  89 127 167 200 254 309 360
#     4   9  20  41  66  90 122 162 200 253 306 358
#     4  11  23  40  63  93 126 161 203 251 308 365
#
# _framework density 21.894590999999998
#
# number of rings (size 3 to 8) (size 9 to 14) (size 15 to 20)
#    0.000    1.714    0.000    3.857    0.000   14.857 
#    0.000    0.714    0.000    0.000    0.000    0.000 
#    0.000    0.000    0.000    0.000    0.000    0.000 
#
# Total GULP energy -173671.680175 kJ/mol
# GULP energy per Si atom -12405.120012 kJ/mol
# Density = 2.184476 g / cm^3
# Si number density = 21.894591 Si / 1000 Ang^3
#
#
#
# Elastic Constant Matrix: (Units=GPa)
#
#
# Indices 1 2 3 4 5 6 
#
# 1 136.4338 39.5848 52.8986 0.0000 -9.6209 0.0000
# 2 39.5848 89.2822 57.4490 0.0000 1.3615 0.0000
# 3 52.8986 57.4490 136.4686 0.0000 -7.1932 0.0000
# 4 0.0000 0.0000 0.0000 40.7250 0.0000 0.9481
# 5 -9.6209 1.3615 -7.1932 0.0000 30.0458 0.0000
# 6 0.0000 0.0000 0.0000 0.9481 0.0000 26.9468
#
#
#
# Elastic Compliance Matrix: (Units=1/GPa)
#
#
# Indices 1 2 3 4 5 6 
#
# 1 0.009162 -0.002605 -0.002323 0.000000 0.002496 0.000000
# 2 -0.002605 0.016257 -0.005992 0.000000 -0.003006 0.000000
# 3 -0.002323 -0.005992 0.010863 0.000000 0.002128 0.000000
# 4 0.000000 0.000000 0.000000 0.024575 0.000000 -0.000865
# 5 0.002496 -0.003006 0.002128 0.000000 0.034727 0.000000
# 6 0.000000 0.000000 0.000000 -0.000865 0.000000 0.037141
#
#
# Mechanical properties :
#
#
# Convention : Reuss Voigt Hill
#
# Bulk Modulus (GPa) = 69.24891 73.56102 71.40497
# Shear Modulus (GPa) = 31.37146 33.69369 32.53257
#
# Velocity S-wave (km/s) = 3.78939 3.92714 3.85888
# Velocity P-wave (km/s) = 7.13043 7.36437 7.24835
#
# Compressibility (1/GPa) = 0.01444066
#
# Stress axis : x y z
#
# Youngs Moduli (GPa) = 109.14369 61.51124 92.05615
#
# Poissons Ratio (x) = 0.16026 0.21386
# Poissons Ratio (y) = 0.28437 0.55162
# Poissons Ratio (z) = 0.25356 0.36859
#
# Static dielectric constant tensor:
#      x y z
#    x 3.962500 0.000000 -0.031680 
#    y 0.000000 3.812000 0.000000 
#    z -0.031680 0.000000 3.998030 
# 
# 
# High freq. dielectric constant tensor:
#      x y z
#    x 1.864530 0.000000 -0.001520 
#    y 0.000000 1.856200 0.000000 
#    z -0.001520 0.000000 1.861130 
# 
# From -- ./inp_files/31783.got.cif
#   From: 2010.03.12/outbox.cif.g09.slc.cpg/sg5_16_cif.got.tgz:31783.got - 2010.03.31 09:47:26.
