data_PCOD8050988
_publ_section_title
;
Structure prediction by ZEFSAII (Michael W. Deem and Ramdas Pophale) SiO2 
 PCOD8050988
Probable space group: C 2
;
_chemical_formula_sum "Si O2"
_cell_formula_units_Z 24
_cell_length_a 13.985691
_cell_length_b 5.240393
_cell_length_c 15.601943
_cell_angle_alpha 90.000000
_cell_angle_beta 89.721357
_cell_angle_gamma 90.000000
_cell_volume 1143.460950
_symmetry_space_group_name_H-M "C 2"
_symmetry_group_IT_number 5
_symmetry_cell_setting 'monoclinic'
loop_
_space_group_symop_operation_xyz
x,y,z
-x,y,-z
1/2+x,1/2+y,z
1/2-x,1/2+y,-z
loop_
_atom_site_type_symbol
_atom_site_label
_atom_site_fract_x
_atom_site_fract_y
_atom_site_fract_z
Si Si1 0.545252 0.080910 0.630720
Si Si2 0.685149 0.827362 0.097623
Si Si3 0.951695 0.084382 0.630784
Si Si4 0.749144 0.053490 0.556138
Si Si5 0.801647 0.322665 0.103427
Si Si6 0.504196 0.826294 0.795227
O O1 0.499229 0.333227 0.589236
O O2 0.658380 0.081659 0.617787
O O3 0.497881 0.833610 0.584337
O O4 0.518977 0.071508 0.732553
O O5 0.742905 0.577338 0.128773
O O6 0.580178 0.853907 0.136830
O O7 0.739939 0.077604 0.128631
O O8 0.671587 0.824065 0.996159
O O9 0.838566 0.084166 0.618677
O O10 0.977888 0.089776 0.732223
O O11 0.749323 0.272823 0.484738
O O12 0.898319 0.286744 0.154979
#
# Coordination Sequence:
#
# PCOD8050988 Si02
#       6
#     4   4   4   4   4   4
#     4  10  25  42  63  95 122 160 205 257 310 366
#     4  10  23  40  62  92 128 169 209 252 303 361
#     4  10  25  42  63  95 122 160 205 257 310 366
#     4  12  26  44  68  90 124 166 204 256 312 378
#     4  10  23  40  62  92 128 169 209 252 303 361
#     4  10  25  38  69  90 130 162 208 258 305 366
#
# _framework density 20.988913
#
# number of rings (size 3 to 8) (size 9 to 14) (size 15 to 20)
#    1.000    0.667    0.000    2.500    7.000    4.000 
#    0.000    5.000    0.000    0.000    0.000    0.000 
#    0.000    0.000    0.000    0.000    0.000    0.000 
#
# Total GULP energy -148736.267667 kJ/mol
# GULP energy per Si atom -12394.688972 kJ/mol
# Density = 2.094114 g / cm^3
# Si number density = 20.988913 Si / 1000 Ang^3
#
#
#
# Elastic Constant Matrix: (Units=GPa)
#
#
# Indices 1 2 3 4 5 6 
#
# 1 148.3662 49.6923 37.1598 0.0000 22.6056 0.0000
# 2 49.6923 160.9354 16.9488 0.0000 6.6580 0.0000
# 3 37.1598 16.9488 53.1020 0.0000 10.5456 0.0000
# 4 0.0000 0.0000 0.0000 -26.1952 0.0000 0.7453
# 5 22.6056 6.6580 10.5456 0.0000 35.7033 0.0000
# 6 0.0000 0.0000 0.0000 0.7453 0.0000 28.3446
#
#
#
# Elastic Compliance Matrix: (Units=1/GPa)
#
#
# Indices 1 2 3 4 5 6 
#
# 1 0.009350 -0.002189 -0.005045 0.000000 -0.004021 0.000000
# 2 -0.002189 0.006956 -0.000750 0.000000 0.000310 0.000000
# 3 -0.005045 -0.000750 0.023307 0.000000 -0.003550 0.000000
# 4 0.000000 0.000000 0.000000 -0.038146 0.000000 0.001003
# 5 -0.004021 0.000310 -0.003550 0.000000 0.031545 0.000000
# 6 0.000000 0.000000 0.000000 0.001003 0.000000 0.035254
#
#
# Mechanical properties :
#
#
# Convention : Reuss Voigt Hill
#
# Bulk Modulus (GPa) = 42.29536 63.33394 52.81465
# Shear Modulus (GPa) = 54.28027 24.81072 39.54549
#
# Velocity S-wave (km/s) = 5.09093 3.44188 4.34535
# Velocity P-wave (km/s) = 7.39944 6.78497 7.09886
#
# Compressibility (1/GPa) = 0.02364326
#
# Stress axis : x y z
#
# Youngs Moduli (GPa) = 106.95563 143.76581 42.90631
#
# Poissons Ratio (x) = 0.31473 0.21648
# Poissons Ratio (y) = 0.23415 0.03217
# Poissons Ratio (z) = 0.53963 0.10779
#
# Static dielectric constant tensor:
#      x y z
#    x 3.749860 0.000000 0.003110 
#    y 0.000000 4.034610 0.000000 
#    z 0.003110 0.000000 3.571600 
# 
# 
# High freq. dielectric constant tensor:
#      x y z
#    x 1.834450 0.000000 0.000680 
#    y 0.000000 1.830210 0.000000 
#    z 0.000680 0.000000 1.815720 
# 
# From -- ./inp_files/60057.got.cif
#   From: 2010.03.12/outbox.cif.g09.slc.cpg/sg5_31_cif.got.tgz:60057.got - 2010.03.31 09:47:26.
