data_PCOD8050843
_publ_section_title
;
Structure prediction by ZEFSAII (Michael W. Deem and Ramdas Pophale) SiO2 
 PCOD8050843
Probable space group: C 2
;
_chemical_formula_sum "Si O2"
_cell_formula_units_Z 30
_cell_length_a 10.980642
_cell_length_b 8.745604
_cell_length_c 28.649592
_cell_angle_alpha 90.000000
_cell_angle_beta 147.887796
_cell_angle_gamma 90.000000
_cell_volume 1462.526696
_symmetry_space_group_name_H-M "C 2"
_symmetry_group_IT_number 5
_symmetry_cell_setting 'monoclinic'
loop_
_space_group_symop_operation_xyz
x,y,z
-x,y,-z
1/2+x,1/2+y,z
1/2-x,1/2+y,-z
loop_
_atom_site_type_symbol
_atom_site_label
_atom_site_fract_x
_atom_site_fract_y
_atom_site_fract_z
Si Si1 0.000000 0.933571 0.000000
Si Si2 0.815493 0.209266 0.156209
Si Si3 0.017085 0.867934 0.605418
Si Si4 0.462850 0.652155 0.075937
Si Si5 0.780634 0.646718 0.258885
Si Si6 0.714345 0.141517 0.540589
Si Si7 0.047187 0.367161 0.313394
Si Si8 0.060849 0.469129 0.970499
O O1 0.212953 0.824559 0.083592
O O2 0.944021 0.047826 0.024118
O O3 0.642763 0.074623 0.115162
O O4 0.052471 0.131147 0.216406
O O5 0.851611 0.306158 0.215112
O O6 0.876473 0.746673 0.530148
O O7 0.085597 0.793470 0.677579
O O8 0.237092 0.925846 0.647326
O O9 0.855518 0.009006 0.562455
O O10 0.710424 0.662251 0.181303
O O11 0.380913 0.826272 0.043064
O O12 0.280332 0.576110 0.051765
O O13 0.945451 0.499471 0.313830
O O14 0.500000 0.073331 0.500000
O O15 0.880092 0.232109 0.628875
O O16 0.000000 0.393946 0.000000
#
# Coordination Sequence:
#
# PCOD8050843 Si02
#       8
#     2   4   4   4   4   4   4   4
#     4  12  22  44  66  88 130 182 226 270 324 376
#     4  11  22  41  62  88 130 168 215 272 315 372
#     4  10  23  41  66  96 126 162 204 256 313 388
#     4  12  25  41  65  91 128 173 225 270 323 380
#     4  11  22  41  62  92 130 164 206 265 319 365
#     4  10  22  44  68  94 124 162 204 249 319 384
#     4  10  23  41  62  92 127 163 202 259 316 377
#     4  12  24  42  62  90 121 173 222 265 321 376
#
# _framework density 20.512446000000001
#
# number of rings (size 3 to 8) (size 9 to 14) (size 15 to 20)
#    0.000    1.067    4.000    2.400    1.867    1.067 
#    2.400    0.000    0.000    0.000    0.000    0.000 
#    0.000    0.000    0.000    0.000    0.000    0.000 
#
# Total GULP energy -185963.217359 kJ/mol
# GULP energy per Si atom -12397.547824 kJ/mol
# Density = 2.046576 g / cm^3
# Si number density = 20.512446 Si / 1000 Ang^3
#
#
#
# Elastic Constant Matrix: (Units=GPa)
#
#
# Indices 1 2 3 4 5 6 
#
# 1 80.7067 55.9250 32.5270 0.0000 4.6522 0.0000
# 2 55.9250 117.7287 40.3066 0.0000 11.4541 0.0000
# 3 32.5270 40.3066 109.6173 0.0000 -5.5482 0.0000
# 4 0.0000 0.0000 0.0000 24.5797 0.0000 5.5929
# 5 4.6522 11.4541 -5.5482 0.0000 27.4785 0.0000
# 6 0.0000 0.0000 0.0000 5.5929 0.0000 40.6247
#
#
#
# Elastic Compliance Matrix: (Units=1/GPa)
#
#
# Indices 1 2 3 4 5 6 
#
# 1 0.019135 -0.008122 -0.002712 0.000000 -0.000401 0.000000
# 2 -0.008122 0.013841 -0.002932 0.000000 -0.004986 0.000000
# 3 -0.002712 -0.002932 0.011205 0.000000 0.003944 0.000000
# 4 0.000000 0.000000 0.000000 0.042000 0.000000 -0.005782
# 5 -0.000401 -0.004986 0.003944 0.000000 0.039335 0.000000
# 6 0.000000 0.000000 0.000000 -0.005782 0.000000 0.025412
#
#
# Mechanical properties :
#
#
# Convention : Reuss Voigt Hill
#
# Bulk Modulus (GPa) = 60.06102 62.84109 61.45106
# Shear Modulus (GPa) = 27.17273 30.48953 28.83113
#
# Velocity S-wave (km/s) = 3.64358 3.85956 3.75312
# Velocity P-wave (km/s) = 6.85892 7.11081 6.98600
#
# Compressibility (1/GPa) = 0.01664973
#
# Stress axis : x y z
#
# Youngs Moduli (GPa) = 52.26095 72.24759 89.24668
#
# Poissons Ratio (x) = 0.58681 0.24201
# Poissons Ratio (y) = 0.42447 0.26165
# Poissons Ratio (z) = 0.14171 0.21181
#
# Static dielectric constant tensor:
#      x y z
#    x 3.754180 0.000000 -0.040000 
#    y 0.000000 3.589560 0.000000 
#    z -0.040000 0.000000 3.944280 
# 
# 
# High freq. dielectric constant tensor:
#      x y z
#    x 1.801700 0.000000 -0.006440 
#    y 0.000000 1.800640 0.000000 
#    z -0.006440 0.000000 1.814540 
# 
# From -- ./inp_files/60293.got.cif
#   From: 2010.03.12/outbox.cif.g09.slc.cpg/sg5_31_cif.got.tgz:60293.got - 2010.03.31 09:47:26.
