data_PCOD8050066
_publ_section_title
;
Structure prediction by ZEFSAII (Michael W. Deem and Ramdas Pophale) SiO2 
 PCOD8050066
Probable space group: C 2
;
_chemical_formula_sum "Si O2"
_cell_formula_units_Z 28
_cell_length_a 10.947443
_cell_length_b 8.205996
_cell_length_c 13.573069
_cell_angle_alpha 90.000000
_cell_angle_beta 101.345145
_cell_angle_gamma 90.000000
_cell_volume 1195.506424
_symmetry_space_group_name_H-M "C 2"
_symmetry_group_IT_number 5
_symmetry_cell_setting 'monoclinic'
loop_
_space_group_symop_operation_xyz
x,y,z
-x,y,-z
1/2+x,1/2+y,z
1/2-x,1/2+y,-z
loop_
_atom_site_type_symbol
_atom_site_label
_atom_site_fract_x
_atom_site_fract_y
_atom_site_fract_z
Si Si1 0.783558 0.710800 0.439464
Si Si2 0.855581 0.619639 0.965772
Si Si3 0.624469 0.868610 0.568197
Si Si4 0.704200 0.765294 0.115039
Si Si5 0.582877 0.573955 0.260858
Si Si6 0.334174 0.450653 0.294983
Si Si7 0.723769 0.260443 0.244991
O O1 0.740362 0.769522 0.539556
O O2 0.873340 0.556995 0.463258
O O3 0.664852 0.672315 0.352065
O O4 0.860355 0.860917 0.402377
O O5 0.854886 0.426882 0.942018
O O6 0.785759 0.733994 0.874178
O O7 0.774726 0.647257 0.050658
O O8 0.000000 0.674132 0.000000
O O9 0.500000 0.794128 0.500000
O O10 0.646978 0.844385 0.689855
O O11 0.598101 0.659633 0.155745
O O12 0.811021 0.814518 0.209180
O O13 0.442093 0.574696 0.276894
O O14 0.614770 0.381313 0.261355
O O15 0.215881 0.575314 0.288001
#
# Coordination Sequence:
#
# PCOD8050066 Si02
#       7
#     4   4   4   4   4   4   4
#     4  10  23  38  59  93 123 161 217 255 308 387
#     4  11  23  41  64  92 130 170 210 266 320 373
#     4  11  23  41  64  92 130 170 210 266 320 373
#     4  10  23  38  59  93 123 161 217 255 308 387
#     4  10  21  40  63  89 124 164 207 263 317 370
#     4  10  21  40  63  89 124 164 207 263 317 370
#     4  10  22  40  64  92 124 164 212 256 310 382
#
# _framework density 23.421036999999998
#
# number of rings (size 3 to 8) (size 9 to 14) (size 15 to 20)
#    0.000    1.714    0.000    3.429    0.000    6.857 
#    0.000   14.286    0.000    0.000    0.000    0.000 
#    0.000    0.000    0.000    0.000    0.000    0.000 
#
# Total GULP energy -173439.813388 kJ/mol
# GULP energy per Si atom -12388.558099 kJ/mol
# Density = 2.336773 g / cm^3
# Si number density = 23.421037 Si / 1000 Ang^3
#
#
#
# Elastic Constant Matrix: (Units=GPa)
#
#
# Indices 1 2 3 4 5 6 
#
# 1 91.8945 34.2504 45.6398 0.0000 -6.9688 0.0000
# 2 34.2504 127.5577 34.6347 0.0000 -13.9206 0.0000
# 3 45.6398 34.6347 96.7484 0.0000 2.9373 0.0000
# 4 0.0000 0.0000 0.0000 46.0054 0.0000 -8.7053
# 5 -6.9688 -13.9206 2.9373 0.0000 30.6329 0.0000
# 6 0.0000 0.0000 0.0000 -8.7053 0.0000 33.8802
#
#
#
# Elastic Compliance Matrix: (Units=1/GPa)
#
#
# Indices 1 2 3 4 5 6 
#
# 1 0.015081 -0.001933 -0.006519 0.000000 0.003178 0.000000
# 2 -0.001933 0.009522 -0.002623 0.000000 0.004139 0.000000
# 3 -0.006519 -0.002623 0.014474 0.000000 -0.004063 0.000000
# 4 0.000000 0.000000 0.000000 0.022847 0.000000 0.005871
# 5 0.003178 0.004139 -0.004063 0.000000 0.035638 0.000000
# 6 0.000000 0.000000 0.000000 0.005871 0.000000 0.031024
#
#
# Mechanical properties :
#
#
# Convention : Reuss Voigt Hill
#
# Bulk Modulus (GPa) = 59.07287 60.58337 59.82812
# Shear Modulus (GPa) = 31.97382 35.54875 33.76129
#
# Velocity S-wave (km/s) = 3.69884 3.90014 3.80082
# Velocity P-wave (km/s) = 6.59687 6.79740 6.69789
#
# Compressibility (1/GPa) = 0.01692824
#
# Stress axis : x y z
#
# Youngs Moduli (GPa) = 66.30887 105.01573 69.09135
#
# Poissons Ratio (x) = 0.20295 0.45040
# Poissons Ratio (y) = 0.12815 0.18122
# Poissons Ratio (z) = 0.43226 0.27545
#
# Static dielectric constant tensor:
#      x y z
#    x 3.767810 0.000000 -0.060990 
#    y 0.000000 4.340880 0.000000 
#    z -0.060990 0.000000 4.295660 
# 
# 
# High freq. dielectric constant tensor:
#      x y z
#    x 1.889160 0.000000 -0.001290 
#    y 0.000000 1.945970 0.000000 
#    z -0.001290 0.000000 1.932860 
# 
# From -- ./inp_files/52302.got.cif
#   From: 2010.03.12/outbox.cif.g09.slc.cpg/sg5_27_cif.got.tgz:52302.got - 2010.03.31 09:47:26.
