data_PCOD8050549
_publ_section_title
;
Structure prediction by ZEFSAII (Michael W. Deem and Ramdas Pophale) SiO2 
 PCOD8050549
Probable space group: C 2
;
_chemical_formula_sum "Si O2"
_cell_formula_units_Z 30
_cell_length_a 8.127290
_cell_length_b 22.427486
_cell_length_c 13.293795
_cell_angle_alpha 90.000000
_cell_angle_beta 146.404891
_cell_angle_gamma 90.000000
_cell_volume 1340.763092
_symmetry_space_group_name_H-M "C 2"
_symmetry_group_IT_number 5
_symmetry_cell_setting 'monoclinic'
loop_
_space_group_symop_operation_xyz
x,y,z
-x,y,-z
1/2+x,1/2+y,z
1/2-x,1/2+y,-z
loop_
_atom_site_type_symbol
_atom_site_label
_atom_site_fract_x
_atom_site_fract_y
_atom_site_fract_z
Si Si1 0.814772 0.349820 0.208726
Si Si2 0.720016 0.162906 0.028016
Si Si3 0.509208 0.202200 0.295624
Si Si4 0.000000 0.288447 0.500000
Si Si5 0.648144 0.973349 0.681418
Si Si6 0.828381 0.042507 0.130037
Si Si7 0.220708 0.076887 0.518559
Si Si8 0.822091 0.253458 0.707073
O O1 0.823190 0.326727 0.327732
O O2 0.866173 0.420324 0.243868
O O3 0.068871 0.320214 0.265746
O O4 0.500000 0.333428 0.000000
O O5 0.557726 0.196914 0.855973
O O6 0.500000 0.138910 0.000000
O O7 0.840679 0.097799 0.055114
O O8 0.930614 0.206267 0.201393
O O9 0.777689 0.247916 0.451118
O O10 0.604124 0.139651 0.393325
O O11 0.217432 0.234027 0.195482
O O12 0.500000 0.954669 0.500000
O O13 0.475029 0.026586 0.648423
O O14 0.994862 0.988760 0.834402
O O15 0.020891 0.068664 0.319493
O O16 0.500000 0.020221 0.000000
O O17 0.000000 0.071326 0.500000
O O18 0.500000 0.238831 0.500000
#
# Coordination Sequence:
#
# PCOD8050549 Si02
#       8
#     4   4   4   2   4   4   4   4
#     4  12  27  48  73  96 138 192 243 298 358 423
#     4  11  23  40  66 103 148 182 229 286 358 435
#     4  12  24  40  69 100 143 182 231 291 358 427
#     4  12  24  46  68  98 142 184 230 294 358 420
#     4  10  24  48  70  97 140 188 242 298 359 422
#     4  10  22  40  68 103 144 182 232 297 356 430
#     4  11  22  41  70 104 142 186 231 289 366 425
#     4  12  24  41  64  99 134 178 235 283 355 420
#
# _framework density 22.375316999999999
#
# number of rings (size 3 to 8) (size 9 to 14) (size 15 to 20)
#    0.000    0.800    2.667    5.600    0.000    3.733 
#    0.000    2.667    0.000    0.000    0.000    0.000 
#    0.000    0.000    0.000    0.000    0.000    0.000 
#
# Total GULP energy -185880.921588 kJ/mol
# GULP energy per Si atom -12392.061439 kJ/mol
# Density = 2.232439 g / cm^3
# Si number density = 22.375317 Si / 1000 Ang^3
#
#
#
# Elastic Constant Matrix: (Units=GPa)
#
#
# Indices 1 2 3 4 5 6 
#
# 1 104.3207 58.3780 26.1113 0.0000 10.0083 0.0000
# 2 58.3780 141.3688 52.2713 0.0000 14.8060 0.0000
# 3 26.1113 52.2713 118.2306 -0.0001 8.4061 -0.0001
# 4 0.0000 0.0000 -0.0001 29.7746 -0.0001 -2.3517
# 5 10.0083 14.8060 8.4061 -0.0001 38.1049 0.0000
# 6 0.0000 0.0000 -0.0001 -2.3517 0.0000 41.0693
#
#
#
# Elastic Compliance Matrix: (Units=1/GPa)
#
#
# Indices 1 2 3 4 5 6 
#
# 1 0.012560 -0.004853 -0.000536 0.000000 -0.001295 0.000000
# 2 -0.004853 0.010572 -0.003455 0.000000 -0.002071 0.000000
# 3 -0.000536 -0.003455 0.010158 0.000000 -0.000757 0.000000
# 4 0.000000 0.000000 0.000000 0.033738 0.000000 0.001932
# 5 -0.001295 -0.002071 -0.000757 0.000000 0.027555 0.000000
# 6 0.000000 0.000000 0.000000 0.001932 0.000000 0.024460
#
#
# Mechanical properties :
#
#
# Convention : Reuss Voigt Hill
#
# Bulk Modulus (GPa) = 64.09583 70.82682 67.46133
# Shear Modulus (GPa) = 35.22822 36.93373 36.08098
#
# Velocity S-wave (km/s) = 3.97220 4.06722 4.01999
# Velocity P-wave (km/s) = 7.05307 7.33342 7.19461
#
# Compressibility (1/GPa) = 0.01560164
#
# Stress axis : x y z
#
# Youngs Moduli (GPa) = 79.61884 94.58948 98.44563
#
# Poissons Ratio (x) = 0.45901 0.05280
# Poissons Ratio (y) = 0.38636 0.34014
# Poissons Ratio (z) = 0.04271 0.32681
#
# Static dielectric constant tensor:
#      x y z
#    x 4.275250 0.000000 0.238490 
#    y 0.000000 3.944620 0.000000 
#    z 0.238490 0.000000 4.290190 
# 
# 
# High freq. dielectric constant tensor:
#      x y z
#    x 1.880060 0.000000 0.003450 
#    y 0.000000 1.874650 0.000000 
#    z 0.003450 0.000000 1.896680 
# 
# From -- ./inp_files/51654.got.cif
#   From: 2010.03.12/outbox.cif.g09.slc.cpg/sg5_26_cif.got.tgz:51654.got - 2010.03.31 09:47:26.
