data_PCOD8050154
_publ_section_title
;
Structure prediction by ZEFSAII (Michael W. Deem and Ramdas Pophale) SiO2 
 PCOD8050154
Probable space group: C 2
;
_chemical_formula_sum "Si O2"
_cell_formula_units_Z 26
_cell_length_a 9.172534
_cell_length_b 15.577329
_cell_length_c 8.815168
_cell_angle_alpha 90.000000
_cell_angle_beta 89.882026
_cell_angle_gamma 90.000000
_cell_volume 1259.540091
_symmetry_space_group_name_H-M "C 2"
_symmetry_group_IT_number 5
_symmetry_cell_setting 'monoclinic'
loop_
_space_group_symop_operation_xyz
x,y,z
-x,y,-z
1/2+x,1/2+y,z
1/2-x,1/2+y,-z
loop_
_atom_site_type_symbol
_atom_site_label
_atom_site_fract_x
_atom_site_fract_y
_atom_site_fract_z
Si Si1 0.500000 0.094561 0.000000
Si Si2 0.521305 0.491767 0.327119
Si Si3 0.004003 0.177727 0.232393
Si Si4 0.686657 0.968674 0.835088
Si Si5 0.525296 0.857339 0.333622
Si Si6 0.237928 0.209489 0.999808
Si Si7 0.705927 0.392607 0.863703
O O1 0.629838 0.153224 0.063255
O O2 0.560435 0.040248 0.856429
O O3 0.500000 0.461192 0.500000
O O4 0.456370 0.588375 0.309945
O O5 0.692092 0.494850 0.287638
O O6 0.444410 0.423997 0.213330
O O7 0.039958 0.254000 0.349910
O O8 0.148621 0.159652 0.131789
O O9 0.873733 0.220791 0.137091
O O10 0.608473 0.882620 0.776050
O O11 0.756594 0.957586 0.001120
O O12 0.500000 0.896943 0.500000
O O13 0.672662 0.897229 0.266449
O O14 0.304162 0.298133 0.063957
#
# Coordination Sequence:
#
# PCOD8050154 Si02
#       7
#     2   4   4   4   4   4   4
#     4  12  22  38  62  98 122 156 212 276 314 360
#     4  12  26  42  64  98 132 169 213 269 330 381
#     4  10  21  41  63  92 129 168 216 259 318 385
#     4  12  23  42  64  94 127 168 217 266 319 381
#     4  11  22  40  65  93 131 174 210 262 328 386
#     4  10  22  38  64  96 121 164 218 268 311 371
#     4  11  23  42  65  93 126 171 219 265 310 385
#
# _framework density 20.642454000000001
#
# number of rings (size 3 to 8) (size 9 to 14) (size 15 to 20)
#    0.000    0.923    4.615    2.769    4.308    0.000 
#    0.000    0.000    0.000    0.923    0.000    0.000 
#    0.000    0.000    0.000    0.000    0.000    0.000 
#
# Total GULP energy -161174.353216 kJ/mol
# GULP energy per Si atom -12398.027170 kJ/mol
# Density = 2.059547 g / cm^3
# Si number density = 20.642454 Si / 1000 Ang^3
#
#
#
# Elastic Constant Matrix: (Units=GPa)
#
#
# Indices 1 2 3 4 5 6 
#
# 1 119.7064 43.8673 43.2794 0.0000 -16.0092 0.0000
# 2 43.8673 92.4823 19.4795 0.0000 -2.6076 0.0000
# 3 43.2794 19.4795 89.1956 0.0000 -16.4065 0.0000
# 4 0.0000 0.0000 0.0000 21.7480 0.0000 3.6473
# 5 -16.0092 -2.6076 -16.4065 0.0000 35.0150 0.0000
# 6 0.0000 0.0000 0.0000 3.6473 0.0000 35.5692
#
#
#
# Elastic Compliance Matrix: (Units=1/GPa)
#
#
# Indices 1 2 3 4 5 6 
#
# 1 0.012039 -0.004731 -0.004225 0.000000 0.003173 0.000000
# 2 -0.004731 0.013197 -0.000879 0.000000 -0.001592 0.000000
# 3 -0.004225 -0.000879 0.014320 0.000000 0.004713 0.000000
# 4 0.000000 0.000000 0.000000 0.046786 0.000000 -0.004797
# 5 0.003173 -0.001592 0.004713 0.000000 0.032099 0.000000
# 6 0.000000 0.000000 0.000000 -0.004797 0.000000 0.028606
#
#
# Mechanical properties :
#
#
# Convention : Reuss Voigt Hill
#
# Bulk Modulus (GPa) = 50.28709 57.18185 53.73447
# Shear Modulus (GPa) = 28.84369 31.45030 30.14699
#
# Velocity S-wave (km/s) = 3.74210 3.90753 3.82571
# Velocity P-wave (km/s) = 6.56392 6.93683 6.75295
#
# Compressibility (1/GPa) = 0.01988582
#
# Stress axis : x y z
#
# Youngs Moduli (GPa) = 83.06066 75.77236 69.83137
#
# Poissons Ratio (x) = 0.35850 0.29503
# Poissons Ratio (y) = 0.39299 0.06141
# Poissons Ratio (z) = 0.35092 0.06663
#
# Static dielectric constant tensor:
#      x y z
#    x 3.700950 0.000000 -0.128090 
#    y 0.000000 3.673870 0.000000 
#    z -0.128090 0.000000 3.474140 
# 
# 
# High freq. dielectric constant tensor:
#      x y z
#    x 1.808060 0.000000 -0.010700 
#    y 0.000000 1.813450 0.000000 
#    z -0.010700 0.000000 1.787520 
# 
# From -- ./inp_files/16059.got.cif
#   From: 2010.03.12/outbox.cif.g09.slc.cpg/sg5_9_cif.got.tgz:16059.got - 2010.03.31 09:47:26.
