data_PCOD8050169
_publ_section_title
;
Structure prediction by ZEFSAII (Michael W. Deem and Ramdas Pophale) SiO2 
 PCOD8050169
Probable space group: C 2
;
_chemical_formula_sum "Si O2"
_cell_formula_units_Z 32
_cell_length_a 15.521441
_cell_length_b 21.202448
_cell_length_c 9.260559
_cell_angle_alpha 90.000000
_cell_angle_beta 28.431841
_cell_angle_gamma 90.000000
_cell_volume 1450.992850
_symmetry_space_group_name_H-M "C 2"
_symmetry_group_IT_number 5
_symmetry_cell_setting 'monoclinic'
loop_
_space_group_symop_operation_xyz
x,y,z
-x,y,-z
1/2+x,1/2+y,z
1/2-x,1/2+y,-z
loop_
_atom_site_type_symbol
_atom_site_label
_atom_site_fract_x
_atom_site_fract_y
_atom_site_fract_z
Si Si1 0.954314 0.240780 0.735540
Si Si2 0.680345 0.524126 0.656411
Si Si3 0.684210 0.125323 0.150977
Si Si4 0.541131 0.456078 0.586289
Si Si5 0.701653 0.982973 0.233410
Si Si6 0.317301 0.322417 0.699038
Si Si7 0.456159 0.133818 0.224255
Si Si8 0.812894 0.237901 0.347270
O O1 0.000000 0.246883 0.500000
O O2 0.145520 0.242627 0.541921
O O3 0.845586 0.175904 0.932612
O O4 0.841101 0.301700 0.956612
O O5 0.648391 0.494330 0.547527
O O6 0.763224 0.473950 0.647472
O O7 0.833729 0.573118 0.397786
O O8 0.500000 0.552203 0.000000
O O9 0.500000 0.148390 0.500000
O O10 0.738774 0.056617 0.133934
O O11 0.637701 0.120350 0.048572
O O12 0.500000 0.496707 0.500000
O O13 0.658535 0.397161 0.356788
O O14 0.343737 0.437528 0.942607
O O15 0.500000 0.960161 0.500000
O O16 0.500000 0.293418 0.500000
O O17 0.266210 0.300546 0.611755
O O18 0.338174 0.187625 0.472538
O O19 0.500000 0.156734 0.000000
O O20 0.000000 0.216496 0.000000
#
# Coordination Sequence:
#
# PCOD8050169 Si02
#       8
#     4   4   4   4   4   4   4   4
#     4  11  23  40  66 104 135 169 223 278 335 401
#     4  10  22  40  63  90 130 173 223 266 326 392
#     4  11  21  38  64  96 142 181 207 269 340 408
#     4  10  24  43  68  92 126 179 228 279 330 390
#     4  10  21  41  65  96 132 176 224 269 334 400
#     4  10  22  46  69  89 128 178 225 274 341 391
#     4  12  23  35  57  99 136 174 208 272 332 393
#     4  10  22  39  66  94 129 173 223 264 334 403
#
# _framework density 22.053865999999999
#
# number of rings (size 3 to 8) (size 9 to 14) (size 15 to 20)
#    0.000    1.500    2.500    3.750    5.250    0.500 
#    0.000   21.250    0.000    0.000    0.000    0.000 
#    0.000    0.000    0.000    0.000    0.000    0.000 
#
# Total GULP energy -198229.486270 kJ/mol
# GULP energy per Si atom -12389.342892 kJ/mol
# Density = 2.200367 g / cm^3
# Si number density = 22.053866 Si / 1000 Ang^3
#
#
#
# Elastic Constant Matrix: (Units=GPa)
#
#
# Indices 1 2 3 4 5 6 
#
# 1 190.8736 17.1667 17.9680 -0.0323 12.4027 0.0057
# 2 17.1667 50.8421 15.8737 -0.0211 7.5326 0.0087
# 3 17.9680 15.8737 49.0159 0.0900 2.4644 -0.0342
# 4 -0.0323 -0.0211 0.0900 21.4154 0.0096 2.8916
# 5 12.4027 7.5326 2.4644 0.0096 41.1379 0.0002
# 6 0.0057 0.0087 -0.0342 2.8916 0.0002 22.8024
#
#
#
# Elastic Compliance Matrix: (Units=1/GPa)
#
#
# Indices 1 2 3 4 5 6 
#
# 1 0.005585 -0.001185 -0.001595 0.000015 -0.001371 -0.000005
# 2 -0.001185 0.022675 -0.006739 0.000054 -0.003391 -0.000025
# 3 -0.001595 -0.006739 0.023152 -0.000114 0.000328 0.000052
# 4 0.000015 0.000054 -0.000114 0.047509 -0.000019 -0.006025
# 5 -0.001371 -0.003391 0.000328 -0.000019 0.025323 0.000004
# 6 -0.000005 -0.000025 0.000052 -0.006025 0.000004 0.044619
#
#
# Mechanical properties :
#
#
# Convention : Reuss Voigt Hill
#
# Bulk Modulus (GPa) = 30.88693 43.63870 37.26282
# Shear Modulus (GPa) = 25.16461 33.05270 29.10865
#
# Velocity S-wave (km/s) = 3.38161 3.87554 3.63697
# Velocity P-wave (km/s) = 5.41135 6.31321 5.87960
#
# Compressibility (1/GPa) = 0.03237615
#
# Stress axis : x y z
#
# Youngs Moduli (GPa) = 179.05611 44.10132 43.19254
#
# Poissons Ratio (x) = 0.05224 0.06888
# Poissons Ratio (y) = 0.21212 0.29106
# Poissons Ratio (z) = 0.28554 0.29718
#
# Static dielectric constant tensor:
#      x y z
#    x 4.734120 -0.000100 -0.003210 
#    y -0.000100 3.508230 -0.000040 
#    z -0.003210 -0.000040 4.041070 
# 
# 
# High freq. dielectric constant tensor:
#      x y z
#    x 1.905990 0.000000 -0.002190 
#    y 0.000000 1.826470 0.000000 
#    z -0.002190 0.000000 1.859660 
# 
# From -- ./inp_files/25631.got.cif
#   From: 2010.03.12/outbox.cif.g09.slc.cpg/sg5_13_cif.got.tgz:25631.got - 2010.03.31 09:47:26.
