data_PCOD8050384
_publ_section_title
;
Structure prediction by ZEFSAII (Michael W. Deem and Ramdas Pophale) SiO2 
 PCOD8050384
Probable space group: C 2
;
_chemical_formula_sum "Si O2"
_cell_formula_units_Z 28
_cell_length_a 9.622468
_cell_length_b 8.995171
_cell_length_c 28.760482
_cell_angle_alpha 90.000000
_cell_angle_beta 34.481183
_cell_angle_gamma 90.000000
_cell_volume 1409.329312
_symmetry_space_group_name_H-M "C 2"
_symmetry_group_IT_number 5
_symmetry_cell_setting 'monoclinic'
loop_
_space_group_symop_operation_xyz
x,y,z
-x,y,-z
1/2+x,1/2+y,z
1/2-x,1/2+y,-z
loop_
_atom_site_type_symbol
_atom_site_label
_atom_site_fract_x
_atom_site_fract_y
_atom_site_fract_z
Si Si1 0.874786 0.795000 0.448351
Si Si2 0.743659 0.369843 0.949217
Si Si3 0.027340 0.131180 0.387397
Si Si4 0.601960 0.780155 0.664995
Si Si5 0.507476 0.068328 0.948909
Si Si6 0.502689 0.717621 0.200974
Si Si7 0.038413 0.612490 0.665476
O O1 0.636900 0.761946 0.544830
O O2 0.841345 0.703288 0.409951
O O3 0.110374 0.739204 0.412433
O O4 0.906102 0.970630 0.430227
O O5 0.890428 0.469122 0.943015
O O6 0.917639 0.345118 0.856829
O O7 0.500000 0.458034 0.000000
O O8 0.649089 0.219343 0.000439
O O9 0.034420 0.157533 0.329573
O O10 0.303281 0.146207 0.331507
O O11 0.508314 0.783650 0.744017
O O12 0.554875 0.936708 0.652556
O O13 0.789052 0.091693 0.856273
O O14 0.500000 0.980549 0.000000
O O15 0.246715 0.655148 0.251833
#
# Coordination Sequence:
#
# PCOD8050384 Si02
#       7
#     4   4   4   4   4   4   4
#     4  10  22  38  56  81 111 145 189 241 287 330
#     4   9  20  39  60  85 116 146 183 229 272 325
#     4  11  22  37  59  82 108 147 193 236 283 335
#     4  10  22  38  55  80 114 149 186 232 283 333
#     4   9  20  38  60  86 114 146 185 227 272 327
#     4   9  21  38  57  83 119 149 180 228 279 330
#     4  10  22  38  55  81 114 146 188 233 280 334
#
# _framework density 19.867607
#
# number of rings (size 3 to 8) (size 9 to 14) (size 15 to 20)
#    0.000    2.571    0.000    1.714    0.000   16.571 
#    0.000    0.000    0.000    0.000    0.000    0.000 
#    0.000    0.000    0.000    0.000    0.000    0.000 
#
# Total GULP energy -173499.939522 kJ/mol
# GULP energy per Si atom -12392.852823 kJ/mol
# Density = 1.982239 g / cm^3
# Si number density = 19.867607 Si / 1000 Ang^3
#
#
#
# Elastic Constant Matrix: (Units=GPa)
#
#
# Indices 1 2 3 4 5 6 
#
# 1 174.9191 71.8649 64.6358 0.0021 0.8242 0.0001
# 2 71.8649 74.2711 35.8415 0.0022 6.2428 0.0001
# 3 64.6358 35.8415 108.2258 0.0186 -5.1101 0.0013
# 4 0.0021 0.0022 0.0186 2.2620 -0.0023 2.0994
# 5 0.8242 6.2428 -5.1101 -0.0023 28.9372 -0.0001
# 6 0.0001 0.0001 0.0013 2.0994 -0.0001 50.2417
#
#
#
# Elastic Compliance Matrix: (Units=1/GPa)
#
#
# Indices 1 2 3 4 5 6 
#
# 1 0.010495 -0.008609 -0.003371 0.000028 0.000963 -0.000001
# 2 -0.008609 0.023671 -0.002952 0.000005 -0.005383 0.000000
# 3 -0.003371 -0.002952 0.012369 -0.000096 0.002917 0.000004
# 4 0.000028 0.000005 -0.000096 0.459918 0.000017 -0.019218
# 5 0.000963 -0.005383 0.002917 0.000017 0.036207 -0.000001
# 6 -0.000001 0.000000 0.000004 -0.019218 -0.000001 0.020707
#
#
# Mechanical properties :
#
#
# Convention : Reuss Voigt Hill
#
# Bulk Modulus (GPa) = 59.98639 78.01116 68.99878
# Shear Modulus (GPa) = 8.35019 28.62644 18.48832
#
# Velocity S-wave (km/s) = 2.05233 3.79998 3.05384
# Velocity P-wave (km/s) = 5.98955 7.65532 6.87308
#
# Compressibility (1/GPa) = 0.01667045
#
# Stress axis : x y z
#
# Youngs Moduli (GPa) = 95.28104 42.24513 80.84849
#
# Poissons Ratio (x) = 0.36370 0.27258
# Poissons Ratio (y) = 0.82029 0.23865
# Poissons Ratio (z) = 0.32124 0.12470
#
# Static dielectric constant tensor:
#      x y z
#    x 3.895500 0.000000 -0.051480 
#    y 0.000000 3.438140 0.000000 
#    z -0.051480 0.000000 3.629910 
# 
# 
# High freq. dielectric constant tensor:
#      x y z
#    x 1.793750 0.000000 -0.001300 
#    y 0.000000 1.757040 0.000000 
#    z -0.001300 0.000000 1.773600 
# 
# From -- ./inp_files/70147.got.cif
#   From: 2010.03.12/outbox.cif.g09.slc.cpg/sg5_36_cif.got.tgz:70147.got - 2010.03.31 09:47:26.
