data_PCOD8050230
_publ_section_title
;
Structure prediction by ZEFSAII (Michael W. Deem and Ramdas Pophale) SiO2 
 PCOD8050230
Probable space group: C 2
;
_chemical_formula_sum "Si O2"
_cell_formula_units_Z 20
_cell_length_a 7.373122
_cell_length_b 20.453175
_cell_length_c 6.379929
_cell_angle_alpha 90.000000
_cell_angle_beta 69.097179
_cell_angle_gamma 90.000000
_cell_volume 898.797337
_symmetry_space_group_name_H-M "C 2"
_symmetry_group_IT_number 5
_symmetry_cell_setting 'monoclinic'
loop_
_space_group_symop_operation_xyz
x,y,z
-x,y,-z
1/2+x,1/2+y,z
1/2-x,1/2+y,-z
loop_
_atom_site_type_symbol
_atom_site_label
_atom_site_fract_x
_atom_site_fract_y
_atom_site_fract_z
Si Si1 0.201842 0.182260 0.810436
Si Si2 0.808031 0.937015 0.446937
Si Si3 0.271864 0.578029 0.551011
Si Si4 0.000000 0.875695 0.000000
Si Si5 0.500000 0.136791 0.000000
Si Si6 0.193350 0.329306 0.800745
O O1 0.272718 0.132286 0.604857
O O2 0.182309 0.254921 0.721090
O O3 0.370969 0.184595 0.912329
O O4 0.000000 0.159830 0.000000
O O5 0.848417 0.921157 0.187473
O O6 0.693113 0.877064 0.600430
O O7 0.000000 0.947636 0.500000
O O8 0.700029 0.006939 0.497972
O O9 0.500000 0.581093 0.500000
O O10 0.146806 0.591155 0.809528
O O11 0.119059 0.834394 0.123902
O O12 0.000000 0.348713 0.000000
#
# Coordination Sequence:
#
# PCOD8050230 Si02
#       6
#     4   4   4   2   2   4
#     4  11  24  44  67  98 137 174 221 276 327 394
#     4   9  22  41  66  95 129 171 217 270 322 390
#     4  11  24  44  69  99 137 175 222 274 327 397
#     4  10  21  42  66  88 129 176 206 274 331 372
#     4  12  25  42  70  98 129 184 218 268 339 390
#     4  10  23  42  65  98 129 168 220 265 322 391
#
# _framework density 22.251957999999998
#
# number of rings (size 3 to 8) (size 9 to 14) (size 15 to 20)
#    0.000    1.600    2.000    1.200    2.800    8.800 
#    3.600    0.000    0.000    0.000    0.000    0.000 
#    0.000    0.000    0.000    0.000    0.000    0.000 
#
# Total GULP energy -123991.182251 kJ/mol
# GULP energy per Si atom -12399.118225 kJ/mol
# Density = 2.220131 g / cm^3
# Si number density = 22.251958 Si / 1000 Ang^3
#
#
#
# Elastic Constant Matrix: (Units=GPa)
#
#
# Indices 1 2 3 4 5 6 
#
# 1 83.5200 10.4642 22.6534 0.0000 -10.2316 0.0000
# 2 10.4642 168.0906 90.9638 0.0000 -9.6179 0.0000
# 3 22.6534 90.9638 164.4074 0.0000 -20.0030 0.0000
# 4 0.0000 0.0000 0.0000 25.6418 0.0000 -2.6975
# 5 -10.2316 -9.6179 -20.0030 0.0000 37.7747 0.0000
# 6 0.0000 0.0000 0.0000 -2.6975 0.0000 15.6245
#
#
#
# Elastic Compliance Matrix: (Units=1/GPa)
#
#
# Indices 1 2 3 4 5 6 
#
# 1 0.012692 0.000190 -0.001528 0.000000 0.002677 0.000000
# 2 0.000190 0.008499 -0.004766 0.000000 -0.000308 0.000000
# 3 -0.001528 -0.004766 0.009333 0.000000 0.003315 0.000000
# 4 0.000000 0.000000 0.000000 0.039720 0.000000 0.006858
# 5 0.002677 -0.000308 0.003315 0.000000 0.028875 0.000000
# 6 0.000000 0.000000 0.000000 0.006858 0.000000 0.065186
#
#
# Mechanical properties :
#
#
# Convention : Reuss Voigt Hill
#
# Bulk Modulus (GPa) = 54.59823 73.79788 64.19806
# Shear Modulus (GPa) = 27.37952 35.27065 31.32508
#
# Velocity S-wave (km/s) = 3.51156 3.98560 3.75606
# Velocity P-wave (km/s) = 6.40555 7.37676 6.90824
#
# Compressibility (1/GPa) = 0.01831561
#
# Stress axis : x y z
#
# Youngs Moduli (GPa) = 78.79099 117.66301 107.14354
#
# Poissons Ratio (x) = -0.02237 0.16374
# Poissons Ratio (y) = -0.01498 0.51064
# Poissons Ratio (z) = 0.12041 0.56078
#
# Static dielectric constant tensor:
#      x y z
#    x 3.932530 0.000000 -0.141870 
#    y 0.000000 4.126000 0.000000 
#    z -0.141870 0.000000 4.036440 
# 
# 
# High freq. dielectric constant tensor:
#      x y z
#    x 1.875810 0.000000 -0.011480 
#    y 0.000000 1.879850 0.000000 
#    z -0.011480 0.000000 1.878350 
# 
# From -- ./inp_files/2618.got.cif
#   From: 2010.03.12/outbox.cif.g09.slc.cpg/sg5_2_cif.got.tgz:2618.got - 2010.03.31 09:47:26.
