data_PCOD8050383
_publ_section_title
;
Structure prediction by ZEFSAII (Michael W. Deem and Ramdas Pophale) SiO2 
 PCOD8050383
Probable space group: C 2
;
_chemical_formula_sum "Si O2"
_cell_formula_units_Z 16
_cell_length_a 18.001519
_cell_length_b 8.629228
_cell_length_c 16.881616
_cell_angle_alpha 90.000000
_cell_angle_beta 16.419053
_cell_angle_gamma 90.000000
_cell_volume 741.242239
_symmetry_space_group_name_H-M "C 2"
_symmetry_group_IT_number 5
_symmetry_cell_setting 'monoclinic'
loop_
_space_group_symop_operation_xyz
x,y,z
-x,y,-z
1/2+x,1/2+y,z
1/2-x,1/2+y,-z
loop_
_atom_site_type_symbol
_atom_site_label
_atom_site_fract_x
_atom_site_fract_y
_atom_site_fract_z
Si Si1 0.713710 0.556210 0.635504
Si Si2 0.235874 0.734816 0.087917
Si Si3 0.004754 0.057822 0.304375
Si Si4 0.242898 0.253559 0.308936
O O1 0.686875 0.498945 0.570940
O O2 0.677818 0.410666 0.728481
O O3 0.989878 0.635762 0.369208
O O4 0.482745 0.681888 0.889797
O O5 0.183685 0.916090 0.151249
O O6 0.304049 0.693526 0.925775
O O7 0.832407 0.119939 0.552423
O O8 0.000000 0.285748 0.500000
O O9 0.500000 0.193217 0.000000
#
# Coordination Sequence:
#
# PCOD8050383 Si02
#       4
#     4   4   4   4
#     4  10  23  42  68 101 134 184 234 275 336 420
#     4  10  22  37  74  98 135 173 246 281 325 398
#     4  10  24  41  73 105 137 179 242 279 341 410
#     4  12  27  44  69 105 146 181 222 292 362 404
#
# _framework density 21.585384999999999
#
# number of rings (size 3 to 8) (size 9 to 14) (size 15 to 20)
#    1.500    0.000    0.000    4.500   10.500    0.000 
#    0.000    5.000    0.000    0.000    0.000    0.000 
#    0.000    0.000    0.000    0.000    0.000    0.000 
#
# Total GULP energy -99180.477726 kJ/mol
# GULP energy per Si atom -12397.559716 kJ/mol
# Density = 2.153626 g / cm^3
# Si number density = 21.585385 Si / 1000 Ang^3
#
#
#
# Elastic Constant Matrix: (Units=GPa)
#
#
# Indices 1 2 3 4 5 6 
#
# 1 84.4644 22.4664 38.0592 -0.0170 -4.4958 -0.0067
# 2 22.4664 110.9169 67.6770 0.0292 18.3854 -0.0372
# 3 38.0592 67.6770 173.8038 0.0096 -4.2288 -0.0419
# 4 -0.0170 0.0292 0.0096 34.8989 -0.0135 -10.1229
# 5 -4.4958 18.3854 -4.2288 -0.0135 28.4215 -0.0073
# 6 -0.0067 -0.0372 -0.0419 -10.1229 -0.0073 12.5417
#
#
#
# Elastic Compliance Matrix: (Units=1/GPa)
#
#
# Indices 1 2 3 4 5 6 
#
# 1 0.013475 -0.001947 -0.002118 0.000012 0.003076 0.000006
# 2 -0.001947 0.014487 -0.005470 -0.000014 -0.010493 0.000006
# 3 -0.002118 -0.005470 0.008456 0.000009 0.004462 0.000021
# 4 0.000012 -0.000014 0.000009 0.037414 0.000038 0.030198
# 5 0.003076 -0.010493 0.004462 0.000038 0.043123 0.000041
# 6 0.000006 0.000006 0.000021 0.030198 0.000041 0.104108
#
#
# Mechanical properties :
#
#
# Convention : Reuss Voigt Hill
#
# Bulk Modulus (GPa) = 57.64233 69.51002 63.57618
# Shear Modulus (GPa) = 20.33222 31.23793 25.78507
#
# Velocity S-wave (km/s) = 3.07244 3.80831 3.45999
# Velocity P-wave (km/s) = 6.27286 7.18400 6.74384
#
# Compressibility (1/GPa) = 0.01734836
#
# Stress axis : x y z
#
# Youngs Moduli (GPa) = 74.21048 69.02693 118.26116
#
# Poissons Ratio (x) = 0.13441 0.25044
# Poissons Ratio (y) = 0.14450 0.64689
# Poissons Ratio (z) = 0.15716 0.37758
#
# Static dielectric constant tensor:
#      x y z
#    x 3.723080 -0.000010 -0.100910 
#    y -0.000010 3.675500 0.000020 
#    z -0.100910 0.000020 3.944400 
# 
# 
# High freq. dielectric constant tensor:
#      x y z
#    x 1.824690 0.000000 -0.016830 
#    y 0.000000 1.842300 0.000010 
#    z -0.016830 0.000010 1.857830 
# 
# From -- ./inp_files/7840.got.cif
#   From: 2010.03.12/outbox.cif.g09.slc.cpg/sg5_4_cif.got.tgz:7840.got - 2010.03.31 09:47:26.
