data_PCOD8050254
_publ_section_title
;
Structure prediction by ZEFSAII (Michael W. Deem and Ramdas Pophale) SiO2 
 PCOD8050254
Probable space group: C 2
;
_chemical_formula_sum "Si O2"
_cell_formula_units_Z 16
_cell_length_a 14.182779
_cell_length_b 5.230938
_cell_length_c 12.248447
_cell_angle_alpha 90.000000
_cell_angle_beta 44.108434
_cell_angle_gamma 90.000000
_cell_volume 632.474059
_symmetry_space_group_name_H-M "C 2"
_symmetry_group_IT_number 5
_symmetry_cell_setting 'monoclinic'
loop_
_space_group_symop_operation_xyz
x,y,z
-x,y,-z
1/2+x,1/2+y,z
1/2-x,1/2+y,-z
loop_
_atom_site_type_symbol
_atom_site_label
_atom_site_fract_x
_atom_site_fract_y
_atom_site_fract_z
Si Si1 0.543417 0.694860 0.792369
Si Si2 0.407346 0.562817 0.681719
Si Si3 0.868482 0.700078 0.183803
Si Si4 0.742001 0.695264 0.935995
O O1 0.488881 0.691438 0.712957
O O2 0.634884 0.445525 0.734689
O O3 0.632334 0.947229 0.739220
O O4 0.411268 0.672395 0.985103
O O5 0.500000 0.545189 0.500000
O O6 0.268476 0.721262 0.774302
O O7 0.357951 0.272507 0.752979
O O8 0.000000 0.691150 0.000000
O O9 0.780549 0.441041 0.966122
#
# Coordination Sequence:
#
# PCOD8050254 Si02
#       4
#     4   4   4   4
#     4  11  25  46  74 103 147 184 247 297 345 435
#     4  11  27  47  74 111 151 190 236 305 375 421
#     4  12  26  44  77 107 137 193 250 289 357 434
#     4  10  21  42  73 102 139 192 239 291 351 425
#
# _framework density 25.297478999999999
#
# number of rings (size 3 to 8) (size 9 to 14) (size 15 to 20)
#    0.000    1.000    2.500    3.750    7.000    4.000 
#    0.000   17.500    0.000    0.000    0.000    0.000 
#    0.000    0.000    0.000    0.000    0.000    0.000 
#
# Total GULP energy -99150.125620 kJ/mol
# GULP energy per Si atom -12393.765702 kJ/mol
# Density = 2.523990 g / cm^3
# Si number density = 25.297479 Si / 1000 Ang^3
#
#
#
# Elastic Constant Matrix: (Units=GPa)
#
#
# Indices 1 2 3 4 5 6 
#
# 1 173.9947 80.2347 30.4005 -0.0002 15.7848 0.0005
# 2 80.2347 175.5018 13.9061 -0.0019 20.2263 0.0047
# 3 30.4005 13.9061 132.4617 -0.0001 4.6172 0.0012
# 4 -0.0002 -0.0019 -0.0001 13.0113 -0.0001 -2.8904
# 5 15.7848 20.2263 4.6172 -0.0001 24.6524 0.0000
# 6 0.0005 0.0047 0.0012 -2.8904 0.0000 44.3153
#
#
#
# Elastic Compliance Matrix: (Units=1/GPa)
#
#
# Indices 1 2 3 4 5 6 
#
# 1 0.007616 -0.003139 -0.001347 0.000000 -0.002049 0.000000
# 2 -0.003139 0.007618 0.000069 0.000001 -0.004253 -0.000001
# 3 -0.001347 0.000069 0.007875 0.000000 -0.000669 0.000000
# 4 0.000000 0.000001 0.000000 0.077986 0.000000 0.005087
# 5 -0.002049 -0.004253 -0.000669 0.000000 0.045491 0.000000
# 6 0.000000 -0.000001 0.000000 0.005087 0.000000 0.022897
#
#
# Mechanical properties :
#
#
# Convention : Reuss Voigt Hill
#
# Bulk Modulus (GPa) = 70.05611 81.22676 75.64143
# Shear Modulus (GPa) = 27.31133 40.22361 33.76747
#
# Velocity S-wave (km/s) = 3.28930 3.99184 3.65748
# Velocity P-wave (km/s) = 6.49454 7.30922 6.91389
#
# Compressibility (1/GPa) = 0.01427427
#
# Stress axis : x y z
#
# Youngs Moduli (GPa) = 131.30258 131.27328 126.99118
#
# Poissons Ratio (x) = 0.41206 0.17105
# Poissons Ratio (y) = 0.41216 -0.00875
# Poissons Ratio (z) = 0.17686 -0.00905
#
# Static dielectric constant tensor:
#      x y z
#    x 4.956720 0.000000 -0.023550 
#    y 0.000000 5.200750 0.000000 
#    z -0.023550 0.000000 4.284640 
# 
# 
# High freq. dielectric constant tensor:
#      x y z
#    x 2.033170 0.000000 0.006850 
#    y 0.000000 2.031960 0.000000 
#    z 0.006850 0.000000 1.958550 
# 
# From -- ./inp_files/40929.got.cif
#   From: 2010.03.12/outbox.cif.g09.slc.cpg/sg5_21_cif.got.tgz:40929.got - 2010.03.31 09:47:26.
