data_PCOD8050570
_publ_section_title
;
Structure prediction by ZEFSAII (Michael W. Deem and Ramdas Pophale) SiO2 
 PCOD8050570
Probable space group: C 2
;
_chemical_formula_sum "Si O2"
_cell_formula_units_Z 20
_cell_length_a 8.584168
_cell_length_b 12.023023
_cell_length_c 8.457005
_cell_angle_alpha 90.000000
_cell_angle_beta 88.131388
_cell_angle_gamma 90.000000
_cell_volume 872.363462
_symmetry_space_group_name_H-M "C 2"
_symmetry_group_IT_number 5
_symmetry_cell_setting 'monoclinic'
loop_
_space_group_symop_operation_xyz
x,y,z
-x,y,-z
1/2+x,1/2+y,z
1/2-x,1/2+y,-z
loop_
_atom_site_type_symbol
_atom_site_label
_atom_site_fract_x
_atom_site_fract_y
_atom_site_fract_z
Si Si1 0.336788 0.410410 0.088487
Si Si2 0.276064 0.826997 0.213541
Si Si3 0.265150 0.550456 0.621890
Si Si4 0.044091 0.750646 0.674079
Si Si5 0.903522 0.105804 0.279376
O O1 0.332817 0.335145 0.248127
O O2 0.317312 0.538803 0.141516
O O3 0.500000 0.391000 0.000000
O O4 0.204384 0.377946 0.964301
O O5 0.410760 0.737644 0.244843
O O6 0.118364 0.752704 0.226200
O O7 0.287084 0.923315 0.346103
O O8 0.119859 0.628345 0.673680
O O9 0.310786 0.577439 0.441749
O O10 0.417036 0.567310 0.725634
O O11 0.000000 0.793067 0.500000
#
# Coordination Sequence:
#
# PCOD8050570 Si02
#       5
#     4   4   4   4   4
#     4  10  22  40  71  90 130 176 213 260 331 382
#     4  11  24  44  67  96 131 173 215 267 329 382
#     4  11  24  42  67  97 130 170 224 266 318 387
#     4  11  21  44  68  90 130 174 214 270 319 381
#     4  11  23  42  70  95 130 174 216 269 324 380
#
# _framework density 22.926224000000001
#
# number of rings (size 3 to 8) (size 9 to 14) (size 15 to 20)
#    0.000    1.200    6.000    1.200    2.800    0.000 
#    7.200    0.000    0.000    0.000    0.000    0.000 
#    0.000    0.000    0.000    0.000    0.000    0.000 
#
# Total GULP energy -123962.920037 kJ/mol
# GULP energy per Si atom -12396.292004 kJ/mol
# Density = 2.287404 g / cm^3
# Si number density = 22.926224 Si / 1000 Ang^3
#
#
#
# Elastic Constant Matrix: (Units=GPa)
#
#
# Indices 1 2 3 4 5 6 
#
# 1 26.2471 24.0131 5.5661 0.0000 -6.7213 0.0000
# 2 24.0131 168.4631 55.6906 0.0000 7.3233 0.0000
# 3 5.5661 55.6906 122.3274 0.0000 25.4847 0.0000
# 4 0.0000 0.0000 0.0000 43.1918 0.0000 -0.3334
# 5 -6.7213 7.3233 25.4847 0.0000 16.8011 0.0000
# 6 0.0000 0.0000 0.0000 -0.3334 0.0000 36.3203
#
#
#
# Elastic Compliance Matrix: (Units=1/GPa)
#
#
# Indices 1 2 3 4 5 6 
#
# 1 0.055069 -0.007216 -0.006528 0.000000 0.035078 0.000000
# 2 -0.007216 0.008012 -0.002910 0.000000 -0.001966 0.000000
# 3 -0.006528 -0.002910 0.014732 0.000000 -0.023689 0.000000
# 4 0.000000 0.000000 0.000000 0.023154 0.000000 0.000213
# 5 0.035078 -0.001966 -0.023689 0.000000 0.110342 0.000000
# 6 0.000000 0.000000 0.000000 0.000213 0.000000 0.027535
#
#
# Mechanical properties :
#
#
# Convention : Reuss Voigt Hill
#
# Bulk Modulus (GPa) = 22.46999 54.17523 38.32261
# Shear Modulus (GPa) = 17.42240 34.71383 26.06812
#
# Velocity S-wave (km/s) = 2.75968 3.89543 3.37567
# Velocity P-wave (km/s) = 4.46953 6.62677 5.65203
#
# Compressibility (1/GPa) = 0.04450381
#
# Stress axis : x y z
#
# Youngs Moduli (GPa) = 18.15909 124.81307 67.88102
#
# Poissons Ratio (x) = 0.90070 0.44315
# Poissons Ratio (y) = 0.13104 0.19751
# Poissons Ratio (z) = 0.11855 0.36316
#
# Static dielectric constant tensor:
#      x y z
#    x 3.841150 0.000000 0.284410 
#    y 0.000000 4.126470 0.000000 
#    z 0.284410 0.000000 4.568890 
# 
# 
# High freq. dielectric constant tensor:
#      x y z
#    x 1.865310 0.000000 0.007150 
#    y 0.000000 1.911740 0.000000 
#    z 0.007150 0.000000 1.912570 
# 
# From -- ./inp_files/14239.got.cif
#   From: 2010.03.12/outbox.cif.g09.slc.cpg/sg5_8_cif.got.tgz:14239.got - 2010.03.31 09:47:26.
