data_PCOD8050600
_publ_section_title
;
Structure prediction by ZEFSAII (Michael W. Deem and Ramdas Pophale) SiO2 
 PCOD8050600
Probable space group: C 2
;
_chemical_formula_sum "Si O2"
_cell_formula_units_Z 18
_cell_length_a 7.908520
_cell_length_b 21.213489
_cell_length_c 5.621382
_cell_angle_alpha 90.000000
_cell_angle_beta 121.961880
_cell_angle_gamma 90.000000
_cell_volume 800.112991
_symmetry_space_group_name_H-M "C 2"
_symmetry_group_IT_number 5
_symmetry_cell_setting 'monoclinic'
loop_
_space_group_symop_operation_xyz
x,y,z
-x,y,-z
1/2+x,1/2+y,z
1/2-x,1/2+y,-z
loop_
_atom_site_type_symbol
_atom_site_label
_atom_site_fract_x
_atom_site_fract_y
_atom_site_fract_z
Si Si1 0.500000 0.545310 0.000000
Si Si2 0.791025 0.763151 0.221094
Si Si3 0.910996 0.494115 0.180843
Si Si4 0.000000 0.374560 0.000000
Si Si5 0.000000 0.693145 0.000000
Si Si6 0.167029 0.153143 0.437159
O O1 0.670245 0.503633 0.997814
O O2 0.621054 0.587116 0.278739
O O3 0.692669 0.831117 0.166987
O O4 0.829340 0.738220 0.982763
O O5 0.655076 0.710596 0.244443
O O6 0.000000 0.770942 0.500000
O O7 0.964919 0.419498 0.204070
O O8 0.000000 0.519593 0.500000
O O9 0.000000 0.526168 0.000000
O O10 0.111248 0.649347 0.278337
O O11 0.000000 0.168801 0.500000
#
# Coordination Sequence:
#
# PCOD8050600 Si02
#       6
#     2   4   4   2   2   4
#     4  12  27  47  74  98 149 193 246 300 368 430
#     4  10  22  42  68 106 138 181 227 291 370 428
#     4  10  28  50  71 107 144 192 255 302 358 427
#     4  10  23  44  69 102 140 186 242 302 352 434
#     4  10  22  41  65 106 147 177 232 284 368 448
#     4  11  24  41  68 104 141 185 231 291 367 437
#
# _framework density 22.496825000000001
#
# number of rings (size 3 to 8) (size 9 to 14) (size 15 to 20)
#    0.667    0.889    0.000    3.333    3.111   11.556 
#    2.000    0.000    0.000    0.000    0.000    0.000 
#    0.000    0.000    0.000    0.000    0.000    0.000 
#
# Total GULP energy -111524.646627 kJ/mol
# GULP energy per Si atom -12391.627403 kJ/mol
# Density = 2.244562 g / cm^3
# Si number density = 22.496825 Si / 1000 Ang^3
#
#
#
# Elastic Constant Matrix: (Units=GPa)
#
#
# Indices 1 2 3 4 5 6 
#
# 1 170.9558 53.2505 45.0398 0.0000 -13.4563 0.0000
# 2 53.2505 91.1978 39.6034 0.0000 -0.4140 0.0000
# 3 45.0398 39.6034 120.3744 0.0000 -4.9947 0.0000
# 4 0.0000 0.0000 0.0000 34.4327 0.0000 16.0371
# 5 -13.4563 -0.4140 -4.9947 0.0000 44.1732 0.0000
# 6 0.0000 0.0000 0.0000 16.0371 0.0000 39.0149
#
#
#
# Elastic Compliance Matrix: (Units=1/GPa)
#
#
# Indices 1 2 3 4 5 6 
#
# 1 0.007586 -0.003763 -0.001513 0.000000 0.002104 0.000000
# 2 -0.003763 0.014665 -0.003475 0.000000 -0.001402 0.000000
# 3 -0.001513 -0.003475 0.010043 0.000000 0.000642 0.000000
# 4 0.000000 0.000000 0.000000 0.035919 0.000000 -0.014764
# 5 0.002104 -0.001402 0.000642 0.000000 0.023339 0.000000
# 6 0.000000 0.000000 0.000000 -0.014764 0.000000 0.031700
#
#
# Mechanical properties :
#
#
# Convention : Reuss Voigt Hill
#
# Bulk Modulus (GPa) = 67.60185 73.14615 70.37400
# Shear Modulus (GPa) = 34.32077 39.83312 37.07694
#
# Velocity S-wave (km/s) = 3.91011 4.21243 4.06408
# Velocity P-wave (km/s) = 7.10634 7.49960 7.30561
#
# Compressibility (1/GPa) = 0.01479250
#
# Stress axis : x y z
#
# Youngs Moduli (GPa) = 131.82555 68.18979 99.56696
#
# Poissons Ratio (x) = 0.25658 0.15065
# Poissons Ratio (y) = 0.49602 0.34600
# Poissons Ratio (z) = 0.19946 0.23696
#
# Static dielectric constant tensor:
#      x y z
#    x 4.235120 0.000000 -0.073180 
#    y 0.000000 3.827710 0.000000 
#    z -0.073180 0.000000 4.063230 
# 
# 
# High freq. dielectric constant tensor:
#      x y z
#    x 1.907720 0.000000 0.002160 
#    y 0.000000 1.866900 0.000000 
#    z 0.002160 0.000000 1.889110 
# 
# From -- ./inp_files/2505.got.cif
#   From: 2010.03.12/outbox.cif.g09.slc.cpg/sg5_2_cif.got.tgz:2505.got - 2010.03.31 09:47:26.
