data_PCOD8050124
_publ_section_title
;
Structure prediction by ZEFSAII (Michael W. Deem and Ramdas Pophale) SiO2 
 PCOD8050124
Probable space group: C 2
;
_chemical_formula_sum "Si O2"
_cell_formula_units_Z 24
_cell_length_a 9.646798
_cell_length_b 10.562904
_cell_length_c 11.276281
_cell_angle_alpha 90.000000
_cell_angle_beta 104.429472
_cell_angle_gamma 90.000000
_cell_volume 1112.786639
_symmetry_space_group_name_H-M "C 2"
_symmetry_group_IT_number 5
_symmetry_cell_setting 'monoclinic'
loop_
_space_group_symop_operation_xyz
x,y,z
-x,y,-z
1/2+x,1/2+y,z
1/2-x,1/2+y,-z
loop_
_atom_site_type_symbol
_atom_site_label
_atom_site_fract_x
_atom_site_fract_y
_atom_site_fract_z
Si Si1 0.500000 0.364161 0.500000
Si Si2 0.436690 0.197116 0.690668
Si Si3 0.872734 0.693198 0.053901
Si Si4 0.195132 0.388423 0.708846
Si Si5 0.000000 0.249556 0.500000
Si Si6 0.230952 0.054743 0.484775
Si Si7 0.153893 0.415338 0.975788
O O1 0.528044 0.281326 0.620948
O O2 0.647663 0.439009 0.525778
O O3 0.552892 0.145771 0.808181
O O4 0.320214 0.283728 0.732799
O O5 0.366213 0.083211 0.598912
O O6 0.803588 0.562907 0.983117
O O7 0.761755 0.808533 0.050034
O O8 0.000000 0.747745 0.000000
O O9 0.232714 0.517718 0.643977
O O10 0.154401 0.411323 0.834694
O O11 0.054853 0.334991 0.617421
O O12 0.874014 0.173628 0.537496
O O13 0.000000 0.384387 0.000000
#
# Coordination Sequence:
#
# PCOD8050124 Si02
#       7
#     2   4   4   4   2   4   4
#     4   9  20  35  56 102 132 161 207 268 342 402
#     4  10  21  40  69  94 130 170 224 274 338 404
#     4  11  25  48  69  96 135 186 234 287 340 401
#     4  10  21  41  67  96 133 173 222 276 340 402
#     4   9  20  37  60 100 138 161 207 276 346 402
#     4   9  20  37  59  98 131 168 206 273 341 400
#     4  11  27  47  68 101 135 187 237 284 340 406
#
# _framework density 21.567475999999999
#
# number of rings (size 3 to 8) (size 9 to 14) (size 15 to 20)
#    0.000    2.000    1.667    0.000    4.667    4.667 
#    9.000    0.000    0.000    0.000    0.000    0.000 
#    0.000    0.000    0.000    0.000    0.000    0.000 
#
# Total GULP energy -148691.014087 kJ/mol
# GULP energy per Si atom -12390.917841 kJ/mol
# Density = 2.151839 g / cm^3
# Si number density = 21.567476 Si / 1000 Ang^3
#
#
#
# Elastic Constant Matrix: (Units=GPa)
#
#
# Indices 1 2 3 4 5 6 
#
# 1 103.9461 51.0510 52.4905 0.0000 -13.0141 0.0000
# 2 51.0510 106.2097 24.0959 0.0000 10.7096 0.0000
# 3 52.4905 24.0959 107.1236 0.0000 -3.8699 0.0000
# 4 0.0000 0.0000 0.0000 -12.5650 0.0000 43.6272
# 5 -13.0141 10.7096 -3.8699 0.0000 43.3362 0.0000
# 6 0.0000 0.0000 0.0000 43.6272 0.0000 14.5804
#
#
#
# Elastic Compliance Matrix: (Units=1/GPa)
#
#
# Indices 1 2 3 4 5 6 
#
# 1 0.017509 -0.007568 -0.006641 0.000000 0.006535 0.000000
# 2 -0.007568 0.013508 0.000469 0.000000 -0.005569 0.000000
# 3 -0.006641 0.000469 0.012448 0.000000 -0.000999 0.000000
# 4 0.000000 0.000000 0.000000 -0.006988 0.000000 0.020909
# 5 0.006535 -0.005569 -0.000999 0.000000 0.026325 0.000000
# 6 0.000000 0.000000 0.000000 0.020909 0.000000 0.006022
#
#
# Mechanical properties :
#
#
# Convention : Reuss Voigt Hill
#
# Bulk Modulus (GPa) = 62.56259 63.61713 63.08986
# Shear Modulus (GPa) = 49.19632 21.71313 35.45473
#
# Velocity S-wave (km/s) = 4.78121 3.17638 4.05890
# Velocity P-wave (km/s) = 7.71691 6.55846 7.16115
#
# Compressibility (1/GPa) = 0.01598399
#
# Stress axis : x y z
#
# Youngs Moduli (GPa) = 57.11273 74.02818 80.33690
#
# Poissons Ratio (x) = 0.56027 0.53352
# Poissons Ratio (y) = 0.43225 -0.03766
# Poissons Ratio (z) = 0.37929 -0.03470
#
# Static dielectric constant tensor:
#      x y z
#    x 4.300510 0.000000 -0.548910 
#    y 0.000000 4.192700 0.000000 
#    z -0.548910 0.000000 4.229070 
# 
# 
# High freq. dielectric constant tensor:
#      x y z
#    x 1.854290 0.000000 -0.013760 
#    y 0.000000 1.859220 0.000000 
#    z -0.013760 0.000000 1.834750 
# 
# From -- ./inp_files/35491.got.cif
#   From: 2010.03.12/outbox.cif.g09.slc.cpg/sg5_18_cif.got.tgz:35491.got - 2010.03.31 09:47:26.
