data_PCOD8050161
_publ_section_title
;
Structure prediction by ZEFSAII (Michael W. Deem and Ramdas Pophale) SiO2 
 PCOD8050161
Probable space group: C 2
;
_chemical_formula_sum "Si O2"
_cell_formula_units_Z 26
_cell_length_a 5.104231
_cell_length_b 17.612694
_cell_length_c 15.485383
_cell_angle_alpha 90.000000
_cell_angle_beta 64.066373
_cell_angle_gamma 90.000000
_cell_volume 1251.939280
_symmetry_space_group_name_H-M "C 2"
_symmetry_group_IT_number 5
_symmetry_cell_setting 'monoclinic'
loop_
_space_group_symop_operation_xyz
x,y,z
-x,y,-z
1/2+x,1/2+y,z
1/2-x,1/2+y,-z
loop_
_atom_site_type_symbol
_atom_site_label
_atom_site_fract_x
_atom_site_fract_y
_atom_site_fract_z
Si Si1 0.049053 0.581560 0.276778
Si Si2 0.766750 0.264057 0.816637
Si Si3 0.500000 0.330150 0.500000
Si Si4 0.430162 0.249209 0.687056
Si Si5 0.500000 0.978036 0.000000
Si Si6 0.199876 0.094213 0.163461
Si Si7 0.318386 0.975476 0.445058
Si Si8 0.000000 0.872254 0.000000
O O1 0.061628 0.658829 0.330645
O O2 0.366636 0.574269 0.186494
O O3 0.772893 0.585283 0.253633
O O4 0.997972 0.505928 0.338434
O O5 0.616568 0.271654 0.744448
O O6 0.724463 0.181882 0.868788
O O7 0.631527 0.323116 0.903163
O O8 0.106928 0.279851 0.752422
O O9 0.554840 0.282555 0.579332
O O10 0.782749 0.384081 0.443173
O O11 0.245459 0.924956 0.003983
O O12 0.593558 0.034295 0.911298
O O13 0.500000 0.000971 0.500000
O O14 0.000000 0.014614 0.500000
#
# Coordination Sequence:
#
# PCOD8050161 Si02
#       8
#     4   4   2   4   2   4   4   2
#     4  10  21  41  64  91 117 166 210 260 302 363
#     4  10  23  44  65  91 123 169 205 260 311 377
#     4  10  26  40  60  92 128 168 202 262 310 376
#     4  10  23  40  66  91 124 162 220 253 310 363
#     4  12  25  40  61 102 124 164 204 256 311 380
#     4  10  22  42  65  89 123 162 211 253 306 366
#     4  10  23  39  57  89 121 159 206 244 321 360
#     4  12  25  42  65  98 130 162 204 258 327 374
#
# _framework density 20.767779000000001
#
# number of rings (size 3 to 8) (size 9 to 14) (size 15 to 20)
#    0.462    1.231    0.000    3.231    3.231    3.692 
#    0.000    6.154    0.000    0.000    0.000    0.000 
#    0.000    0.000    0.000    0.000    0.000    0.000 
#
# Total GULP energy -161119.067364 kJ/mol
# GULP energy per Si atom -12393.774413 kJ/mol
# Density = 2.072051 g / cm^3
# Si number density = 20.767779 Si / 1000 Ang^3
#
#
#
# Elastic Constant Matrix: (Units=GPa)
#
#
# Indices 1 2 3 4 5 6 
#
# 1 135.9082 33.2683 26.7268 0.0000 2.9626 0.0000
# 2 33.2683 115.4844 68.1957 0.0000 -7.1348 0.0000
# 3 26.7268 68.1957 96.9588 0.0000 3.4936 0.0000
# 4 0.0000 0.0000 0.0000 -143.8411 0.0000 -148.9709
# 5 2.9626 -7.1348 3.4936 0.0000 23.8009 0.0000
# 6 0.0000 0.0000 0.0000 -148.9709 0.0000 -71.3744
#
#
#
# Elastic Compliance Matrix: (Units=1/GPa)
#
#
# Indices 1 2 3 4 5 6 
#
# 1 0.008019 -0.001926 -0.000804 0.000000 -0.001457 0.000000
# 2 -0.001926 0.016178 -0.011090 0.000000 0.006717 0.000000
# 3 -0.000804 -0.011090 0.018549 0.000000 -0.005947 0.000000
# 4 0.000000 0.000000 0.000000 0.005985 0.000000 -0.012492
# 5 -0.001457 0.006717 -0.005947 0.000000 0.045083 0.000000
# 6 0.000000 0.000000 0.000000 -0.012492 0.000000 0.012061
#
#
# Mechanical properties :
#
#
# Convention : Reuss Voigt Hill
#
# Bulk Modulus (GPa) = 66.18905 67.19255 66.69080
# Shear Modulus (GPa) = 36.08833 -23.60553 6.24140
#
# Velocity S-wave (km/s) = 4.17310 -3.37507 1.73547
# Velocity P-wave (km/s) = 7.42697 4.15167 6.01649
#
# Compressibility (1/GPa) = 0.01510824
#
# Stress axis : x y z
#
# Youngs Moduli (GPa) = 124.70283 61.81413 53.91040
#
# Poissons Ratio (x) = 0.11903 0.04332
# Poissons Ratio (y) = 0.24013 0.59785
# Poissons Ratio (z) = 0.10021 0.68550
#
# Static dielectric constant tensor:
#      x y z
#    x 4.168550 0.000000 0.557240 
#    y 0.000000 3.840890 0.000000 
#    z 0.557240 0.000000 4.602310 
# 
# 
# High freq. dielectric constant tensor:
#      x y z
#    x 1.831100 0.000000 0.003410 
#    y 0.000000 1.817600 0.000000 
#    z 0.003410 0.000000 1.799550 
# 
# From -- ./inp_files/49168.got.cif
#   From: 2010.03.12/outbox.cif.g09.slc.cpg/sg5_25_cif.got.tgz:49168.got - 2010.03.31 09:47:26.
