data_PCOD8050182
_publ_section_title
;
Structure prediction by ZEFSAII (Michael W. Deem and Ramdas Pophale) SiO2 
 PCOD8050182
Probable space group: C 2
;
_chemical_formula_sum "Si O2"
_cell_formula_units_Z 28
_cell_length_a 12.503864
_cell_length_b 5.080569
_cell_length_c 20.701159
_cell_angle_alpha 90.000000
_cell_angle_beta 70.330529
_cell_angle_gamma 90.000000
_cell_volume 1238.342503
_symmetry_space_group_name_H-M "C 2"
_symmetry_group_IT_number 5
_symmetry_cell_setting 'monoclinic'
loop_
_space_group_symop_operation_xyz
x,y,z
-x,y,-z
1/2+x,1/2+y,z
1/2-x,1/2+y,-z
loop_
_atom_site_type_symbol
_atom_site_label
_atom_site_fract_x
_atom_site_fract_y
_atom_site_fract_z
Si Si1 0.246947 0.285750 0.087205
Si Si2 0.237882 0.807375 0.545004
Si Si3 0.063067 0.139697 0.644304
Si Si4 0.130015 0.285306 0.977102
Si Si5 0.326386 0.685341 0.757146
Si Si6 0.733195 0.208498 0.303626
Si Si7 0.556405 0.020905 0.424234
O O1 0.301214 0.573975 0.079134
O O2 0.176495 0.236595 0.166295
O O3 0.346204 0.071294 0.057591
O O4 0.159923 0.262255 0.046192
O O5 0.262484 0.014625 0.482448
O O6 0.112017 0.869113 0.601489
O O7 0.335357 0.834252 0.579495
O O8 0.164241 0.251277 0.667933
O O9 0.955240 0.111817 0.712584
O O10 0.037431 0.343778 0.591999
O O11 0.000000 0.214687 0.000000
O O12 0.252649 0.429923 0.753873
O O13 0.271081 0.925497 0.729614
O O14 0.612122 0.246350 0.367103
O O15 0.500000 0.147707 0.500000
#
# Coordination Sequence:
#
# PCOD8050182 Si02
#       7
#     4   4   4   4   4   4   4
#     4  10  22  39  65  99 132 168 217 255 303 377
#     4  11  24  41  63  90 118 155 207 261 321 387
#     4  10  24  44  64  89 128 163 210 267 325 381
#     4  10  21  41  66  99 136 167 209 260 306 364
#     4  11  24  43  65  93 130 173 210 261 316 376
#     4  10  25  43  62  92 127 163 220 263 313 393
#     4  10  21  42  63  91 116 162 207 270 331 384
#
# _framework density 22.610872000000001
#
# number of rings (size 3 to 8) (size 9 to 14) (size 15 to 20)
#    0.000    1.714    1.429    1.286    2.000   11.429 
#    0.000    0.000    0.000    0.000    0.000    0.000 
#    0.000    0.000    0.000    0.000    0.000    0.000 
#
# Total GULP energy -173612.839454 kJ/mol
# GULP energy per Si atom -12400.917104 kJ/mol
# Density = 2.255941 g / cm^3
# Si number density = 22.610872 Si / 1000 Ang^3
#
#
#
# Elastic Constant Matrix: (Units=GPa)
#
#
# Indices 1 2 3 4 5 6 
#
# 1 116.0527 22.1984 30.2815 0.0002 -3.4068 -0.0002
# 2 22.1984 76.9930 15.7757 0.0003 9.5173 -0.0001
# 3 30.2815 15.7757 136.3597 0.0006 2.2200 0.0008
# 4 0.0002 0.0003 0.0006 26.1815 0.0000 7.1795
# 5 -3.4068 9.5173 2.2200 0.0000 18.9513 -0.0002
# 6 -0.0002 -0.0001 0.0008 7.1795 -0.0002 14.2109
#
#
#
# Elastic Compliance Matrix: (Units=1/GPa)
#
#
# Indices 1 2 3 4 5 6 
#
# 1 0.009755 -0.002846 -0.001892 0.000000 0.003404 0.000000
# 2 -0.002846 0.014988 -0.000973 0.000000 -0.007924 0.000000
# 3 -0.001892 -0.000973 0.007879 0.000000 -0.000775 0.000000
# 4 0.000000 0.000000 0.000000 0.044337 0.000000 -0.022400
# 5 0.003404 -0.007924 -0.000775 0.000000 0.057449 0.000001
# 6 0.000000 0.000000 0.000000 -0.022400 0.000001 0.081685
#
#
# Mechanical properties :
#
#
# Convention : Reuss Voigt Hill
#
# Bulk Modulus (GPa) = 47.17140 51.76851 49.46995
# Shear Modulus (GPa) = 21.31453 29.27871 25.29662
#
# Velocity S-wave (km/s) = 3.07362 3.60237 3.34845
# Velocity P-wave (km/s) = 5.78824 6.34412 6.07254
#
# Compressibility (1/GPa) = 0.02119929
#
# Stress axis : x y z
#
# Youngs Moduli (GPa) = 102.51364 66.72216 126.91980
#
# Poissons Ratio (x) = 0.18986 0.24019
# Poissons Ratio (y) = 0.29171 0.12349
# Poissons Ratio (z) = 0.19401 0.06492
#
# Static dielectric constant tensor:
#      x y z
#    x 4.165280 0.000000 0.047310 
#    y 0.000000 3.945850 0.000000 
#    z 0.047310 0.000000 4.051790 
# 
# 
# High freq. dielectric constant tensor:
#      x y z
#    x 1.902540 0.000000 0.004300 
#    y 0.000000 1.891060 0.000000 
#    z 0.004300 0.000000 1.885740 
# 
# From -- ./inp_files/64947.got.cif
#   From: 2010.03.12/outbox.cif.g09.slc.cpg/sg5_33_cif.got.tgz:64947.got - 2010.03.31 09:47:26.
