data_PCOD8050246
_publ_section_title
;
Structure prediction by ZEFSAII (Michael W. Deem and Ramdas Pophale) SiO2 
 PCOD8050246
Probable space group: C 2
;
_chemical_formula_sum "Si O2"
_cell_formula_units_Z 20
_cell_length_a 12.829089
_cell_length_b 6.835354
_cell_length_c 9.922330
_cell_angle_alpha 90.000000
_cell_angle_beta 103.913854
_cell_angle_gamma 90.000000
_cell_volume 844.572427
_symmetry_space_group_name_H-M "C 2"
_symmetry_group_IT_number 5
_symmetry_cell_setting 'monoclinic'
loop_
_space_group_symop_operation_xyz
x,y,z
-x,y,-z
1/2+x,1/2+y,z
1/2-x,1/2+y,-z
loop_
_atom_site_type_symbol
_atom_site_label
_atom_site_fract_x
_atom_site_fract_y
_atom_site_fract_z
Si Si1 0.172519 0.589040 0.364484
Si Si2 0.833610 0.909238 0.859270
Si Si3 0.682406 0.230980 0.874320
Si Si4 0.112539 0.852830 0.576955
Si Si5 0.907921 0.320104 0.871210
O O1 0.181843 0.782206 0.277062
O O2 0.129448 0.652822 0.496904
O O3 0.290531 0.500018 0.421243
O O4 0.088264 0.435334 0.270462
O O5 0.718309 0.005669 0.864004
O O6 0.918963 0.084204 0.854297
O O7 0.872302 0.774539 0.997823
O O8 0.601480 0.294438 0.730741
O O9 0.789964 0.367273 0.895664
O O10 0.000000 0.952970 0.500000
O O11 0.000000 0.398377 0.000000
#
# Coordination Sequence:
#
# PCOD8050246 Si02
#       5
#     4   4   4   4   4
#     4  11  24  47  68 101 149 180 236 295 338 430
#     4  10  21  42  68  94 142 171 227 299 343 404
#     4   9  20  40  64  96 134 172 226 287 339 410
#     4  11  25  45  71 102 141 193 232 281 356 415
#     4   9  22  40  66 101 131 180 224 283 362 403
#
# _framework density 23.680622
#
# number of rings (size 3 to 8) (size 9 to 14) (size 15 to 20)
#    1.200    0.800    0.000    3.600    0.000    5.600 
#    0.000    4.000    0.000    0.000    0.000    0.000 
#    0.000    0.000    0.000    0.000    0.000    0.000 
#
# Total GULP energy -123920.831856 kJ/mol
# GULP energy per Si atom -12392.083186 kJ/mol
# Density = 2.362672 g / cm^3
# Si number density = 23.680622 Si / 1000 Ang^3
#
#
#
# Elastic Constant Matrix: (Units=GPa)
#
#
# Indices 1 2 3 4 5 6 
#
# 1 63.5212 17.1429 46.1010 0.0000 33.5980 0.0000
# 2 17.1429 99.0569 37.9109 0.0000 6.4121 0.0000
# 3 46.1010 37.9109 133.9086 0.0000 27.0859 0.0000
# 4 0.0000 0.0000 0.0000 48.7504 0.0000 3.4143
# 5 33.5980 6.4121 27.0859 0.0000 42.6692 0.0000
# 6 0.0000 0.0000 0.0000 3.4143 0.0000 20.6467
#
#
#
# Elastic Compliance Matrix: (Units=1/GPa)
#
#
# Indices 1 2 3 4 5 6 
#
# 1 0.031711 -0.001764 -0.006219 0.000000 -0.020757 0.000000
# 2 -0.001764 0.011426 -0.002938 0.000000 0.001537 0.000000
# 3 -0.006219 -0.002938 0.010740 0.000000 -0.001479 0.000000
# 4 0.000000 0.000000 0.000000 0.020753 0.000000 -0.003432
# 5 -0.020757 0.001537 -0.001479 0.000000 0.040488 0.000000
# 6 0.000000 0.000000 0.000000 -0.003432 0.000000 0.049001
#
#
# Mechanical properties :
#
#
# Convention : Reuss Voigt Hill
#
# Bulk Modulus (GPa) = 31.21762 55.42180 43.31971
# Shear Modulus (GPa) = 25.42712 35.43539 30.43125
#
# Velocity S-wave (km/s) = 3.28037 3.87251 3.58868
# Velocity P-wave (km/s) = 5.24968 6.59165 5.95856
#
# Compressibility (1/GPa) = 0.03203320
#
# Stress axis : x y z
#
# Youngs Moduli (GPa) = 31.53439 87.52323 93.11032
#
# Poissons Ratio (x) = 0.15440 0.57909
# Poissons Ratio (y) = 0.05563 0.27359
# Poissons Ratio (z) = 0.19613 0.25717
#
# Static dielectric constant tensor:
#      x y z
#    x 3.775520 0.000000 0.153100 
#    y 0.000000 4.067540 0.000000 
#    z 0.153100 0.000000 4.275360 
# 
# 
# High freq. dielectric constant tensor:
#      x y z
#    x 1.902070 0.000000 0.013060 
#    y 0.000000 1.930490 0.000000 
#    z 0.013060 0.000000 1.949840 
# 
# From -- ./inp_files/18348.got.cif
#   From: 2010.03.12/outbox.cif.g09.slc.cpg/sg5_10_cif.got.tgz:18348.got - 2010.03.31 09:47:26.
