data_PCOD8050614
_publ_section_title
;
Structure prediction by ZEFSAII (Michael W. Deem and Ramdas Pophale) SiO2 
 PCOD8050614
Probable space group: C 2
;
_chemical_formula_sum "Si O2"
_cell_formula_units_Z 18
_cell_length_a 16.893026
_cell_length_b 9.077250
_cell_length_c 7.453595
_cell_angle_alpha 90.000000
_cell_angle_beta 45.378171
_cell_angle_gamma 90.000000
_cell_volume 813.504931
_symmetry_space_group_name_H-M "C 2"
_symmetry_group_IT_number 5
_symmetry_cell_setting 'monoclinic'
loop_
_space_group_symop_operation_xyz
x,y,z
-x,y,-z
1/2+x,1/2+y,z
1/2-x,1/2+y,-z
loop_
_atom_site_type_symbol
_atom_site_label
_atom_site_fract_x
_atom_site_fract_y
_atom_site_fract_z
Si Si1 0.252976 0.030080 0.907347
Si Si2 0.000000 0.354233 0.000000
Si Si3 0.629555 0.381170 0.813410
Si Si4 0.317480 0.071053 0.427894
Si Si5 0.099103 0.284195 0.200949
O O1 0.166524 0.910880 0.959839
O O2 0.321678 0.107704 0.634713
O O3 0.337774 0.942586 0.901726
O O4 0.183835 0.154275 0.123869
O O5 0.942235 0.253783 0.937922
O O6 0.087376 0.452980 0.756675
O O7 0.697676 0.493929 0.574383
O O8 0.664194 0.214452 0.718177
O O9 0.500000 0.408351 0.000000
O O10 0.000000 0.285926 0.500000
#
# Coordination Sequence:
#
# PCOD8050614 Si02
#       5
#     4   2   4   4   4
#     4  10  27  45  71 108 149 187 246 303 363 435
#     4  12  24  46  84  98 158 200 234 310 372 430
#     4  10  22  41  67 105 141 187 241 291 361 428
#     4  10  22  43  70 107 139 195 239 294 362 434
#     4  12  26  51  71 110 149 192 244 304 367 436
#
# _framework density 22.126479
#
# number of rings (size 3 to 8) (size 9 to 14) (size 15 to 20)
#    1.333    0.000    3.333    1.333    4.667    1.778 
#    4.000    0.000    0.000    0.000    0.000    0.000 
#    0.000    0.000    0.000    0.000    0.000    0.000 
#
# Total GULP energy -111542.420092 kJ/mol
# GULP energy per Si atom -12393.602232 kJ/mol
# Density = 2.207612 g / cm^3
# Si number density = 22.126479 Si / 1000 Ang^3
#
#
#
# Elastic Constant Matrix: (Units=GPa)
#
#
# Indices 1 2 3 4 5 6 
#
# 1 85.2368 23.0561 41.8388 0.0000 -4.9532 0.0000
# 2 23.0561 71.3375 34.4047 0.0000 -8.6274 0.0000
# 3 41.8388 34.4047 106.0086 0.0000 -33.3920 0.0000
# 4 0.0000 0.0000 0.0000 30.5985 0.0000 8.2974
# 5 -4.9532 -8.6274 -33.3920 0.0000 37.0490 0.0000
# 6 0.0000 0.0000 0.0000 8.2974 0.0000 14.9887
#
#
#
# Elastic Compliance Matrix: (Units=1/GPa)
#
#
# Indices 1 2 3 4 5 6 
#
# 1 0.015412 -0.002259 -0.006795 0.000000 -0.004590 0.000000
# 2 -0.002259 0.017001 -0.004852 0.000000 -0.000716 0.000000
# 3 -0.006795 -0.004852 0.018221 0.000000 0.014384 0.000000
# 4 0.000000 0.000000 0.000000 0.038454 0.000000 -0.021287
# 5 -0.004590 -0.000716 0.014384 0.000000 0.039175 0.000000
# 6 0.000000 0.000000 0.000000 -0.021287 0.000000 0.078501
#
#
# Mechanical properties :
#
#
# Convention : Reuss Voigt Hill
#
# Bulk Modulus (GPa) = 43.81786 51.24246 47.53016
# Shear Modulus (GPa) = 20.64560 27.41280 24.02920
#
# Velocity S-wave (km/s) = 3.05794 3.52364 3.29902
# Velocity P-wave (km/s) = 5.68457 6.30586 6.00326
#
# Compressibility (1/GPa) = 0.02282174
#
# Stress axis : x y z
#
# Youngs Moduli (GPa) = 64.88509 58.81930 54.88306
#
# Poissons Ratio (x) = 0.13287 0.37295
# Poissons Ratio (y) = 0.14657 0.26627
# Poissons Ratio (z) = 0.44092 0.28537
#
# Static dielectric constant tensor:
#      x y z
#    x 3.848700 0.000000 -0.213150 
#    y 0.000000 3.772780 0.000000 
#    z -0.213150 0.000000 4.029350 
# 
# 
# High freq. dielectric constant tensor:
#      x y z
#    x 1.854030 0.000000 -0.015180 
#    y 0.000000 1.867740 0.000000 
#    z -0.015180 0.000000 1.874680 
# 
# From -- ./inp_files/28495.got.cif
#   From: 2010.03.12/outbox.cif.g09.slc.cpg/sg5_15_cif.got.tgz:28495.got - 2010.03.31 09:47:26.
