data_PCOD8050938
_publ_section_title
;
Structure prediction by ZEFSAII (Michael W. Deem and Ramdas Pophale) SiO2 
 PCOD8050938
Probable space group: C 2
;
_chemical_formula_sum "Si O2"
_cell_formula_units_Z 28
_cell_length_a 15.298081
_cell_length_b 8.880896
_cell_length_c 20.340613
_cell_angle_alpha 90.000000
_cell_angle_beta 28.203285
_cell_angle_gamma 90.000000
_cell_volume 1306.028586
_symmetry_space_group_name_H-M "C 2"
_symmetry_group_IT_number 5
_symmetry_cell_setting 'monoclinic'
loop_
_space_group_symop_operation_xyz
x,y,z
-x,y,-z
1/2+x,1/2+y,z
1/2-x,1/2+y,-z
loop_
_atom_site_type_symbol
_atom_site_label
_atom_site_fract_x
_atom_site_fract_y
_atom_site_fract_z
Si Si1 0.136566 0.110790 0.968751
Si Si2 0.831856 0.458690 0.526573
Si Si3 0.460879 0.606362 0.814071
Si Si4 0.981769 0.433127 0.284696
Si Si5 0.727438 0.966824 0.694600
Si Si6 0.000000 0.207181 0.500000
Si Si7 0.000000 0.703689 0.500000
Si Si8 0.390523 0.952472 0.010489
O O1 0.187121 0.285581 0.923343
O O2 0.323240 0.015828 0.838153
O O3 0.000000 0.057098 0.000000
O O4 0.049525 0.088078 0.099488
O O5 0.618657 0.496806 0.681354
O O6 0.959302 0.598640 0.464270
O O7 0.877703 0.417369 0.422046
O O8 0.875684 0.307080 0.535859
O O9 0.494398 0.775403 0.768873
O O10 0.271772 0.560779 0.904147
O O11 0.830141 0.519942 0.340752
O O12 0.863899 0.096248 0.632201
O O13 0.823818 0.803834 0.634734
O O14 0.536319 0.946535 0.856611
O O15 0.500000 0.021183 0.000000
#
# Coordination Sequence:
#
# PCOD8050938 Si02
#       8
#     4   4   4   4   4   2   2   4
#     4  11  25  46  72 104 136 186 235 290 361 418
#     4  11  27  44  69 103 140 188 232 287 357 415
#     4  12  25  49  69 104 145 181 234 295 348 425
#     4  12  27  42  69 105 139 184 236 289 355 417
#     4  11  23  46  69 103 137 181 236 292 348 414
#     4  10  28  42  70  98 142 182 238 286 346 416
#     4  10  22  46  72  92 142 178 230 288 350 428
#     4  11  26  43  72  97 138 185 230 285 356 418
#
# _framework density 21.439039000000001
#
# number of rings (size 3 to 8) (size 9 to 14) (size 15 to 20)
#    0.000    0.857    4.286    0.000   14.000    2.857 
#    0.000    0.000    0.000    0.000    0.000    0.000 
#    0.000    0.000    0.000    0.000    0.000    0.000 
#
# Total GULP energy -173552.991162 kJ/mol
# GULP energy per Si atom -12396.642226 kJ/mol
# Density = 2.139024 g / cm^3
# Si number density = 21.439039 Si / 1000 Ang^3
#
#
#
# Elastic Constant Matrix: (Units=GPa)
#
#
# Indices 1 2 3 4 5 6 
#
# 1 136.3436 38.8972 54.5865 -0.0001 -2.6356 0.0001
# 2 38.8972 94.3821 31.4697 0.0001 -6.7090 0.0002
# 3 54.5865 31.4697 108.4486 -0.0010 1.0882 0.0006
# 4 -0.0001 0.0001 -0.0010 27.8598 0.0000 -11.2106
# 5 -2.6356 -6.7090 1.0882 0.0000 43.3865 0.0002
# 6 0.0001 0.0002 0.0006 -11.2106 0.0002 32.4845
#
#
#
# Elastic Compliance Matrix: (Units=1/GPa)
#
#
# Indices 1 2 3 4 5 6 
#
# 1 0.009747 -0.002612 -0.004151 0.000000 0.000292 0.000000
# 2 -0.002612 0.012589 -0.002357 0.000000 0.001847 0.000000
# 3 -0.004151 -0.002357 0.012003 0.000000 -0.000918 0.000000
# 4 0.000000 0.000000 0.000000 0.041682 0.000000 0.014385
# 5 0.000292 0.001847 -0.000918 0.000000 0.023375 0.000000
# 6 0.000000 0.000000 0.000000 0.014385 0.000000 0.035748
#
#
# Mechanical properties :
#
#
# Convention : Reuss Voigt Hill
#
# Bulk Modulus (GPa) = 62.11385 65.45346 63.78365
# Shear Modulus (GPa) = 31.49572 35.02756 33.26164
#
# Velocity S-wave (km/s) = 3.83702 4.04644 3.94312
# Velocity P-wave (km/s) = 6.97607 7.24071 7.10962
#
# Compressibility (1/GPa) = 0.01609947
#
# Stress axis : x y z
#
# Youngs Moduli (GPa) = 102.59338 79.43507 83.30934
#
# Poissons Ratio (x) = 0.20750 0.34582
# Poissons Ratio (y) = 0.26800 0.19634
# Poissons Ratio (z) = 0.42587 0.18721
#
# Static dielectric constant tensor:
#      x y z
#    x 4.135260 0.000000 -0.073090 
#    y 0.000000 3.980320 0.000000 
#    z -0.073090 0.000000 3.849100 
# 
# 
# High freq. dielectric constant tensor:
#      x y z
#    x 1.856630 0.000000 -0.012220 
#    y 0.000000 1.845330 0.000000 
#    z -0.012220 0.000000 1.846970 
# 
# From -- ./inp_files/65939.got.cif
#   From: 2010.03.12/outbox.cif.g09.slc.cpg/sg5_33_cif.got.tgz:65939.got - 2010.03.31 09:47:26.
