data_PCOD8050764
_publ_section_title
;
Structure prediction by ZEFSAII (Michael W. Deem and Ramdas Pophale) SiO2 
 PCOD8050764
Probable space group: C 2
;
_chemical_formula_sum "Si O2"
_cell_formula_units_Z 28
_cell_length_a 18.923809
_cell_length_b 11.904930
_cell_length_c 15.682366
_cell_angle_alpha 90.000000
_cell_angle_beta 23.226328
_cell_angle_gamma 90.000000
_cell_volume 1393.299537
_symmetry_space_group_name_H-M "C 2"
_symmetry_group_IT_number 5
_symmetry_cell_setting 'monoclinic'
loop_
_space_group_symop_operation_xyz
x,y,z
-x,y,-z
1/2+x,1/2+y,z
1/2-x,1/2+y,-z
loop_
_atom_site_type_symbol
_atom_site_label
_atom_site_fract_x
_atom_site_fract_y
_atom_site_fract_z
Si Si1 0.189070 0.718570 0.741423
Si Si2 0.337151 0.992782 0.320978
Si Si3 0.759808 0.497563 0.856450
Si Si4 0.500000 0.829547 0.500000
Si Si5 0.562064 0.351362 0.726985
Si Si6 0.998344 0.627129 0.711482
Si Si7 0.000000 0.348822 0.000000
Si Si8 0.311995 0.175483 0.665189
O O1 0.240823 0.596975 0.646577
O O2 0.344555 0.751866 0.634186
O O3 0.183293 0.808205 0.670852
O O4 0.000000 0.715114 0.000000
O O5 0.178393 0.910212 0.524940
O O6 0.476942 0.924745 0.108789
O O7 0.442930 0.035017 0.285787
O O8 0.728225 0.567017 0.804657
O O9 0.916426 0.406595 0.667240
O O10 0.818149 0.582950 0.866462
O O11 0.575249 0.441707 0.085540
O O12 0.456460 0.246044 0.802874
O O13 0.158748 0.642602 0.465662
O O14 0.823996 0.277250 0.176383
O O15 0.500000 0.211327 0.500000
#
# Coordination Sequence:
#
# PCOD8050764 Si02
#       8
#     4   4   4   2   4   4   2   4
#     4  11  24  44  67  97 132 167 223 265 322 398
#     4  11  25  43  63  95 133 171 217 268 325 383
#     4  11  23  40  69  99 131 170 216 267 326 378
#     4  12  22  42  70  98 124 178 212 264 324 392
#     4  11  24  40  68  96 131 173 212 277 324 374
#     4  10  22  43  61  95 135 159 223 272 304 397
#     4  12  24  44  68  88 130 182 204 262 342 366
#     4  10  23  42  66  99 127 163 224 264 308 398
#
# _framework density 20.096181999999999
#
# number of rings (size 3 to 8) (size 9 to 14) (size 15 to 20)
#    0.000    1.143    5.714    0.857    2.000    3.429 
#    1.286    0.000    0.000    0.000    0.000    0.000 
#    0.000    0.000    0.000    0.000    0.000    0.000 
#
# Total GULP energy -173660.117588 kJ/mol
# GULP energy per Si atom -12404.294113 kJ/mol
# Density = 2.005044 g / cm^3
# Si number density = 20.096182 Si / 1000 Ang^3
#
#
#
# Elastic Constant Matrix: (Units=GPa)
#
#
# Indices 1 2 3 4 5 6 
#
# 1 113.9328 62.4347 53.3617 -0.0001 5.7679 -0.0002
# 2 62.4347 123.3803 58.6651 -0.0010 -0.0836 0.0001
# 3 53.3617 58.6651 110.1479 -0.0012 9.8138 -0.0002
# 4 -0.0001 -0.0010 -0.0012 40.2158 -0.0002 13.2375
# 5 5.7679 -0.0836 9.8138 -0.0002 29.2919 0.0005
# 6 -0.0002 0.0001 -0.0002 13.2375 0.0005 29.6187
#
#
#
# Elastic Compliance Matrix: (Units=1/GPa)
#
#
# Indices 1 2 3 4 5 6 
#
# 1 0.013296 -0.004990 -0.003659 0.000000 -0.001407 0.000000
# 2 -0.004990 0.012844 -0.004653 0.000000 0.002578 0.000000
# 3 -0.003659 -0.004653 0.013675 0.000000 -0.003874 0.000000
# 4 0.000000 0.000000 0.000000 0.029155 0.000000 -0.013030
# 5 -0.001407 0.002578 -0.003874 0.000000 0.035722 -0.000001
# 6 0.000000 0.000000 0.000000 -0.013030 -0.000001 0.039586
#
#
# Mechanical properties :
#
#
# Convention : Reuss Voigt Hill
#
# Bulk Modulus (GPa) = 75.68880 77.37598 76.53239
# Shear Modulus (GPa) = 28.52500 31.35858 29.94179
#
# Velocity S-wave (km/s) = 3.77161 3.95451 3.86414
# Velocity P-wave (km/s) = 7.53072 7.70956 7.62066
#
# Compressibility (1/GPa) = 0.01321200
#
# Stress axis : x y z
#
# Youngs Moduli (GPa) = 75.20968 77.85541 73.12788
#
# Poissons Ratio (x) = 0.38848 0.26754
# Poissons Ratio (y) = 0.37527 0.34029
# Poissons Ratio (z) = 0.27516 0.36229
#
# Static dielectric constant tensor:
#      x y z
#    x 3.710810 0.000000 0.264970 
#    y 0.000000 3.834840 0.000000 
#    z 0.264970 0.000000 3.585710 
# 
# 
# High freq. dielectric constant tensor:
#      x y z
#    x 1.789590 0.000000 0.018410 
#    y 0.000000 1.798820 0.000000 
#    z 0.018410 0.000000 1.775650 
# 
# From -- ./inp_files/62895.got.cif
#   From: 2010.03.12/outbox.cif.g09.slc.cpg/sg5_32_cif.got.tgz:62895.got - 2010.03.31 09:47:26.
