data_PCOD8050005
_publ_section_title
;
Structure prediction by ZEFSAII (Michael W. Deem and Ramdas Pophale) SiO2 
 PCOD8050005
Probable space group: C 2
;
_chemical_formula_sum "Si O2"
_cell_formula_units_Z 20
_cell_length_a 12.770340
_cell_length_b 4.957362
_cell_length_c 26.695188
_cell_angle_alpha 90.000000
_cell_angle_beta 146.521625
_cell_angle_gamma 90.000000
_cell_volume 932.240196
_symmetry_space_group_name_H-M "C 2"
_symmetry_group_IT_number 5
_symmetry_cell_setting 'monoclinic'
loop_
_space_group_symop_operation_xyz
x,y,z
-x,y,-z
1/2+x,1/2+y,z
1/2-x,1/2+y,-z
loop_
_atom_site_type_symbol
_atom_site_label
_atom_site_fract_x
_atom_site_fract_y
_atom_site_fract_z
Si Si1 0.803404 0.134650 0.940353
Si Si2 0.225923 0.041862 0.178249
Si Si3 0.406275 0.895228 0.615030
Si Si4 0.033419 0.523503 0.920534
Si Si5 0.162835 0.395696 0.526453
O O1 0.684169 0.122440 0.840752
O O2 0.689900 0.986162 0.939014
O O3 0.000000 0.991261 0.000000
O O4 0.864930 0.431005 0.986644
O O5 0.390643 0.946315 0.280049
O O6 0.057065 0.818731 0.110598
O O7 0.131250 0.314295 0.161021
O O8 0.338756 0.598676 0.603321
O O9 0.430607 0.924992 0.565326
O O10 0.245919 0.100830 0.570439
O O11 0.000000 0.468476 0.500000
#
# Coordination Sequence:
#
# PCOD8050005 Si02
#       5
#     4   4   4   4   4
#     4  10  23  40  60  83 116 156 199 247 296 346
#     4  11  25  41  62  89 121 156 201 252 294 350
#     4  10  22  40  61  93 122 154 201 242 292 360
#     4  11  24  40  60  87 117 158 203 247 301 354
#     4  10  21  39  65  90 124 160 191 240 300 356
#
# _framework density 21.453696999999998
#
# number of rings (size 3 to 8) (size 9 to 14) (size 15 to 20)
#    0.000    1.600    0.000    4.200    0.000   18.400 
#    0.000    0.000    0.000    0.000    0.000    0.000 
#    0.000    0.000    0.000    0.000    0.000    0.000 
#
# Total GULP energy -123902.750005 kJ/mol
# GULP energy per Si atom -12390.275001 kJ/mol
# Density = 2.140487 g / cm^3
# Si number density = 21.453697 Si / 1000 Ang^3
#
#
#
# Elastic Constant Matrix: (Units=GPa)
#
#
# Indices 1 2 3 4 5 6 
#
# 1 162.0532 29.1469 40.2083 0.0006 -11.8925 -0.0008
# 2 29.1469 56.9580 15.3606 0.0001 -8.2925 -0.0002
# 3 40.2083 15.3606 101.6258 0.0022 -3.2799 -0.0035
# 4 0.0006 0.0001 0.0022 23.9155 -0.0001 -3.3634
# 5 -11.8925 -8.2925 -3.2799 -0.0001 14.6788 0.0009
# 6 -0.0008 -0.0002 -0.0035 -3.3634 0.0009 26.1608
#
#
#
# Elastic Compliance Matrix: (Units=1/GPa)
#
#
# Indices 1 2 3 4 5 6 
#
# 1 0.007550 -0.002604 -0.002462 0.000000 0.004096 0.000000
# 2 -0.002604 0.020713 -0.001804 0.000000 0.009189 0.000000
# 3 -0.002462 -0.001804 0.011069 -0.000001 -0.000540 0.000001
# 4 0.000000 0.000000 -0.000001 0.042584 0.000000 0.005475
# 5 0.004096 0.009189 -0.000540 0.000000 0.076515 -0.000003
# 6 0.000000 0.000000 0.000001 0.005475 -0.000003 0.038929
#
#
# Mechanical properties :
#
#
# Convention : Reuss Voigt Hill
#
# Bulk Modulus (GPa) = 39.07077 54.45207 46.76142
# Shear Modulus (GPa) = 22.76547 28.67910 25.72229
#
# Velocity S-wave (km/s) = 3.26105 3.66018 3.46637
# Velocity P-wave (km/s) = 5.69478 6.58019 6.15343
#
# Compressibility (1/GPa) = 0.02559458
#
# Stress axis : x y z
#
# Youngs Moduli (GPa) = 132.44200 48.27775 90.34060
#
# Poissons Ratio (x) = 0.12569 0.22238
# Poissons Ratio (y) = 0.34482 0.16299
# Poissons Ratio (z) = 0.32602 0.08710
#
# Static dielectric constant tensor:
#      x y z
#    x 4.052370 -0.000010 -0.322120 
#    y -0.000010 3.916160 0.000010 
#    z -0.322120 0.000010 3.896350 
# 
# 
# High freq. dielectric constant tensor:
#      x y z
#    x 1.849380 0.000000 -0.007060 
#    y 0.000000 1.851480 0.000000 
#    z -0.007060 0.000000 1.828280 
# 
# From -- ./inp_files/51792.got.cif
#   From: 2010.03.12/outbox.cif.g09.slc.cpg/sg5_26_cif.got.tgz:51792.got - 2010.03.31 09:47:26.
