data_PCOD8050995
_publ_section_title
;
Structure prediction by ZEFSAII (Michael W. Deem and Ramdas Pophale) SiO2 
 PCOD8050995
Probable space group: C 2
;
_chemical_formula_sum "Si O2"
_cell_formula_units_Z 16
_cell_length_a 13.062032
_cell_length_b 4.950439
_cell_length_c 11.766637
_cell_angle_alpha 90.000000
_cell_angle_beta 133.388067
_cell_angle_gamma 90.000000
_cell_volume 552.933093
_symmetry_space_group_name_H-M "C 2"
_symmetry_group_IT_number 5
_symmetry_cell_setting 'monoclinic'
loop_
_space_group_symop_operation_xyz
x,y,z
-x,y,-z
1/2+x,1/2+y,z
1/2-x,1/2+y,-z
loop_
_atom_site_type_symbol
_atom_site_label
_atom_site_fract_x
_atom_site_fract_y
_atom_site_fract_z
Si Si1 0.544125 0.990840 0.205047
Si Si2 0.245900 0.402498 0.575948
Si Si3 0.782362 0.341051 0.862952
Si Si4 0.390998 0.848118 0.298559
O O1 0.646307 0.801220 0.207022
O O2 0.534271 0.911461 0.333646
O O3 0.613180 0.291070 0.250242
O O4 0.388873 0.970893 0.034720
O O5 0.276955 0.695301 0.548033
O O6 0.113108 0.397498 0.566819
O O7 0.647849 0.538568 0.754893
O O8 0.724781 0.045782 0.849560
#
# Coordination Sequence:
#
# PCOD8050995 Si02
#       4
#     4   4   4   4
#     4  10  23  42  68  94 129 169 203 265 328 368
#     4  11  25  45  63  91 132 173 222 261 299 376
#     4  10  23  40  66 102 129 153 208 267 324 391
#     4  11  23  42  67  96 126 165 211 262 323 382
#
# _framework density 28.936593999999999
#
# number of rings (size 3 to 8) (size 9 to 14) (size 15 to 20)
#    0.000    1.500    0.000    4.500    0.000   17.000 
#    0.000    7.500    0.000    0.000    0.000    0.000 
#    0.000    0.000    0.000    0.000    0.000    0.000 
#
# Total GULP energy -99160.905732 kJ/mol
# GULP energy per Si atom -12395.113217 kJ/mol
# Density = 2.887073 g / cm^3
# Si number density = 28.936594 Si / 1000 Ang^3
#
#
#
# Elastic Constant Matrix: (Units=GPa)
#
#
# Indices 1 2 3 4 5 6 
#
# 1 247.1419 48.3304 61.0855 0.0000 -14.2467 0.0000
# 2 48.3304 69.4226 17.1801 0.0000 2.6153 0.0001
# 3 61.0855 17.1801 125.9937 0.0000 -38.8887 0.0000
# 4 0.0000 0.0000 0.0000 41.9911 0.0000 9.8937
# 5 -14.2467 2.6153 -38.8887 0.0000 33.5248 0.0000
# 6 0.0000 0.0001 0.0000 9.8937 0.0000 46.2739
#
#
#
# Elastic Compliance Matrix: (Units=1/GPa)
#
#
# Indices 1 2 3 4 5 6 
#
# 1 0.005163 -0.003082 -0.002074 0.000000 0.000029 0.000000
# 2 -0.003082 0.017424 -0.002656 0.000000 -0.005751 0.000000
# 3 -0.002074 -0.002656 0.014170 0.000000 0.015763 0.000000
# 4 0.000000 0.000000 0.000000 0.025078 0.000000 -0.005362
# 5 0.000029 -0.005751 0.015763 0.000000 0.048575 0.000000
# 6 0.000000 0.000000 0.000000 -0.005362 0.000000 0.022757
#
#
# Mechanical properties :
#
#
# Convention : Reuss Voigt Hill
#
# Bulk Modulus (GPa) = 47.32211 77.30557 62.31384
# Shear Modulus (GPa) = 32.08472 45.42211 38.75342
#
# Velocity S-wave (km/s) = 3.33347 3.96626 3.66355
# Velocity P-wave (km/s) = 5.58617 6.91002 6.28306
#
# Compressibility (1/GPa) = 0.02113177
#
# Stress axis : x y z
#
# Youngs Moduli (GPa) = 193.67194 57.39057 70.57089
#
# Poissons Ratio (x) = 0.17690 0.14638
# Poissons Ratio (y) = 0.59697 0.18747
# Poissons Ratio (z) = 0.40172 0.15246
#
# Static dielectric constant tensor:
#      x y z
#    x 5.804930 0.000000 -0.317510 
#    y 0.000000 4.716350 0.000000 
#    z -0.317510 0.000000 5.487900 
# 
# 
# High freq. dielectric constant tensor:
#      x y z
#    x 2.225580 0.000000 -0.008370 
#    y 0.000000 2.156400 0.000000 
#    z -0.008370 0.000000 2.215930 
# 
# From -- ./inp_files/37804.got.cif
#   From: 2010.03.12/outbox.cif.g09.slc.cpg/sg5_19_cif.got.tgz:37804.got - 2010.03.31 09:47:26.
