data_PCOD8050396
_publ_section_title
;
Structure prediction by ZEFSAII (Michael W. Deem and Ramdas Pophale) SiO2 
 PCOD8050396
Probable space group: C 2
;
_chemical_formula_sum "Si O2"
_cell_formula_units_Z 30
_cell_length_a 26.643906
_cell_length_b 5.167463
_cell_length_c 16.684780
_cell_angle_alpha 90.000000
_cell_angle_beta 145.366277
_cell_angle_gamma 90.000000
_cell_volume 1305.554189
_symmetry_space_group_name_H-M "C 2"
_symmetry_group_IT_number 5
_symmetry_cell_setting 'monoclinic'
loop_
_space_group_symop_operation_xyz
x,y,z
-x,y,-z
1/2+x,1/2+y,z
1/2-x,1/2+y,-z
loop_
_atom_site_type_symbol
_atom_site_label
_atom_site_fract_x
_atom_site_fract_y
_atom_site_fract_z
Si Si1 0.360841 0.776570 0.125528
Si Si2 0.000000 0.063894 0.000000
Si Si3 0.407725 0.996469 0.687131
Si Si4 0.316753 0.967163 0.416009
Si Si5 0.911212 0.393987 0.019348
Si Si6 0.784150 0.971369 0.275425
Si Si7 0.149338 0.966407 0.304608
Si Si8 0.160022 0.786950 0.821289
O O1 0.396134 0.737504 0.081862
O O2 0.396557 0.523760 0.217529
O O3 0.391287 0.025833 0.218722
O O4 0.255183 0.778570 0.987389
O O5 0.068704 0.888583 0.138948
O O6 0.937793 0.225600 0.978185
O O7 0.347951 0.250404 0.622529
O O8 0.405286 0.947579 0.587556
O O9 0.505883 0.073972 0.847204
O O10 0.368401 0.753138 0.684902
O O11 0.323050 0.748155 0.354993
O O12 0.298660 0.254342 0.360866
O O13 0.239226 0.915987 0.376812
O O14 0.819309 0.537148 0.877970
O O15 0.833783 0.845737 0.264980
#
# Coordination Sequence:
#
# PCOD8050396 Si02
#       8
#     4   2   4   4   4   4   4   4
#     4   9  18  34  58  84 119 148 196 237 308 347
#     4  10  22  38  60  96 128 150 208 250 302 336
#     4  11  25  40  60  83 125 163 207 238 300 355
#     4  12  23  40  60  88 120 163 201 250 294 363
#     4  10  23  40  62  93 121 164 195 254 295 361
#     4  11  23  38  65  91 120 151 207 250 308 340
#     4  11  23  39  60  84 121 167 205 247 288 357
#     4   9  18  35  57  88 113 149 191 256 290 358
#
# _framework density 22.978750999999999
#
# number of rings (size 3 to 8) (size 9 to 14) (size 15 to 20)
#    0.000    1.600    1.333    3.200    3.733    5.867 
#    0.000    0.000    0.000    4.800    0.000    0.000 
#    0.000    0.000    0.000    0.000    0.000    0.000 
#
# Total GULP energy -185823.219388 kJ/mol
# GULP energy per Si atom -12388.214626 kJ/mol
# Density = 2.292645 g / cm^3
# Si number density = 22.978751 Si / 1000 Ang^3
#
#
#
# Elastic Constant Matrix: (Units=GPa)
#
#
# Indices 1 2 3 4 5 6 
#
# 1 93.6751 29.0818 4.7939 -0.0001 -24.4306 -0.0004
# 2 29.0818 112.8688 16.4733 -0.0003 -9.8741 -0.0018
# 3 4.7939 16.4733 93.7833 0.0003 -21.9540 0.0000
# 4 -0.0001 -0.0003 0.0003 22.0328 -0.0001 -11.9570
# 5 -24.4306 -9.8741 -21.9540 -0.0001 20.7377 -0.0002
# 6 -0.0004 -0.0018 0.0000 -11.9570 -0.0002 25.3662
#
#
#
# Elastic Compliance Matrix: (Units=1/GPa)
#
#
# Indices 1 2 3 4 5 6 
#
# 1 0.018129 -0.003241 0.005692 0.000000 0.025840 0.000000
# 2 -0.003241 0.009869 -0.001810 0.000001 -0.001036 0.000001
# 3 0.005692 -0.001810 0.016030 0.000000 0.022814 0.000000
# 4 0.000000 0.000001 0.000000 0.060988 0.000002 0.028749
# 5 0.025840 -0.001036 0.022814 0.000002 0.102321 0.000002
# 6 0.000000 0.000001 0.000000 0.028749 0.000002 0.052974
#
#
# Mechanical properties :
#
#
# Convention : Reuss Voigt Hill
#
# Bulk Modulus (GPa) = 22.07117 44.55836 33.31476
# Shear Modulus (GPa) = 18.23921 30.29255 24.26588
#
# Velocity S-wave (km/s) = 2.82040 3.63476 3.25316
# Velocity P-wave (km/s) = 4.49801 6.08675 5.35166
#
# Compressibility (1/GPa) = 0.04530798
#
# Stress axis : x y z
#
# Youngs Moduli (GPa) = 55.15966 101.33180 62.38111
#
# Poissons Ratio (x) = 0.32845 -0.35504
# Poissons Ratio (y) = 0.17879 0.11293
# Poissons Ratio (z) = -0.31394 0.18344
#
# Static dielectric constant tensor:
#      x y z
#    x 4.066570 0.000000 -0.115030 
#    y 0.000000 4.094920 0.000000 
#    z -0.115030 0.000000 4.418070 
# 
# 
# High freq. dielectric constant tensor:
#      x y z
#    x 1.902070 0.000000 -0.021740 
#    y 0.000000 1.900940 0.000000 
#    z -0.021740 0.000000 1.900410 
# 
# From -- ./inp_files/58007.got.cif
#   From: 2010.03.12/outbox.cif.g09.slc.cpg/sg5_30_cif.got.tgz:58007.got - 2010.03.31 09:47:26.
