data_PCOD8050859
_publ_section_title
;
Structure prediction by ZEFSAII (Michael W. Deem and Ramdas Pophale) SiO2 
 PCOD8050859
Probable space group: C 2
;
_chemical_formula_sum "Si O2"
_cell_formula_units_Z 30
_cell_length_a 12.161169
_cell_length_b 8.428899
_cell_length_c 14.284844
_cell_angle_alpha 90.000000
_cell_angle_beta 113.194712
_cell_angle_gamma 90.000000
_cell_volume 1345.917119
_symmetry_space_group_name_H-M "C 2"
_symmetry_group_IT_number 5
_symmetry_cell_setting 'monoclinic'
loop_
_space_group_symop_operation_xyz
x,y,z
-x,y,-z
1/2+x,1/2+y,z
1/2-x,1/2+y,-z
loop_
_atom_site_type_symbol
_atom_site_label
_atom_site_fract_x
_atom_site_fract_y
_atom_site_fract_z
Si Si1 0.378462 0.519110 0.820217
Si Si2 0.536077 0.877393 0.178333
Si Si3 0.217724 0.296702 0.672442
Si Si4 0.758506 0.556404 0.842321
Si Si5 0.094501 0.592603 0.361001
Si Si6 0.924528 0.815069 0.200146
Si Si7 0.290341 0.034511 0.067055
Si Si8 0.500000 0.932205 0.500000
O O1 0.425671 0.696543 0.821519
O O2 0.281351 0.469140 0.707072
O O3 0.487482 0.397749 0.844559
O O4 0.322313 0.495263 0.904248
O O5 0.607547 0.995127 0.132700
O O6 0.573337 0.932002 0.294744
O O7 0.394681 0.900627 0.110346
O O8 0.228604 0.221076 0.780354
O O9 0.279434 0.178179 0.618251
O O10 0.082145 0.322527 0.593968
O O11 0.658419 0.435499 0.769479
O O12 0.738749 0.560450 0.946568
O O13 0.086656 0.543441 0.466753
O O14 0.990597 0.716292 0.302131
O O15 0.840491 0.705166 0.110320
#
# Coordination Sequence:
#
# PCOD8050859 Si02
#       8
#     4   4   4   4   4   4   4   2
#     4  11  24  42  71 100 140 182 233 270 338 402
#     4  10  22  44  70  97 140 185 220 280 337 403
#     4  10  25  46  67 104 136 176 225 294 341 407
#     4  11  24  44  68  98 148 179 228 283 336 398
#     4   9  23  47  67  99 134 169 223 288 347 405
#     4  10  23  44  67  99 137 184 225 274 340 403
#     4  11  24  44  63 101 144 188 230 271 324 406
#     4  12  24  46  80  92 128 178 228 288 358 406
#
# _framework density 22.289635000000001
#
# number of rings (size 3 to 8) (size 9 to 14) (size 15 to 20)
#    0.000    1.600    1.333    2.800    5.600    1.600 
#   12.000    0.000    0.000    0.000    0.000    0.000 
#    0.000    0.000    0.000    0.000    0.000    0.000 
#
# Total GULP energy -185967.234018 kJ/mol
# GULP energy per Si atom -12397.815601 kJ/mol
# Density = 2.223890 g / cm^3
# Si number density = 22.289635 Si / 1000 Ang^3
#
#
#
# Elastic Constant Matrix: (Units=GPa)
#
#
# Indices 1 2 3 4 5 6 
#
# 1 107.4160 31.8606 34.2538 0.0000 -14.4477 0.0000
# 2 31.8606 106.1620 36.6027 0.0000 -0.7903 0.0000
# 3 34.2538 36.6027 78.7625 0.0000 -14.7694 0.0000
# 4 0.0000 0.0000 0.0000 16.6338 0.0000 0.8214
# 5 -14.4477 -0.7903 -14.7694 0.0000 36.0961 0.0000
# 6 0.0000 0.0000 0.0000 0.8214 0.0000 39.9081
#
#
#
# Elastic Compliance Matrix: (Units=1/GPa)
#
#
# Indices 1 2 3 4 5 6 
#
# 1 0.011475 -0.002268 -0.003341 0.000000 0.003176 0.000000
# 2 -0.002268 0.011806 -0.005006 0.000000 -0.002698 0.000000
# 3 -0.003341 -0.005006 0.017551 0.000000 0.005735 0.000000
# 4 0.000000 0.000000 0.000000 0.060180 0.000000 -0.001239
# 5 0.003176 -0.002698 0.005735 0.000000 0.031263 0.000000
# 6 0.000000 0.000000 0.000000 -0.001239 0.000000 0.025083
#
#
# Mechanical properties :
#
#
# Convention : Reuss Voigt Hill
#
# Bulk Modulus (GPa) = 51.01482 55.30829 53.16156
# Shear Modulus (GPa) = 27.00927 31.16914 29.08921
#
# Velocity S-wave (km/s) = 3.48478 3.74353 3.61647
# Velocity P-wave (km/s) = 6.25528 6.59945 6.42967
#
# Compressibility (1/GPa) = 0.01960215
#
# Stress axis : x y z
#
# Youngs Moduli (GPa) = 87.14637 84.70126 56.97689
#
# Poissons Ratio (x) = 0.19213 0.19034
# Poissons Ratio (y) = 0.19768 0.28522
# Poissons Ratio (z) = 0.29113 0.42401
#
# Static dielectric constant tensor:
#      x y z
#    x 4.334900 0.000000 0.000680 
#    y 0.000000 4.226560 0.000000 
#    z 0.000680 0.000000 3.690200 
# 
# 
# High freq. dielectric constant tensor:
#      x y z
#    x 1.896780 0.000000 -0.002350 
#    y 0.000000 1.887010 0.000000 
#    z -0.002350 0.000000 1.846580 
# 
# From -- ./inp_files/52492.got.cif
#   From: 2010.03.12/outbox.cif.g09.slc.cpg/sg5_27_cif.got.tgz:52492.got - 2010.03.31 09:47:26.
