data_PCOD8050249
_publ_section_title
;
Structure prediction by ZEFSAII (Michael W. Deem and Ramdas Pophale) SiO2 
 PCOD8050249
Probable space group: C 2
;
_chemical_formula_sum "Si O2"
_cell_formula_units_Z 32
_cell_length_a 17.955620
_cell_length_b 14.750794
_cell_length_c 11.521063
_cell_angle_alpha 90.000000
_cell_angle_beta 151.485493
_cell_angle_gamma 90.000000
_cell_volume 1456.712070
_symmetry_space_group_name_H-M "C 2"
_symmetry_group_IT_number 5
_symmetry_cell_setting 'monoclinic'
loop_
_space_group_symop_operation_xyz
x,y,z
-x,y,-z
1/2+x,1/2+y,z
1/2-x,1/2+y,-z
loop_
_atom_site_type_symbol
_atom_site_label
_atom_site_fract_x
_atom_site_fract_y
_atom_site_fract_z
Si Si1 0.931393 0.732000 0.180460
Si Si2 0.749911 0.139128 0.627531
Si Si3 0.946450 0.109708 0.682040
Si Si4 0.143295 0.594972 0.111866
Si Si5 0.292613 0.723114 0.926687
Si Si6 0.549216 0.896439 0.934909
Si Si7 0.061432 0.921338 0.909888
Si Si8 0.242125 0.433842 0.605926
O O1 0.867867 0.711459 0.222541
O O2 0.911580 0.839441 0.141066
O O3 0.112241 0.709157 0.413751
O O4 0.837355 0.673843 0.956479
O O5 0.892581 0.150350 0.733701
O O6 0.800220 0.153690 0.828818
O O7 0.689488 0.037818 0.521113
O O8 0.801438 0.092545 0.400783
O O9 0.047715 0.017274 0.826835
O O10 0.063787 0.187627 0.795590
O O11 0.118468 0.497386 0.017865
O O12 0.000000 0.619040 0.000000
O O13 0.315864 0.826531 0.917228
O O14 0.402358 0.879012 0.647134
O O15 0.500000 0.877179 0.000000
O O16 0.898924 0.907683 0.753578
O O17 0.216084 0.916108 0.202825
#
# Coordination Sequence:
#
# PCOD8050249 Si02
#       8
#     4   4   4   4   4   4   4   4
#     4  12  27  44  65 100 144 176 215 268 348 405
#     4  11  21  47  70  97 128 174 229 279 324 394
#     4  11  23  44  74  99 130 172 233 281 321 386
#     4  11  23  44  71  99 131 177 224 280 332 389
#     4  12  28  42  65 103 137 180 217 273 339 396
#     4  11  23  43  68  99 132 171 232 277 328 388
#     4  10  23  40  68 100 131 167 223 278 334 381
#     4  10  21  42  70  97 122 171 228 283 318 380
#
# _framework density 21.967278
#
# number of rings (size 3 to 8) (size 9 to 14) (size 15 to 20)
#    0.000    1.000    3.750    3.750    8.750    1.500 
#    0.000    0.000    0.000    0.000    0.000    0.000 
#    0.000    0.000    0.000    0.000    0.000    0.000 
#
# Total GULP energy -198328.393877 kJ/mol
# GULP energy per Si atom -12395.524617 kJ/mol
# Density = 2.191728 g / cm^3
# Si number density = 21.967278 Si / 1000 Ang^3
#
#
#
# Elastic Constant Matrix: (Units=GPa)
#
#
# Indices 1 2 3 4 5 6 
#
# 1 74.3236 49.5799 24.7183 0.0000 -0.9342 0.0000
# 2 49.5799 103.8406 28.2934 0.0000 4.6351 0.0000
# 3 24.7183 28.2934 102.9903 0.0000 -26.0525 0.0000
# 4 0.0000 0.0000 0.0000 29.5890 0.0000 -4.2577
# 5 -0.9342 4.6351 -26.0525 0.0000 17.8077 0.0000
# 6 0.0000 0.0000 0.0000 -4.2577 0.0000 23.5486
#
#
#
# Elastic Compliance Matrix: (Units=1/GPa)
#
#
# Indices 1 2 3 4 5 6 
#
# 1 0.020271 -0.009012 -0.002424 0.000000 -0.000137 0.000000
# 2 -0.009012 0.015958 -0.005384 0.000000 -0.012503 0.000000
# 3 -0.002424 -0.005384 0.019197 0.000000 0.029360 0.000000
# 4 0.000000 0.000000 0.000000 0.034699 0.000000 0.006274
# 5 -0.000137 -0.012503 0.029360 0.000000 0.102355 0.000000
# 6 0.000000 0.000000 0.000000 0.006274 0.000000 0.043600
#
#
# Mechanical properties :
#
#
# Convention : Reuss Voigt Hill
#
# Bulk Modulus (GPa) = 45.89999 54.03752 49.96875
# Shear Modulus (GPa) = 18.05171 26.09326 22.07248
#
# Velocity S-wave (km/s) = 2.86974 3.45022 3.17328
# Velocity P-wave (km/s) = 5.64983 6.36589 6.01852
#
# Compressibility (1/GPa) = 0.02178650
#
# Stress axis : x y z
#
# Youngs Moduli (GPa) = 49.33195 62.66448 52.09062
#
# Poissons Ratio (x) = 0.56473 0.12627
# Poissons Ratio (y) = 0.44458 0.28044
# Poissons Ratio (z) = 0.11959 0.33737
#
# Static dielectric constant tensor:
#      x y z
#    x 3.746460 0.000000 -0.162380 
#    y 0.000000 3.953060 0.000000 
#    z -0.162380 0.000000 4.065830 
# 
# 
# High freq. dielectric constant tensor:
#      x y z
#    x 1.828510 0.000000 -0.008240 
#    y 0.000000 1.870660 0.000000 
#    z -0.008240 0.000000 1.877690 
# 
# From -- ./inp_files/44994.got.cif
#   From: 2010.03.12/outbox.cif.g09.slc.cpg/sg5_23_cif.got.tgz:44994.got - 2010.03.31 09:47:26.
