data_PCOD8050004
_publ_section_title
;
Structure prediction by ZEFSAII (Michael W. Deem and Ramdas Pophale) SiO2 
 PCOD8050004
Probable space group: C 2
;
_chemical_formula_sum "Si O2"
_cell_formula_units_Z 28
_cell_length_a 12.465973
_cell_length_b 5.091820
_cell_length_c 20.507704
_cell_angle_alpha 90.000000
_cell_angle_beta 108.504207
_cell_angle_gamma 90.000000
_cell_volume 1234.417806
_symmetry_space_group_name_H-M "C 2"
_symmetry_group_IT_number 5
_symmetry_cell_setting 'monoclinic'
loop_
_space_group_symop_operation_xyz
x,y,z
-x,y,-z
1/2+x,1/2+y,z
1/2-x,1/2+y,-z
loop_
_atom_site_type_symbol
_atom_site_label
_atom_site_fract_x
_atom_site_fract_y
_atom_site_fract_z
Si Si1 0.025801 0.853270 0.575968
Si Si2 0.869927 0.185915 0.975213
Si Si3 0.750445 0.186169 0.087708
Si Si4 0.281396 0.735560 0.355505
Si Si5 0.286419 0.566861 0.544965
Si Si6 0.396356 0.690704 0.242110
Si Si7 0.979251 0.668027 0.697204
O O1 0.000000 0.726126 0.500000
O O2 0.921449 0.040101 0.579665
O O3 0.031953 0.629551 0.633602
O O4 0.137304 0.030514 0.591934
O O5 0.847254 0.468718 0.939067
O O6 0.805521 0.971703 0.918836
O O7 0.834135 0.166335 0.043149
O O8 0.000000 0.118655 0.000000
O O9 0.819275 0.126676 0.165898
O O10 0.278764 0.005473 0.398464
O O11 0.316514 0.764403 0.287507
O O12 0.154286 0.624322 0.331265
O O13 0.256378 0.858890 0.517456
O O14 0.481678 0.451428 0.269797
O O15 0.472333 0.948158 0.244656
#
# Coordination Sequence:
#
# PCOD8050004 Si02
#       7
#     4   4   4   4   4   4   4
#     4  10  21  42  62  89 114 158 199 260 322 378
#     4  10  21  39  64  98 133 166 208 252 301 356
#     4  10  22  39  63  96 130 167 211 253 296 368
#     4  10  24  43  63  88 125 156 206 261 316 375
#     4  11  24  41  62  88 115 152 200 251 313 378
#     4  11  24  43  65  91 127 168 208 254 312 365
#     4  10  25  42  61  91 121 160 212 258 307 384
#
# _framework density 22.682758
#
# number of rings (size 3 to 8) (size 9 to 14) (size 15 to 20)
#    0.000    1.714    1.429    1.286    2.000   11.429 
#    0.000    0.000    0.000    0.000    0.000    0.000 
#    0.000    0.000    0.000    0.000    0.000    0.000 
#
# Total GULP energy -173619.084915 kJ/mol
# GULP energy per Si atom -12401.363208 kJ/mol
# Density = 2.263113 g / cm^3
# Si number density = 22.682758 Si / 1000 Ang^3
#
#
#
# Elastic Constant Matrix: (Units=GPa)
#
#
# Indices 1 2 3 4 5 6 
#
# 1 112.3635 27.1938 27.0304 0.0000 18.8248 0.0000
# 2 27.1938 79.7453 23.3944 0.0000 -2.6572 0.0000
# 3 27.0304 23.3944 133.7482 0.0000 12.9487 0.0000
# 4 0.0000 0.0000 0.0000 27.6046 0.0000 1.2193
# 5 18.8248 -2.6572 12.9487 0.0000 18.3552 0.0000
# 6 0.0000 0.0000 0.0000 1.2193 0.0000 15.9233
#
#
#
# Elastic Compliance Matrix: (Units=1/GPa)
#
#
# Indices 1 2 3 4 5 6 
#
# 1 0.012251 -0.004477 -0.000444 0.000000 -0.012900 0.000000
# 2 -0.004477 0.015107 -0.002569 0.000000 0.008591 0.000000
# 3 -0.000444 -0.002569 0.008595 0.000000 -0.005980 0.000000
# 4 0.000000 0.000000 0.000000 0.036349 0.000000 -0.002783
# 5 -0.012900 0.008591 -0.005980 0.000000 0.073172 0.000000
# 6 0.000000 0.000000 0.000000 -0.002783 0.000000 0.063014
#
#
# Mechanical properties :
#
#
# Convention : Reuss Voigt Hill
#
# Bulk Modulus (GPa) = 47.68351 53.45490 50.56921
# Shear Modulus (GPa) = 21.69576 28.92586 25.31081
#
# Velocity S-wave (km/s) = 3.09607 3.57492 3.34407
# Velocity P-wave (km/s) = 5.81794 6.37633 6.10352
#
# Compressibility (1/GPa) = 0.02097161
#
# Stress axis : x y z
#
# Youngs Moduli (GPa) = 81.62457 66.19567 116.34962
#
# Poissons Ratio (x) = 0.29638 0.05165
# Poissons Ratio (y) = 0.36546 0.29893
# Poissons Ratio (z) = 0.03624 0.17007
#
# Static dielectric constant tensor:
#      x y z
#    x 4.229780 0.000000 -0.009650 
#    y 0.000000 3.904670 0.000000 
#    z -0.009650 0.000000 3.998070 
# 
# 
# High freq. dielectric constant tensor:
#      x y z
#    x 1.909390 0.000000 0.007800 
#    y 0.000000 1.893350 0.000000 
#    z 0.007800 0.000000 1.887160 
# 
# From -- ./inp_files/64990.got.cif
#   From: 2010.03.12/outbox.cif.g09.slc.cpg/sg5_33_cif.got.tgz:64990.got - 2010.03.31 09:47:26.
