data_PCOD8050458
_publ_section_title
;
Structure prediction by ZEFSAII (Michael W. Deem and Ramdas Pophale) SiO2 
 PCOD8050458
Probable space group: C 2
;
_chemical_formula_sum "Si O2"
_cell_formula_units_Z 32
_cell_length_a 12.035664
_cell_length_b 14.575246
_cell_length_c 8.553265
_cell_angle_alpha 90.000000
_cell_angle_beta 90.924152
_cell_angle_gamma 90.000000
_cell_volume 1500.242211
_symmetry_space_group_name_H-M "C 2"
_symmetry_group_IT_number 5
_symmetry_cell_setting 'monoclinic'
loop_
_space_group_symop_operation_xyz
x,y,z
-x,y,-z
1/2+x,1/2+y,z
1/2-x,1/2+y,-z
loop_
_atom_site_type_symbol
_atom_site_label
_atom_site_fract_x
_atom_site_fract_y
_atom_site_fract_z
Si Si1 0.480309 0.391140 0.827118
Si Si2 0.447179 0.872372 0.168838
Si Si3 0.215736 0.772781 0.169446
Si Si4 0.141657 0.725142 0.841233
Si Si5 0.879350 0.235055 0.706691
Si Si6 0.404952 0.054949 0.366631
Si Si7 0.730180 0.647330 0.572832
Si Si8 0.476047 0.575468 0.321097
O O1 0.351306 0.366277 0.805075
O O2 0.561195 0.307275 0.789685
O O3 0.501530 0.470605 0.707066
O O4 0.500000 0.430970 0.000000
O O5 0.344233 0.801549 0.142889
O O6 0.543105 0.824095 0.273488
O O7 0.407017 0.960433 0.268788
O O8 0.500000 0.898678 0.000000
O O9 0.190388 0.710437 0.320790
O O10 0.153400 0.717317 0.028504
O O11 0.265665 0.750214 0.794351
O O12 0.088634 0.634670 0.763332
O O13 0.846814 0.218755 0.525451
O O14 0.945775 0.145301 0.776136
O O15 0.500000 0.059480 0.500000
O O16 0.290958 0.073869 0.461041
O O17 0.655300 0.595227 0.701884
O O18 0.500000 0.596208 0.500000
#
# Coordination Sequence:
#
# PCOD8050458 Si02
#       8
#     4   4   4   4   4   4   4   4
#     4  10  24  41  63  94 132 172 226 277 342 402
#     4  12  26  44  70 109 139 188 235 295 356 420
#     4  11  23  42  71  98 138 184 231 286 352 414
#     4  10  23  47  68  95 138 182 239 288 343 421
#     4  10  22  43  66  97 135 180 234 284 348 414
#     4  11  27  45  70 104 142 185 233 290 359 420
#     4  10  23  43  68  98 137 182 226 284 355 409
#     4  10  22  39  63  95 128 171 221 278 331 404
#
# _framework density 21.329889000000001
#
# number of rings (size 3 to 8) (size 9 to 14) (size 15 to 20)
#    0.000    1.500    2.500    0.750    7.000    7.500 
#    2.250    0.000    0.000    0.000    0.000    0.000 
#    0.000    0.000    0.000    0.000    0.000    0.000 
#
# Total GULP energy -198250.065451 kJ/mol
# GULP energy per Si atom -12390.629091 kJ/mol
# Density = 2.128134 g / cm^3
# Si number density = 21.329889 Si / 1000 Ang^3
#
#
#
# Elastic Constant Matrix: (Units=GPa)
#
#
# Indices 1 2 3 4 5 6 
#
# 1 99.1182 28.7924 34.7582 0.0000 -1.6552 0.0000
# 2 28.7924 83.1256 48.6110 0.0000 2.4411 0.0000
# 3 34.7582 48.6110 86.2830 0.0000 0.8900 0.0000
# 4 0.0000 0.0000 0.0000 28.9348 0.0000 -5.3013
# 5 -1.6552 2.4411 0.8900 0.0000 34.4016 0.0000
# 6 0.0000 0.0000 0.0000 -5.3013 0.0000 22.7753
#
#
#
# Elastic Compliance Matrix: (Units=1/GPa)
#
#
# Indices 1 2 3 4 5 6 
#
# 1 0.011985 -0.002009 -0.003705 0.000000 0.000815 0.000000
# 2 -0.002009 0.018313 -0.009496 0.000000 -0.001150 0.000000
# 3 -0.003705 -0.009496 0.018432 0.000000 0.000019 0.000000
# 4 0.000000 0.000000 0.000000 0.036100 0.000000 0.008403
# 5 0.000815 -0.001150 0.000019 0.000000 0.029189 0.000000
# 6 0.000000 0.000000 0.000000 0.008403 0.000000 0.045863
#
#
# Mechanical properties :
#
#
# Convention : Reuss Voigt Hill
#
# Bulk Modulus (GPa) = 54.61312 54.76114 54.68713
# Shear Modulus (GPa) = 25.45757 27.64668 26.55212
#
# Velocity S-wave (km/s) = 3.45848 3.60411 3.53204
# Velocity P-wave (km/s) = 6.45040 6.56115 6.50601
#
# Compressibility (1/GPa) = 0.01831062
#
# Stress axis : x y z
#
# Youngs Moduli (GPa) = 83.43566 54.60648 54.25312
#
# Poissons Ratio (x) = 0.10969 0.20100
# Poissons Ratio (y) = 0.16760 0.51520
# Poissons Ratio (z) = 0.30912 0.51856
#
# Static dielectric constant tensor:
#      x y z
#    x 4.746770 0.000000 -0.162090 
#    y 0.000000 3.635620 0.000000 
#    z -0.162090 0.000000 3.914140 
# 
# 
# High freq. dielectric constant tensor:
#      x y z
#    x 1.856010 0.000000 0.000950 
#    y 0.000000 1.823940 0.000000 
#    z 0.000950 0.000000 1.835520 
# 
# From -- ./inp_files/20650.got.cif
#   From: 2010.03.12/outbox.cif.g09.slc.cpg/sg5_11_cif.got.tgz:20650.got - 2010.03.31 09:47:26.
