data_PCOD8050070
_publ_section_title
;
Structure prediction by ZEFSAII (Michael W. Deem and Ramdas Pophale) SiO2 
 PCOD8050070
Probable space group: C 2
;
_chemical_formula_sum "Si O2"
_cell_formula_units_Z 20
_cell_length_a 21.575460
_cell_length_b 7.560225
_cell_length_c 6.637355
_cell_angle_alpha 90.000000
_cell_angle_beta 116.140846
_cell_angle_gamma 90.000000
_cell_volume 971.913673
_symmetry_space_group_name_H-M "C 2"
_symmetry_group_IT_number 5
_symmetry_cell_setting 'monoclinic'
loop_
_space_group_symop_operation_xyz
x,y,z
-x,y,-z
1/2+x,1/2+y,z
1/2-x,1/2+y,-z
loop_
_atom_site_type_symbol
_atom_site_label
_atom_site_fract_x
_atom_site_fract_y
_atom_site_fract_z
Si Si1 0.427801 0.203920 0.991253
Si Si2 0.567241 0.799097 0.964889
Si Si3 0.829344 0.855560 0.526539
Si Si4 0.884687 0.005807 0.220902
Si Si5 0.706268 0.636583 0.223669
O O1 0.372006 0.226172 0.733038
O O2 0.429230 0.005998 0.082969
O O3 0.500000 0.257841 0.000000
O O4 0.414834 0.331595 0.159188
O O5 0.637392 0.748595 0.187257
O O6 0.500000 0.753727 0.000000
O O7 0.566142 0.676431 0.759572
O O8 0.879477 0.967603 0.450457
O O9 0.776472 0.746730 0.311107
O O10 0.783429 0.987747 0.592638
O O11 0.808423 0.047940 0.016537
#
# Coordination Sequence:
#
# PCOD8050070 Si02
#       5
#     4   4   4   4   4
#     4  10  21  40  63  90 128 162 207 258 311 370
#     4   9  19  42  63  86 127 162 200 260 305 363
#     4  11  21  40  62  89 128 168 206 256 317 370
#     4   9  22  38  61  91 118 167 206 259 297 376
#     4   9  22  36  58  90 120 163 208 254 307 367
#
# _framework density 20.577961999999999
#
# number of rings (size 3 to 8) (size 9 to 14) (size 15 to 20)
#    1.200    1.200    0.000    1.800    0.000    5.600 
#    7.200    0.000    0.000    0.000    0.000    0.000 
#    0.000    0.000    0.000    0.000    0.000    0.000 
#
# Total GULP energy -123897.551630 kJ/mol
# GULP energy per Si atom -12389.755163 kJ/mol
# Density = 2.053113 g / cm^3
# Si number density = 20.577962 Si / 1000 Ang^3
#
#
#
# Elastic Constant Matrix: (Units=GPa)
#
#
# Indices 1 2 3 4 5 6 
#
# 1 73.9859 24.0754 8.2555 0.0000 7.3927 0.0000
# 2 24.0754 105.4245 19.9452 0.0000 -10.1674 0.0000
# 3 8.2555 19.9452 44.4241 0.0000 -15.4481 0.0000
# 4 0.0000 0.0000 0.0000 10.5638 0.0000 1.6476
# 5 7.3927 -10.1674 -15.4481 0.0000 25.9501 0.0000
# 6 0.0000 0.0000 0.0000 1.6476 0.0000 40.4972
#
#
#
# Elastic Compliance Matrix: (Units=1/GPa)
#
#
# Indices 1 2 3 4 5 6 
#
# 1 0.016052 -0.003677 -0.004317 0.000000 -0.008583 0.000000
# 2 -0.003677 0.011263 -0.003121 0.000000 0.003603 0.000000
# 3 -0.004317 -0.003121 0.031168 0.000000 0.018562 0.000000
# 4 0.000000 0.000000 0.000000 0.095268 0.000000 -0.003876
# 5 -0.008583 0.003603 0.018562 0.000000 0.053442 0.000000
# 6 0.000000 0.000000 0.000000 -0.003876 0.000000 0.024851
#
#
# Mechanical properties :
#
#
# Convention : Reuss Voigt Hill
#
# Bulk Modulus (GPa) = 27.58306 36.48742 32.03524
# Shear Modulus (GPa) = 18.77176 26.83944 22.80560
#
# Velocity S-wave (km/s) = 3.02359 3.61540 3.33266
# Velocity P-wave (km/s) = 5.06189 5.93279 5.51456
#
# Compressibility (1/GPa) = 0.03625413
#
# Stress axis : x y z
#
# Youngs Moduli (GPa) = 62.29791 88.78658 32.08386
#
# Poissons Ratio (x) = 0.32645 0.13851
# Poissons Ratio (y) = 0.22906 0.10012
# Poissons Ratio (z) = 0.26894 0.27708
#
# Static dielectric constant tensor:
#      x y z
#    x 3.522380 0.000000 0.078180 
#    y 0.000000 3.757880 0.000000 
#    z 0.078180 0.000000 3.334470 
# 
# 
# High freq. dielectric constant tensor:
#      x y z
#    x 1.798760 0.000000 0.004990 
#    y 0.000000 1.814590 0.000000 
#    z 0.004990 0.000000 1.777530 
# 
# From -- ./inp_files/8051.got.cif
#   From: 2010.03.12/outbox.cif.g09.slc.cpg/sg5_5_cif.got.tgz:8051.got - 2010.03.31 09:47:26.
