data_PCOD8050373
_publ_section_title
;
Structure prediction by ZEFSAII (Michael W. Deem and Ramdas Pophale) SiO2 
 PCOD8050373
Probable space group: C 2
;
_chemical_formula_sum "Si O2"
_cell_formula_units_Z 24
_cell_length_a 9.269749
_cell_length_b 11.012634
_cell_length_c 21.636053
_cell_angle_alpha 90.000000
_cell_angle_beta 149.184820
_cell_angle_gamma 90.000000
_cell_volume 1131.452944
_symmetry_space_group_name_H-M "C 2"
_symmetry_group_IT_number 5
_symmetry_cell_setting 'monoclinic'
loop_
_space_group_symop_operation_xyz
x,y,z
-x,y,-z
1/2+x,1/2+y,z
1/2-x,1/2+y,-z
loop_
_atom_site_type_symbol
_atom_site_label
_atom_site_fract_x
_atom_site_fract_y
_atom_site_fract_z
Si Si1 0.680493 0.849670 0.219180
Si Si2 0.225080 0.951274 0.362790
Si Si3 0.916060 0.890357 0.032919
Si Si4 0.219903 0.228738 0.363374
Si Si5 0.800362 0.144409 0.872215
Si Si6 0.329531 0.262266 0.763169
O O1 0.652678 0.817662 0.281557
O O2 0.682670 0.723284 0.183131
O O3 0.956096 0.929906 0.308030
O O4 0.412998 0.927155 0.095768
O O5 0.500000 0.904398 0.500000
O O6 0.194724 0.879728 0.288408
O O7 0.260823 0.090932 0.356015
O O8 0.960972 0.796427 0.104080
O O9 0.113107 0.008294 0.113735
O O10 0.000000 0.822484 0.000000
O O11 0.500000 0.277271 0.500000
O O12 0.973832 0.226307 0.323562
O O13 0.477449 0.152116 0.779586
O O14 0.000000 0.196280 0.000000
#
# Coordination Sequence:
#
# PCOD8050373 Si02
#       6
#     4   4   4   4   4   4
#     4  11  22  41  64  89 124 160 198 250 301 358
#     4  10  24  42  62  89 121 160 206 250 295 350
#     4  11  22  37  60  93 121 154 197 242 302 363
#     4  11  24  41  63  89 118 161 209 248 294 353
#     4  10  22  37  60  90 123 155 194 238 302 363
#     4  11  22  41  62  87 124 159 194 250 302 355
#
# _framework density 21.211663999999999
#
# number of rings (size 3 to 8) (size 9 to 14) (size 15 to 20)
#    0.000    1.333    3.333    2.000    4.667    0.000 
#    0.000    0.000    0.000    7.000    0.000    0.000 
#    0.000    0.000    0.000    0.000    0.000    0.000 
#
# Total GULP energy -148787.816158 kJ/mol
# GULP energy per Si atom -12398.984680 kJ/mol
# Density = 2.116339 g / cm^3
# Si number density = 21.211664 Si / 1000 Ang^3
#
#
#
# Elastic Constant Matrix: (Units=GPa)
#
#
# Indices 1 2 3 4 5 6 
#
# 1 96.5263 15.6860 33.6122 0.0001 11.8451 -0.0001
# 2 15.6860 55.6799 19.3375 0.0002 -3.0315 0.0001
# 3 33.6122 19.3375 125.3416 0.0006 25.2416 0.0010
# 4 0.0001 0.0002 0.0006 23.2377 0.0001 6.7294
# 5 11.8451 -3.0315 25.2416 0.0001 35.9001 0.0000
# 6 -0.0001 0.0001 0.0010 6.7294 0.0000 20.0114
#
#
#
# Elastic Compliance Matrix: (Units=1/GPa)
#
#
# Indices 1 2 3 4 5 6 
#
# 1 0.011901 -0.002709 -0.002256 0.000000 -0.002569 0.000000
# 2 -0.002709 0.020171 -0.003388 0.000000 0.004979 0.000000
# 3 -0.002256 -0.003388 0.010500 0.000000 -0.006925 0.000000
# 4 0.000000 0.000000 0.000000 0.047676 0.000000 -0.016032
# 5 -0.002569 0.004979 -0.006925 0.000000 0.033992 0.000000
# 6 0.000000 0.000000 0.000000 -0.016032 0.000000 0.055363
#
#
# Mechanical properties :
#
#
# Convention : Reuss Voigt Hill
#
# Bulk Modulus (GPa) = 38.66152 46.09102 42.37627
# Shear Modulus (GPa) = 24.39835 29.75732 27.07784
#
# Velocity S-wave (km/s) = 3.39519 3.74956 3.57677
# Velocity P-wave (km/s) = 5.79964 6.36568 6.08924
#
# Compressibility (1/GPa) = 0.02586551
#
# Stress axis : x y z
#
# Youngs Moduli (GPa) = 84.02663 49.57657 95.23418
#
# Poissons Ratio (x) = 0.13431 0.21486
# Poissons Ratio (y) = 0.22763 0.32267
# Poissons Ratio (z) = 0.18957 0.16798
#
# Static dielectric constant tensor:
#      x y z
#    x 3.961650 0.000000 0.117090 
#    y 0.000000 3.452550 0.000000 
#    z 0.117090 0.000000 4.004750 
# 
# 
# High freq. dielectric constant tensor:
#      x y z
#    x 1.843840 0.000000 0.008510 
#    y 0.000000 1.811870 0.000000 
#    z 0.008510 0.000000 1.840220 
# 
# From -- ./inp_files/35403.got.cif
#   From: 2010.03.12/outbox.cif.g09.slc.cpg/sg5_18_cif.got.tgz:35403.got - 2010.03.31 09:47:26.
