data_PCOD8050288
_publ_section_title
;
Structure prediction by ZEFSAII (Michael W. Deem and Ramdas Pophale) SiO2 
 PCOD8050288
Probable space group: C 2
;
_chemical_formula_sum "Si O2"
_cell_formula_units_Z 28
_cell_length_a 28.358515
_cell_length_b 7.853914
_cell_length_c 5.199123
_cell_angle_alpha 90.000000
_cell_angle_beta 115.621173
_cell_angle_gamma 90.000000
_cell_volume 1044.115839
_symmetry_space_group_name_H-M "C 2"
_symmetry_group_IT_number 5
_symmetry_cell_setting 'monoclinic'
loop_
_space_group_symop_operation_xyz
x,y,z
-x,y,-z
1/2+x,1/2+y,z
1/2-x,1/2+y,-z
loop_
_atom_site_type_symbol
_atom_site_label
_atom_site_fract_x
_atom_site_fract_y
_atom_site_fract_z
Si Si1 0.588849 0.658070 0.671590
Si Si2 0.447400 0.335642 0.729089
Si Si3 0.858488 0.944685 0.846318
Si Si4 0.951554 0.456895 0.706741
Si Si5 0.657794 0.997778 0.342529
Si Si6 0.195436 0.175994 0.641637
Si Si7 0.810133 0.685286 0.082250
O O1 0.563116 0.487780 0.492308
O O2 0.645814 0.705909 0.702866
O O3 0.551503 0.822441 0.540467
O O4 0.602445 0.605810 0.998054
O O5 0.397472 0.309202 0.802676
O O6 0.454811 0.151444 0.606178
O O7 0.500000 0.384366 0.000000
O O8 0.831873 0.872109 0.046611
O O9 0.812114 0.005848 0.548266
O O10 0.901200 0.431504 0.768296
O O11 0.000000 0.409390 0.000000
O O12 0.665087 0.060460 0.070248
O O13 0.698967 0.843637 0.471536
O O14 0.670568 0.144530 0.585635
O O15 0.247753 0.166438 0.932475
#
# Coordination Sequence:
#
# PCOD8050288 Si02
#       7
#     4   4   4   4   4   4   4
#     4  10  23  42  67 104 140 185 244 306 358 443
#     4  10  21  43  70 101 142 185 241 303 373 440
#     4  11  24  44  70 101 143 189 246 309 366 439
#     4  10  21  45  73 100 142 191 240 303 371 437
#     4  11  26  46  69 108 143 188 246 305 357 456
#     4  10  26  42  69  99 145 188 245 295 376 430
#     4  12  26  44  74 103 147 192 245 301 371 434
#
# _framework density 26.816946999999999
#
# number of rings (size 3 to 8) (size 9 to 14) (size 15 to 20)
#    0.000    1.429    1.429    2.143   10.000    0.571 
#    0.000    0.714    0.000    0.000    0.000    0.000 
#    0.000    0.000    0.000    0.000    0.000    0.000 
#
# Total GULP energy -173538.019411 kJ/mol
# GULP energy per Si atom -12395.572815 kJ/mol
# Density = 2.675591 g / cm^3
# Si number density = 26.816947 Si / 1000 Ang^3
#
#
#
# Elastic Constant Matrix: (Units=GPa)
#
#
# Indices 1 2 3 4 5 6 
#
# 1 65.3704 14.5728 33.4795 0.0000 35.4290 0.0000
# 2 14.5728 114.2203 34.9212 0.0000 19.6904 0.0000
# 3 33.4795 34.9212 94.2777 0.0000 44.0081 0.0000
# 4 0.0000 0.0000 0.0000 44.5053 0.0000 6.2765
# 5 35.4290 19.6904 44.0081 0.0000 46.4887 0.0000
# 6 0.0000 0.0000 0.0000 6.2765 0.0000 23.7268
#
#
#
# Elastic Compliance Matrix: (Units=1/GPa)
#
#
# Indices 1 2 3 4 5 6 
#
# 1 0.026063 0.000107 -0.000004 0.000000 -0.019904 0.000000
# 2 0.000107 0.009917 -0.003068 0.000000 -0.001377 0.000000
# 3 -0.000004 -0.003068 0.019954 0.000000 -0.017587 0.000000
# 4 0.000000 0.000000 0.000000 0.023340 0.000000 -0.006174
# 5 -0.019904 -0.001377 -0.017587 0.000000 0.053912 0.000000
# 6 0.000000 0.000000 0.000000 -0.006174 0.000000 0.043780
#
#
# Mechanical properties :
#
#
# Convention : Reuss Voigt Hill
#
# Bulk Modulus (GPa) = 19.99835 48.86840 34.43337
# Shear Modulus (GPa) = 25.05461 35.67049 30.36255
#
# Velocity S-wave (km/s) = 3.05992 3.65108 3.36849
# Velocity P-wave (km/s) = 4.46740 6.00303 5.29122
#
# Compressibility (1/GPa) = 0.05000413
#
# Stress axis : x y z
#
# Youngs Moduli (GPa) = 38.36826 100.83797 50.11427
#
# Poissons Ratio (x) = -0.01081 0.00020
# Poissons Ratio (y) = -0.00411 0.15377
# Poissons Ratio (z) = 0.00015 0.30942
#
# Static dielectric constant tensor:
#      x y z
#    x 4.644770 0.000000 0.319920 
#    y 0.000000 5.411040 0.000000 
#    z 0.319920 0.000000 4.779040 
# 
# 
# High freq. dielectric constant tensor:
#      x y z
#    x 2.058660 0.000000 0.026280 
#    y 0.000000 2.098150 0.000000 
#    z 0.026280 0.000000 2.078760 
# 
# From -- ./inp_files/11280.got.cif
#   From: 2010.03.12/outbox.cif.g09.slc.cpg/sg5_6_cif.got.tgz:11280.got - 2010.03.31 09:47:26.
