data_PCOD8050686
_publ_section_title
;
Structure prediction by ZEFSAII (Michael W. Deem and Ramdas Pophale) SiO2 
 PCOD8050686
Probable space group: C 2
;
_chemical_formula_sum "Si O2"
_cell_formula_units_Z 32
_cell_length_a 22.786321
_cell_length_b 16.152093
_cell_length_c 7.870939
_cell_angle_alpha 90.000000
_cell_angle_beta 149.683139
_cell_angle_gamma 90.000000
_cell_volume 1462.288790
_symmetry_space_group_name_H-M "C 2"
_symmetry_group_IT_number 5
_symmetry_cell_setting 'monoclinic'
loop_
_space_group_symop_operation_xyz
x,y,z
-x,y,-z
1/2+x,1/2+y,z
1/2-x,1/2+y,-z
loop_
_atom_site_type_symbol
_atom_site_label
_atom_site_fract_x
_atom_site_fract_y
_atom_site_fract_z
Si Si1 0.373523 0.329720 0.630579
Si Si2 0.661534 0.898864 0.653017
Si Si3 0.794058 0.474240 0.884710
Si Si4 0.208478 0.148956 0.731137
Si Si5 0.373093 0.282945 0.253131
Si Si6 0.371153 0.031910 0.719215
Si Si7 0.491755 0.754255 0.665448
Si Si8 0.728290 0.692677 0.407074
O O1 0.294232 0.409752 0.417491
O O2 0.377766 0.279686 0.466779
O O3 0.324098 0.265704 0.647268
O O4 0.500000 0.361059 0.000000
O O5 0.560587 0.831312 0.357194
O O6 0.665595 0.961632 0.506219
O O7 0.637061 0.939715 0.778295
O O8 0.786574 0.854140 0.970340
O O9 0.720838 0.551063 0.774807
O O10 0.874761 0.501159 0.926189
O O11 0.097395 0.176936 0.562798
O O12 0.178705 0.177987 0.468153
O O13 0.328692 0.192095 0.088768
O O14 0.500000 0.302052 0.500000
O O15 0.282178 0.107527 0.469806
O O16 0.500000 0.063914 0.000000
O O17 0.500000 0.791856 0.500000
O O18 0.619259 0.724293 0.028832
#
# Coordination Sequence:
#
# PCOD8050686 Si02
#       8
#     4   4   4   4   4   4   4   4
#     4  11  24  41  69  93 136 178 227 289 344 416
#     4  10  25  44  69 100 141 179 231 289 348 409
#     4  10  25  46  65 105 136 177 233 288 349 416
#     4  10  23  44  67 100 135 181 227 284 353 412
#     4  10  22  42  65 100 130 180 228 275 352 413
#     4  11  27  43  71 102 137 184 230 286 357 411
#     4  11  24  42  71 102 136 182 238 282 351 424
#     4  11  24  45  66  98 137 179 235 279 354 421
#
# _framework density 21.883503000000001
#
# number of rings (size 3 to 8) (size 9 to 14) (size 15 to 20)
#    0.000    1.500    0.000    3.750   12.250    3.000 
#    2.250    0.000    0.000    0.000    0.000    0.000 
#    0.000    0.000    0.000    0.000    0.000    0.000 
#
# Total GULP energy -198386.883480 kJ/mol
# GULP energy per Si atom -12399.180217 kJ/mol
# Density = 2.183369 g / cm^3
# Si number density = 21.883503 Si / 1000 Ang^3
#
#
#
# Elastic Constant Matrix: (Units=GPa)
#
#
# Indices 1 2 3 4 5 6 
#
# 1 67.5145 33.9971 25.4138 0.0000 13.8095 0.0000
# 2 33.9971 125.9174 23.0272 0.0000 4.2348 0.0000
# 3 25.4138 23.0272 89.1163 0.0000 8.9921 0.0000
# 4 0.0000 0.0000 0.0000 19.4491 0.0000 -3.1507
# 5 13.8095 4.2348 8.9921 0.0000 37.6159 0.0000
# 6 0.0000 0.0000 0.0000 -3.1507 0.0000 35.0365
#
#
#
# Elastic Compliance Matrix: (Units=1/GPa)
#
#
# Indices 1 2 3 4 5 6 
#
# 1 0.019681 -0.004408 -0.003888 0.000000 -0.005800 0.000000
# 2 -0.004408 0.009330 -0.001241 0.000000 0.000864 0.000000
# 3 -0.003888 -0.001241 0.012801 0.000000 -0.001493 0.000000
# 4 0.000000 0.000000 0.000000 0.052176 0.000000 0.004692
# 5 -0.005800 0.000864 -0.001493 0.000000 0.028973 0.000000
# 6 0.000000 0.000000 0.000000 0.004692 0.000000 0.028964
#
#
# Mechanical properties :
#
#
# Convention : Reuss Voigt Hill
#
# Bulk Modulus (GPa) = 43.97927 49.71381 46.84654
# Shear Modulus (GPa) = 27.99885 31.76099 29.87992
#
# Velocity S-wave (km/s) = 3.58082 3.81381 3.69915
# Velocity P-wave (km/s) = 6.10221 6.49310 6.30069
#
# Compressibility (1/GPa) = 0.02273799
#
# Stress axis : x y z
#
# Youngs Moduli (GPa) = 50.81033 107.18542 78.11588
#
# Poissons Ratio (x) = 0.47243 0.30375
# Poissons Ratio (y) = 0.22395 0.09694
# Poissons Ratio (z) = 0.19757 0.13302
#
# Static dielectric constant tensor:
#      x y z
#    x 4.146210 0.000000 -0.005400 
#    y 0.000000 3.990570 0.000000 
#    z -0.005400 0.000000 3.885390 
# 
# 
# High freq. dielectric constant tensor:
#      x y z
#    x 1.873510 0.000000 -0.000180 
#    y 0.000000 1.865850 0.000000 
#    z -0.000180 0.000000 1.857660 
# 
# From -- ./inp_files/31084.got.cif
#   From: 2010.03.12/outbox.cif.g09.slc.cpg/sg5_16_cif.got.tgz:31084.got - 2010.03.31 09:47:26.
