data_PCOD8050706
_publ_section_title
;
Structure prediction by ZEFSAII (Michael W. Deem and Ramdas Pophale) SiO2 
 PCOD8050706
Probable space group: C 2
;
_chemical_formula_sum "Si O2"
_cell_formula_units_Z 32
_cell_length_a 23.840118
_cell_length_b 7.922652
_cell_length_c 7.913351
_cell_angle_alpha 90.000000
_cell_angle_beta 83.442834
_cell_angle_gamma 90.000000
_cell_volume 1484.872290
_symmetry_space_group_name_H-M "C 2"
_symmetry_group_IT_number 5
_symmetry_cell_setting 'monoclinic'
loop_
_space_group_symop_operation_xyz
x,y,z
-x,y,-z
1/2+x,1/2+y,z
1/2-x,1/2+y,-z
loop_
_atom_site_type_symbol
_atom_site_label
_atom_site_fract_x
_atom_site_fract_y
_atom_site_fract_z
Si Si1 0.997262 0.354290 0.806975
Si Si2 0.504729 0.488332 0.301566
Si Si3 0.875112 0.444281 0.835778
Si Si4 0.163590 0.491450 0.793473
Si Si5 0.187607 0.319000 0.461519
Si Si6 0.718682 0.464778 0.372000
Si Si7 0.431583 0.169525 0.328151
Si Si8 0.110545 0.789593 0.294903
O O1 0.032606 0.493933 0.690531
O O2 0.932368 0.347850 0.768813
O O3 0.017450 0.159755 0.779842
O O4 0.000000 0.410806 0.000000
O O5 0.500000 0.521780 0.500000
O O6 0.467358 0.329895 0.250366
O O7 0.570439 0.440495 0.242001
O O8 0.829466 0.407796 0.706797
O O9 0.887563 0.643655 0.845565
O O10 0.851952 0.392774 0.029107
O O11 0.149079 0.373297 0.634725
O O12 0.231003 0.530672 0.770828
O O13 0.123777 0.654592 0.773601
O O14 0.253093 0.368090 0.478432
O O15 0.181471 0.119317 0.450299
O O16 0.675393 0.344674 0.291397
O O17 0.414061 0.204634 0.526639
#
# Coordination Sequence:
#
# PCOD8050706 Si02
#       8
#     4   4   4   4   4   4   4   4
#     4  12  26  42  67 100 142 182 229 293 356 423
#     4  10  25  40  70 105 128 181 235 282 354 422
#     4  12  23  41  70  97 138 184 229 286 358 417
#     4  10  24  40  69  99 133 186 228 275 356 410
#     4  10  22  42  67  92 136 177 229 288 340 417
#     4  10  22  45  67  99 138 177 233 291 349 406
#     4  11  22  46  66  99 139 180 229 289 353 411
#     4  11  22  42  72 100 133 182 231 291 351 416
#
# _framework density 21.550677
#
# number of rings (size 3 to 8) (size 9 to 14) (size 15 to 20)
#    0.750    0.500    3.750    2.250    1.750    4.500 
#    0.000    0.000    2.750    0.000    0.000    0.000 
#    0.000    0.000    0.000    0.000    0.000    0.000 
#
# Total GULP energy -198295.760068 kJ/mol
# GULP energy per Si atom -12393.485004 kJ/mol
# Density = 2.150163 g / cm^3
# Si number density = 21.550677 Si / 1000 Ang^3
#
#
#
# Elastic Constant Matrix: (Units=GPa)
#
#
# Indices 1 2 3 4 5 6 
#
# 1 126.9347 38.4218 22.0684 0.0000 -3.7929 0.0000
# 2 38.4218 126.0997 21.1021 0.0000 -4.5861 0.0000
# 3 22.0684 21.1021 87.9866 0.0000 -5.8864 0.0000
# 4 0.0000 0.0000 0.0000 19.7638 0.0000 3.7638
# 5 -3.7929 -4.5861 -5.8864 0.0000 18.2923 0.0000
# 6 0.0000 0.0000 0.0000 3.7638 0.0000 33.5135
#
#
#
# Elastic Compliance Matrix: (Units=1/GPa)
#
#
# Indices 1 2 3 4 5 6 
#
# 1 0.008912 -0.002420 -0.001606 0.000000 0.000724 0.000000
# 2 -0.002420 0.008958 -0.001456 0.000000 0.001275 0.000000
# 3 -0.001606 -0.001456 0.012336 0.000000 0.003272 0.000000
# 4 0.000000 0.000000 0.000000 0.051703 0.000000 -0.005807
# 5 0.000724 0.001275 0.003272 0.000000 0.056190 0.000000
# 6 0.000000 0.000000 0.000000 -0.005807 0.000000 0.030491
#
#
# Mechanical properties :
#
#
# Convention : Reuss Voigt Hill
#
# Bulk Modulus (GPa) = 51.97325 56.02285 53.99805
# Shear Modulus (GPa) = 26.88628 31.60918 29.24773
#
# Velocity S-wave (km/s) = 3.53595 3.83396 3.68796
# Velocity P-wave (km/s) = 6.39059 6.75657 6.57613
#
# Compressibility (1/GPa) = 0.01924067
#
# Stress axis : x y z
#
# Youngs Moduli (GPa) = 112.21429 111.63605 81.06148
#
# Poissons Ratio (x) = 0.27018 0.13021
# Poissons Ratio (y) = 0.27158 0.11803
# Poissons Ratio (z) = 0.18025 0.16254
#
# Static dielectric constant tensor:
#      x y z
#    x 3.995990 0.000000 -0.008140 
#    y 0.000000 3.792270 0.000000 
#    z -0.008140 0.000000 3.611620 
# 
# 
# High freq. dielectric constant tensor:
#      x y z
#    x 1.854070 0.000000 0.004150 
#    y 0.000000 1.839890 0.000000 
#    z 0.004150 0.000000 1.826210 
# 
# From -- ./inp_files/30572.got.cif
#   From: 2010.03.12/outbox.cif.g09.slc.cpg/sg5_16_cif.got.tgz:30572.got - 2010.03.31 09:47:26.
