data_PCOD8050491
_publ_section_title
;
Structure prediction by ZEFSAII (Michael W. Deem and Ramdas Pophale) SiO2 
 PCOD8050491
Probable space group: C 2
;
_chemical_formula_sum "Si O2"
_cell_formula_units_Z 28
_cell_length_a 14.327126
_cell_length_b 12.785952
_cell_length_c 8.249126
_cell_angle_alpha 90.000000
_cell_angle_beta 119.264481
_cell_angle_gamma 90.000000
_cell_volume 1318.262950
_symmetry_space_group_name_H-M "C 2"
_symmetry_group_IT_number 5
_symmetry_cell_setting 'monoclinic'
loop_
_space_group_symop_operation_xyz
x,y,z
-x,y,-z
1/2+x,1/2+y,z
1/2-x,1/2+y,-z
loop_
_atom_site_type_symbol
_atom_site_label
_atom_site_fract_x
_atom_site_fract_y
_atom_site_fract_z
Si Si1 0.000000 0.667450 0.500000
Si Si2 0.847339 0.140320 0.632805
Si Si3 0.456374 0.829427 0.637297
Si Si4 0.000000 0.666179 0.000000
Si Si5 0.122307 0.547367 0.346764
Si Si6 0.359783 0.718443 0.008384
Si Si7 0.538667 0.507559 0.852508
Si Si8 0.125537 0.790486 0.838592
O O1 0.028918 0.592337 0.378440
O O2 0.097916 0.741626 0.639398
O O3 0.875065 0.233034 0.529957
O O4 0.733255 0.089575 0.509634
O O5 0.864021 0.201921 0.817947
O O6 0.930201 0.045547 0.672844
O O7 0.500000 0.866521 0.500000
O O8 0.548125 0.794634 0.843296
O O9 0.386213 0.922241 0.657913
O O10 0.950360 0.740384 0.092172
O O11 0.096514 0.592264 0.146733
O O12 0.374818 0.600958 0.087460
O O13 0.249829 0.769505 0.977509
O O14 0.597732 0.413093 0.812305
O O15 0.500000 0.477288 0.000000
#
# Coordination Sequence:
#
# PCOD8050491 Si02
#       8
#     2   4   4   2   4   4   4   4
#     4  10  22  40  60  98 130 168 220 278 326 404
#     4  10  23  46  68  94 132 176 224 270 329 403
#     4  11  25  43  69  99 135 173 227 270 329 405
#     4  10  26  36  64 102 140 158 236 284 320 406
#     4  11  23  44  65  95 135 182 213 279 339 387
#     4  10  23  43  69  94 133 175 223 271 333 399
#     4   9  20  41  65  91 124 170 218 263 325 400
#     4  11  21  42  63  94 129 174 217 278 334 387
#
# _framework density 21.240071
#
# number of rings (size 3 to 8) (size 9 to 14) (size 15 to 20)
#    0.000    1.714    2.857    1.286    4.000    6.857 
#    5.143    0.000    0.000    0.000    0.000    0.000 
#    0.000    0.000    0.000    0.000    0.000    0.000 
#
# Total GULP energy -173511.470862 kJ/mol
# GULP energy per Si atom -12393.676490 kJ/mol
# Density = 2.119173 g / cm^3
# Si number density = 21.240071 Si / 1000 Ang^3
#
#
#
# Elastic Constant Matrix: (Units=GPa)
#
#
# Indices 1 2 3 4 5 6 
#
# 1 73.2841 38.6845 17.1623 0.0000 27.9647 0.0000
# 2 38.6845 135.7413 39.4495 0.0000 22.5101 0.0000
# 3 17.1623 39.4495 92.3060 0.0000 23.4700 0.0000
# 4 0.0000 0.0000 0.0000 21.7608 0.0000 3.1088
# 5 27.9647 22.5101 23.4700 0.0000 32.5766 0.0000
# 6 0.0000 0.0000 0.0000 3.1088 0.0000 41.0494
#
#
#
# Elastic Compliance Matrix: (Units=1/GPa)
#
#
# Indices 1 2 3 4 5 6 
#
# 1 0.021968 -0.003942 0.002084 0.000000 -0.017636 0.000000
# 2 -0.003942 0.009555 -0.003100 0.000000 -0.000985 0.000000
# 3 0.002084 -0.003100 0.014301 0.000000 -0.009950 0.000000
# 4 0.000000 0.000000 0.000000 0.046457 0.000000 -0.003518
# 5 -0.017636 -0.000985 -0.009950 0.000000 0.053685 0.000000
# 6 0.000000 0.000000 0.000000 -0.003518 0.000000 0.024627
#
#
# Mechanical properties :
#
#
# Convention : Reuss Voigt Hill
#
# Bulk Modulus (GPa) = 27.84880 54.65820 41.25350
# Shear Modulus (GPa) = 25.97712 32.81305 29.39508
#
# Velocity S-wave (km/s) = 3.50097 3.93474 3.72418
# Velocity P-wave (km/s) = 5.42976 6.81413 6.16095
#
# Compressibility (1/GPa) = 0.03590819
#
# Stress axis : x y z
#
# Youngs Moduli (GPa) = 45.52120 104.66176 69.92571
#
# Poissons Ratio (x) = 0.41255 -0.14574
# Poissons Ratio (y) = 0.17943 0.21678
# Poissons Ratio (z) = -0.09488 0.32446
#
# Static dielectric constant tensor:
#      x y z
#    x 3.663970 0.000000 0.032150 
#    y 0.000000 3.929380 0.000000 
#    z 0.032150 0.000000 3.964980 
# 
# 
# High freq. dielectric constant tensor:
#      x y z
#    x 1.823700 0.000000 0.005750 
#    y 0.000000 1.842170 0.000000 
#    z 0.005750 0.000000 1.827620 
# 
# From -- ./inp_files/23566.got.cif
#   From: 2010.03.12/outbox.cif.g09.slc.cpg/sg5_12_cif.got.tgz:23566.got - 2010.03.31 09:47:26.
