data_PCOD8050333
_publ_section_title
;
Structure prediction by ZEFSAII (Michael W. Deem and Ramdas Pophale) SiO2 
 PCOD8050333
Probable space group: C 2
;
_chemical_formula_sum "Si O2"
_cell_formula_units_Z 30
_cell_length_a 9.469341
_cell_length_b 10.601656
_cell_length_c 19.257022
_cell_angle_alpha 90.000000
_cell_angle_beta 49.637650
_cell_angle_gamma 90.000000
_cell_volume 1473.048557
_symmetry_space_group_name_H-M "C 2"
_symmetry_group_IT_number 5
_symmetry_cell_setting 'monoclinic'
loop_
_space_group_symop_operation_xyz
x,y,z
-x,y,-z
1/2+x,1/2+y,z
1/2-x,1/2+y,-z
loop_
_atom_site_type_symbol
_atom_site_label
_atom_site_fract_x
_atom_site_fract_y
_atom_site_fract_z
Si Si1 0.021712 0.581720 0.913596
Si Si2 0.703987 0.622114 0.910238
Si Si3 0.833974 0.988653 0.217198
Si Si4 0.821257 0.229222 0.740167
Si Si5 0.490666 0.500886 0.369862
Si Si6 0.173682 0.884472 0.186077
Si Si7 0.705273 0.673327 0.659129
Si Si8 0.500000 0.356815 0.500000
O O1 0.142787 0.692606 0.841611
O O2 0.123134 0.446639 0.876627
O O3 0.824730 0.571028 0.936490
O O4 0.000000 0.621437 0.000000
O O5 0.682153 0.511008 0.860112
O O6 0.810076 0.741188 0.843238
O O7 0.500000 0.662778 0.000000
O O8 0.718214 0.866124 0.279305
O O9 0.046797 0.967545 0.173720
O O10 0.744469 0.112606 0.282493
O O11 0.003740 0.239624 0.730748
O O12 0.862398 0.119156 0.669239
O O13 0.584569 0.392368 0.291800
O O14 0.306814 0.555988 0.391337
O O15 0.421234 0.446921 0.465029
O O16 0.845963 0.774518 0.585695
#
# Coordination Sequence:
#
# PCOD8050333 Si02
#       8
#     4   4   4   4   4   4   4   2
#     4  11  22  43  64  90 135 170 207 272 317 366
#     4  12  26  36  62 102 119 170 225 259 320 375
#     4  11  21  43  65  92 125 167 225 254 312 398
#     4   9  21  43  63  90 124 174 207 255 329 364
#     4   8  21  41  61  94 124 163 213 256 321 383
#     4  10  21  46  63  86 133 170 206 272 321 373
#     4   9  23  41  63  95 127 169 207 267 317 379
#     4  12  20  42  64  98 130 162 214 260 320 388
#
# _framework density 20.365926000000002
#
# number of rings (size 3 to 8) (size 9 to 14) (size 15 to 20)
#    0.800    1.067    2.667    2.000    0.000    4.800 
#    7.200    0.000    0.000    0.000    0.000    0.000 
#    0.000    0.000    0.000    0.000    0.000    0.000 
#
# Total GULP energy -185869.131954 kJ/mol
# GULP energy per Si atom -12391.275464 kJ/mol
# Density = 2.031957 g / cm^3
# Si number density = 20.365926 Si / 1000 Ang^3
#
#
#
# Elastic Constant Matrix: (Units=GPa)
#
#
# Indices 1 2 3 4 5 6 
#
# 1 109.8440 26.3200 39.7938 0.0000 13.2566 0.0000
# 2 26.3200 78.1456 25.6765 0.0000 5.3652 0.0000
# 3 39.7938 25.6765 74.2260 0.0000 18.5365 0.0000
# 4 0.0000 0.0000 0.0000 25.6542 0.0000 -1.6246
# 5 13.2566 5.3652 18.5365 0.0000 26.6733 0.0000
# 6 0.0000 0.0000 0.0000 -1.6246 0.0000 24.6014
#
#
#
# Elastic Compliance Matrix: (Units=1/GPa)
#
#
# Indices 1 2 3 4 5 6 
#
# 1 0.011672 -0.002144 -0.005052 0.000000 -0.001859 0.000000
# 2 -0.002144 0.014842 -0.004241 0.000000 0.001028 0.000000
# 3 -0.005052 -0.004241 0.020337 0.000000 -0.010769 0.000000
# 4 0.000000 0.000000 0.000000 0.039144 0.000000 0.002585
# 5 -0.001859 0.001028 -0.010769 0.000000 0.045692 0.000000
# 6 0.000000 0.000000 0.000000 0.002585 0.000000 0.040819
#
#
# Mechanical properties :
#
#
# Convention : Reuss Voigt Hill
#
# Bulk Modulus (GPa) = 41.70612 49.53291 45.61951
# Shear Modulus (GPa) = 24.58554 26.74748 25.66651
#
# Velocity S-wave (km/s) = 3.47823 3.62794 3.55388
# Velocity P-wave (km/s) = 6.05423 6.47484 6.26806
#
# Compressibility (1/GPa) = 0.02397730
#
# Stress axis : x y z
#
# Youngs Moduli (GPa) = 85.67549 67.37767 49.17067
#
# Poissons Ratio (x) = 0.14444 0.24839
# Poissons Ratio (y) = 0.18366 0.20855
# Poissons Ratio (z) = 0.43281 0.28578
#
# Static dielectric constant tensor:
#      x y z
#    x 3.681390 0.000000 0.052810 
#    y 0.000000 3.579510 0.000000 
#    z 0.052810 0.000000 3.505180 
# 
# 
# High freq. dielectric constant tensor:
#      x y z
#    x 1.789130 0.000000 0.002650 
#    y 0.000000 1.796880 0.000000 
#    z 0.002650 0.000000 1.776220 
# 
# From -- ./inp_files/59572.got.cif
#   From: 2010.03.12/outbox.cif.g09.slc.cpg/sg5_30_cif.got.tgz:59572.got - 2010.03.31 09:47:26.
