data_PCOD8050162
_publ_section_title
;
Structure prediction by ZEFSAII (Michael W. Deem and Ramdas Pophale) SiO2 
 PCOD8050162
Probable space group: C 2
;
_chemical_formula_sum "Si O2"
_cell_formula_units_Z 20
_cell_length_a 7.843796
_cell_length_b 25.070366
_cell_length_c 8.882548
_cell_angle_alpha 90.000000
_cell_angle_beta 146.355791
_cell_angle_gamma 90.000000
_cell_volume 967.745124
_symmetry_space_group_name_H-M "C 2"
_symmetry_group_IT_number 5
_symmetry_cell_setting 'monoclinic'
loop_
_space_group_symop_operation_xyz
x,y,z
-x,y,-z
1/2+x,1/2+y,z
1/2-x,1/2+y,-z
loop_
_atom_site_type_symbol
_atom_site_label
_atom_site_fract_x
_atom_site_fract_y
_atom_site_fract_z
Si Si1 0.202133 0.454150 0.001914
Si Si2 0.195671 0.514797 0.504843
Si Si3 0.344944 0.345257 0.232100
Si Si4 0.362124 0.262108 0.752109
Si Si5 0.000000 0.091272 0.500000
Si Si6 0.500000 0.161455 0.000000
O O1 0.477893 0.495858 0.193336
O O2 0.333544 0.393947 0.104208
O O3 0.000000 0.465702 0.000000
O O4 0.989871 0.463993 0.699786
O O5 0.251793 0.557664 0.413794
O O6 0.000000 0.539390 0.500000
O O7 0.500000 0.366772 0.500000
O O8 0.548739 0.295440 0.328884
O O9 0.000000 0.323851 0.000000
O O10 0.508519 0.201699 0.860082
O O11 0.000000 0.257388 0.500000
O O12 0.500000 0.292839 0.000000
O O13 0.193646 0.125902 0.762600
#
# Coordination Sequence:
#
# PCOD8050162 Si02
#       6
#     4   4   4   4   2   2
#     4  11  21  42  61  92 135 181 210 260 327 393
#     4  12  25  41  66  98 129 171 223 271 322 391
#     4  11  23  38  64  96 135 174 212 257 329 384
#     4  10  21  41  64  91 125 164 223 265 311 392
#     4  12  22  44  70  90 132 180 206 290 330 374
#     4  10  22  42  70  88 122 178 222 258 346 378
#
# _framework density 20.666598
#
# number of rings (size 3 to 8) (size 9 to 14) (size 15 to 20)
#    0.600    0.400    3.000    5.400    0.000    2.400 
#    0.000    3.000    0.000    0.000    0.000    0.000 
#    0.000    0.000    0.000    0.000    0.000    0.000 
#
# Total GULP energy -123943.533358 kJ/mol
# GULP energy per Si atom -12394.353336 kJ/mol
# Density = 2.061956 g / cm^3
# Si number density = 20.666598 Si / 1000 Ang^3
#
#
#
# Elastic Constant Matrix: (Units=GPa)
#
#
# Indices 1 2 3 4 5 6 
#
# 1 108.2528 47.2846 23.7701 0.0000 9.2356 0.0000
# 2 47.2846 110.9677 33.8656 0.0000 6.1067 0.0000
# 3 23.7701 33.8656 122.3318 0.0000 12.5996 0.0000
# 4 0.0000 0.0000 0.0000 2277.1483 0.0000 593.4751
# 5 9.2356 6.1067 12.5996 0.0000 31.2216 0.0000
# 6 0.0000 0.0000 0.0000 593.4751 0.0000 175.8454
#
#
#
# Elastic Compliance Matrix: (Units=1/GPa)
#
#
# Indices 1 2 3 4 5 6 
#
# 1 0.011598 -0.004589 -0.000753 0.000000 -0.002229 0.000000
# 2 -0.004589 0.011682 -0.002344 0.000000 0.000019 0.000000
# 3 -0.000753 -0.002344 0.009286 0.000000 -0.003066 0.000000
# 4 0.000000 0.000000 0.000000 0.003647 0.000000 -0.012309
# 5 -0.002229 0.000019 -0.003066 0.000000 0.033922 0.000000
# 6 0.000000 0.000000 0.000000 -0.012309 0.000000 0.047231
#
#
# Mechanical properties :
#
#
# Convention : Reuss Voigt Hill
#
# Bulk Modulus (GPa) = 58.16917 61.26586 59.71751
# Shear Modulus (GPa) = 36.10913 512.61854 274.36384
#
# Velocity S-wave (km/s) = 4.18451 15.76644 11.53453
# Velocity P-wave (km/s) = 7.18014 19.00395 14.36496
#
# Compressibility (1/GPa) = 0.01719124
#
# Stress axis : x y z
#
# Youngs Moduli (GPa) = 86.22261 85.60510 107.69392
#
# Poissons Ratio (x) = 0.39287 0.08115
# Poissons Ratio (y) = 0.39571 0.25244
# Poissons Ratio (z) = 0.06497 0.20066
#
# Static dielectric constant tensor:
#      x y z
#    x -10.325190 0.000000 5.509430 
#    y 0.000000 3.671790 0.000000 
#    z 5.509430 0.000000 1.836540 
# 
# 
# High freq. dielectric constant tensor:
#      x y z
#    x 1.775070 0.000000 0.014560 
#    y 0.000000 1.796330 0.000000 
#    z 0.014560 0.000000 1.835350 
# 
# From -- ./inp_files/17594.got.cif
#   From: 2010.03.12/outbox.cif.g09.slc.cpg/sg5_9_cif.got.tgz:17594.got - 2010.03.31 09:47:26.
