data_PCOD8050289
_publ_section_title
;
Structure prediction by ZEFSAII (Michael W. Deem and Ramdas Pophale) SiO2 
 PCOD8050289
Probable space group: C 2
;
_chemical_formula_sum "Si O2"
_cell_formula_units_Z 32
_cell_length_a 10.999166
_cell_length_b 8.747997
_cell_length_c 19.752433
_cell_angle_alpha 90.000000
_cell_angle_beta 129.084365
_cell_angle_gamma 90.000000
_cell_volume 1475.274910
_symmetry_space_group_name_H-M "C 2"
_symmetry_group_IT_number 5
_symmetry_cell_setting 'monoclinic'
loop_
_space_group_symop_operation_xyz
x,y,z
-x,y,-z
1/2+x,1/2+y,z
1/2-x,1/2+y,-z
loop_
_atom_site_type_symbol
_atom_site_label
_atom_site_fract_x
_atom_site_fract_y
_atom_site_fract_z
Si Si1 0.152354 0.998210 0.013342
Si Si2 0.376632 0.670499 0.256271
Si Si3 0.941988 0.762601 0.406161
Si Si4 0.850256 0.445054 0.753078
Si Si5 0.333927 0.953173 0.320967
Si Si6 0.443171 0.381109 0.684608
Si Si7 0.140262 0.617549 0.799612
Si Si8 0.111462 0.247675 0.892172
O O1 0.255261 0.853489 0.026823
O O2 0.254831 0.109817 0.097008
O O3 0.000000 0.941284 0.000000
O O4 0.101857 0.088840 0.928459
O O5 0.225589 0.580573 0.230303
O O6 0.429546 0.810201 0.323510
O O7 0.526838 0.561864 0.306307
O O8 0.335569 0.728993 0.167009
O O9 0.778354 0.850002 0.334563
O O10 0.929845 0.576916 0.398767
O O11 0.073814 0.815652 0.397736
O O12 0.000000 0.812015 0.500000
O O13 0.978068 0.521021 0.748185
O O14 0.941128 0.328714 0.835661
O O15 0.208897 0.863580 0.323175
O O16 0.265694 0.048855 0.232450
O O17 0.593553 0.293984 0.770050
#
# Coordination Sequence:
#
# PCOD8050289 Si02
#       8
#     4   4   4   4   4   4   4   4
#     4  11  27  40  61  94 133 176 223 286 325 381
#     4  11  22  38  69  94 125 176 226 265 329 401
#     4  10  24  46  68 103 138 168 216 279 336 403
#     4  10  21  43  70  93 132 177 217 278 332 406
#     4  11  21  41  68  98 127 172 222 263 332 401
#     4  10  23  40  71  96 124 178 211 271 334 403
#     4  10  22  42  64  95 131 174 228 270 332 397
#     4  11  26  42  61  98 130 178 226 278 331 390
#
# _framework density 21.690874000000001
#
# number of rings (size 3 to 8) (size 9 to 14) (size 15 to 20)
#    0.000    1.500    3.750    0.750    8.750    2.000 
#    4.500    2.500    0.000    0.000    0.000    0.000 
#    0.000    0.000    0.000    0.000    0.000    0.000 
#
# Total GULP energy -198314.814169 kJ/mol
# GULP energy per Si atom -12394.675886 kJ/mol
# Density = 2.164150 g / cm^3
# Si number density = 21.690874 Si / 1000 Ang^3
#
#
#
# Elastic Constant Matrix: (Units=GPa)
#
#
# Indices 1 2 3 4 5 6 
#
# 1 83.0807 14.9676 24.0776 0.0000 -13.8599 0.0000
# 2 14.9676 98.0070 19.3110 0.0000 -0.4609 0.0000
# 3 24.0776 19.3110 66.8465 0.0000 -5.8474 0.0000
# 4 0.0000 0.0000 0.0000 26.2681 0.0000 -2.2701
# 5 -13.8599 -0.4609 -5.8474 0.0000 24.1743 0.0000
# 6 0.0000 0.0000 0.0000 -2.2701 0.0000 34.0277
#
#
#
# Elastic Compliance Matrix: (Units=1/GPa)
#
#
# Indices 1 2 3 4 5 6 
#
# 1 0.014757 -0.001378 -0.004270 0.000000 0.007401 0.000000
# 2 -0.001378 0.010955 -0.002778 0.000000 -0.001253 0.000000
# 3 -0.004270 -0.002778 0.017451 0.000000 0.001720 0.000000
# 4 0.000000 0.000000 0.000000 0.038290 0.000000 0.002554
# 5 0.007401 -0.001253 0.001720 0.000000 0.046002 0.000000
# 6 0.000000 0.000000 0.000000 0.002554 0.000000 0.029558
#
#
# Mechanical properties :
#
#
# Convention : Reuss Voigt Hill
#
# Bulk Modulus (GPa) = 38.00627 40.51628 39.26128
# Shear Modulus (GPa) = 27.37707 29.53255 28.45481
#
# Velocity S-wave (km/s) = 3.55652 3.69388 3.62585
# Velocity P-wave (km/s) = 5.86728 6.07557 5.97233
#
# Compressibility (1/GPa) = 0.02631145
#
# Stress axis : x y z
#
# Youngs Moduli (GPa) = 67.76498 91.28041 57.30429
#
# Poissons Ratio (x) = 0.12574 0.24469
# Poissons Ratio (y) = 0.09335 0.15920
# Poissons Ratio (z) = 0.28935 0.25360
#
# Static dielectric constant tensor:
#      x y z
#    x 4.017370 0.000000 -0.161330 
#    y 0.000000 4.158110 0.000000 
#    z -0.161330 0.000000 3.472560 
# 
# 
# High freq. dielectric constant tensor:
#      x y z
#    x 1.863210 0.000000 -0.016060 
#    y 0.000000 1.871340 0.000000 
#    z -0.016060 0.000000 1.809240 
# 
# From -- ./inp_files/65148.got.cif
#   From: 2010.03.12/outbox.cif.g09.slc.cpg/sg5_33_cif.got.tgz:65148.got - 2010.03.31 09:47:26.
