data_PCOD8050229
_publ_section_title
;
Structure prediction by ZEFSAII (Michael W. Deem and Ramdas Pophale) SiO2 
 PCOD8050229
Probable space group: C 2
;
_chemical_formula_sum "Si O2"
_cell_formula_units_Z 22
_cell_length_a 11.409961
_cell_length_b 9.205270
_cell_length_c 11.512675
_cell_angle_alpha 90.000000
_cell_angle_beta 63.310958
_cell_angle_gamma 90.000000
_cell_volume 1080.365583
_symmetry_space_group_name_H-M "C 2"
_symmetry_group_IT_number 5
_symmetry_cell_setting 'monoclinic'
loop_
_space_group_symop_operation_xyz
x,y,z
-x,y,-z
1/2+x,1/2+y,z
1/2-x,1/2+y,-z
loop_
_atom_site_type_symbol
_atom_site_label
_atom_site_fract_x
_atom_site_fract_y
_atom_site_fract_z
Si Si1 0.565880 0.575240 0.852739
Si Si2 0.233997 0.814524 0.681768
Si Si3 0.000000 0.440371 0.500000
Si Si4 0.507327 0.217087 0.625308
Si Si5 0.293637 0.621082 0.873502
Si Si6 0.253788 0.294733 0.876479
O O1 0.671909 0.462490 0.758408
O O2 0.452153 0.606550 0.809534
O O3 0.640293 0.726255 0.846689
O O4 0.500000 0.512358 0.000000
O O5 0.372064 0.841269 0.558026
O O6 0.146591 0.748743 0.619461
O O7 0.252117 0.697329 0.774015
O O8 0.004483 0.542184 0.382626
O O9 0.500000 0.290216 0.500000
O O10 0.395140 0.281977 0.755468
O O11 0.223681 0.464173 0.909294
O O12 0.238574 0.714361 0.004190
#
# Coordination Sequence:
#
# PCOD8050229 Si02
#       6
#     4   4   2   4   4   4
#     4  10  21  42  66 100 140 168 212 279 331 394
#     4  12  24  44  71  98 129 182 224 276 332 393
#     4  10  26  46  64  96 134 180 222 276 322 404
#     4  10  24  44  67  93 135 180 217 279 324 392
#     4  11  25  40  71 104 131 175 220 277 336 394
#     4  11  22  45  67 101 140 172 217 276 336 392
#
# _framework density 20.363475999999999
#
# number of rings (size 3 to 8) (size 9 to 14) (size 15 to 20)
#    0.545    0.727    3.636    2.182    0.000    5.818 
#    8.182    0.000    0.000    0.000    0.000    0.000 
#    0.000    0.000    0.000    0.000    0.000    0.000 
#
# Total GULP energy -136419.372151 kJ/mol
# GULP energy per Si atom -12401.761105 kJ/mol
# Density = 2.031713 g / cm^3
# Si number density = 20.363476 Si / 1000 Ang^3
#
#
#
# Elastic Constant Matrix: (Units=GPa)
#
#
# Indices 1 2 3 4 5 6 
#
# 1 151.9130 49.7383 54.1898 0.0000 13.4859 0.0000
# 2 49.7383 124.8707 38.3561 0.0000 15.1420 0.0000
# 3 54.1898 38.3561 96.7177 0.0000 -1.5099 0.0000
# 4 0.0000 0.0000 0.0000 21.5911 0.0000 -3.2801
# 5 13.4859 15.1420 -1.5099 0.0000 42.9358 0.0000
# 6 0.0000 0.0000 0.0000 -3.2801 0.0000 37.1052
#
#
#
# Elastic Compliance Matrix: (Units=1/GPa)
#
#
# Indices 1 2 3 4 5 6 
#
# 1 0.008954 -0.001982 -0.004267 0.000000 -0.002264 0.000000
# 2 -0.001982 0.010065 -0.002928 0.000000 -0.003030 0.000000
# 3 -0.004267 -0.002928 0.013936 0.000000 0.002863 0.000000
# 4 0.000000 0.000000 0.000000 0.046946 0.000000 0.004150
# 5 -0.002264 -0.003030 0.002863 0.000000 0.025171 0.000000
# 6 0.000000 0.000000 0.000000 0.004150 0.000000 0.027317
#
#
# Mechanical properties :
#
#
# Convention : Reuss Voigt Hill
#
# Bulk Modulus (GPa) = 68.48505 73.11884 70.80195
# Shear Modulus (GPa) = 32.13181 35.74090 33.93635
#
# Velocity S-wave (km/s) = 3.97661 4.19399 4.08674
# Velocity P-wave (km/s) = 7.40195 7.70958 7.55733
#
# Compressibility (1/GPa) = 0.01460173
#
# Stress axis : x y z
#
# Youngs Moduli (GPa) = 111.67656 99.35877 71.75732
#
# Poissons Ratio (x) = 0.19690 0.30615
# Poissons Ratio (y) = 0.22131 0.21013
# Poissons Ratio (z) = 0.47647 0.29096
#
# Static dielectric constant tensor:
#      x y z
#    x 3.814160 0.000000 -0.022480 
#    y 0.000000 3.671650 0.000000 
#    z -0.022480 0.000000 3.600390 
# 
# 
# High freq. dielectric constant tensor:
#      x y z
#    x 1.807020 0.000000 -0.003500 
#    y 0.000000 1.793460 0.000000 
#    z -0.003500 0.000000 1.791560 
# 
# From -- ./inp_files/38090.got.cif
#   From: 2010.03.12/outbox.cif.g09.slc.cpg/sg5_20_cif.got.tgz:38090.got - 2010.03.31 09:47:26.
