data_PCOD8050895
_publ_section_title
;
Structure prediction by ZEFSAII (Michael W. Deem and Ramdas Pophale) SiO2 
 PCOD8050895
Probable space group: C 2
;
_chemical_formula_sum "Si O2"
_cell_formula_units_Z 28
_cell_length_a 14.163928
_cell_length_b 16.326511
_cell_length_c 7.843979
_cell_angle_alpha 90.000000
_cell_angle_beta 135.654395
_cell_angle_gamma 90.000000
_cell_volume 1267.888910
_symmetry_space_group_name_H-M "C 2"
_symmetry_group_IT_number 5
_symmetry_cell_setting 'monoclinic'
loop_
_space_group_symop_operation_xyz
x,y,z
-x,y,-z
1/2+x,1/2+y,z
1/2-x,1/2+y,-z
loop_
_atom_site_type_symbol
_atom_site_label
_atom_site_fract_x
_atom_site_fract_y
_atom_site_fract_z
Si Si1 0.476618 0.795740 0.771065
Si Si2 0.190760 0.805630 0.508091
Si Si3 0.806463 0.422160 0.926250
Si Si4 0.000000 0.874454 0.000000
Si Si5 0.306339 0.119042 0.507940
Si Si6 0.465638 0.620063 0.644526
Si Si7 0.500000 0.041606 0.000000
Si Si8 0.676686 0.506963 0.076231
O O1 0.319815 0.822208 0.550381
O O2 0.511573 0.714518 0.711043
O O3 0.500000 0.776995 0.000000
O O4 0.576726 0.866727 0.834655
O O5 0.199850 0.864407 0.686287
O O6 0.051754 0.820492 0.225929
O O7 0.191081 0.710601 0.566193
O O8 0.735206 0.477489 0.973224
O O9 0.873863 0.484116 0.881001
O O10 0.129160 0.927601 0.116309
O O11 0.190521 0.110799 0.503821
O O12 0.287489 0.055920 0.328315
O O13 0.450294 0.098964 0.780724
O O14 0.500000 0.587413 0.500000
O O15 0.549315 0.566181 0.885354
#
# Coordination Sequence:
#
# PCOD8050895 Si02
#       8
#     4   4   4   2   4   4   2   4
#     4   9  19  41  68  93 129 175 220 275 331 396
#     4  10  22  45  68  94 133 182 214 275 339 401
#     4  11  23  40  69  96 135 173 227 272 338 388
#     4  12  25  40  65 100 136 168 224 278 343 386
#     4  11  24  46  69  94 138 178 222 272 341 399
#     4  11  22  39  67  97 131 176 227 273 328 401
#     4  12  23  44  67 102 134 170 222 284 333 394
#     4  12  25  40  67  98 134 176 225 274 336 392
#
# _framework density 22.083953999999999
#
# number of rings (size 3 to 8) (size 9 to 14) (size 15 to 20)
#    0.000    1.143    3.571    4.714    2.000    2.857 
#    0.000    5.714    0.000    0.000    0.000    0.000 
#    0.000    0.000    0.000    0.000    0.000    0.000 
#
# Total GULP energy -173625.863085 kJ/mol
# GULP energy per Si atom -12401.847363 kJ/mol
# Density = 2.203369 g / cm^3
# Si number density = 22.083954 Si / 1000 Ang^3
#
#
#
# Elastic Constant Matrix: (Units=GPa)
#
#
# Indices 1 2 3 4 5 6 
#
# 1 70.1153 36.1386 14.1679 0.0000 -17.5031 0.0000
# 2 36.1386 116.4091 57.9157 0.0000 0.5026 0.0000
# 3 14.1679 57.9157 134.8736 0.0000 -4.4373 0.0000
# 4 0.0000 0.0000 0.0000 43.6540 0.0000 3.9873
# 5 -17.5031 0.5026 -4.4373 0.0000 22.0575 0.0000
# 6 0.0000 0.0000 0.0000 3.9873 0.0000 55.6527
#
#
#
# Elastic Compliance Matrix: (Units=1/GPa)
#
#
# Indices 1 2 3 4 5 6 
#
# 1 0.022618 -0.007912 0.001629 0.000000 0.018456 0.000000
# 2 -0.007912 0.013723 -0.005314 0.000000 -0.007660 0.000000
# 3 0.001629 -0.005314 0.009635 0.000000 0.003352 0.000000
# 4 0.000000 0.000000 0.000000 0.023058 0.000000 -0.001652
# 5 0.018456 -0.007660 0.003352 0.000000 0.060830 0.000000
# 6 0.000000 0.000000 0.000000 -0.001652 0.000000 0.018087
#
#
# Mechanical properties :
#
#
# Convention : Reuss Voigt Hill
#
# Bulk Modulus (GPa) = 43.89233 59.76027 51.82630
# Shear Modulus (GPa) = 27.97365 38.48458 33.22911
#
# Velocity S-wave (km/s) = 3.56293 4.17903 3.88322
# Velocity P-wave (km/s) = 6.06995 7.09965 6.60490
#
# Compressibility (1/GPa) = 0.02278302
#
# Stress axis : x y z
#
# Youngs Moduli (GPa) = 44.21245 72.86887 103.78472
#
# Poissons Ratio (x) = 0.57651 -0.16902
# Poissons Ratio (y) = 0.34979 0.55149
# Poissons Ratio (z) = -0.07200 0.38721
#
# Static dielectric constant tensor:
#      x y z
#    x 3.308110 0.000000 0.247420 
#    y 0.000000 4.129940 0.000000 
#    z 0.247420 0.000000 3.927330 
# 
# 
# High freq. dielectric constant tensor:
#      x y z
#    x 1.837680 0.000000 0.002440 
#    y 0.000000 1.884510 0.000000 
#    z 0.002440 0.000000 1.869950 
# 
# From -- ./inp_files/24848.got.cif
#   From: 2010.03.12/outbox.cif.g09.slc.cpg/sg5_13_cif.got.tgz:24848.got - 2010.03.31 09:47:26.
