data_PCOD8050345
_publ_section_title
;
Structure prediction by ZEFSAII (Michael W. Deem and Ramdas Pophale) SiO2 
 PCOD8050345
Probable space group: C 2
;
_chemical_formula_sum "Si O2"
_cell_formula_units_Z 28
_cell_length_a 21.569016
_cell_length_b 6.167981
_cell_length_c 11.679294
_cell_angle_alpha 90.000000
_cell_angle_beta 76.565726
_cell_angle_gamma 90.000000
_cell_volume 1511.265508
_symmetry_space_group_name_H-M "C 2"
_symmetry_group_IT_number 5
_symmetry_cell_setting 'monoclinic'
loop_
_space_group_symop_operation_xyz
x,y,z
-x,y,-z
1/2+x,1/2+y,z
1/2-x,1/2+y,-z
loop_
_atom_site_type_symbol
_atom_site_label
_atom_site_fract_x
_atom_site_fract_y
_atom_site_fract_z
Si Si1 0.402479 0.819550 0.669352
Si Si2 0.500000 0.532634 0.500000
Si Si3 0.553125 0.738160 0.108341
Si Si4 0.333247 0.929962 0.365874
Si Si5 0.000000 0.851388 0.000000
Si Si6 0.195534 0.087954 0.442317
Si Si7 0.605579 0.207138 0.480240
Si Si8 0.573177 0.965024 0.872849
O O1 0.464513 0.683663 0.605564
O O2 0.398874 0.775958 0.806424
O O3 0.336938 0.736223 0.641016
O O4 0.410033 0.073692 0.630508
O O5 0.550816 0.376153 0.539654
O O6 0.538489 0.490535 0.078655
O O7 0.485717 0.850933 0.166622
O O8 0.587565 0.851614 0.987134
O O9 0.318069 0.692486 0.425935
O O10 0.362496 0.928689 0.226793
O O11 0.270903 0.081517 0.389119
O O12 0.387991 0.034852 0.421358
O O13 0.947314 0.712365 0.092298
O O14 0.170605 0.842951 0.440740
#
# Coordination Sequence:
#
# PCOD8050345 Si02
#       8
#     4   2   4   4   2   4   4   4
#     4  10  22  36  56  82 124 148 196 242 293 353
#     4  10  22  32  54  94 110 154 186 230 316 354
#     4   9  20  38  55  85 121 144 196 245 284 359
#     4  11  21  38  59  83 119 150 206 242 285 358
#     4   8  18  38  56  92 108 160 186 232 310 338
#     4  10  22  38  56  84 112 162 193 242 293 342
#     4  10  22  35  56  86 117 153 185 243 300 350
#     4   9  21  33  60  85 114 153 194 242 293 339
#
# _framework density 18.527519999999999
#
# number of rings (size 3 to 8) (size 9 to 14) (size 15 to 20)
#    0.000    2.571    1.429    0.429   10.000    4.571 
#    0.000    0.000    6.286    0.000    0.000    0.000 
#    0.000    0.000    0.000    0.000    0.000    0.000 
#
# Total GULP energy -173515.978279 kJ/mol
# GULP energy per Si atom -12393.998449 kJ/mol
# Density = 1.848535 g / cm^3
# Si number density = 18.527520 Si / 1000 Ang^3
#
#
#
# Elastic Constant Matrix: (Units=GPa)
#
#
# Indices 1 2 3 4 5 6 
#
# 1 82.0846 35.6204 56.2441 0.0000 -7.6707 0.0000
# 2 35.6204 118.9744 49.7740 0.0000 -4.4624 0.0000
# 3 56.2441 49.7740 126.0573 0.0000 -5.5663 0.0000
# 4 0.0000 0.0000 0.0000 16.7070 0.0000 0.3752
# 5 -7.6707 -4.4624 -5.5663 0.0000 34.5673 0.0000
# 6 0.0000 0.0000 0.0000 0.3752 0.0000 27.0483
#
#
#
# Elastic Compliance Matrix: (Units=1/GPa)
#
#
# Indices 1 2 3 4 5 6 
#
# 1 0.018354 -0.002419 -0.007119 0.000000 0.002614 0.000000
# 2 -0.002419 0.010402 -0.003014 0.000000 0.000321 0.000000
# 3 -0.007119 -0.003014 0.012300 0.000000 0.000012 0.000000
# 4 0.000000 0.000000 0.000000 0.059874 0.000000 -0.000831
# 5 0.002614 0.000321 0.000012 0.000000 0.029553 0.000000
# 6 0.000000 0.000000 0.000000 -0.000831 0.000000 0.036982
#
#
# Mechanical properties :
#
#
# Convention : Reuss Voigt Hill
#
# Bulk Modulus (GPa) = 62.68375 67.82150 65.25262
# Shear Modulus (GPa) = 25.26709 28.02971 26.64840
#
# Velocity S-wave (km/s) = 3.69692 3.89378 3.79663
# Velocity P-wave (km/s) = 7.22005 7.54325 7.38342
#
# Compressibility (1/GPa) = 0.01595310
#
# Stress axis : x y z
#
# Youngs Moduli (GPa) = 54.48321 96.13224 81.30282
#
# Poissons Ratio (x) = 0.23254 0.57877
# Poissons Ratio (y) = 0.13179 0.24504
# Poissons Ratio (z) = 0.38785 0.28974
#
# Static dielectric constant tensor:
#      x y z
#    x 3.321610 0.000000 0.074740 
#    y 0.000000 3.615460 0.000000 
#    z 0.074740 0.000000 3.152180 
# 
# 
# High freq. dielectric constant tensor:
#      x y z
#    x 1.704330 0.000000 0.008350 
#    y 0.000000 1.734200 0.000000 
#    z 0.008350 0.000000 1.694340 
# 
# From -- ./inp_files/46800.got.cif
#   From: 2010.03.12/outbox.cif.g09.slc.cpg/sg5_24_cif.got.tgz:46800.got - 2010.03.31 09:47:26.
