data_PCOD8050655
_publ_section_title
;
Structure prediction by ZEFSAII (Michael W. Deem and Ramdas Pophale) SiO2 
 PCOD8050655
Probable space group: C 2
;
_chemical_formula_sum "Si O2"
_cell_formula_units_Z 28
_cell_length_a 8.902520
_cell_length_b 10.456364
_cell_length_c 23.369502
_cell_angle_alpha 90.000000
_cell_angle_beta 140.074934
_cell_angle_gamma 90.000000
_cell_volume 1396.152319
_symmetry_space_group_name_H-M "C 2"
_symmetry_group_IT_number 5
_symmetry_cell_setting 'monoclinic'
loop_
_space_group_symop_operation_xyz
x,y,z
-x,y,-z
1/2+x,1/2+y,z
1/2-x,1/2+y,-z
loop_
_atom_site_type_symbol
_atom_site_label
_atom_site_fract_x
_atom_site_fract_y
_atom_site_fract_z
Si Si1 0.493855 0.524660 0.120930
Si Si2 0.480601 0.157176 0.400222
Si Si3 0.385208 0.657584 0.608114
Si Si4 0.992170 0.310680 0.120420
Si Si5 0.211972 0.914918 0.697239
Si Si6 0.000000 0.415131 0.000000
Si Si7 0.065228 0.421860 0.695998
Si Si8 0.500000 0.419824 0.000000
O O1 0.565448 0.667799 0.159360
O O2 0.226535 0.503669 0.060462
O O3 0.664417 0.429781 0.205355
O O4 0.526760 0.509998 0.062744
O O5 0.718618 0.168216 0.505013
O O6 0.259014 0.134099 0.376239
O O7 0.450795 0.290389 0.357851
O O8 0.506553 0.038504 0.365460
O O9 0.558036 0.540604 0.650730
O O10 0.534426 0.788118 0.654193
O O11 0.155588 0.408283 0.203174
O O12 0.029427 0.326608 0.063866
O O13 0.722406 0.328652 0.058105
O O14 0.401354 0.925941 0.703033
#
# Coordination Sequence:
#
# PCOD8050655 Si02
#       8
#     4   4   4   4   4   2   4   2
#     4  11  22  42  63  91 125 162 205 254 309 363
#     4  10  22  44  64  89 127 164 208 255 311 366
#     4  10  24  41  64  94 124 164 207 256 309 374
#     4  11  22  41  62  91 124 162 206 253 309 365
#     4  11  23  40  66  94 126 164 206 258 307 371
#     4  10  26  38  62  92 120 166 208 256 300 372
#     4  11  23  40  66  94 127 164 205 259 307 370
#     4  10  22  42  60  90 122 162 202 254 312 362
#
# _framework density 20.055118
#
# number of rings (size 3 to 8) (size 9 to 14) (size 15 to 20)
#    0.000    1.429    2.857    1.714    2.000    4.000 
#   10.286    0.000    0.000    0.000    0.000    0.000 
#    0.000    0.000    0.000    0.000    0.000    0.000 
#
# Total GULP energy -173665.499612 kJ/mol
# GULP energy per Si atom -12404.678544 kJ/mol
# Density = 2.000947 g / cm^3
# Si number density = 20.055118 Si / 1000 Ang^3
#
#
#
# Elastic Constant Matrix: (Units=GPa)
#
#
# Indices 1 2 3 4 5 6 
#
# 1 88.4714 41.2627 42.9840 0.0000 -11.1512 0.0000
# 2 41.2627 132.7750 43.6143 0.0000 -11.7466 0.0000
# 3 42.9840 43.6143 110.8137 0.0000 -24.3818 0.0000
# 4 0.0000 0.0000 0.0000 41.6868 0.0000 -3.3659
# 5 -11.1512 -11.7466 -24.3818 0.0000 2.2303 0.0000
# 6 0.0000 0.0000 0.0000 -3.3659 0.0000 31.4559
#
#
#
# Elastic Compliance Matrix: (Units=1/GPa)
#
#
# Indices 1 2 3 4 5 6 
#
# 1 0.014891 -0.003244 -0.005780 0.000000 -0.005821 0.000000
# 2 -0.003244 0.009248 -0.003392 0.000000 -0.004592 0.000000
# 3 -0.005780 -0.003392 -0.001645 0.000000 -0.064748 0.000000
# 4 0.000000 0.000000 0.000000 0.024197 0.000000 0.002589
# 5 -0.005821 -0.004592 -0.064748 0.000000 -0.312752 0.000000
# 6 0.000000 0.000000 0.000000 0.002589 0.000000 0.032068
#
#
# Mechanical properties :
#
#
# Convention : Reuss Voigt Hill
#
# Bulk Modulus (GPa) = -427.71244 65.30913 -181.20166
# Shear Modulus (GPa) = -23.81605 28.68788 2.43591
#
# Velocity S-wave (km/s) = -3.44979 3.78623 1.10329
# Velocity P-wave (km/s) = 15.15254 7.19372 9.43000
#
# Compressibility (1/GPa) = -0.00233802
#
# Stress axis : x y z
#
# Youngs Moduli (GPa) = 67.15662 108.13703 -607.79427
#
# Poissons Ratio (x) = 0.35079 -3.51298
# Poissons Ratio (y) = 0.21785 -2.06141
# Poissons Ratio (z) = 0.38816 0.36676
#
# Static dielectric constant tensor:
#      x y z
#    x 3.707010 0.000000 -0.100570 
#    y 0.000000 3.573250 0.000000 
#    z -0.100570 0.000000 3.722830 
# 
# 
# High freq. dielectric constant tensor:
#      x y z
#    x 1.783450 0.000000 -0.005160 
#    y 0.000000 1.785070 0.000000 
#    z -0.005160 0.000000 1.800640 
# 
# From -- ./inp_files/50391.got.cif
#   From: 2010.03.12/outbox.cif.g09.slc.cpg/sg5_26_cif.got.tgz:50391.got - 2010.03.31 09:47:26.
