data_PCOD8050351
_publ_section_title
;
Structure prediction by ZEFSAII (Michael W. Deem and Ramdas Pophale) SiO2 
 PCOD8050351
Probable space group: C 2
;
_chemical_formula_sum "Si O2"
_cell_formula_units_Z 30
_cell_length_a 5.145423
_cell_length_b 24.197952
_cell_length_c 12.329223
_cell_angle_alpha 90.000000
_cell_angle_beta 109.117769
_cell_angle_gamma 90.000000
_cell_volume 1450.430985
_symmetry_space_group_name_H-M "C 2"
_symmetry_group_IT_number 5
_symmetry_cell_setting 'monoclinic'
loop_
_space_group_symop_operation_xyz
x,y,z
-x,y,-z
1/2+x,1/2+y,z
1/2-x,1/2+y,-z
loop_
_atom_site_type_symbol
_atom_site_label
_atom_site_fract_x
_atom_site_fract_y
_atom_site_fract_z
Si Si1 0.774906 0.366230 0.883556
Si Si2 0.204933 0.739583 0.925280
Si Si3 0.909943 0.083149 0.366384
Si Si4 0.175775 0.399283 0.756323
Si Si5 0.997219 0.294309 0.624413
Si Si6 0.589720 0.014221 0.633697
Si Si7 0.158565 0.695804 0.298837
Si Si8 0.500000 0.239107 0.500000
O O1 0.752525 0.300444 0.881795
O O2 0.466622 0.390525 0.858648
O O3 0.902626 0.387755 0.788925
O O4 0.000000 0.388234 0.000000
O O5 0.105271 0.698451 0.816063
O O6 0.500000 0.715382 0.000000
O O7 0.000000 0.741983 0.000000
O O8 0.658269 0.040181 0.332234
O O9 0.822784 0.139649 0.295616
O O10 0.000000 0.096402 0.500000
O O11 0.158710 0.057143 0.331886
O O12 0.183645 0.459422 0.707470
O O13 0.130758 0.354328 0.655315
O O14 0.676423 0.281541 0.601572
O O15 0.000000 0.276391 0.500000
O O16 0.167392 0.249312 0.716394
O O17 0.500000 0.998396 0.500000
O O18 0.113867 0.697291 0.423480
#
# Coordination Sequence:
#
# PCOD8050351 Si02
#       8
#     4   4   4   4   4   4   4   2
#     4  11  23  39  63  92 122 161 214 262 313 377
#     4  11  24  41  63  94 135 176 216 264 322 391
#     4  10  22  40  62  90 124 166 216 257 307 381
#     4  12  22  40  64  88 127 163 207 255 326 380
#     4  10  22  35  54  94 126 164 193 257 321 395
#     4  10  23  41  61  91 126 166 210 255 312 382
#     4  11  23  38  65  93 129 170 216 270 321 391
#     4  10  22  36  58  98 136 160 216 256 352 382
#
# _framework density 20.683509000000001
#
# number of rings (size 3 to 8) (size 9 to 14) (size 15 to 20)
#    0.000    1.333    1.333    5.200    8.400    0.000 
#    3.600    0.000    0.000    8.000    0.000    0.000 
#    0.000    0.000    0.000    0.000    0.000    0.000 
#
# Total GULP energy -185863.220564 kJ/mol
# GULP energy per Si atom -12390.881371 kJ/mol
# Density = 2.063643 g / cm^3
# Si number density = 20.683509 Si / 1000 Ang^3
#
#
#
# Elastic Constant Matrix: (Units=GPa)
#
#
# Indices 1 2 3 4 5 6 
#
# 1 99.1846 22.0145 28.4006 0.0000 19.9629 0.0000
# 2 22.0145 109.6640 47.6061 0.0000 23.0925 0.0000
# 3 28.4006 47.6061 81.7880 0.0000 18.9720 0.0000
# 4 0.0000 0.0000 0.0000 23.1405 0.0000 7.8790
# 5 19.9629 23.0925 18.9720 0.0000 39.7635 0.0000
# 6 0.0000 0.0000 0.0000 7.8790 0.0000 22.9627
#
#
#
# Elastic Compliance Matrix: (Units=1/GPa)
#
#
# Indices 1 2 3 4 5 6 
#
# 1 0.011869 -0.000141 -0.003009 0.000000 -0.004441 0.000000
# 2 -0.000141 0.012847 -0.006426 0.000000 -0.004324 0.000000
# 3 -0.003009 -0.006426 0.017762 0.000000 -0.003232 0.000000
# 4 0.000000 0.000000 0.000000 0.048931 0.000000 -0.016789
# 5 -0.004441 -0.004324 -0.003232 0.000000 0.031432 0.000000
# 6 0.000000 0.000000 0.000000 -0.016789 0.000000 0.049310
#
#
# Mechanical properties :
#
#
# Convention : Reuss Voigt Hill
#
# Bulk Modulus (GPa) = 42.87154 54.07546 48.47350
# Shear Modulus (GPa) = 25.11591 30.01439 27.56515
#
# Velocity S-wave (km/s) = 3.48846 3.81350 3.65459
# Velocity P-wave (km/s) = 6.08261 6.75214 6.42610
#
# Compressibility (1/GPa) = 0.02332550
#
# Stress axis : x y z
#
# Youngs Moduli (GPa) = 84.25292 77.83819 56.30127
#
# Poissons Ratio (x) = 0.01099 0.16942
# Poissons Ratio (y) = 0.01190 0.36178
# Poissons Ratio (z) = 0.25353 0.50017
#
# Static dielectric constant tensor:
#      x y z
#    x 5.433310 0.000000 0.337790 
#    y 0.000000 3.445340 0.000000 
#    z 0.337790 0.000000 3.711310 
# 
# 
# High freq. dielectric constant tensor:
#      x y z
#    x 1.828890 0.000000 0.015860 
#    y 0.000000 1.786430 0.000000 
#    z 0.015860 0.000000 1.796520 
# 
# From -- ./inp_files/34263.got.cif
#   From: 2010.03.12/outbox.cif.g09.slc.cpg/sg5_18_cif.got.tgz:34263.got - 2010.03.31 09:47:26.
