data_PCOD8050523
_publ_section_title
;
Structure prediction by ZEFSAII (Michael W. Deem and Ramdas Pophale) SiO2 
 PCOD8050523
Probable space group: C 2
;
_chemical_formula_sum "Si O2"
_cell_formula_units_Z 20
_cell_length_a 18.345467
_cell_length_b 4.910438
_cell_length_c 17.762041
_cell_angle_alpha 90.000000
_cell_angle_beta 147.155444
_cell_angle_gamma 90.000000
_cell_volume 867.822478
_symmetry_space_group_name_H-M "C 2"
_symmetry_group_IT_number 5
_symmetry_cell_setting 'monoclinic'
loop_
_space_group_symop_operation_xyz
x,y,z
-x,y,-z
1/2+x,1/2+y,z
1/2-x,1/2+y,-z
loop_
_atom_site_type_symbol
_atom_site_label
_atom_site_fract_x
_atom_site_fract_y
_atom_site_fract_z
Si Si1 0.804204 0.234280 0.379293
Si Si2 0.180547 0.455921 0.908392
Si Si3 0.038507 0.824434 0.310806
Si Si4 0.096335 0.173211 0.692967
Si Si5 0.289951 0.721036 0.621985
O O1 0.809663 0.126630 0.298378
O O2 0.735086 0.527801 0.327079
O O3 0.951962 0.281111 0.541110
O O4 0.712256 0.029777 0.349756
O O5 0.173770 0.385883 0.813762
O O6 0.200278 0.175369 0.972402
O O7 0.039897 0.606211 0.810124
O O8 0.073183 0.112148 0.298963
O O9 0.934114 0.894043 0.288217
O O10 0.172269 0.676841 0.457556
#
# Coordination Sequence:
#
# PCOD8050523 Si02
#       5
#     4   4   4   4   4
#     4  10  23  37  63  99 137 163 200 278 345 392
#     4  12  25  40  65  98 131 181 227 271 305 385
#     4  11  23  41  65 100 134 171 219 269 332 391
#     4  10  22  40  64  96 133 169 224 263 330 391
#     4  11  23  37  63 100 135 165 201 276 347 390
#
# _framework density 23.046185000000001
#
# number of rings (size 3 to 8) (size 9 to 14) (size 15 to 20)
#    0.000    1.200    4.000    2.400    5.600    1.600 
#    0.000    0.000    0.000    1.200   10.400    0.000 
#    0.000    0.000    0.000    0.000    0.000    0.000 
#
# Total GULP energy -123919.479600 kJ/mol
# GULP energy per Si atom -12391.947960 kJ/mol
# Density = 2.299373 g / cm^3
# Si number density = 23.046185 Si / 1000 Ang^3
#
#
#
# Elastic Constant Matrix: (Units=GPa)
#
#
# Indices 1 2 3 4 5 6 
#
# 1 99.8976 19.4564 31.1150 0.0001 -22.1531 0.0001
# 2 19.4564 115.8581 35.1255 0.0010 -13.6527 0.0010
# 3 31.1150 35.1255 91.5220 0.0004 -19.6456 0.0002
# 4 0.0001 0.0010 0.0004 47.1940 0.0001 4.7005
# 5 -22.1531 -13.6527 -19.6456 0.0001 18.9864 0.0000
# 6 0.0001 0.0010 0.0002 4.7005 0.0000 35.8130
#
#
#
# Elastic Compliance Matrix: (Units=1/GPa)
#
#
# Indices 1 2 3 4 5 6 
#
# 1 0.013681 -0.000152 -0.001529 0.000000 0.014271 0.000000
# 2 -0.000152 0.010017 -0.002937 0.000000 0.003987 0.000000
# 3 -0.001529 -0.002937 0.015088 0.000000 0.011716 0.000000
# 4 0.000000 0.000000 0.000000 0.021470 0.000000 -0.002818
# 5 0.014271 0.003987 0.011716 0.000000 0.084309 0.000000
# 6 0.000000 0.000000 0.000000 -0.002818 0.000000 0.028293
#
#
# Mechanical properties :
#
#
# Convention : Reuss Voigt Hill
#
# Bulk Modulus (GPa) = 33.84198 53.18572 43.51385
# Shear Modulus (GPa) = 26.04914 35.17074 30.60994
#
# Velocity S-wave (km/s) = 3.36564 3.91077 3.64840
# Velocity P-wave (km/s) = 5.46074 6.59698 6.05557
#
# Compressibility (1/GPa) = 0.02954910
#
# Stress axis : x y z
#
# Youngs Moduli (GPa) = 73.09444 99.83027 66.27630
#
# Poissons Ratio (x) = 0.01518 0.10137
# Poissons Ratio (y) = 0.01112 0.19465
# Poissons Ratio (z) = 0.11180 0.29320
#
# Static dielectric constant tensor:
#      x y z
#    x 4.097690 0.000000 -0.106430 
#    y 0.000000 4.238440 0.000000 
#    z -0.106430 0.000000 4.118750 
# 
# 
# High freq. dielectric constant tensor:
#      x y z
#    x 1.889540 0.000000 0.001160 
#    y 0.000000 1.932910 0.000000 
#    z 0.001160 0.000000 1.875530 
# 
# From -- ./inp_files/62026.got.cif
#   From: 2010.03.12/outbox.cif.g09.slc.cpg/sg5_32_cif.got.tgz:62026.got - 2010.03.31 09:47:26.
