data_PCOD8050478
_publ_section_title
;
Structure prediction by ZEFSAII (Michael W. Deem and Ramdas Pophale) SiO2 
 PCOD8050478
Probable space group: C 2
;
_chemical_formula_sum "Si O2"
_cell_formula_units_Z 32
_cell_length_a 18.731605
_cell_length_b 14.249180
_cell_length_c 12.636691
_cell_angle_alpha 90.000000
_cell_angle_beta 152.576612
_cell_angle_gamma 90.000000
_cell_volume 1553.411350
_symmetry_space_group_name_H-M "C 2"
_symmetry_group_IT_number 5
_symmetry_cell_setting 'monoclinic'
loop_
_space_group_symop_operation_xyz
x,y,z
-x,y,-z
1/2+x,1/2+y,z
1/2-x,1/2+y,-z
loop_
_atom_site_type_symbol
_atom_site_label
_atom_site_fract_x
_atom_site_fract_y
_atom_site_fract_z
Si Si1 0.153252 0.233950 0.982819
Si Si2 0.917966 0.396394 0.694310
Si Si3 0.315881 0.018825 0.901970
Si Si4 0.160356 0.199842 0.749817
Si Si5 0.390474 0.383788 0.265158
Si Si6 0.431114 0.547395 0.026169
Si Si7 0.143517 0.952101 0.463538
Si Si8 0.344548 0.904613 0.351676
O O1 0.124757 0.205306 0.826044
O O2 0.022659 0.305398 0.852700
O O3 0.323365 0.281652 0.205465
O O4 0.152094 0.146249 0.059998
O O5 0.758931 0.385380 0.549960
O O6 0.875043 0.406207 0.515862
O O7 0.003465 0.488915 0.856184
O O8 0.300463 0.129714 0.904759
O O9 0.246664 0.961208 0.912653
O O10 0.234269 0.994916 0.683117
O O11 0.194409 0.300657 0.743030
O O12 0.000000 0.154289 0.500000
O O13 0.500000 0.420687 0.500000
O O14 0.494892 0.386344 0.297118
O O15 0.301725 0.467746 0.869890
O O16 0.500000 0.547015 0.000000
O O17 0.573493 0.533511 0.295873
O O18 0.500000 0.942913 0.500000
#
# Coordination Sequence:
#
# PCOD8050478 Si02
#       8
#     4   4   4   4   4   4   4   4
#     4  11  23  40  67  95 127 174 224 265 321 400
#     4  11  23  44  67 100 133 172 217 274 340 390
#     4  10  22  39  69  99 126 170 225 275 324 387
#     4  11  20  38  67  97 122 167 228 271 319 381
#     4   9  20  39  64  95 122 167 220 269 321 380
#     4  12  26  43  64  98 139 179 213 273 344 395
#     4  11  22  42  68  93 136 170 218 274 337 389
#     4  11  24  44  68  95 134 177 224 270 330 400
#
# _framework density 20.599823000000001
#
# number of rings (size 3 to 8) (size 9 to 14) (size 15 to 20)
#    0.000    1.250    3.750    3.750    3.500    3.500 
#    0.000    3.750    0.000    0.000    0.000    0.000 
#    0.000    0.000    0.000    0.000    0.000    0.000 
#
# Total GULP energy -198312.329292 kJ/mol
# GULP energy per Si atom -12394.520581 kJ/mol
# Density = 2.055294 g / cm^3
# Si number density = 20.599823 Si / 1000 Ang^3
#
#
#
# Elastic Constant Matrix: (Units=GPa)
#
#
# Indices 1 2 3 4 5 6 
#
# 1 154.2361 53.2562 43.1285 0.0000 14.7751 0.0000
# 2 53.2562 118.3251 33.8280 0.0000 11.5581 0.0000
# 3 43.1285 33.8280 63.0919 0.0000 7.9641 0.0000
# 4 0.0000 0.0000 0.0000 19.7686 0.0000 7.6982
# 5 14.7751 11.5581 7.9641 0.0000 26.5637 0.0000
# 6 0.0000 0.0000 0.0000 7.6982 0.0000 23.9752
#
#
#
# Elastic Compliance Matrix: (Units=1/GPa)
#
#
# Indices 1 2 3 4 5 6 
#
# 1 0.008799 -0.002464 -0.004377 0.000000 -0.002510 0.000000
# 2 -0.002464 0.010883 -0.003873 0.000000 -0.002204 0.000000
# 3 -0.004377 -0.003873 0.021201 0.000000 -0.002237 0.000000
# 4 0.000000 0.000000 0.000000 0.057814 0.000000 -0.018564
# 5 -0.002510 -0.002204 -0.002237 0.000000 0.040671 0.000000
# 6 0.000000 0.000000 0.000000 -0.018564 0.000000 0.047670
#
#
# Mechanical properties :
#
#
# Convention : Reuss Voigt Hill
#
# Bulk Modulus (GPa) = 51.39939 66.23094 58.81516
# Shear Modulus (GPa) = 23.26143 27.75753 25.50948
#
# Velocity S-wave (km/s) = 3.36401 3.67476 3.52282
# Velocity P-wave (km/s) = 6.33201 7.08705 6.72014
#
# Compressibility (1/GPa) = 0.01945548
#
# Stress axis : x y z
#
# Youngs Moduli (GPa) = 113.65549 91.89021 47.16866
#
# Poissons Ratio (x) = 0.22638 0.20645
# Poissons Ratio (y) = 0.28001 0.18267
# Poissons Ratio (z) = 0.49744 0.35586
#
# Static dielectric constant tensor:
#      x y z
#    x 4.202820 0.000000 0.254230 
#    y 0.000000 3.740240 0.000000 
#    z 0.254230 0.000000 4.030360 
# 
# 
# High freq. dielectric constant tensor:
#      x y z
#    x 1.817140 0.000000 -0.002870 
#    y 0.000000 1.787260 0.000000 
#    z -0.002870 0.000000 1.811300 
# 
# From -- ./inp_files/31063.got.cif
#   From: 2010.03.12/outbox.cif.g09.slc.cpg/sg5_16_cif.got.tgz:31063.got - 2010.03.31 09:47:26.
