data_PCOD8050757
_publ_section_title
;
Structure prediction by ZEFSAII (Michael W. Deem and Ramdas Pophale) SiO2 
 PCOD8050757
Probable space group: C 2
;
_chemical_formula_sum "Si O2"
_cell_formula_units_Z 30
_cell_length_a 15.216808
_cell_length_b 17.985808
_cell_length_c 14.532581
_cell_angle_alpha 90.000000
_cell_angle_beta 160.369433
_cell_angle_gamma 90.000000
_cell_volume 1336.214616
_symmetry_space_group_name_H-M "C 2"
_symmetry_group_IT_number 5
_symmetry_cell_setting 'monoclinic'
loop_
_space_group_symop_operation_xyz
x,y,z
-x,y,-z
1/2+x,1/2+y,z
1/2-x,1/2+y,-z
loop_
_atom_site_type_symbol
_atom_site_label
_atom_site_fract_x
_atom_site_fract_y
_atom_site_fract_z
Si Si1 0.243145 0.414850 0.188657
Si Si2 0.354081 0.473412 0.106456
Si Si3 0.773266 0.822241 0.937153
Si Si4 0.355707 0.068643 0.597307
Si Si5 0.000000 0.281614 0.500000
Si Si6 0.504432 0.195432 0.396684
Si Si7 0.513927 0.779070 0.857071
Si Si8 0.106366 0.687085 0.207187
O O1 0.500000 0.394949 0.500000
O O2 0.356673 0.462988 0.218171
O O3 0.103744 0.340187 0.017917
O O4 0.000000 0.457655 0.000000
O O5 0.572890 0.533782 0.301887
O O6 0.419081 0.397391 0.114366
O O7 0.068749 0.503829 0.799734
O O8 0.688703 0.834391 0.746588
O O9 0.534738 0.809278 0.773240
O O10 0.944063 0.747044 0.106539
O O11 0.391662 0.121245 0.546524
O O12 0.365588 0.112863 0.704546
O O13 0.880707 0.227658 0.460204
O O14 0.500000 0.181867 0.500000
O O15 0.710654 0.260748 0.575192
O O16 0.214406 0.211049 0.071411
O O17 0.000000 0.667643 0.000000
#
# Coordination Sequence:
#
# PCOD8050757 Si02
#       8
#     4   4   4   4   2   4   4   4
#     4  11  22  41  64 101 134 173 222 272 334 417
#     4  11  28  44  69  96 144 188 225 279 359 410
#     4  10  23  44  70 104 132 185 229 294 347 416
#     4  12  26  47  66 101 143 184 228 288 349 422
#     4  10  22  42  74 106 130 174 250 296 348 406
#     4  12  24  41  66  98 132 177 224 277 338 399
#     4  11  22  39  71  98 136 164 222 284 339 398
#     4  10  23  42  73 106 136 181 239 295 356 410
#
# _framework density 22.451483
#
# number of rings (size 3 to 8) (size 9 to 14) (size 15 to 20)
#    0.000    1.067    1.333    4.800    5.600    3.733 
#    1.200    0.000    0.000    0.000    0.000    0.000 
#    0.000    0.000    0.000    0.000    0.000    0.000 
#
# Total GULP energy -185934.033663 kJ/mol
# GULP energy per Si atom -12395.602244 kJ/mol
# Density = 2.240038 g / cm^3
# Si number density = 22.451483 Si / 1000 Ang^3
#
#
#
# Elastic Constant Matrix: (Units=GPa)
#
#
# Indices 1 2 3 4 5 6 
#
# 1 98.5471 37.3160 16.9907 0.0008 1.1951 0.0075
# 2 37.3160 76.1093 7.0943 0.0003 -6.3661 0.0045
# 3 16.9907 7.0943 67.2062 -0.0013 1.9117 0.0148
# 4 0.0008 0.0003 -0.0013 36.1433 -0.0014 8.0775
# 5 1.1951 -6.3661 1.9117 -0.0014 32.2460 0.0042
# 6 0.0075 0.0045 0.0148 8.0775 0.0042 -3.2136
#
#
#
# Elastic Compliance Matrix: (Units=1/GPa)
#
#
# Indices 1 2 3 4 5 6 
#
# 1 0.012979 -0.006254 -0.002577 -0.000001 -0.001563 0.000004
# 2 -0.006254 0.016523 -0.000263 -0.000002 0.003509 0.000008
# 3 -0.002577 -0.000263 0.015584 -0.000009 -0.000880 0.000042
# 4 -0.000001 -0.000002 -0.000009 0.017716 -0.000005 0.044530
# 5 -0.001563 0.003509 -0.000880 -0.000005 0.031815 0.000026
# 6 0.000004 0.000008 0.000042 0.044530 0.000026 -0.199253
#
#
# Mechanical properties :
#
#
# Convention : Reuss Voigt Hill
#
# Bulk Modulus (GPa) = 37.17632 40.51829 38.84730
# Shear Modulus (GPa) = -64.52987 25.06594 -19.73197
#
# Velocity S-wave (km/s) = -5.36697 3.34496 -2.96779
# Velocity P-wave (km/s) = 4.67026 5.74496 2.36572
#
# Compressibility (1/GPa) = 0.02689885
#
# Stress axis : x y z
#
# Youngs Moduli (GPa) = 77.04898 60.52048 64.16935
#
# Poissons Ratio (x) = 0.37849 0.16534
# Poissons Ratio (y) = 0.48186 0.01687
# Poissons Ratio (z) = 0.19852 0.01591
#
# Static dielectric constant tensor:
#      x y z
#    x 4.502120 0.000000 0.351900 
#    y 0.000000 3.894840 0.000040 
#    z 0.351900 0.000040 5.436870 
# 
# 
# High freq. dielectric constant tensor:
#      x y z
#    x 1.904510 0.000000 0.002040 
#    y 0.000000 1.866230 0.000000 
#    z 0.002040 0.000000 1.890050 
# 
# From -- ./inp_files/54999.got.cif
#   From: 2010.03.12/outbox.cif.g09.slc.cpg/sg5_28_cif.got.tgz:54999.got - 2010.03.31 09:47:26.
