data_PCOD8050956
_publ_section_title
;
Structure prediction by ZEFSAII (Michael W. Deem and Ramdas Pophale) SiO2 
 PCOD8050956
Probable space group: C 2
;
_chemical_formula_sum "Si O2"
_cell_formula_units_Z 24
_cell_length_a 13.719818
_cell_length_b 4.970929
_cell_length_c 13.830896
_cell_angle_alpha 90.000000
_cell_angle_beta 102.840255
_cell_angle_gamma 90.000000
_cell_volume 919.682510
_symmetry_space_group_name_H-M "C 2"
_symmetry_group_IT_number 5
_symmetry_cell_setting 'monoclinic'
loop_
_space_group_symop_operation_xyz
x,y,z
-x,y,-z
1/2+x,1/2+y,z
1/2-x,1/2+y,-z
loop_
_atom_site_type_symbol
_atom_site_label
_atom_site_fract_x
_atom_site_fract_y
_atom_site_fract_z
Si Si1 0.700457 0.561710 0.262034
Si Si2 0.314953 0.522922 0.531421
Si Si3 0.072250 0.531223 0.705948
Si Si4 0.087264 0.032969 0.837269
Si Si5 0.684924 0.066999 0.134395
Si Si6 0.500000 0.254622 0.000000
Si Si7 0.500000 0.804786 0.500000
O O1 0.642590 0.512592 0.349721
O O2 0.815750 0.495251 0.308070
O O3 0.663634 0.361822 0.171651
O O4 0.676006 0.860182 0.220630
O O5 0.277878 0.231495 0.489848
O O6 0.402532 0.613825 0.478413
O O7 0.059795 0.828338 0.745069
O O8 0.000209 0.487370 0.597307
O O9 0.051696 0.322659 0.789741
O O10 0.205939 0.033170 0.890327
O O11 0.025417 0.953842 0.917583
O O12 0.594599 0.050484 0.037014
#
# Coordination Sequence:
#
# PCOD8050956 Si02
#       7
#     4   4   4   4   4   2   2
#     4  10  22  48  69 100 153 191 235 298 373 426
#     4  12  27  45  72 110 150 194 248 305 360 441
#     4  10  24  47  70 108 148 195 236 306 354 438
#     4  10  26  47  72 105 152 185 246 298 373 431
#     4  10  25  45  74 104 142 190 237 309 362 442
#     4  12  28  48  82 112 140 198 250 306 380 444
#     4  12  28  44  80 110 154 194 254 298 364 428
#
# _framework density 26.095962
#
# number of rings (size 3 to 8) (size 9 to 14) (size 15 to 20)
#    0.000    1.333    1.667    1.000    9.333    9.333 
#    0.000    0.000    0.000    0.000    0.000    0.000 
#    0.000    0.000    0.000    0.000    0.000    0.000 
#
# Total GULP energy -148848.315676 kJ/mol
# GULP energy per Si atom -12404.026306 kJ/mol
# Density = 2.603657 g / cm^3
# Si number density = 26.095962 Si / 1000 Ang^3
#
#
#
# Elastic Constant Matrix: (Units=GPa)
#
#
# Indices 1 2 3 4 5 6 
#
# 1 107.6772 12.5709 48.7424 0.0000 8.9331 0.0000
# 2 12.5709 69.3856 -0.3736 0.0000 4.4656 0.0000
# 3 48.7424 -0.3736 91.9513 0.0000 1.0551 0.0000
# 4 0.0000 0.0000 0.0000 15.4211 0.0000 -5.9333
# 5 8.9331 4.4656 1.0551 0.0000 46.3957 0.0000
# 6 0.0000 0.0000 0.0000 -5.9333 0.0000 18.1553
#
#
#
# Elastic Compliance Matrix: (Units=1/GPa)
#
#
# Indices 1 2 3 4 5 6 
#
# 1 0.012779 -0.002217 -0.006759 0.000000 -0.002093 0.000000
# 2 -0.002217 0.014887 0.001248 0.000000 -0.001034 0.000000
# 3 -0.006759 0.001248 0.014454 0.000000 0.000853 0.000000
# 4 0.000000 0.000000 0.000000 0.074173 0.000000 0.024240
# 5 -0.002093 -0.001034 0.000853 0.000000 0.022037 0.000000
# 6 0.000000 0.000000 0.000000 0.024240 0.000000 0.063002
#
#
# Mechanical properties :
#
#
# Convention : Reuss Voigt Hill
#
# Bulk Modulus (GPa) = 37.50529 43.43258 40.46894
# Shear Modulus (GPa) = 22.15561 29.86605 26.01083
#
# Velocity S-wave (km/s) = 2.91693 3.38667 3.16054
# Velocity P-wave (km/s) = 5.07424 5.65440 5.37216
#
# Compressibility (1/GPa) = 0.02666290
#
# Stress axis : x y z
#
# Youngs Moduli (GPa) = 78.25254 67.17197 69.18732
#
# Poissons Ratio (x) = 0.14891 0.46764
# Poissons Ratio (y) = 0.17348 -0.08631
# Poissons Ratio (z) = 0.52891 -0.08380
#
# Static dielectric constant tensor:
#      x y z
#    x 4.861150 0.000000 0.168210 
#    y 0.000000 4.600100 0.000000 
#    z 0.168210 0.000000 4.474660 
# 
# 
# High freq. dielectric constant tensor:
#      x y z
#    x 2.055190 0.000000 0.006560 
#    y 0.000000 2.043240 0.000000 
#    z 0.006560 0.000000 2.042070 
# 
# From -- ./inp_files/53716.got.cif
#   From: 2010.03.12/outbox.cif.g09.slc.cpg/sg5_27_cif.got.tgz:53716.got - 2010.03.31 09:47:26.
