data_PCOD8050192
_publ_section_title
;
Structure prediction by ZEFSAII (Michael W. Deem and Ramdas Pophale) SiO2 
 PCOD8050192
Probable space group: C 2
;
_chemical_formula_sum "Si O2"
_cell_formula_units_Z 24
_cell_length_a 19.589174
_cell_length_b 11.984847
_cell_length_c 14.246001
_cell_angle_alpha 90.000000
_cell_angle_beta 160.715325
_cell_angle_gamma 90.000000
_cell_volume 1104.587482
_symmetry_space_group_name_H-M "C 2"
_symmetry_group_IT_number 5
_symmetry_cell_setting 'monoclinic'
loop_
_space_group_symop_operation_xyz
x,y,z
-x,y,-z
1/2+x,1/2+y,z
1/2-x,1/2+y,-z
loop_
_atom_site_type_symbol
_atom_site_label
_atom_site_fract_x
_atom_site_fract_y
_atom_site_fract_z
Si Si1 0.018129 0.963180 0.779936
Si Si2 0.907301 0.775940 0.973438
Si Si3 0.591031 0.038738 0.265462
Si Si4 0.814630 0.598932 0.060507
Si Si5 0.937994 0.796175 0.527537
Si Si6 0.500000 0.688887 0.500000
Si Si7 0.500000 0.850393 0.000000
O O1 0.840169 0.043471 0.590354
O O2 0.966415 0.920045 0.607475
O O3 0.039909 0.855768 0.872669
O O4 0.227124 0.035292 0.038840
O O5 0.659012 0.764152 0.645871
O O6 0.000000 0.831146 0.000000
O O7 0.010533 0.654482 0.118158
O O8 0.526356 0.929326 0.124415
O O9 0.494483 0.025504 0.244439
O O10 0.913572 0.713320 0.223710
O O11 0.632886 0.618493 0.747841
O O12 0.694897 0.769094 0.230693
O O13 0.000000 0.796949 0.500000
#
# Coordination Sequence:
#
# PCOD8050192 Si02
#       7
#     4   4   4   4   4   2   2
#     4  11  24  43  68  99 131 175 221 269 336 386
#     4  11  22  43  66  98 132 172 219 276 329 390
#     4  10  21  41  68  97 126 168 227 279 318 379
#     4  11  24  43  67  99 134 172 221 271 330 392
#     4  11  24  45  67  99 135 174 220 271 328 395
#     4  10  22  42  72  94 128 168 224 284 314 376
#     4  10  22  40  72  96 128 172 226 274 324 378
#
# _framework density 21.727568999999999
#
# number of rings (size 3 to 8) (size 9 to 14) (size 15 to 20)
#    0.000    1.333    4.167    2.000    8.167    2.667 
#   13.500    0.000    0.000    0.000    0.000    0.000 
#    0.000    0.000    0.000    0.000    0.000    0.000 
#
# Total GULP energy -148728.826314 kJ/mol
# GULP energy per Si atom -12394.068860 kJ/mol
# Density = 2.167812 g / cm^3
# Si number density = 21.727569 Si / 1000 Ang^3
#
#
#
# Elastic Constant Matrix: (Units=GPa)
#
#
# Indices 1 2 3 4 5 6 
#
# 1 167.2235 49.8167 73.1653 -0.0008 38.3695 -0.0005
# 2 49.8167 65.0177 55.2669 -0.0013 13.3493 -0.0011
# 3 73.1653 55.2669 96.2792 -0.0025 33.3251 -0.0030
# 4 -0.0008 -0.0013 -0.0025 15.9799 -0.0016 8.8226
# 5 38.3695 13.3493 33.3251 -0.0016 44.4155 -0.0016
# 6 -0.0005 -0.0011 -0.0030 8.8226 -0.0016 18.2850
#
#
#
# Elastic Compliance Matrix: (Units=1/GPa)
#
#
# Indices 1 2 3 4 5 6 
#
# 1 0.009682 -0.003033 -0.004103 0.000000 -0.004374 -0.000001
# 2 -0.003033 0.031932 -0.018384 0.000001 0.006817 -0.000001
# 3 -0.004103 -0.018384 0.028256 0.000000 -0.012131 0.000002
# 4 0.000000 0.000001 0.000000 0.085303 0.000002 -0.041159
# 5 -0.004374 0.006817 -0.012131 0.000002 0.033347 0.000000
# 6 -0.000001 -0.000001 0.000002 -0.041159 0.000000 0.074549
#
#
# Mechanical properties :
#
#
# Convention : Reuss Voigt Hill
#
# Bulk Modulus (GPa) = 53.10592 76.11314 64.60953
# Shear Modulus (GPa) = 15.60615 25.75419 20.68017
#
# Velocity S-wave (km/s) = 2.68295 3.44659 3.08846
# Velocity P-wave (km/s) = 5.83887 7.13760 6.52065
#
# Compressibility (1/GPa) = 0.01883029
#
# Stress axis : x y z
#
# Youngs Moduli (GPa) = 103.28052 31.31650 35.39038
#
# Poissons Ratio (x) = 0.09499 0.14520
# Poissons Ratio (y) = 0.31326 0.65063
# Poissons Ratio (z) = 0.42373 0.57574
#
# Static dielectric constant tensor:
#      x y z
#    x 4.380500 0.000000 0.470870 
#    y 0.000000 3.561920 0.000000 
#    z 0.470870 0.000000 4.058200 
# 
# 
# High freq. dielectric constant tensor:
#      x y z
#    x 1.872570 0.000000 0.025660 
#    y 0.000000 1.829790 0.000000 
#    z 0.025660 0.000000 1.846640 
# 
# From -- ./inp_files/57035.got.cif
#   From: 2010.03.12/outbox.cif.g09.slc.cpg/sg5_29_cif.got.tgz:57035.got - 2010.03.31 09:47:26.
