data_PCOD8050313
_publ_section_title
;
Structure prediction by ZEFSAII (Michael W. Deem and Ramdas Pophale) SiO2 
 PCOD8050313
Probable space group: C 2
;
_chemical_formula_sum "Si O2"
_cell_formula_units_Z 24
_cell_length_a 11.266113
_cell_length_b 11.518502
_cell_length_c 17.314979
_cell_angle_alpha 90.000000
_cell_angle_beta 152.062174
_cell_angle_gamma 90.000000
_cell_volume 1052.722419
_symmetry_space_group_name_H-M "C 2"
_symmetry_group_IT_number 5
_symmetry_cell_setting 'monoclinic'
loop_
_space_group_symop_operation_xyz
x,y,z
-x,y,-z
1/2+x,1/2+y,z
1/2-x,1/2+y,-z
loop_
_atom_site_type_symbol
_atom_site_label
_atom_site_fract_x
_atom_site_fract_y
_atom_site_fract_z
Si Si1 0.118629 0.413710 0.753359
Si Si2 0.437430 0.740145 0.156257
Si Si3 0.720913 0.573806 0.806381
Si Si4 0.888030 0.759774 0.798657
Si Si5 0.263295 0.676428 0.813535
Si Si6 0.628758 0.357464 0.373521
O O1 0.044036 0.371013 0.797308
O O2 0.353915 0.338687 0.855644
O O3 0.211278 0.544466 0.806442
O O4 0.882964 0.391506 0.561940
O O5 0.443564 0.653470 0.231694
O O6 0.672833 0.701933 0.239183
O O7 0.184184 0.730024 0.958838
O O8 0.737466 0.638247 0.731317
O O9 0.583702 0.451080 0.725836
O O10 0.000000 0.554164 0.000000
O O11 0.796729 0.835995 0.673326
O O12 0.993450 0.736123 0.671774
O O13 0.500000 0.723907 0.000000
#
# Coordination Sequence:
#
# PCOD8050313 Si02
#       6
#     4   4   4   4   4   4
#     4  11  26  43  69 103 141 177 227 295 355 402
#     4  10  22  45  72  98 133 179 238 283 337 419
#     4   9  21  40  69  98 132 179 231 285 340 409
#     4  10  21  44  70  97 131 182 233 279 342 418
#     4  12  25  45  73 103 137 187 236 279 347 426
#     4  12  25  42  68 103 141 178 225 288 354 411
#
# _framework density 22.798031000000002
#
# number of rings (size 3 to 8) (size 9 to 14) (size 15 to 20)
#    0.000    1.333    1.667    4.500    4.667    2.000 
#    0.000    0.000    0.000    0.000    0.000    0.000 
#    0.000    0.000    0.000    0.000    0.000    0.000 
#
# Total GULP energy -148739.711530 kJ/mol
# GULP energy per Si atom -12394.975961 kJ/mol
# Density = 2.274614 g / cm^3
# Si number density = 22.798031 Si / 1000 Ang^3
#
#
#
# Elastic Constant Matrix: (Units=GPa)
#
#
# Indices 1 2 3 4 5 6 
#
# 1 104.1109 43.7180 13.3201 0.0071 -6.0126 0.0036
# 2 43.7180 112.8771 -2.7530 0.0203 4.4819 0.0057
# 3 13.3201 -2.7530 57.7083 0.0416 -4.5756 0.0134
# 4 0.0071 0.0203 0.0416 28.3440 0.0085 2.4289
# 5 -6.0126 4.4819 -4.5756 0.0085 24.9616 0.0022
# 6 0.0036 0.0057 0.0134 2.4289 0.0022 38.4332
#
#
#
# Elastic Compliance Matrix: (Units=1/GPa)
#
#
# Indices 1 2 3 4 5 6 
#
# 1 0.012227 -0.004935 -0.002794 0.000004 0.003319 0.000000
# 2 -0.004935 0.010920 0.001431 -0.000008 -0.002887 -0.000001
# 3 -0.002794 0.001431 0.018233 -0.000027 0.002412 -0.000005
# 4 0.000004 -0.000008 -0.000027 0.035473 -0.000015 -0.002242
# 5 0.003319 -0.002887 0.002412 -0.000015 0.041822 -0.000002
# 6 0.000000 -0.000001 -0.000005 -0.002242 -0.000002 0.026161
#
#
# Mechanical properties :
#
#
# Convention : Reuss Voigt Hill
#
# Bulk Modulus (GPa) = 34.74297 42.58517 38.66407
# Shear Modulus (GPa) = 29.93522 33.04183 31.48853
#
# Velocity S-wave (km/s) = 3.62755 3.81113 3.72048
# Velocity P-wave (km/s) = 5.72870 6.17140 5.95417
#
# Compressibility (1/GPa) = 0.02878280
#
# Stress axis : x y z
#
# Youngs Moduli (GPa) = 81.78724 91.57272 54.84532
#
# Poissons Ratio (x) = 0.45195 0.15326
# Poissons Ratio (y) = 0.40366 -0.07850
# Poissons Ratio (z) = 0.22855 -0.13106
#
# Static dielectric constant tensor:
#      x y z
#    x 4.417550 -0.000010 -0.032410 
#    y -0.000010 4.205470 -0.000020 
#    z -0.032410 -0.000020 4.000340 
# 
# 
# High freq. dielectric constant tensor:
#      x y z
#    x 1.909790 0.000000 0.009240 
#    y 0.000000 1.899390 0.000000 
#    z 0.009240 0.000000 1.885130 
# 
# From -- ./inp_files/39095.got.cif
#   From: 2010.03.12/outbox.cif.g09.slc.cpg/sg5_20_cif.got.tgz:39095.got - 2010.03.31 09:47:26.
