data_PCOD8050197
_publ_section_title
;
Structure prediction by ZEFSAII (Michael W. Deem and Ramdas Pophale) SiO2 
 PCOD8050197
Probable space group: C 2
;
_chemical_formula_sum "Si O2"
_cell_formula_units_Z 32
_cell_length_a 8.090345
_cell_length_b 14.626053
_cell_length_c 11.941720
_cell_angle_alpha 90.000000
_cell_angle_beta 93.970811
_cell_angle_gamma 90.000000
_cell_volume 1409.669402
_symmetry_space_group_name_H-M "C 2"
_symmetry_group_IT_number 5
_symmetry_cell_setting 'monoclinic'
loop_
_space_group_symop_operation_xyz
x,y,z
-x,y,-z
1/2+x,1/2+y,z
1/2-x,1/2+y,-z
loop_
_atom_site_type_symbol
_atom_site_label
_atom_site_fract_x
_atom_site_fract_y
_atom_site_fract_z
Si Si1 0.129082 0.972310 0.914274
Si Si2 0.829164 0.854506 0.410504
Si Si3 0.810050 0.304603 0.828896
Si Si4 0.822854 0.213644 0.446122
Si Si5 0.395085 0.444343 0.707109
Si Si6 0.194338 0.165408 0.994868
Si Si7 0.687596 0.786043 0.795928
Si Si8 0.690720 0.026665 0.513117
O O1 0.258595 0.891986 0.900248
O O2 0.029209 0.996490 0.792684
O O3 0.231842 0.059115 0.969446
O O4 0.000000 0.937771 0.000000
O O5 0.774596 0.805066 0.294727
O O6 0.821176 0.775443 0.504439
O O7 0.706135 0.936833 0.436983
O O8 0.014695 0.894465 0.395734
O O9 0.005810 0.315121 0.826122
O O10 0.742633 0.210723 0.885436
O O11 0.820407 0.224328 0.313963
O O12 0.000000 0.247787 0.500000
O O13 0.800349 0.107126 0.467951
O O14 0.302050 0.373759 0.783204
O O15 0.258487 0.510028 0.643323
O O16 0.268815 0.224519 0.896647
O O17 0.000000 0.175321 0.000000
O O18 0.500000 0.056192 0.500000
#
# Coordination Sequence:
#
# PCOD8050197 Si02
#       8
#     4   4   4   4   4   4   4   4
#     4  10  22  41  72 101 132 180 234 288 352 410
#     4  11  23  44  66  98 135 185 230 284 351 409
#     4  10  21  41  69  97 130 180 228 282 349 419
#     4  12  25  40  68  98 141 183 228 282 349 420
#     4  11  24  42  69  95 143 182 234 289 347 418
#     4   9  21  39  64  94 130 171 228 279 339 413
#     4  11  22  39  64  93 135 178 223 279 347 407
#     4  12  27  42  64 101 143 184 240 288 345 418
#
# _framework density 22.700358000000001
#
# number of rings (size 3 to 8) (size 9 to 14) (size 15 to 20)
#    0.000    1.250    2.500    3.000    7.000    1.000 
#    0.000    0.000    0.000   23.250    0.000    0.000 
#    0.000    0.000    0.000    0.000    0.000    0.000 
#
# Total GULP energy -198357.260322 kJ/mol
# GULP energy per Si atom -12397.328770 kJ/mol
# Density = 2.264869 g / cm^3
# Si number density = 22.700358 Si / 1000 Ang^3
#
#
#
# Elastic Constant Matrix: (Units=GPa)
#
#
# Indices 1 2 3 4 5 6 
#
# 1 70.2527 20.9718 18.9377 0.0000 -9.5261 0.0000
# 2 20.9718 129.5251 47.6022 0.0000 -10.6275 0.0000
# 3 18.9377 47.6022 103.5399 0.0000 -18.8934 0.0000
# 4 0.0000 0.0000 0.0000 37.6656 0.0000 -5.6003
# 5 -9.5261 -10.6275 -18.8934 0.0000 31.4091 0.0000
# 6 0.0000 0.0000 0.0000 -5.6003 0.0000 29.9857
#
#
#
# Elastic Compliance Matrix: (Units=1/GPa)
#
#
# Indices 1 2 3 4 5 6 
#
# 1 0.015585 -0.001717 -0.001465 0.000000 0.003264 0.000000
# 2 -0.001717 0.009491 -0.003997 0.000000 0.000286 0.000000
# 3 -0.001465 -0.003997 0.012846 0.000000 0.005930 0.000000
# 4 0.000000 0.000000 0.000000 0.027308 0.000000 0.005100
# 5 0.003264 0.000286 0.005930 0.000000 0.036492 0.000000
# 6 0.000000 0.000000 0.000000 0.005100 0.000000 0.034302
#
#
# Mechanical properties :
#
#
# Convention : Reuss Voigt Hill
#
# Bulk Modulus (GPa) = 42.44065 53.14900 47.79483
# Shear Modulus (GPa) = 31.59831 34.19914 32.89873
#
# Velocity S-wave (km/s) = 3.73496 3.88564 3.81104
# Velocity P-wave (km/s) = 6.11037 6.60265 6.36127
#
# Compressibility (1/GPa) = 0.02356231
#
# Stress axis : x y z
#
# Youngs Moduli (GPa) = 64.16620 105.36278 77.84539
#
# Poissons Ratio (x) = 0.18090 0.11408
# Poissons Ratio (y) = 0.11017 0.31116
# Poissons Ratio (z) = 0.09403 0.42116
#
# Static dielectric constant tensor:
#      x y z
#    x 4.031820 0.000000 -0.050650 
#    y 0.000000 4.240060 0.000000 
#    z -0.050650 0.000000 4.530070 
# 
# 
# High freq. dielectric constant tensor:
#      x y z
#    x 1.880310 0.000000 -0.010760 
#    y 0.000000 1.890610 0.000000 
#    z -0.010760 0.000000 1.916800 
# 
# From -- ./inp_files/36426.got.cif
#   From: 2010.03.12/outbox.cif.g09.slc.cpg/sg5_19_cif.got.tgz:36426.got - 2010.03.31 09:47:26.
