data_PCOD8050350
_publ_section_title
;
Structure prediction by ZEFSAII (Michael W. Deem and Ramdas Pophale) SiO2 
 PCOD8050350
Probable space group: C 2
;
_chemical_formula_sum "Si O2"
_cell_formula_units_Z 20
_cell_length_a 18.384840
_cell_length_b 5.317424
_cell_length_c 8.929866
_cell_angle_alpha 90.000000
_cell_angle_beta 96.250119
_cell_angle_gamma 90.000000
_cell_volume 867.794689
_symmetry_space_group_name_H-M "C 2"
_symmetry_group_IT_number 5
_symmetry_cell_setting 'monoclinic'
loop_
_space_group_symop_operation_xyz
x,y,z
-x,y,-z
1/2+x,1/2+y,z
1/2-x,1/2+y,-z
loop_
_atom_site_type_symbol
_atom_site_label
_atom_site_fract_x
_atom_site_fract_y
_atom_site_fract_z
Si Si1 0.923355 0.618780 0.732417
Si Si2 0.729817 0.198312 0.188127
Si Si3 0.500000 0.806863 0.000000
Si Si4 0.952339 0.976375 0.239181
Si Si5 0.811953 0.700657 0.164542
Si Si6 0.500000 0.806951 0.500000
O O1 0.837623 0.685865 0.711739
O O2 0.945476 0.473301 0.587298
O O3 0.945333 0.467323 0.886197
O O4 0.964172 0.884174 0.744154
O O5 0.776455 0.949027 0.228780
O O6 0.779569 0.445949 0.229637
O O7 0.698362 0.202576 0.014522
O O8 0.557013 0.645494 0.911950
O O9 0.944294 0.141159 0.387172
O O10 0.898280 0.734253 0.222342
#
# Coordination Sequence:
#
# PCOD8050350 Si02
#       6
#     4   4   2   4   4   2
#     4  11  23  42  69  99 136 181 232 285 339 415
#     4  10  23  39  67 105 141 172 218 287 354 407
#     4  10  22  34  72 108 132 174 236 282 346 402
#     4  11  23  42  69  99 136 181 232 285 339 415
#     4  10  23  39  67 105 141 172 218 287 354 407
#     4  10  26  42  72  92 140 182 244 282 346 398
#
# _framework density 23.046928000000001
#
# number of rings (size 3 to 8) (size 9 to 14) (size 15 to 20)
#    0.000    1.600    0.000    3.600   19.600    0.000 
#    0.000    0.000    8.800    0.000    0.000    0.000 
#    0.000    0.000    0.000    0.000    0.000    0.000 
#
# Total GULP energy -124016.527934 kJ/mol
# GULP energy per Si atom -12401.652793 kJ/mol
# Density = 2.299447 g / cm^3
# Si number density = 23.046928 Si / 1000 Ang^3
#
#
#
# Elastic Constant Matrix: (Units=GPa)
#
#
# Indices 1 2 3 4 5 6 
#
# 1 108.0861 35.5815 19.7130 0.0000 -21.6008 0.0000
# 2 35.5815 131.1111 33.0088 0.0000 -17.7227 0.0000
# 3 19.7130 33.0088 99.4085 0.0000 -19.0329 0.0000
# 4 0.0000 0.0000 0.0000 7.9133 0.0000 3.2170
# 5 -21.6008 -17.7227 -19.0329 0.0000 21.7878 0.0000
# 6 0.0000 0.0000 0.0000 3.2170 0.0000 49.6349
#
#
#
# Elastic Compliance Matrix: (Units=1/GPa)
#
#
# Indices 1 2 3 4 5 6 
#
# 1 0.011926 -0.001882 0.000277 0.000000 0.010535 0.000000
# 2 -0.001882 0.009148 -0.001918 0.000000 0.003900 0.000000
# 3 0.000277 -0.001918 0.012483 0.000000 0.009619 0.000000
# 4 0.000000 0.000000 0.000000 0.129788 0.000000 -0.008412
# 5 0.010535 0.003900 0.009619 0.000000 0.067917 0.000000
# 6 0.000000 0.000000 0.000000 -0.008412 0.000000 0.020692
#
#
# Mechanical properties :
#
#
# Convention : Reuss Voigt Hill
#
# Bulk Modulus (GPa) = 37.71965 57.24581 47.48273
# Shear Modulus (GPa) = 18.66800 32.55405 25.61102
#
# Velocity S-wave (km/s) = 2.84914 3.76242 3.33717
# Velocity P-wave (km/s) = 5.21780 6.61567 5.95787
#
# Compressibility (1/GPa) = 0.02651138
#
# Stress axis : x y z
#
# Youngs Moduli (GPa) = 83.84769 109.31475 80.10841
#
# Poissons Ratio (x) = 0.20577 -0.02219
# Poissons Ratio (y) = 0.15783 0.15362
# Poissons Ratio (z) = -0.02323 0.20963
#
# Static dielectric constant tensor:
#      x y z
#    x 4.042480 0.000000 -0.176010 
#    y 0.000000 4.366070 0.000000 
#    z -0.176010 0.000000 3.979390 
# 
# 
# High freq. dielectric constant tensor:
#      x y z
#    x 1.902970 0.000000 -0.009080 
#    y 0.000000 1.928150 0.000000 
#    z -0.009080 0.000000 1.888280 
# 
# From -- ./inp_files/25875.got.cif
#   From: 2010.03.12/outbox.cif.g09.slc.cpg/sg5_13_cif.got.tgz:25875.got - 2010.03.31 09:47:26.
