data_PCOD8050916
_publ_section_title
;
Structure prediction by ZEFSAII (Michael W. Deem and Ramdas Pophale) SiO2 
 PCOD8050916
Probable space group: C 2
;
_chemical_formula_sum "Si O2"
_cell_formula_units_Z 18
_cell_length_a 17.066076
_cell_length_b 7.518142
_cell_length_c 4.764522
_cell_angle_alpha 90.000000
_cell_angle_beta 73.024783
_cell_angle_gamma 90.000000
_cell_volume 584.678655
_symmetry_space_group_name_H-M "C 2"
_symmetry_group_IT_number 5
_symmetry_cell_setting 'monoclinic'
loop_
_space_group_symop_operation_xyz
x,y,z
-x,y,-z
1/2+x,1/2+y,z
1/2-x,1/2+y,-z
loop_
_atom_site_type_symbol
_atom_site_label
_atom_site_fract_x
_atom_site_fract_y
_atom_site_fract_z
Si Si1 0.662405 0.832410 0.076877
Si Si2 0.904448 0.900688 0.055685
Si Si3 0.577695 0.091064 0.555168
Si Si4 0.500000 0.799435 0.000000
Si Si5 0.195813 0.001028 0.350960
O O1 0.712034 0.699855 0.223661
O O2 0.642761 0.018455 0.259072
O O3 0.581380 0.711396 0.062302
O O4 0.718680 0.892539 0.753947
O O5 0.890145 0.707493 0.218013
O O6 0.838953 0.021399 0.298426
O O7 0.873397 0.891997 0.764183
O O8 0.000000 0.969829 0.000000
O O9 0.500000 0.198055 0.500000
O O10 0.539828 0.911799 0.714337
#
# Coordination Sequence:
#
# PCOD8050916 Si02
#       5
#     4   4   4   2   4
#     4  11  28  49  76 118 155 213 258 332 394 476
#     4  12  27  48  78 117 157 207 262 328 395 473
#     4  10  22  45  77 109 150 207 260 311 391 475
#     4  10  24  44  80 104 158 196 260 306 410 458
#     4  12  30  47  80 112 165 202 269 327 397 465
#
# _framework density 30.786141000000001
#
# number of rings (size 3 to 8) (size 9 to 14) (size 15 to 20)
#    0.000    0.889    1.111    3.333   14.000    3.556 
#    0.000    0.000    0.000    0.000    0.000    0.000 
#    0.000    0.000    0.000    0.000    0.000    0.000 
#
# Total GULP energy -111534.892952 kJ/mol
# GULP energy per Si atom -12392.765884 kJ/mol
# Density = 3.071607 g / cm^3
# Si number density = 30.786141 Si / 1000 Ang^3
#
#
#
# Elastic Constant Matrix: (Units=GPa)
#
#
# Indices 1 2 3 4 5 6 
#
# 1 123.4267 16.8856 15.2117 0.0000 -23.5214 0.0000
# 2 16.8856 40.6258 -14.6169 0.0000 -25.7537 0.0000
# 3 15.2117 -14.6169 122.3455 0.0000 -33.4946 0.0000
# 4 0.0000 0.0000 0.0000 -9.6004 0.0000 -15.5280
# 5 -23.5214 -25.7537 -33.4946 0.0000 61.9373 0.0000
# 6 0.0000 0.0000 0.0000 -15.5280 0.0000 52.5346
#
#
#
# Elastic Compliance Matrix: (Units=1/GPa)
#
#
# Indices 1 2 3 4 5 6 
#
# 1 0.008953 -0.003155 -0.001078 0.000000 0.001505 0.000000
# 2 -0.003155 0.046360 0.012771 0.000000 0.024985 0.000000
# 3 -0.001078 0.012771 0.013117 0.000000 0.011994 0.000000
# 4 0.000000 0.000000 0.000000 -0.070472 0.000000 -0.020830
# 5 0.001505 0.024985 0.011994 0.000000 0.033592 0.000000
# 6 0.000000 0.000000 0.000000 -0.020830 0.000000 0.012878
#
#
# Mechanical properties :
#
#
# Convention : Reuss Voigt Hill
#
# Bulk Modulus (GPa) = 11.69510 35.70655 23.70082
# Shear Modulus (GPa) = 89.51829 38.90213 64.21021
#
# Velocity S-wave (km/s) = 5.39820 3.55861 4.57189
# Velocity P-wave (km/s) = 6.53155 5.33932 5.96530
#
# Compressibility (1/GPa) = 0.08550591
#
# Stress axis : x y z
#
# Youngs Moduli (GPa) = 111.69037 21.57055 76.23653
#
# Poissons Ratio (x) = 0.06805 0.08218
# Poissons Ratio (y) = 0.35238 -0.97362
# Poissons Ratio (z) = 0.12040 -0.27548
#
# Static dielectric constant tensor:
#      x y z
#    x 6.855010 0.000000 -0.282320 
#    y 0.000000 5.635190 0.000000 
#    z -0.282320 0.000000 5.713050 
# 
# 
# High freq. dielectric constant tensor:
#      x y z
#    x 2.265340 0.000000 -0.009230 
#    y 0.000000 2.287150 0.000000 
#    z -0.009230 0.000000 2.270820 
# 
# From -- ./inp_files/7977.got.cif
#   From: 2010.03.12/outbox.cif.g09.slc.cpg/sg5_4_cif.got.tgz:7977.got - 2010.03.31 09:47:26.
