data_PCOD8050571
_publ_section_title
;
Structure prediction by ZEFSAII (Michael W. Deem and Ramdas Pophale) SiO2 
 PCOD8050571
Probable space group: C 2
;
_chemical_formula_sum "Si O2"
_cell_formula_units_Z 30
_cell_length_a 9.209186
_cell_length_b 10.620749
_cell_length_c 15.015162
_cell_angle_alpha 90.000000
_cell_angle_beta 110.168055
_cell_angle_gamma 90.000000
_cell_volume 1378.562541
_symmetry_space_group_name_H-M "C 2"
_symmetry_group_IT_number 5
_symmetry_cell_setting 'monoclinic'
loop_
_space_group_symop_operation_xyz
x,y,z
-x,y,-z
1/2+x,1/2+y,z
1/2-x,1/2+y,-z
loop_
_atom_site_type_symbol
_atom_site_label
_atom_site_fract_x
_atom_site_fract_y
_atom_site_fract_z
Si Si1 0.042107 0.087300 0.907722
Si Si2 0.981297 0.366958 0.331155
Si Si3 0.048353 0.360054 0.154813
Si Si4 0.000000 0.549525 0.500000
Si Si5 0.873523 0.577415 0.035051
Si Si6 0.207664 0.144052 0.361002
Si Si7 0.845762 0.739936 0.205410
Si Si8 0.371779 0.405388 0.744547
O O1 0.011857 0.215698 0.846652
O O2 0.223485 0.056987 0.942500
O O3 0.939375 0.972082 0.848191
O O4 0.000000 0.113264 0.000000
O O5 0.043167 0.424531 0.251395
O O6 0.078266 0.239266 0.370102
O O7 0.017009 0.463786 0.416546
O O8 0.797553 0.343866 0.279188
O O9 0.226820 0.354836 0.159502
O O10 0.942532 0.438369 0.066199
O O11 0.848022 0.637541 0.461616
O O12 0.840658 0.646946 0.120376
O O13 0.000000 0.651084 0.000000
O O14 0.284099 0.170107 0.280358
O O15 0.128985 0.006596 0.335914
O O16 0.016691 0.791221 0.259185
#
# Coordination Sequence:
#
# PCOD8050571 Si02
#       8
#     4   4   4   2   4   4   4   4
#     4  12  22  40  64  92 131 182 225 276 324 375
#     4  10  22  42  71  97 127 170 212 268 330 398
#     4  11  23  45  65  87 138 177 220 274 332 385
#     4  10  22  40  72 102 128 164 212 272 330 404
#     4  12  26  38  60  98 130 173 236 279 314 376
#     4  10  22  47  67  96 136 167 211 266 334 400
#     4  11  24  44  65  93 130 182 218 268 336 384
#     4  11  23  40  67  94 130 173 221 267 328 381
#
# _framework density 21.761799
#
# number of rings (size 3 to 8) (size 9 to 14) (size 15 to 20)
#    0.000    1.067    4.000    3.600    3.733    3.733 
#    0.000    2.667    0.000    0.000    0.000    0.000 
#    0.000    0.000    0.000    0.000    0.000    0.000 
#
# Total GULP energy -185937.135798 kJ/mol
# GULP energy per Si atom -12395.809053 kJ/mol
# Density = 2.171227 g / cm^3
# Si number density = 21.761799 Si / 1000 Ang^3
#
#
#
# Elastic Constant Matrix: (Units=GPa)
#
#
# Indices 1 2 3 4 5 6 
#
# 1 161.9872 54.2358 61.4144 0.0000 33.5976 0.0000
# 2 54.2358 69.1150 35.3520 0.0000 13.9910 0.0000
# 3 61.4144 35.3520 109.3836 0.0000 23.2917 0.0000
# 4 0.0000 0.0000 0.0000 22.4723 0.0000 7.8947
# 5 33.5976 13.9910 23.2917 0.0000 46.2429 0.0000
# 6 0.0000 0.0000 0.0000 7.8947 0.0000 42.1386
#
#
#
# Elastic Compliance Matrix: (Units=1/GPa)
#
#
# Indices 1 2 3 4 5 6 
#
# 1 0.009984 -0.005492 -0.002957 0.000000 -0.004103 0.000000
# 2 -0.005492 0.020664 -0.003488 0.000000 -0.000506 0.000000
# 3 -0.002957 -0.003488 0.012599 0.000000 -0.003142 0.000000
# 4 0.000000 0.000000 0.000000 0.047634 0.000000 -0.008924
# 5 -0.004103 -0.000506 -0.003142 0.000000 0.026341 0.000000
# 6 0.000000 0.000000 0.000000 -0.008924 0.000000 0.025403
#
#
# Mechanical properties :
#
#
# Convention : Reuss Voigt Hill
#
# Bulk Modulus (GPa) = 51.61467 71.38781 61.50124
# Shear Modulus (GPa) = 28.90892 34.80299 31.85595
#
# Velocity S-wave (km/s) = 3.64871 4.00343 3.83018
# Velocity P-wave (km/s) = 6.44362 7.36514 6.91974
#
# Compressibility (1/GPa) = 0.01937434
#
# Stress axis : x y z
#
# Youngs Moduli (GPa) = 100.15874 48.39281 79.37337
#
# Poissons Ratio (x) = 0.26575 0.23472
# Poissons Ratio (y) = 0.55003 0.27682
# Poissons Ratio (z) = 0.29619 0.16877
#
# Static dielectric constant tensor:
#      x y z
#    x 4.273660 0.000000 0.333610 
#    y 0.000000 3.739130 0.000000 
#    z 0.333610 0.000000 4.064250 
# 
# 
# High freq. dielectric constant tensor:
#      x y z
#    x 1.865170 0.000000 0.018570 
#    y 0.000000 1.840260 0.000000 
#    z 0.018570 0.000000 1.856320 
# 
# From -- ./inp_files/50474.got.cif
#   From: 2010.03.12/outbox.cif.g09.slc.cpg/sg5_26_cif.got.tgz:50474.got - 2010.03.31 09:47:26.
