data_PCOD8050601
_publ_section_title
;
Structure prediction by ZEFSAII (Michael W. Deem and Ramdas Pophale) SiO2 
 PCOD8050601
Probable space group: C 2
;
_chemical_formula_sum "Si O2"
_cell_formula_units_Z 18
_cell_length_a 17.617957
_cell_length_b 8.651673
_cell_length_c 13.742915
_cell_angle_alpha 90.000000
_cell_angle_beta 21.588746
_cell_angle_gamma 90.000000
_cell_volume 770.750424
_symmetry_space_group_name_H-M "C 2"
_symmetry_group_IT_number 5
_symmetry_cell_setting 'monoclinic'
loop_
_space_group_symop_operation_xyz
x,y,z
-x,y,-z
1/2+x,1/2+y,z
1/2-x,1/2+y,-z
loop_
_atom_site_type_symbol
_atom_site_label
_atom_site_fract_x
_atom_site_fract_y
_atom_site_fract_z
Si Si1 0.571260 0.052660 0.724878
Si Si2 0.969831 0.907868 0.217195
Si Si3 0.223971 0.839026 0.214993
Si Si4 0.892871 0.540468 0.732484
Si Si5 0.500000 0.626333 0.000000
O O1 0.573720 0.229915 0.754502
O O2 0.551165 0.024751 0.632633
O O3 0.784107 0.971608 0.507726
O O4 0.380801 0.974780 0.006438
O O5 0.946148 0.016517 0.152480
O O6 0.199859 0.926647 0.985832
O O7 0.195573 0.715830 0.160892
O O8 0.302402 0.735887 0.213292
O O9 0.000000 0.915339 0.500000
O O10 0.000000 0.501078 0.500000
#
# Coordination Sequence:
#
# PCOD8050601 Si02
#       5
#     4   4   4   4   2
#     4  12  24  39  64  97 126 169 215 255 312 377
#     4  11  23  40  64  92 129 167 211 261 310 376
#     4  10  22  41  65  89 127 170 209 260 314 373
#     4  10  22  42  66  89 126 170 207 261 319 371
#     4  10  22  44  64  90 128 168 208 262 322 366
#
# _framework density 23.353861999999999
#
# number of rings (size 3 to 8) (size 9 to 14) (size 15 to 20)
#    0.000    1.333    0.000    8.000    0.000    3.556 
#    0.000    2.222    0.000    0.000    0.000    0.000 
#    0.000    0.000    0.000    0.000    0.000    0.000 
#
# Total GULP energy -111540.267556 kJ/mol
# GULP energy per Si atom -12393.363062 kJ/mol
# Density = 2.330071 g / cm^3
# Si number density = 23.353862 Si / 1000 Ang^3
#
#
#
# Elastic Constant Matrix: (Units=GPa)
#
#
# Indices 1 2 3 4 5 6 
#
# 1 75.7413 5.9118 20.2973 -0.0004 -8.4119 0.0003
# 2 5.9118 151.4711 78.2247 -0.0002 -12.6509 0.0003
# 3 20.2973 78.2247 171.6083 -0.0004 -32.4330 0.0005
# 4 -0.0004 -0.0002 -0.0004 43.4268 0.0003 -8.5097
# 5 -8.4119 -12.6509 -32.4330 0.0003 35.9443 -0.0003
# 6 0.0003 0.0003 0.0005 -8.5097 -0.0003 14.5032
#
#
#
# Elastic Compliance Matrix: (Units=1/GPa)
#
#
# Indices 1 2 3 4 5 6 
#
# 1 0.013782 0.000359 -0.001399 0.000000 0.002089 0.000000
# 2 0.000359 0.008655 -0.004094 0.000000 -0.000564 0.000000
# 3 -0.001399 -0.004094 0.009072 0.000000 0.006417 0.000000
# 4 0.000000 0.000000 0.000000 0.026019 0.000000 0.015266
# 5 0.002089 -0.000564 0.006417 0.000000 0.033902 0.000000
# 6 0.000000 0.000000 0.000000 0.015266 0.000000 0.077908
#
#
# Mechanical properties :
#
#
# Convention : Reuss Voigt Hill
#
# Bulk Modulus (GPa) = 47.08008 67.52091 57.30049
# Shear Modulus (GPa) = 26.78299 38.40066 32.59183
#
# Velocity S-wave (km/s) = 3.39017 4.05939 3.73978
# Velocity P-wave (km/s) = 5.96050 7.13767 6.57548
#
# Compressibility (1/GPa) = 0.02124041
#
# Stress axis : x y z
#
# Youngs Moduli (GPa) = 72.55985 115.53611 110.23071
#
# Poissons Ratio (x) = -0.04148 0.15419
# Poissons Ratio (y) = -0.02605 0.45133
# Poissons Ratio (z) = 0.10150 0.47306
#
# Static dielectric constant tensor:
#      x y z
#    x 4.287730 0.000000 -0.477200 
#    y 0.000000 4.053640 0.000000 
#    z -0.477200 0.000000 4.497050 
# 
# 
# High freq. dielectric constant tensor:
#      x y z
#    x 1.913440 0.000000 -0.028740 
#    y 0.000000 1.914190 0.000000 
#    z -0.028740 0.000000 1.941350 
# 
# From -- ./inp_files/56713.got.cif
#   From: 2010.03.12/outbox.cif.g09.slc.cpg/sg5_29_cif.got.tgz:56713.got - 2010.03.31 09:47:26.
