data_PCOD8050000
_publ_section_title
;
Structure prediction by ZEFSAII (Michael W. Deem and Ramdas Pophale) SiO2 
 PCOD8050000
Probable space group: C 2
;
_chemical_formula_sum "Si O2"
_cell_formula_units_Z 32
_cell_length_a 26.678159
_cell_length_b 13.937114
_cell_length_c 9.450471
_cell_angle_alpha 90.000000
_cell_angle_beta 27.555633
_cell_angle_gamma 90.000000
_cell_volume 1625.537018
_symmetry_space_group_name_H-M "C 2"
_symmetry_group_IT_number 5
_symmetry_cell_setting 'monoclinic'
loop_
_space_group_symop_operation_xyz
x,y,z
-x,y,-z
1/2+x,1/2+y,z
1/2-x,1/2+y,-z
loop_
_atom_site_type_symbol
_atom_site_label
_atom_site_fract_x
_atom_site_fract_y
_atom_site_fract_z
Si Si1 0.512193 0.503150 0.803491
Si Si2 0.312820 0.867062 0.701092
Si Si3 0.673807 0.368088 0.778195
Si Si4 0.503309 0.208640 0.158786
Si Si5 0.676819 0.355478 0.298478
Si Si6 0.335842 0.860903 0.132466
Si Si7 0.485696 0.011251 0.367317
Si Si8 0.996319 0.224940 0.175475
O O1 0.622714 0.458062 0.467339
O O2 0.514867 0.614099 0.758694
O O3 0.500000 0.482438 0.000000
O O4 0.410929 0.453206 0.979063
O O5 0.270696 0.875252 0.647274
O O6 0.370358 0.964661 0.612139
O O7 0.396604 0.779016 0.498931
O O8 0.204922 0.845620 0.062675
O O9 0.728909 0.385143 0.489230
O O10 0.612261 0.265688 0.929653
O O11 0.398857 0.270468 0.459357
O O12 0.498125 0.113700 0.264195
O O13 0.500000 0.185266 0.000000
O O14 0.795152 0.348854 0.074383
O O15 0.420663 0.946608 0.934488
O O16 0.390414 0.761608 0.044601
O O17 0.500000 0.020340 0.500000
O O18 0.000000 0.244305 0.000000
#
# Coordination Sequence:
#
# PCOD8050000 Si02
#       8
#     4   4   4   4   4   4   4   4
#     4  10  21  39  64  92 121 158 207 254 300 363
#     4  11  25  41  62  92 127 164 205 255 313 368
#     4  11  22  41  65  92 124 165 208 250 310 366
#     4  11  25  41  64  97 127 161 213 260 308 375
#     4  11  22  43  63  87 128 165 202 252 313 370
#     4  11  21  41  64  85 124 165 204 252 308 365
#     4  11  26  42  62  93 128 165 211 261 313 368
#     4  10  22  38  62  94 121 153 208 256 301 363
#
# _framework density 19.685801999999999
#
# number of rings (size 3 to 8) (size 9 to 14) (size 15 to 20)
#    0.000    1.250    5.000    0.750    3.500    5.500 
#    0.000    1.250    0.000    0.000    0.000    0.000 
#    0.000    0.000    0.000    0.000    0.000    0.000 
#
# Total GULP energy -198453.121492 kJ/mol
# GULP energy per Si atom -12403.320093 kJ/mol
# Density = 1.964100 g / cm^3
# Si number density = 19.685802 Si / 1000 Ang^3
#
#
#
# Elastic Constant Matrix: (Units=GPa)
#
#
# Indices 1 2 3 4 5 6 
#
# 1 84.7946 46.3386 21.1140 0.0000 -11.8378 0.0000
# 2 46.3386 138.1559 48.7449 0.0000 0.5807 0.0000
# 3 21.1140 48.7449 99.2937 0.0000 4.0590 0.0000
# 4 0.0000 0.0000 0.0000 2.5791 0.0000 -4.0100
# 5 -11.8378 0.5807 4.0590 0.0000 36.5587 0.0000
# 6 0.0000 0.0000 0.0000 -4.0100 0.0000 17.1278
#
#
#
# Elastic Compliance Matrix: (Units=1/GPa)
#
#
# Indices 1 2 3 4 5 6 
#
# 1 0.015421 -0.004792 -0.001139 0.000000 0.005196 0.000000
# 2 -0.004792 0.010248 -0.003960 0.000000 -0.001275 0.000000
# 3 -0.001139 -0.003960 0.012326 0.000000 -0.001674 0.000000
# 4 0.000000 0.000000 0.000000 0.609649 0.000000 0.142731
# 5 0.005196 -0.001275 -0.001674 0.000000 0.029242 0.000000
# 6 0.000000 0.000000 0.000000 0.142731 0.000000 0.091801
#
#
# Mechanical properties :
#
#
# Convention : Reuss Voigt Hill
#
# Bulk Modulus (GPa) = 54.90664 61.62658 58.26661
# Shear Modulus (GPa) = 6.29296 24.98957 15.64126
#
# Velocity S-wave (km/s) = 1.78987 3.56676 2.82183
# Velocity P-wave (km/s) = 5.67658 6.95237 6.34661
#
# Compressibility (1/GPa) = 0.01821273
#
# Stress axis : x y z
#
# Youngs Moduli (GPa) = 64.84615 97.57948 81.13139
#
# Poissons Ratio (x) = 0.46764 0.09240
# Poissons Ratio (y) = 0.31077 0.32126
# Poissons Ratio (z) = 0.07386 0.38639
#
# Static dielectric constant tensor:
#      x y z
#    x 3.577050 0.000000 -0.057970 
#    y 0.000000 3.543750 0.000000 
#    z -0.057970 0.000000 3.621210 
# 
# 
# High freq. dielectric constant tensor:
#      x y z
#    x 1.772180 0.000000 -0.002930 
#    y 0.000000 1.761640 0.000000 
#    z -0.002930 0.000000 1.778930 
# 
# From -- ./inp_files/31042.got.cif
#   From: 2010.03.12/outbox.cif.g09.slc.cpg/sg5_16_cif.got.tgz:31042.got - 2010.03.31 09:47:26.
