data_PCOD8050765
_publ_section_title
;
Structure prediction by ZEFSAII (Michael W. Deem and Ramdas Pophale) SiO2 
 PCOD8050765
Probable space group: C 2
;
_chemical_formula_sum "Si O2"
_cell_formula_units_Z 22
_cell_length_a 9.517963
_cell_length_b 8.600723
_cell_length_c 19.135584
_cell_angle_alpha 90.000000
_cell_angle_beta 139.504339
_cell_angle_gamma 90.000000
_cell_volume 1017.247424
_symmetry_space_group_name_H-M "C 2"
_symmetry_group_IT_number 5
_symmetry_cell_setting 'monoclinic'
loop_
_space_group_symop_operation_xyz
x,y,z
-x,y,-z
1/2+x,1/2+y,z
1/2-x,1/2+y,-z
loop_
_atom_site_type_symbol
_atom_site_label
_atom_site_fract_x
_atom_site_fract_y
_atom_site_fract_z
Si Si1 0.487676 0.201390 0.152972
Si Si2 0.400077 0.691606 0.220053
Si Si3 0.205844 0.901394 0.034732
Si Si4 0.459195 0.363568 0.690244
Si Si5 0.366695 0.277514 0.388100
Si Si6 0.500000 0.979202 0.500000
O O1 0.735360 0.210986 0.221649
O O2 0.494996 0.221323 0.239636
O O3 0.384768 0.034922 0.095858
O O4 0.354901 0.340224 0.065249
O O5 0.294148 0.748973 0.108096
O O6 0.470399 0.513509 0.238944
O O7 0.616658 0.790638 0.316679
O O8 0.000000 0.968285 0.000000
O O9 0.607471 0.351938 0.677984
O O10 0.209896 0.370364 0.569692
O O11 0.500000 0.367237 0.500000
O O12 0.454454 0.097394 0.417408
#
# Coordination Sequence:
#
# PCOD8050765 Si02
#       6
#     4   4   4   4   4   2
#     4  11  24  40  69  96 126 170 213 257 319 379
#     4  10  22  43  62  94 130 166 207 263 313 373
#     4  10  23  42  63  98 133 163 206 267 316 379
#     4  11  22  40  66  94 123 172 215 260 312 376
#     4   9  21  42  60  91 132 168 205 266 314 367
#     4   8  22  38  58  90 134 162 210 272 306 362
#
# _framework density 21.626988000000001
#
# number of rings (size 3 to 8) (size 9 to 14) (size 15 to 20)
#    0.545    1.455    0.000    2.182    2.545    8.727 
#    3.273    0.000    0.000    0.000    0.000    0.000 
#    0.000    0.000    0.000    0.000    0.000    0.000 
#
# Total GULP energy -136343.643542 kJ/mol
# GULP energy per Si atom -12394.876686 kJ/mol
# Density = 2.157776 g / cm^3
# Si number density = 21.626988 Si / 1000 Ang^3
#
#
#
# Elastic Constant Matrix: (Units=GPa)
#
#
# Indices 1 2 3 4 5 6 
#
# 1 121.1294 36.1842 70.0730 0.0000 3.8658 0.0000
# 2 36.1842 66.9707 35.5144 0.0000 7.5567 0.0000
# 3 70.0730 35.5144 125.3490 0.0000 14.7971 0.0000
# 4 0.0000 0.0000 0.0000 31.8865 0.0000 2.2428
# 5 3.8658 7.5567 14.7971 0.0000 40.8488 0.0000
# 6 0.0000 0.0000 0.0000 2.2428 0.0000 24.8548
#
#
#
# Elastic Compliance Matrix: (Units=1/GPa)
#
#
# Indices 1 2 3 4 5 6 
#
# 1 0.013067 -0.003856 -0.006425 0.000000 0.001804 0.000000
# 2 -0.003856 0.018800 -0.002928 0.000000 -0.002052 0.000000
# 3 -0.006425 -0.002928 0.012811 0.000000 -0.003491 0.000000
# 4 0.000000 0.000000 0.000000 0.031562 0.000000 -0.002848
# 5 0.001804 -0.002052 -0.003491 0.000000 0.025954 0.000000
# 6 0.000000 0.000000 0.000000 -0.002848 0.000000 0.040491
#
#
# Mechanical properties :
#
#
# Convention : Reuss Voigt Hill
#
# Bulk Modulus (GPa) = 54.76942 66.33249 60.55095
# Shear Modulus (GPa) = 28.54036 30.96318 29.75177
#
# Velocity S-wave (km/s) = 3.63666 3.78788 3.71304
# Velocity P-wave (km/s) = 6.55845 7.06176 6.81475
#
# Compressibility (1/GPa) = 0.01825836
#
# Stress axis : x y z
#
# Youngs Moduli (GPa) = 76.52895 53.19149 78.05612
#
# Poissons Ratio (x) = 0.20513 0.50152
# Poissons Ratio (y) = 0.29513 0.22858
# Poissons Ratio (z) = 0.49171 0.15577
#
# Static dielectric constant tensor:
#      x y z
#    x 3.626550 0.000000 0.188560 
#    y 0.000000 3.575830 0.000000 
#    z 0.188560 0.000000 4.074960 
# 
# 
# High freq. dielectric constant tensor:
#      x y z
#    x 1.833410 0.000000 0.011530 
#    y 0.000000 1.827430 0.000000 
#    z 0.011530 0.000000 1.866570 
# 
# From -- ./inp_files/64358.got.cif
#   From: 2010.03.12/outbox.cif.g09.slc.cpg/sg5_33_cif.got.tgz:64358.got - 2010.03.31 09:47:26.
