data_PCOD8050665
_publ_section_title
;
Structure prediction by ZEFSAII (Michael W. Deem and Ramdas Pophale) SiO2 
 PCOD8050665
Probable space group: C 2
;
_chemical_formula_sum "Si O2"
_cell_formula_units_Z 30
_cell_length_a 16.037602
_cell_length_b 9.008448
_cell_length_c 19.915516
_cell_angle_alpha 90.000000
_cell_angle_beta 30.006202
_cell_angle_gamma 90.000000
_cell_volume 1438.905886
_symmetry_space_group_name_H-M "C 2"
_symmetry_group_IT_number 5
_symmetry_cell_setting 'monoclinic'
loop_
_space_group_symop_operation_xyz
x,y,z
-x,y,-z
1/2+x,1/2+y,z
1/2-x,1/2+y,-z
loop_
_atom_site_type_symbol
_atom_site_label
_atom_site_fract_x
_atom_site_fract_y
_atom_site_fract_z
Si Si1 0.746383 0.063620 0.870169
Si Si2 0.500000 0.284359 0.000000
Si Si3 0.889060 0.730330 0.360702
Si Si4 0.626984 0.738326 0.757813
Si Si5 0.627414 0.531308 0.994543
Si Si6 0.288509 0.245742 0.782721
Si Si7 0.133844 0.070022 0.622921
Si Si8 0.937939 0.532398 0.863899
O O1 0.938917 0.100747 0.747196
O O2 0.718615 0.899784 0.860852
O O3 0.665623 0.182618 0.874959
O O4 0.639435 0.083793 0.012196
O O5 0.483342 0.387923 0.945707
O O6 0.733134 0.626286 0.488239
O O7 0.018975 0.726313 0.332079
O O8 0.974758 0.673518 0.232557
O O9 0.827910 0.897565 0.390950
O O10 0.769138 0.741030 0.715913
O O11 0.701213 0.662896 0.639459
O O12 0.574317 0.905377 0.778190
O O13 0.465973 0.644844 0.891923
O O14 0.676980 0.613801 0.890848
O O15 0.791255 0.471920 0.918292
#
# Coordination Sequence:
#
# PCOD8050665 Si02
#       8
#     4   2   4   4   4   4   4   4
#     4  11  23  40  65  95 128 168 210 265 320 390
#     4  12  24  32  58  96 138 152 208 262 326 354
#     4  10  25  45  66  92 127 171 219 268 318 386
#     4  12  21  38  65  91 128 167 212 257 322 384
#     4  11  22  35  56  96 131 162 200 265 314 376
#     4  10  22  42  62  92 130 170 209 260 328 387
#     4  11  24  43  68  91 127 169 221 265 322 383
#     4  11  23  39  67  96 127 167 215 259 321 385
#
# _framework density 20.849173
#
# number of rings (size 3 to 8) (size 9 to 14) (size 15 to 20)
#    0.000    1.067    4.000    2.400    1.867    1.600 
#    0.000    0.000    0.000    2.400    0.000    0.000 
#    0.000    0.000    0.000    0.000    0.000    0.000 
#
# Total GULP energy -186061.086437 kJ/mol
# GULP energy per Si atom -12404.072429 kJ/mol
# Density = 2.080172 g / cm^3
# Si number density = 20.849173 Si / 1000 Ang^3
#
#
#
# Elastic Constant Matrix: (Units=GPa)
#
#
# Indices 1 2 3 4 5 6 
#
# 1 92.7925 37.4538 24.8172 -0.0050 0.8657 -0.0026
# 2 37.4538 118.3191 41.6792 0.0036 -11.1150 0.0014
# 3 24.8172 41.6792 95.0264 0.0030 6.4335 0.0011
# 4 -0.0050 0.0036 0.0030 33.8671 0.0004 -1.3461
# 5 0.8657 -11.1150 6.4335 0.0004 15.9220 0.0006
# 6 -0.0026 0.0014 0.0011 -1.3461 0.0006 38.5351
#
#
#
# Elastic Compliance Matrix: (Units=1/GPa)
#
#
# Indices 1 2 3 4 5 6 
#
# 1 0.012716 -0.003755 -0.001491 0.000002 -0.002710 0.000001
# 2 -0.003755 0.012538 -0.005269 -0.000002 0.011086 -0.000001
# 3 -0.001491 -0.005269 0.013846 -0.000001 -0.009192 0.000000
# 4 0.000002 -0.000002 -0.000001 0.029568 -0.000002 0.001033
# 5 -0.002710 0.011086 -0.009192 -0.000002 0.074406 -0.000002
# 6 0.000001 -0.000001 0.000000 0.001033 -0.000002 0.025986
#
#
# Mechanical properties :
#
#
# Convention : Reuss Voigt Hill
#
# Bulk Modulus (GPa) = 55.33709 57.11539 56.22624
# Shear Modulus (GPa) = 25.49538 31.14402 28.31970
#
# Velocity S-wave (km/s) = 3.50072 3.86913 3.68953
# Velocity P-wave (km/s) = 6.55281 6.88580 6.72137
#
# Compressibility (1/GPa) = 0.01807106
#
# Stress axis : x y z
#
# Youngs Moduli (GPa) = 78.63955 79.75870 72.22274
#
# Poissons Ratio (x) = 0.29948 0.10765
# Poissons Ratio (y) = 0.29528 0.38055
# Poissons Ratio (z) = 0.11722 0.42026
#
# Static dielectric constant tensor:
#      x y z
#    x 3.876840 0.000000 -0.019030 
#    y 0.000000 3.859150 0.000000 
#    z -0.019030 0.000000 3.493260 
# 
# 
# High freq. dielectric constant tensor:
#      x y z
#    x 1.822210 0.000000 -0.002830 
#    y 0.000000 1.830400 0.000000 
#    z -0.002830 0.000000 1.789110 
# 
# From -- ./inp_files/31756.got.cif
#   From: 2010.03.12/outbox.cif.g09.slc.cpg/sg5_16_cif.got.tgz:31756.got - 2010.03.31 09:47:26.
