data_PCOD8050129
_publ_section_title
;
Structure prediction by ZEFSAII (Michael W. Deem and Ramdas Pophale) SiO2 
 PCOD8050129
Probable space group: C 2
;
_chemical_formula_sum "Si O2"
_cell_formula_units_Z 28
_cell_length_a 24.211829
_cell_length_b 8.749581
_cell_length_c 8.399375
_cell_angle_alpha 90.000000
_cell_angle_beta 131.977202
_cell_angle_gamma 90.000000
_cell_volume 1322.789736
_symmetry_space_group_name_H-M "C 2"
_symmetry_group_IT_number 5
_symmetry_cell_setting 'monoclinic'
loop_
_space_group_symop_operation_xyz
x,y,z
-x,y,-z
1/2+x,1/2+y,z
1/2-x,1/2+y,-z
loop_
_atom_site_type_symbol
_atom_site_label
_atom_site_fract_x
_atom_site_fract_y
_atom_site_fract_z
Si Si1 0.000000 0.734280 0.500000
Si Si2 0.639166 0.842207 0.601708
Si Si3 0.233546 0.107223 0.633957
Si Si4 0.000000 0.221118 0.500000
Si Si5 0.095212 0.975576 0.856810
Si Si6 0.269300 0.396286 0.085497
Si Si7 0.127218 0.673695 0.525780
Si Si8 0.841012 0.861205 0.710824
O O1 0.946739 0.829477 0.285966
O O2 0.947938 0.640809 0.519632
O O3 0.657143 0.701032 0.518893
O O4 0.556043 0.826190 0.508453
O O5 0.651181 0.001040 0.527914
O O6 0.697692 0.832828 0.858563
O O7 0.298478 0.225052 0.717960
O O8 0.259652 0.016803 0.840413
O O9 0.217858 0.986282 0.464467
O O10 0.953810 0.122944 0.281535
O O11 0.175457 0.985122 0.927539
O O12 0.104485 0.951824 0.064622
O O13 0.309468 0.252383 0.245696
O O14 0.112977 0.782310 0.345030
#
# Coordination Sequence:
#
# PCOD8050129 Si02
#       8
#     2   4   4   2   4   4   4   4
#     4   9  21  42  64  92 124 166 232 266 326 396
#     4  12  22  40  67  96 137 170 224 285 327 391
#     4  11  23  41  64 101 131 170 225 281 330 404
#     4  11  25  40  68 104 132 172 234 282 332 390
#     4  10  21  41  68  93 126 176 223 270 329 403
#     4  10  21  40  70  95 125 178 230 269 327 400
#     4  10  23  40  65  99 131 173 221 278 335 403
#     4  11  24  40  67  98 136 174 219 279 341 395
#
# _framework density 21.167384999999999
#
# number of rings (size 3 to 8) (size 9 to 14) (size 15 to 20)
#    0.000    1.429    2.857    2.143    4.000    1.714 
#    0.000    0.000    3.143    0.000    0.000    0.000 
#    0.000    0.000    0.000    0.000    0.000    0.000 
#
# Total GULP energy -173556.429861 kJ/mol
# GULP energy per Si atom -12396.887847 kJ/mol
# Density = 2.111921 g / cm^3
# Si number density = 21.167385 Si / 1000 Ang^3
#
#
#
# Elastic Constant Matrix: (Units=GPa)
#
#
# Indices 1 2 3 4 5 6 
#
# 1 86.6953 32.4507 37.2966 0.0000 5.7301 0.0000
# 2 32.4507 111.6405 33.0628 0.0000 -4.8064 0.0000
# 3 37.2966 33.0628 109.5258 0.0000 -12.8620 0.0000
# 4 0.0000 0.0000 0.0000 -6.6834 0.0000 -3.9643
# 5 5.7301 -4.8064 -12.8620 0.0000 33.4841 0.0000
# 6 0.0000 0.0000 0.0000 -3.9643 0.0000 35.0022
#
#
#
# Elastic Compliance Matrix: (Units=1/GPa)
#
#
# Indices 1 2 3 4 5 6 
#
# 1 0.015093 -0.003190 -0.004748 0.000000 -0.004864 0.000000
# 2 -0.003190 0.010514 -0.001933 0.000000 0.001313 0.000000
# 3 -0.004748 -0.001933 0.011932 0.000000 0.005118 0.000000
# 4 0.000000 0.000000 0.000000 -0.140206 0.000000 -0.015879
# 5 -0.004864 0.001313 0.005118 0.000000 0.032852 0.000000
# 6 0.000000 0.000000 0.000000 -0.015879 0.000000 0.026771
#
#
# Mechanical properties :
#
#
# Convention : Reuss Voigt Hill
#
# Bulk Modulus (GPa) = 56.19404 57.05355 56.62379
# Shear Modulus (GPa) = -287.85208 26.03067 -130.91071
#
# Velocity S-wave (km/s) = -11.67406 3.51059 -7.87272
# Velocity P-wave (km/s) = 12.45418 6.59123 7.47202
#
# Compressibility (1/GPa) = 0.01779548
#
# Stress axis : x y z
#
# Youngs Moduli (GPa) = 66.25653 95.11367 83.81084
#
# Poissons Ratio (x) = 0.30345 0.39791
# Poissons Ratio (y) = 0.21139 0.16203
# Poissons Ratio (z) = 0.31457 0.18388
#
# Static dielectric constant tensor:
#      x y z
#    x 4.015110 0.000000 -0.071940 
#    y 0.000000 3.861020 0.000000 
#    z -0.071940 0.000000 3.728380 
# 
# 
# High freq. dielectric constant tensor:
#      x y z
#    x 1.827700 0.000000 -0.001960 
#    y 0.000000 1.842310 0.000000 
#    z -0.001960 0.000000 1.811860 
# 
# From -- ./inp_files/26716.got.cif
#   From: 2010.03.12/outbox.cif.g09.slc.cpg/sg5_14_cif.got.tgz:26716.got - 2010.03.31 09:47:26.
