data_PCOD8050391
_publ_section_title
;
Structure prediction by ZEFSAII (Michael W. Deem and Ramdas Pophale) SiO2 
 PCOD8050391
Probable space group: C 2
;
_chemical_formula_sum "Si O2"
_cell_formula_units_Z 28
_cell_length_a 10.332172
_cell_length_b 9.525127
_cell_length_c 15.327958
_cell_angle_alpha 90.000000
_cell_angle_beta 65.391662
_cell_angle_gamma 90.000000
_cell_volume 1371.495659
_symmetry_space_group_name_H-M "C 2"
_symmetry_group_IT_number 5
_symmetry_cell_setting 'monoclinic'
loop_
_space_group_symop_operation_xyz
x,y,z
-x,y,-z
1/2+x,1/2+y,z
1/2-x,1/2+y,-z
loop_
_atom_site_type_symbol
_atom_site_label
_atom_site_fract_x
_atom_site_fract_y
_atom_site_fract_z
Si Si1 0.071193 0.854000 0.218168
Si Si2 0.578395 0.532335 0.889336
Si Si3 0.333666 0.402992 0.412842
Si Si4 0.405850 0.034493 0.792740
Si Si5 0.315426 0.727939 0.407219
Si Si6 0.435781 0.907709 0.605582
Si Si7 0.867946 0.322593 0.201475
O O1 0.065050 0.693467 0.186957
O O2 0.236052 0.895950 0.188105
O O3 0.990824 0.874608 0.333037
O O4 0.999914 0.951781 0.166479
O O5 0.743125 0.486798 0.853246
O O6 0.566190 0.698152 0.874816
O O7 0.500000 0.492737 0.000000
O O8 0.299335 0.566608 0.437682
O O9 0.306446 0.319703 0.510428
O O10 0.222912 0.350739 0.369109
O O11 0.440589 0.022933 0.680259
O O12 0.508721 0.935592 0.819755
O O13 0.472365 0.772542 0.394190
O O14 0.303724 0.752424 0.307093
O O15 0.500000 0.979547 0.500000
#
# Coordination Sequence:
#
# PCOD8050391 Si02
#       7
#     4   4   4   4   4   4   4
#     4  11  23  40  64  97 127 163 217 260 316 382
#     4  11  24  46  69  90 125 169 213 265 322 377
#     4  11  21  38  61  90 132 171 214 254 306 377
#     4  10  22  41  65  94 128 166 209 264 317 372
#     4  10  22  38  58  93 129 173 210 253 315 370
#     4   9  19  37  60  82 128 170 208 248 307 364
#     4  10  23  44  63  96 132 164 209 267 318 375
#
# _framework density 20.415669000000001
#
# number of rings (size 3 to 8) (size 9 to 14) (size 15 to 20)
#    0.000    1.714    2.857    0.857    6.000    5.143 
#    5.143    0.714    0.000    0.000    0.000    0.000 
#    0.000    0.000    0.000    0.000    0.000    0.000 
#
# Total GULP energy -173593.609137 kJ/mol
# GULP energy per Si atom -12399.543510 kJ/mol
# Density = 2.036920 g / cm^3
# Si number density = 20.415669 Si / 1000 Ang^3
#
#
#
# Elastic Constant Matrix: (Units=GPa)
#
#
# Indices 1 2 3 4 5 6 
#
# 1 134.9464 53.6265 32.3464 0.0000 -14.3906 0.0000
# 2 53.6265 84.9579 25.4108 0.0000 -11.3975 0.0000
# 3 32.3464 25.4108 86.1597 0.0000 -14.1753 0.0000
# 4 0.0000 0.0000 0.0000 24.2884 0.0000 -1.0303
# 5 -14.3906 -11.3975 -14.1753 0.0000 18.1939 0.0000
# 6 0.0000 0.0000 0.0000 -1.0303 0.0000 36.1703
#
#
#
# Elastic Compliance Matrix: (Units=1/GPa)
#
#
# Indices 1 2 3 4 5 6 
#
# 1 0.010407 -0.005606 -0.001694 0.000000 0.003399 0.000000
# 2 -0.005606 0.016501 -0.002054 0.000000 0.004302 0.000000
# 3 -0.001694 -0.002054 0.014242 0.000000 0.008469 0.000000
# 4 0.000000 0.000000 0.000000 0.041222 0.000000 0.001174
# 5 0.003399 0.004302 0.008469 0.000000 0.066946 0.000000
# 6 0.000000 0.000000 0.000000 0.001174 0.000000 0.027680
#
#
# Mechanical properties :
#
#
# Convention : Reuss Voigt Hill
#
# Bulk Modulus (GPa) = 44.56270 58.75903 51.66087
# Shear Modulus (GPa) = 24.60799 28.70922 26.65860
#
# Velocity S-wave (km/s) = 3.47558 3.75405 3.61749
# Velocity P-wave (km/s) = 6.16290 6.90176 6.54277
#
# Compressibility (1/GPa) = 0.02244029
#
# Stress axis : x y z
#
# Youngs Moduli (GPa) = 96.09120 60.60351 70.21691
#
# Poissons Ratio (x) = 0.33975 0.11897
# Poissons Ratio (y) = 0.53870 0.14423
# Poissons Ratio (z) = 0.16281 0.12448
#
# Static dielectric constant tensor:
#      x y z
#    x 3.947580 0.000000 -0.093870 
#    y 0.000000 3.498690 0.000000 
#    z -0.093870 0.000000 3.636960 
# 
# 
# High freq. dielectric constant tensor:
#      x y z
#    x 1.811130 0.000000 -0.006130 
#    y 0.000000 1.787880 0.000000 
#    z -0.006130 0.000000 1.783870 
# 
# From -- ./inp_files/52229.got.cif
#   From: 2010.03.12/outbox.cif.g09.slc.cpg/sg5_27_cif.got.tgz:52229.got - 2010.03.31 09:47:26.
