data_PCOD8050502
_publ_section_title
;
Structure prediction by ZEFSAII (Michael W. Deem and Ramdas Pophale) SiO2 
 PCOD8050502
Probable space group: C 2
;
_chemical_formula_sum "Si O2"
_cell_formula_units_Z 24
_cell_length_a 18.815956
_cell_length_b 8.638408
_cell_length_c 14.908849
_cell_angle_alpha 90.000000
_cell_angle_beta 27.613598
_cell_angle_gamma 90.000000
_cell_volume 1123.206998
_symmetry_space_group_name_H-M "C 2"
_symmetry_group_IT_number 5
_symmetry_cell_setting 'monoclinic'
loop_
_space_group_symop_operation_xyz
x,y,z
-x,y,-z
1/2+x,1/2+y,z
1/2-x,1/2+y,-z
loop_
_atom_site_type_symbol
_atom_site_label
_atom_site_fract_x
_atom_site_fract_y
_atom_site_fract_z
Si Si1 0.000000 0.205251 0.500000
Si Si2 0.500000 0.206086 0.000000
Si Si3 0.110394 0.238077 0.066649
Si Si4 0.906362 0.405663 0.435613
Si Si5 0.580289 0.180564 0.180250
Si Si6 0.290092 0.025261 0.134433
Si Si7 0.944149 0.925581 0.220649
O O1 0.918029 0.313506 0.516887
O O2 0.882824 0.088574 0.681283
O O3 0.352558 0.091190 0.159896
O O4 0.513063 0.312894 0.070569
O O5 0.973233 0.308247 0.278621
O O6 0.250276 0.216576 0.977332
O O7 0.183319 0.340182 0.903198
O O8 0.042109 0.081711 0.102019
O O9 0.734110 0.448906 0.599400
O O10 0.993654 0.570092 0.348560
O O11 0.482207 0.338912 0.272973
O O12 0.598663 0.085486 0.068347
#
# Coordination Sequence:
#
# PCOD8050502 Si02
#       7
#     2   2   4   4   4   4   4
#     4  12  22  42  70  96 138 170 226 288 330 386
#     4  10  22  40  62  92 128 170 218 282 340 380
#     4  11  23  41  67  96 133 183 224 267 336 415
#     4  11  23  40  67 100 130 177 228 274 335 394
#     4  10  22  40  65  96 130 176 225 268 333 406
#     4  10  22  41  63  93 129 178 215 275 336 392
#     4  11  22  40  67  93 136 173 224 279 330 393
#
# _framework density 21.367387999999998
#
# number of rings (size 3 to 8) (size 9 to 14) (size 15 to 20)
#    0.000    1.333    3.333    3.000    2.333    0.667 
#    0.000    4.167    0.000    0.000    0.000    0.000 
#    0.000    0.000    0.000    0.000    0.000    0.000 
#
# Total GULP energy -148675.945001 kJ/mol
# GULP energy per Si atom -12389.662083 kJ/mol
# Density = 2.131875 g / cm^3
# Si number density = 21.367388 Si / 1000 Ang^3
#
#
#
# Elastic Constant Matrix: (Units=GPa)
#
#
# Indices 1 2 3 4 5 6 
#
# 1 89.3830 55.6863 30.1078 0.0000 -19.9627 0.0000
# 2 55.6863 150.5484 45.2054 0.0000 -5.6697 0.0000
# 3 30.1078 45.2054 82.5710 0.0000 -18.3002 0.0000
# 4 0.0000 0.0000 0.0000 41.0226 0.0000 -6.2120
# 5 -19.9627 -5.6697 -18.3002 0.0000 36.1920 0.0000
# 6 0.0000 0.0000 0.0000 -6.2120 0.0000 26.5150
#
#
#
# Elastic Compliance Matrix: (Units=1/GPa)
#
#
# Indices 1 2 3 4 5 6 
#
# 1 0.016812 -0.005505 -0.001410 0.000000 0.007698 0.000000
# 2 -0.005505 0.009789 -0.004150 0.000000 -0.003602 0.000000
# 3 -0.001410 -0.004150 0.016421 0.000000 0.006875 0.000000
# 4 0.000000 0.000000 0.000000 0.025273 0.000000 0.005921
# 5 0.007698 -0.003602 0.006875 0.000000 0.034788 0.000000
# 6 0.000000 0.000000 0.000000 0.005921 0.000000 0.039102
#
#
# Mechanical properties :
#
#
# Convention : Reuss Voigt Hill
#
# Bulk Modulus (GPa) = 47.86792 64.94460 56.40626
# Shear Modulus (GPa) = 29.19199 33.51278 31.35238
#
# Velocity S-wave (km/s) = 3.70022 3.96461 3.83469
# Velocity P-wave (km/s) = 6.38016 7.17062 6.78691
#
# Compressibility (1/GPa) = 0.02089082
#
# Stress axis : x y z
#
# Youngs Moduli (GPa) = 59.48223 102.15293 60.89835
#
# Poissons Ratio (x) = 0.56237 0.08587
# Poissons Ratio (y) = 0.32746 0.25274
# Poissons Ratio (z) = 0.08388 0.42395
#
# Static dielectric constant tensor:
#      x y z
#    x 4.008950 0.000000 -0.106150 
#    y 0.000000 4.176920 0.000000 
#    z -0.106150 0.000000 3.662920 
# 
# 
# High freq. dielectric constant tensor:
#      x y z
#    x 1.833760 0.000000 -0.023470 
#    y 0.000000 1.848450 0.000000 
#    z -0.023470 0.000000 1.826720 
# 
# From -- ./inp_files/22915.got.cif
#   From: 2010.03.12/outbox.cif.g09.slc.cpg/sg5_12_cif.got.tgz:22915.got - 2010.03.31 09:47:26.
