data_PCOD8050970
_publ_section_title
;
Structure prediction by ZEFSAII (Michael W. Deem and Ramdas Pophale) SiO2 
 PCOD8050970
Probable space group: C 2
;
_chemical_formula_sum "Si O2"
_cell_formula_units_Z 28
_cell_length_a 9.952798
_cell_length_b 10.113623
_cell_length_c 20.859898
_cell_angle_alpha 90.000000
_cell_angle_beta 135.772398
_cell_angle_gamma 90.000000
_cell_volume 1464.585778
_symmetry_space_group_name_H-M "C 2"
_symmetry_group_IT_number 5
_symmetry_cell_setting 'monoclinic'
loop_
_space_group_symop_operation_xyz
x,y,z
-x,y,-z
1/2+x,1/2+y,z
1/2-x,1/2+y,-z
loop_
_atom_site_type_symbol
_atom_site_label
_atom_site_fract_x
_atom_site_fract_y
_atom_site_fract_z
Si Si1 0.846616 0.859830 0.165725
Si Si2 0.835983 0.048546 0.708434
Si Si3 0.663018 0.246500 0.967422
Si Si4 0.000000 0.535751 0.000000
Si Si5 0.935414 0.437829 0.549155
Si Si6 0.000000 0.954513 0.000000
Si Si7 0.914159 0.154761 0.871223
Si Si8 0.211356 0.705807 0.548892
O O1 0.931988 0.780769 0.133727
O O2 0.756733 0.760763 0.186662
O O3 0.686027 0.952936 0.080378
O O4 0.013991 0.935080 0.261964
O O5 0.931102 0.105078 0.804994
O O6 0.829175 0.164314 0.652944
O O7 0.629599 0.980685 0.652642
O O8 0.652133 0.368276 0.012678
O O9 0.545196 0.122342 0.953015
O O10 0.887920 0.217382 0.035992
O O11 0.805574 0.571181 0.499338
O O12 0.821170 0.321838 0.547559
O O13 0.000000 0.389487 0.500000
O O14 0.868229 0.037925 0.905619
O O15 0.000000 0.755200 0.500000
#
# Coordination Sequence:
#
# PCOD8050970 Si02
#       8
#     4   4   4   2   4   2   4   4
#     4  12  22  36  55  80 116 160 208 258 300 347
#     4  10  23  38  58  92 132 156 204 256 317 360
#     4  11  21  34  54  74 103 155 214 258 298 339
#     4  11  21  34  54  74 103 155 214 258 298 339
#     4   9  21  43  70  98 128 162 196 254 322 391
#     4  11  21  34  54  74 103 155 214 258 298 339
#     4  12  22  36  55  80 116 160 208 258 300 347
#     4   9  21  43  70  98 128 162 196 254 322 391
#
# _framework density 19.118034999999999
#
# number of rings (size 3 to 8) (size 9 to 14) (size 15 to 20)
#    0.000    1.714    5.714    0.000    0.000    7.429 
#    0.000    0.000    0.000    0.000    0.000    0.000 
#    0.000    0.000    0.000    0.000    0.000    0.000 
#
# Total GULP energy -173546.140363 kJ/mol
# GULP energy per Si atom -12396.152883 kJ/mol
# Density = 1.907452 g / cm^3
# Si number density = 19.118035 Si / 1000 Ang^3
#
#
#
# Elastic Constant Matrix: (Units=GPa)
#
#
# Indices 1 2 3 4 5 6 
#
# 1 79.6778 41.4078 3.3018 0.0000 -1.9978 0.0000
# 2 41.4078 92.3746 13.6900 0.0000 -0.0774 0.0000
# 3 3.3018 13.6900 59.1570 0.0000 -1.3484 0.0000
# 4 0.0000 0.0000 0.0000 26.3194 0.0000 -0.9172
# 5 -1.9978 -0.0774 -1.3484 0.0000 22.0722 0.0000
# 6 0.0000 0.0000 0.0000 -0.9172 0.0000 39.0651
#
#
#
# Elastic Compliance Matrix: (Units=1/GPa)
#
#
# Indices 1 2 3 4 5 6 
#
# 1 0.016450 -0.007499 0.000852 0.000000 0.001515 0.000000
# 2 -0.007499 0.014629 -0.002985 0.000000 -0.000810 0.000000
# 3 0.000852 -0.002985 0.017573 0.000000 0.001140 0.000000
# 4 0.000000 0.000000 0.000000 0.038026 0.000000 0.000893
# 5 0.001515 -0.000810 0.001140 0.000000 0.045510 0.000000
# 6 0.000000 0.000000 0.000000 0.000893 0.000000 0.025619
#
#
# Mechanical properties :
#
#
# Convention : Reuss Voigt Hill
#
# Bulk Modulus (GPa) = 34.02796 38.66760 36.34778
# Shear Modulus (GPa) = 26.75681 29.01200 27.88441
#
# Velocity S-wave (km/s) = 3.74513 3.89976 3.82323
# Velocity P-wave (km/s) = 6.04473 6.36766 6.20830
#
# Compressibility (1/GPa) = 0.02938759
#
# Stress axis : x y z
#
# Youngs Moduli (GPa) = 60.78890 68.35870 56.90398
#
# Poissons Ratio (x) = 0.51262 -0.04847
# Poissons Ratio (y) = 0.45586 0.16987
# Poissons Ratio (z) = -0.05178 0.20407
#
# Static dielectric constant tensor:
#      x y z
#    x 3.517080 0.000000 -0.015250 
#    y 0.000000 3.718120 0.000000 
#    z -0.015250 0.000000 3.395980 
# 
# 
# High freq. dielectric constant tensor:
#      x y z
#    x 1.743600 0.000000 -0.002690 
#    y 0.000000 1.752030 0.000000 
#    z -0.002690 0.000000 1.726520 
# 
# From -- ./inp_files/64497.got.cif
#   From: 2010.03.12/outbox.cif.g09.slc.cpg/sg5_33_cif.got.tgz:64497.got - 2010.03.31 09:47:26.
