data_PCOD8050049
_publ_section_title
;
Structure prediction by ZEFSAII (Michael W. Deem and Ramdas Pophale) SiO2 
 PCOD8050049
Probable space group: C 2
;
_chemical_formula_sum "Si O2"
_cell_formula_units_Z 26
_cell_length_a 14.441570
_cell_length_b 10.495781
_cell_length_c 11.487027
_cell_angle_alpha 90.000000
_cell_angle_beta 128.356171
_cell_angle_gamma 90.000000
_cell_volume 1365.356741
_symmetry_space_group_name_H-M "C 2"
_symmetry_group_IT_number 5
_symmetry_cell_setting 'monoclinic'
loop_
_space_group_symop_operation_xyz
x,y,z
-x,y,-z
1/2+x,1/2+y,z
1/2-x,1/2+y,-z
loop_
_atom_site_type_symbol
_atom_site_label
_atom_site_fract_x
_atom_site_fract_y
_atom_site_fract_z
Si Si1 0.234017 0.255510 0.143467
Si Si2 0.000000 0.831979 0.000000
Si Si3 0.097394 0.401118 0.841166
Si Si4 0.733229 0.482870 0.211210
Si Si5 0.200745 0.590699 0.491919
Si Si6 0.171451 0.336960 0.351370
Si Si7 0.542861 0.181003 0.800361
O O1 0.198061 0.107660 0.110782
O O2 0.203937 0.321426 0.242042
O O3 0.373249 0.264944 0.219281
O O4 0.156644 0.321045 0.986864
O O5 0.968657 0.748938 0.086168
O O6 0.110158 0.912345 0.133541
O O7 0.172912 0.390430 0.780495
O O8 0.101042 0.547726 0.881826
O O9 0.965645 0.348847 0.723437
O O10 0.797522 0.532715 0.377502
O O11 0.234843 0.470409 0.436709
O O12 0.289061 0.710655 0.546841
O O13 0.074876 0.652053 0.363625
#
# Coordination Sequence:
#
# PCOD8050049 Si02
#       7
#     4   2   4   4   4   4   4
#     4  10  21  40  60  93 115 167 203 263 305 377
#     4  12  22  40  62 100 124 162 208 278 294 378
#     4  10  21  40  60  93 115 167 203 263 305 377
#     4  10  23  38  65  86 131 160 210 252 325 369
#     4  10  22  43  60  97 120 180 202 261 314 387
#     4  10  22  36  66  84 132 158 212 252 319 375
#     4  10  23  38  65  86 131 160 210 252 325 369
#
# _framework density 19.042642000000001
#
# number of rings (size 3 to 8) (size 9 to 14) (size 15 to 20)
#    0.000    1.846    1.538    1.385    8.615    9.846 
#    0.000    0.000    0.000   11.077    0.000    0.000 
#    0.000    0.000    0.000    0.000    0.000    0.000 
#
# Total GULP energy -161099.347158 kJ/mol
# GULP energy per Si atom -12392.257474 kJ/mol
# Density = 1.899930 g / cm^3
# Si number density = 19.042642 Si / 1000 Ang^3
#
#
#
# Elastic Constant Matrix: (Units=GPa)
#
#
# Indices 1 2 3 4 5 6 
#
# 1 86.0930 28.3193 10.7332 0.0000 10.4319 0.0000
# 2 28.3193 88.8904 33.3013 0.0000 5.8362 0.0000
# 3 10.7332 33.3013 77.4862 0.0000 2.4774 0.0000
# 4 0.0000 0.0000 0.0000 47.6313 0.0000 -0.6700
# 5 10.4319 5.8362 2.4774 0.0000 16.7072 0.0000
# 6 0.0000 0.0000 0.0000 -0.6700 0.0000 34.7299
#
#
#
# Elastic Compliance Matrix: (Units=1/GPa)
#
#
# Indices 1 2 3 4 5 6 
#
# 1 0.013780 -0.003917 0.000006 0.000000 -0.007237 0.000000
# 2 -0.003917 0.014773 -0.005747 0.000000 -0.001862 0.000000
# 3 0.000006 -0.005747 0.015383 0.000000 -0.000277 0.000000
# 4 0.000000 0.000000 0.000000 0.021000 0.000000 0.000405
# 5 -0.007237 -0.001862 -0.000277 0.000000 0.065065 0.000000
# 6 0.000000 0.000000 0.000000 0.000405 0.000000 0.028801
#
#
# Mechanical properties :
#
#
# Convention : Reuss Voigt Hill
#
# Bulk Modulus (GPa) = 40.61672 44.13079 42.37376
# Shear Modulus (GPa) = 26.83475 31.82140 29.32807
#
# Velocity S-wave (km/s) = 3.75799 4.09230 3.92870
# Velocity P-wave (km/s) = 6.34079 6.74939 6.54828
#
# Compressibility (1/GPa) = 0.02462040
#
# Stress axis : x y z
#
# Youngs Moduli (GPa) = 72.56893 67.69080 65.00518
#
# Poissons Ratio (x) = 0.26516 -0.00040
# Poissons Ratio (y) = 0.28427 0.37358
# Poissons Ratio (z) = -0.00045 0.38901
#
# Static dielectric constant tensor:
#      x y z
#    x 3.641850 0.000000 0.051970 
#    y 0.000000 3.846230 0.000000 
#    z 0.051970 0.000000 3.530770 
# 
# 
# High freq. dielectric constant tensor:
#      x y z
#    x 1.742920 0.000000 0.001890 
#    y 0.000000 1.750160 0.000000 
#    z 0.001890 0.000000 1.741580 
# 
# From -- ./inp_files/39304.got.cif
#   From: 2010.03.12/outbox.cif.g09.slc.cpg/sg5_20_cif.got.tgz:39304.got - 2010.03.31 09:47:26.
