data_PCOD8050563
_publ_section_title
;
Structure prediction by ZEFSAII (Michael W. Deem and Ramdas Pophale) SiO2 
 PCOD8050563
Probable space group: C 2
;
_chemical_formula_sum "Si O2"
_cell_formula_units_Z 18
_cell_length_a 16.636629
_cell_length_b 6.701879
_cell_length_c 7.094249
_cell_angle_alpha 90.000000
_cell_angle_beta 84.050617
_cell_angle_gamma 90.000000
_cell_volume 786.724808
_symmetry_space_group_name_H-M "C 2"
_symmetry_group_IT_number 5
_symmetry_cell_setting 'monoclinic'
loop_
_space_group_symop_operation_xyz
x,y,z
-x,y,-z
1/2+x,1/2+y,z
1/2-x,1/2+y,-z
loop_
_atom_site_type_symbol
_atom_site_label
_atom_site_fract_x
_atom_site_fract_y
_atom_site_fract_z
Si Si1 0.855067 0.465620 0.088153
Si Si2 0.414207 0.113944 0.451222
Si Si3 0.064929 0.092515 0.115128
Si Si4 0.191057 0.780946 0.205629
Si Si5 0.500000 0.740301 0.500000
O O1 0.898235 0.615135 0.228760
O O2 0.783839 0.343101 0.209648
O O3 0.917350 0.309350 0.981181
O O4 0.817421 0.592643 0.928299
O O5 0.500000 0.211966 0.500000
O O6 0.342437 0.224981 0.578956
O O7 0.419361 0.877796 0.499395
O O8 0.014386 0.103190 0.318871
O O9 0.145580 0.968031 0.124049
O O10 0.000000 0.977744 0.000000
#
# Coordination Sequence:
#
# PCOD8050563 Si02
#       5
#     4   4   4   4   2
#     4  12  25  50  69 103 150 187 238 298 352 430
#     4  10  24  46  71  99 142 184 234 297 347 413
#     4  12  25  44  75 102 140 192 239 291 356 427
#     4  12  28  43  72 107 142 192 239 291 365 420
#     4  10  22  40  70 100 134 170 242 286 340 408
#
# _framework density 22.879663000000001
#
# number of rings (size 3 to 8) (size 9 to 14) (size 15 to 20)
#    0.667    0.000    6.667    0.000    4.667    3.556 
#    0.000    0.000    0.000    0.000    0.000    0.000 
#    0.000    0.000    0.000    0.000    0.000    0.000 
#
# Total GULP energy -111556.595695 kJ/mol
# GULP energy per Si atom -12395.177299 kJ/mol
# Density = 2.282759 g / cm^3
# Si number density = 22.879663 Si / 1000 Ang^3
#
#
#
# Elastic Constant Matrix: (Units=GPa)
#
#
# Indices 1 2 3 4 5 6 
#
# 1 100.1322 16.5565 43.8575 0.0000 -7.7972 0.0000
# 2 16.5565 57.4506 21.0452 0.0000 -7.8625 0.0000
# 3 43.8575 21.0452 128.1596 0.0000 -13.5507 0.0000
# 4 0.0000 0.0000 0.0000 34.4552 0.0000 -9.6414
# 5 -7.7972 -7.8625 -13.5507 0.0000 39.4272 0.0000
# 6 0.0000 0.0000 0.0000 -9.6414 0.0000 29.7630
#
#
#
# Elastic Compliance Matrix: (Units=1/GPa)
#
#
# Indices 1 2 3 4 5 6 
#
# 1 0.011994 -0.002005 -0.003701 0.000000 0.000700 0.000000
# 2 -0.002005 0.019147 -0.002175 0.000000 0.002674 0.000000
# 3 -0.003701 -0.002175 0.009654 0.000000 0.002152 0.000000
# 4 0.000000 0.000000 0.000000 0.031916 0.000000 0.010339
# 5 0.000700 0.002674 0.002152 0.000000 0.026775 0.000000
# 6 0.000000 0.000000 0.000000 0.010339 0.000000 0.036948
#
#
# Mechanical properties :
#
#
# Convention : Reuss Voigt Hill
#
# Bulk Modulus (GPa) = 39.94856 49.85120 44.89988
# Shear Modulus (GPa) = 31.14476 34.34794 32.74635
#
# Velocity S-wave (km/s) = 3.69350 3.87879 3.78728
# Velocity P-wave (km/s) = 5.97390 6.47269 6.22829
#
# Compressibility (1/GPa) = 0.02503219
#
# Stress axis : x y z
#
# Youngs Moduli (GPa) = 83.37556 52.22786 103.58261
#
# Poissons Ratio (x) = 0.10471 0.38338
# Poissons Ratio (y) = 0.16716 0.22532
# Poissons Ratio (z) = 0.30859 0.11361
#
# Static dielectric constant tensor:
#      x y z
#    x 4.000830 0.000000 0.062500 
#    y 0.000000 3.896040 0.000000 
#    z 0.062500 0.000000 4.103620 
# 
# 
# High freq. dielectric constant tensor:
#      x y z
#    x 1.897970 0.000000 -0.002000 
#    y 0.000000 1.891070 0.000000 
#    z -0.002000 0.000000 1.910160 
# 
# From -- ./inp_files/7934.got.cif
#   From: 2010.03.12/outbox.cif.g09.slc.cpg/sg5_4_cif.got.tgz:7934.got - 2010.03.31 09:47:26.
