data_PCOD8050683
_publ_section_title
;
Structure prediction by ZEFSAII (Michael W. Deem and Ramdas Pophale) SiO2 
 PCOD8050683
Probable space group: C 2
;
_chemical_formula_sum "Si O2"
_cell_formula_units_Z 26
_cell_length_a 7.699718
_cell_length_b 12.195342
_cell_length_c 21.971050
_cell_angle_alpha 90.000000
_cell_angle_beta 146.193917
_cell_angle_gamma 90.000000
_cell_volume 1147.873741
_symmetry_space_group_name_H-M "C 2"
_symmetry_group_IT_number 5
_symmetry_cell_setting 'monoclinic'
loop_
_space_group_symop_operation_xyz
x,y,z
-x,y,-z
1/2+x,1/2+y,z
1/2-x,1/2+y,-z
loop_
_atom_site_type_symbol
_atom_site_label
_atom_site_fract_x
_atom_site_fract_y
_atom_site_fract_z
Si Si1 0.500000 0.428571 0.000000
Si Si2 0.903300 0.513235 0.293007
Si Si3 0.360718 0.259916 0.320700
Si Si4 0.344526 0.702067 0.266984
Si Si5 0.862204 0.864288 0.090658
Si Si6 0.795441 0.335716 0.544423
Si Si7 0.368708 0.978037 0.770924
O O1 0.407493 0.355541 0.031156
O O2 0.791331 0.504744 0.102914
O O3 0.903378 0.644453 0.299862
O O4 0.557413 0.465924 0.177360
O O5 0.051801 0.455988 0.396939
O O6 0.129784 0.484761 0.302243
O O7 0.683679 0.309352 0.443103
O O8 0.251149 0.357378 0.242837
O O9 0.080019 0.250963 0.286655
O O10 0.448351 0.743528 0.363989
O O11 0.357929 0.570693 0.268045
O O12 0.996494 0.749352 0.154859
O O13 0.500000 0.880370 0.000000
O O14 0.500000 0.315546 0.500000
#
# Coordination Sequence:
#
# PCOD8050683 Si02
#       7
#     2   4   4   4   4   4   4
#     4  10  22  44  64  94 136 178 222 280 338 382
#     4  10  22  42  65  97 130 170 221 272 335 395
#     4  11  22  42  67  93 129 178 208 274 337 397
#     4  10  22  42  64  94 131 167 213 277 329 394
#     4  10  22  44  68  99 135 178 229 278 335 404
#     4   9  18  40  68  87 131 170 208 268 336 392
#     4  11  23  43  63  94 133 164 222 280 323 399
#
# _framework density 22.650575
#
# number of rings (size 3 to 8) (size 9 to 14) (size 15 to 20)
#    0.000    1.846    6.154    0.000    5.385    1.231 
#    6.923    0.000    0.000    0.000    0.000    0.000 
#    0.000    0.000    0.000    0.000    0.000    0.000 
#
# Total GULP energy -161075.971300 kJ/mol
# GULP energy per Si atom -12390.459331 kJ/mol
# Density = 2.259902 g / cm^3
# Si number density = 22.650575 Si / 1000 Ang^3
#
#
#
# Elastic Constant Matrix: (Units=GPa)
#
#
# Indices 1 2 3 4 5 6 
#
# 1 35.8440 24.2945 34.6385 0.0003 8.1714 0.0001
# 2 24.2945 208.7487 55.1019 0.0004 0.9445 0.0001
# 3 34.6385 55.1019 118.1729 0.0041 -0.0375 0.0007
# 4 0.0003 0.0004 0.0041 22.5181 0.0008 2.6444
# 5 8.1714 0.9445 -0.0375 0.0008 23.7317 0.0002
# 6 0.0001 0.0001 0.0007 2.6444 0.0002 28.3084
#
#
#
# Elastic Compliance Matrix: (Units=1/GPa)
#
#
# Indices 1 2 3 4 5 6 
#
# 1 0.044373 -0.001894 -0.012128 0.000002 -0.015223 0.000000
# 2 -0.001894 0.005545 -0.002030 0.000000 0.000428 0.000000
# 3 -0.012128 -0.002030 0.012965 -0.000002 0.004277 0.000000
# 4 0.000002 0.000000 -0.000002 0.044901 -0.000002 -0.004194
# 5 -0.015223 0.000428 0.004277 -0.000002 0.047369 0.000000
# 6 0.000000 0.000000 0.000000 -0.004194 0.000000 0.035717
#
#
# Mechanical properties :
#
#
# Convention : Reuss Voigt Hill
#
# Bulk Modulus (GPa) = 32.49041 65.64837 49.06939
# Shear Modulus (GPa) = 21.43769 31.49370 26.46569
#
# Velocity S-wave (km/s) = 3.07978 3.73287 3.42194
# Velocity P-wave (km/s) = 5.19828 6.90110 6.10930
#
# Compressibility (1/GPa) = 0.03077831
#
# Stress axis : x y z
#
# Youngs Moduli (GPa) = 22.53627 180.34852 77.12982
#
# Poissons Ratio (x) = 0.34157 0.93545
# Poissons Ratio (y) = 0.04268 0.15659
# Poissons Ratio (z) = 0.27332 0.36614
#
# Static dielectric constant tensor:
#      x y z
#    x 3.707890 0.000000 -0.075610 
#    y 0.000000 4.053320 0.000000 
#    z -0.075610 0.000000 4.576220 
# 
# 
# High freq. dielectric constant tensor:
#      x y z
#    x 1.863470 0.000000 0.005000 
#    y 0.000000 1.886430 0.000000 
#    z 0.005000 0.000000 1.907710 
# 
# From -- ./inp_files/67990.got.cif
#   From: 2010.03.12/outbox.cif.g09.slc.cpg/sg5_34_cif.got.tgz:67990.got - 2010.03.31 09:47:26.
