data_PCOD8050386
_publ_section_title
;
Structure prediction by ZEFSAII (Michael W. Deem and Ramdas Pophale) SiO2 
 PCOD8050386
Probable space group: C 2
;
_chemical_formula_sum "Si O2"
_cell_formula_units_Z 20
_cell_length_a 13.273261
_cell_length_b 5.095304
_cell_length_c 29.700885
_cell_angle_alpha 90.000000
_cell_angle_beta 154.893184
_cell_angle_gamma 90.000000
_cell_volume 852.309781
_symmetry_space_group_name_H-M "C 2"
_symmetry_group_IT_number 5
_symmetry_cell_setting 'monoclinic'
loop_
_space_group_symop_operation_xyz
x,y,z
-x,y,-z
1/2+x,1/2+y,z
1/2-x,1/2+y,-z
loop_
_atom_site_type_symbol
_atom_site_label
_atom_site_fract_x
_atom_site_fract_y
_atom_site_fract_z
Si Si1 0.489471 0.945830 0.921653
Si Si2 0.058324 0.377682 0.630727
Si Si3 0.431121 0.377467 0.523886
Si Si4 0.202407 0.957657 0.118171
Si Si5 0.054041 0.721866 0.856712
O O1 0.350942 0.668332 0.863627
O O2 0.301932 0.163387 0.864352
O O3 0.572345 0.018260 0.905339
O O4 0.725734 0.927635 0.048987
O O5 0.309997 0.384905 0.758165
O O6 0.854960 0.385200 0.586776
O O7 0.038820 0.615150 0.588276
O O8 0.044283 0.115524 0.596304
O O9 0.500000 0.394889 0.500000
O O10 0.438030 0.047560 0.186342
O O11 0.000000 0.997961 0.000000
#
# Coordination Sequence:
#
# PCOD8050386 Si02
#       5
#     4   4   4   4   4
#     4  11  24  39  59  88 127 170 207 254 307 361
#     4  10  24  40  67  99 124 165 215 260 319 386
#     4  10  22  45  67  94 131 160 204 273 330 378
#     4  10  22  38  56  82 120 165 211 255 301 353
#     4  11  24  42  65  93 131 172 217 260 307 376
#
# _framework density 23.465646
#
# number of rings (size 3 to 8) (size 9 to 14) (size 15 to 20)
#    0.000    1.600    0.000    4.800    0.000   12.800 
#    0.000    0.000    0.000    0.000    0.000    0.000 
#    0.000    0.000    0.000    0.000    0.000    0.000 
#
# Total GULP energy -123981.290866 kJ/mol
# GULP energy per Si atom -12398.129087 kJ/mol
# Density = 2.341224 g / cm^3
# Si number density = 23.465646 Si / 1000 Ang^3
#
#
#
# Elastic Constant Matrix: (Units=GPa)
#
#
# Indices 1 2 3 4 5 6 
#
# 1 155.1633 51.5737 25.9313 -0.0762 -2.0250 0.0349
# 2 51.5737 164.0268 19.8387 -0.3002 -12.9378 0.1101
# 3 25.9313 19.8387 78.5396 -0.2117 15.2312 0.0873
# 4 -0.0762 -0.3002 -0.2117 17.4058 0.0097 3.1522
# 5 -2.0250 -12.9378 15.2312 0.0097 23.1663 -0.0131
# 6 0.0349 0.1101 0.0873 3.1522 -0.0131 28.2715
#
#
#
# Elastic Compliance Matrix: (Units=1/GPa)
#
#
# Indices 1 2 3 4 5 6 
#
# 1 0.007487 -0.002021 -0.002143 -0.000030 0.000934 0.000009
# 2 -0.002021 0.007439 -0.002272 0.000094 0.005472 -0.000027
# 3 -0.002143 -0.002272 0.016386 0.000169 -0.012230 -0.000064
# 4 -0.000030 0.000094 0.000169 0.058640 -0.000090 -0.006539
# 5 0.000934 0.005472 -0.012230 -0.000090 0.054344 0.000051
# 6 0.000009 -0.000027 -0.000064 -0.006539 0.000051 0.036101
#
#
# Mechanical properties :
#
#
# Convention : Reuss Voigt Hill
#
# Bulk Modulus (GPa) = 54.23293 65.82414 60.02854
# Shear Modulus (GPa) = 25.07319 33.79445 29.43382
#
# Velocity S-wave (km/s) = 3.27235 3.79907 3.54550
# Velocity P-wave (km/s) = 6.11878 6.88158 6.51136
#
# Compressibility (1/GPa) = 0.01843898
#
# Stress axis : x y z
#
# Youngs Moduli (GPa) = 133.56613 134.43177 61.02709
#
# Poissons Ratio (x) = 0.27172 0.13076
# Poissons Ratio (y) = 0.26997 0.13868
# Poissons Ratio (z) = 0.28619 0.30549
#
# Static dielectric constant tensor:
#      x y z
#    x 4.822480 0.000110 0.401800 
#    y 0.000110 4.319970 0.000080 
#    z 0.401800 0.000080 3.966200 
# 
# 
# High freq. dielectric constant tensor:
#      x y z
#    x 1.944290 0.000000 0.012540 
#    y 0.000000 1.941270 0.000010 
#    z 0.012540 0.000010 1.891950 
# 
# From -- ./inp_files/47786.got.cif
#   From: 2010.03.12/outbox.cif.g09.slc.cpg/sg5_24_cif.got.tgz:47786.got - 2010.03.31 09:47:26.
