data_PCOD8050457
_publ_section_title
;
Structure prediction by ZEFSAII (Michael W. Deem and Ramdas Pophale) SiO2 
 PCOD8050457
Probable space group: C 2
;
_chemical_formula_sum "Si O2"
_cell_formula_units_Z 30
_cell_length_a 20.864442
_cell_length_b 6.435447
_cell_length_c 20.360228
_cell_angle_alpha 90.000000
_cell_angle_beta 147.201481
_cell_angle_gamma 90.000000
_cell_volume 1480.867247
_symmetry_space_group_name_H-M "C 2"
_symmetry_group_IT_number 5
_symmetry_cell_setting 'monoclinic'
loop_
_space_group_symop_operation_xyz
x,y,z
-x,y,-z
1/2+x,1/2+y,z
1/2-x,1/2+y,-z
loop_
_atom_site_type_symbol
_atom_site_label
_atom_site_fract_x
_atom_site_fract_y
_atom_site_fract_z
Si Si1 0.075861 0.098100 0.647644
Si Si2 0.187675 0.736117 0.674573
Si Si3 0.343555 0.814915 0.404781
Si Si4 0.599856 0.910179 0.923346
Si Si5 0.304141 0.730985 0.121491
Si Si6 0.637432 0.059359 0.229156
Si Si7 0.500000 0.262728 0.000000
Si Si8 0.172738 0.064941 0.084129
O O1 0.158820 0.241563 0.673743
O O2 0.121791 0.097960 0.761664
O O3 0.943154 0.188592 0.530678
O O4 0.085139 0.864689 0.625084
O O5 0.131668 0.561900 0.577271
O O6 0.268079 0.875100 0.696480
O O7 0.272413 0.624304 0.799318
O O8 0.213907 0.757280 0.322570
O O9 0.612421 0.771320 0.869058
O O10 0.466626 0.000512 0.810070
O O11 0.621274 0.770403 0.005843
O O12 0.690659 0.101265 0.000778
O O13 0.268681 0.954674 0.120038
O O14 0.587407 0.111557 0.114171
O O15 0.566931 0.402871 0.004327
#
# Coordination Sequence:
#
# PCOD8050457 Si02
#       8
#     4   4   4   4   4   4   2   4
#     4  10  22  40  64  93 126 160 216 266 311 385
#     4  11  20  39  65  94 123 167 205 262 336 363
#     4  10  22  39  63  94 125 163 205 274 318 372
#     4  12  25  39  63  90 129 169 217 257 310 388
#     4  12  23  42  61  89 125 171 217 259 309 379
#     4  11  23  37  58  93 130 161 207 259 320 382
#     4  12  20  36  62  94 134 158 194 276 324 382
#     4  12  21  36  61  91 122 165 203 258 326 373
#
# _framework density 20.258399000000001
#
# number of rings (size 3 to 8) (size 9 to 14) (size 15 to 20)
#    0.000    0.800    6.667    2.400    0.000    4.267 
#    0.000    0.000    2.933    0.000    0.000    0.000 
#    0.000    0.000    0.000    0.000    0.000    0.000 
#
# Total GULP energy -185987.019626 kJ/mol
# GULP energy per Si atom -12399.134642 kJ/mol
# Density = 2.021229 g / cm^3
# Si number density = 20.258399 Si / 1000 Ang^3
#
#
#
# Elastic Constant Matrix: (Units=GPa)
#
#
# Indices 1 2 3 4 5 6 
#
# 1 83.9178 22.7769 33.8168 0.0000 14.4213 -0.0001
# 2 22.7769 106.5369 36.3174 -0.0001 13.2704 -0.0002
# 3 33.8168 36.3174 100.6659 0.0000 16.6606 -0.0001
# 4 0.0000 -0.0001 0.0000 30.1224 0.0000 4.0457
# 5 14.4213 13.2704 16.6606 0.0000 26.2666 -0.0001
# 6 -0.0001 -0.0002 -0.0001 4.0457 -0.0001 32.9323
#
#
#
# Elastic Compliance Matrix: (Units=1/GPa)
#
#
# Indices 1 2 3 4 5 6 
#
# 1 0.014584 -0.001256 -0.003604 0.000000 -0.005086 0.000000
# 2 -0.001256 0.011074 -0.003085 0.000000 -0.002948 0.000000
# 3 -0.003604 -0.003085 0.013041 0.000000 -0.004734 0.000000
# 4 0.000000 0.000000 0.000000 0.033755 0.000000 -0.004147
# 5 -0.005086 -0.002948 -0.004734 0.000000 0.045356 0.000000
# 6 0.000000 0.000000 0.000000 -0.004147 0.000000 0.030875
#
#
# Mechanical properties :
#
#
# Convention : Reuss Voigt Hill
#
# Bulk Modulus (GPa) = 43.84371 52.99365 48.41868
# Shear Modulus (GPa) = 29.03966 31.07823 30.05894
#
# Velocity S-wave (km/s) = 3.79022 3.92100 3.85616
# Velocity P-wave (km/s) = 6.39090 6.83481 6.61658
#
# Compressibility (1/GPa) = 0.02280829
#
# Stress axis : x y z
#
# Youngs Moduli (GPa) = 68.56933 90.30248 76.67949
#
# Poissons Ratio (x) = 0.11339 0.27638
# Poissons Ratio (y) = 0.08610 0.23658
# Poissons Ratio (z) = 0.24714 0.27862
#
# Static dielectric constant tensor:
#      x y z
#    x 3.419090 0.000000 0.149510 
#    y 0.000000 3.948340 0.000000 
#    z 0.149510 0.000000 3.609460 
# 
# 
# High freq. dielectric constant tensor:
#      x y z
#    x 1.751540 0.000000 0.014530 
#    y 0.000000 1.808520 0.000000 
#    z 0.014530 0.000000 1.787380 
# 
# From -- ./inp_files/69378.got.cif
#   From: 2010.03.12/outbox.cif.g09.slc.cpg/sg5_35_cif.got.tgz:69378.got - 2010.03.31 09:47:26.
