data_PCOD8050262
_publ_section_title
;
Structure prediction by ZEFSAII (Michael W. Deem and Ramdas Pophale) SiO2 
 PCOD8050262
Probable space group: C 2
;
_chemical_formula_sum "Si O2"
_cell_formula_units_Z 18
_cell_length_a 12.228940
_cell_length_b 9.528234
_cell_length_c 8.969272
_cell_angle_alpha 90.000000
_cell_angle_beta 123.334340
_cell_angle_gamma 90.000000
_cell_volume 873.159378
_symmetry_space_group_name_H-M "C 2"
_symmetry_group_IT_number 5
_symmetry_cell_setting 'monoclinic'
loop_
_space_group_symop_operation_xyz
x,y,z
-x,y,-z
1/2+x,1/2+y,z
1/2-x,1/2+y,-z
loop_
_atom_site_type_symbol
_atom_site_label
_atom_site_fract_x
_atom_site_fract_y
_atom_site_fract_z
Si Si1 0.779221 0.322050 0.182017
Si Si2 0.676876 0.562186 0.284419
Si Si3 0.000000 0.872486 0.000000
Si Si4 0.146587 0.353748 0.096104
Si Si5 0.148121 0.054697 0.602361
O O1 0.785559 0.474872 0.269101
O O2 0.624812 0.277667 0.049142
O O3 0.857368 0.212593 0.340833
O O4 0.842337 0.318551 0.068590
O O5 0.538566 0.479014 0.164421
O O6 0.667327 0.718539 0.215311
O O7 0.710163 0.561101 0.483815
O O8 0.255751 0.465563 0.222344
O O9 0.000000 0.414629 0.000000
O O10 0.000000 0.993892 0.500000
#
# Coordination Sequence:
#
# PCOD8050262 Si02
#       5
#     4   4   2   4   4
#     4  10  22  41  67  89 128 166 213 252 317 376
#     4  10  21  43  63  93 127 166 211 263 311 373
#     4   8  20  42  68  86 128 168 208 258 314 380
#     4  12  23  41  68  94 127 171 211 256 321 379
#     4  12  25  40  65  97 131 165 212 265 314 371
#
# _framework density 20.614791
#
# number of rings (size 3 to 8) (size 9 to 14) (size 15 to 20)
#    1.333    0.000    1.111    5.333    1.556    0.000 
#    0.000    1.111    0.000    0.000    0.000    0.000 
#    0.000    0.000    0.000    0.000    0.000    0.000 
#
# Total GULP energy -111527.939480 kJ/mol
# GULP energy per Si atom -12391.993276 kJ/mol
# Density = 2.056787 g / cm^3
# Si number density = 20.614791 Si / 1000 Ang^3
#
#
#
# Elastic Constant Matrix: (Units=GPa)
#
#
# Indices 1 2 3 4 5 6 
#
# 1 105.7373 17.5657 30.9321 0.0000 0.5791 0.0000
# 2 17.5657 66.2983 33.1311 0.0000 9.6978 0.0000
# 3 30.9321 33.1311 99.2602 0.0000 -16.2956 0.0000
# 4 0.0000 0.0000 0.0000 38.2210 0.0000 -1.9880
# 5 0.5791 9.6978 -16.2956 0.0000 49.5849 0.0000
# 6 0.0000 0.0000 0.0000 -1.9880 0.0000 25.1068
#
#
#
# Elastic Compliance Matrix: (Units=1/GPa)
#
#
# Indices 1 2 3 4 5 6 
#
# 1 0.010545 -0.001134 -0.003056 0.000000 -0.000906 0.000000
# 2 -0.001134 0.019981 -0.007352 0.000000 -0.006311 0.000000
# 3 -0.003056 -0.007352 0.014505 0.000000 0.006241 0.000000
# 4 0.000000 0.000000 0.000000 0.026272 0.000000 0.002080
# 5 -0.000906 -0.006311 0.006241 0.000000 0.023463 0.000000
# 6 0.000000 0.000000 0.000000 0.002080 0.000000 0.039995
#
#
# Mechanical properties :
#
#
# Convention : Reuss Voigt Hill
#
# Bulk Modulus (GPa) = 45.56483 48.28374 46.92428
# Shear Modulus (GPa) = 30.27360 35.22700 32.75030
#
# Velocity S-wave (km/s) = 3.83631 4.13827 3.99015
# Velocity P-wave (km/s) = 6.46328 6.80489 6.63628
#
# Compressibility (1/GPa) = 0.02194675
#
# Stress axis : x y z
#
# Youngs Moduli (GPa) = 94.83334 50.04796 68.94004
#
# Poissons Ratio (x) = 0.05676 0.21070
# Poissons Ratio (y) = 0.10755 0.50684
# Poissons Ratio (z) = 0.28983 0.36794
#
# Static dielectric constant tensor:
#      x y z
#    x 3.641980 0.000000 0.012510 
#    y 0.000000 3.557000 0.000000 
#    z 0.012510 0.000000 3.685950 
# 
# 
# High freq. dielectric constant tensor:
#      x y z
#    x 1.799940 0.000000 -0.007480 
#    y 0.000000 1.794940 0.000000 
#    z -0.007480 0.000000 1.813510 
# 
# From -- ./inp_files/19141.got.cif
#   From: 2010.03.12/outbox.cif.g09.slc.cpg/sg5_10_cif.got.tgz:19141.got - 2010.03.31 09:47:26.
