data_PCOD8050143
_publ_section_title
;
Structure prediction by ZEFSAII (Michael W. Deem and Ramdas Pophale) SiO2 
 PCOD8050143
Probable space group: C 2
;
_chemical_formula_sum "Si O2"
_cell_formula_units_Z 32
_cell_length_a 22.020043
_cell_length_b 9.364875
_cell_length_c 13.535800
_cell_angle_alpha 90.000000
_cell_angle_beta 147.113973
_cell_angle_gamma 90.000000
_cell_volume 1515.582732
_symmetry_space_group_name_H-M "C 2"
_symmetry_group_IT_number 5
_symmetry_cell_setting 'monoclinic'
loop_
_space_group_symop_operation_xyz
x,y,z
-x,y,-z
1/2+x,1/2+y,z
1/2-x,1/2+y,-z
loop_
_atom_site_type_symbol
_atom_site_label
_atom_site_fract_x
_atom_site_fract_y
_atom_site_fract_z
Si Si1 0.586703 0.582930 0.383040
Si Si2 0.098047 0.622448 0.706144
Si Si3 0.319828 0.975460 0.763502
Si Si4 0.622438 0.667472 0.205906
Si Si5 0.573735 0.320439 0.852209
Si Si6 0.961556 0.382786 0.617524
Si Si7 0.254991 0.480829 0.784490
Si Si8 0.505376 0.052810 0.151720
O O1 0.699128 0.549336 0.597985
O O2 0.619515 0.613280 0.314186
O O3 0.502393 0.453393 0.279492
O O4 0.520200 0.713799 0.343380
O O5 0.120250 0.744085 0.817396
O O6 0.212983 0.605192 0.801790
O O7 0.000000 0.676725 0.500000
O O8 0.065071 0.468093 0.709312
O O9 0.305229 0.811667 0.707662
O O10 0.405363 0.064156 0.813074
O O11 0.381255 0.991279 0.954003
O O12 0.672967 0.544002 0.206570
O O13 0.500000 0.707940 0.000000
O O14 0.498117 0.210330 0.808817
O O15 0.675289 0.365448 0.060116
O O16 0.852324 0.399933 0.402355
O O17 0.939052 0.445560 0.694660
#
# Coordination Sequence:
#
# PCOD8050143 Si02
#       8
#     4   4   4   4   4   4   4   4
#     4  12  25  38  66 104 132 171 219 271 331 388
#     4   9  23  47  70  90 128 179 221 272 332 382
#     4  11  23  37  62  95 137 178 214 264 327 397
#     4  12  23  42  63  99 137 174 217 268 328 398
#     4  11  25  42  65 102 129 170 221 278 320 391
#     4  10  21  44  69  91 130 174 218 270 324 393
#     4  11  24  44  70  95 133 177 220 268 333 387
#     4  10  21  41  61  90 135 174 216 260 330 385
#
# _framework density 21.113990999999999
#
# number of rings (size 3 to 8) (size 9 to 14) (size 15 to 20)
#    0.000    1.250    3.750    1.500    7.000    3.000 
#    2.250    3.125    0.000    0.000    0.000    0.000 
#    0.000    0.000    0.000    0.000    0.000    0.000 
#
# Total GULP energy -198405.730527 kJ/mol
# GULP energy per Si atom -12400.358158 kJ/mol
# Density = 2.106594 g / cm^3
# Si number density = 21.113991 Si / 1000 Ang^3
#
#
#
# Elastic Constant Matrix: (Units=GPa)
#
#
# Indices 1 2 3 4 5 6 
#
# 1 72.5621 31.4611 13.6437 0.0000 -14.8079 0.0000
# 2 31.4611 129.6469 35.9300 0.0000 -9.2506 0.0000
# 3 13.6437 35.9300 87.3036 0.0000 -8.8781 0.0000
# 4 0.0000 0.0000 0.0000 31.4342 0.0000 -6.5221
# 5 -14.8079 -9.2506 -8.8781 0.0000 26.4792 0.0000
# 6 0.0000 0.0000 0.0000 -6.5221 0.0000 23.9139
#
#
#
# Elastic Compliance Matrix: (Units=1/GPa)
#
#
# Indices 1 2 3 4 5 6 
#
# 1 0.017016 -0.003430 -0.000416 0.000000 0.008178 0.000000
# 2 -0.003430 0.009492 -0.003342 0.000000 0.000277 0.000000
# 3 -0.000416 -0.003342 0.013202 0.000000 0.003027 0.000000
# 4 0.000000 0.000000 0.000000 0.033721 0.000000 0.009197
# 5 0.008178 0.000277 0.003027 0.000000 0.043450 0.000000
# 6 0.000000 0.000000 0.000000 0.009197 0.000000 0.044325
#
#
# Mechanical properties :
#
#
# Convention : Reuss Voigt Hill
#
# Bulk Modulus (GPa) = 39.47369 50.17581 44.82475
# Shear Modulus (GPa) = 27.16995 30.26395 28.71695
#
# Velocity S-wave (km/s) = 3.59112 3.79008 3.69194
# Velocity P-wave (km/s) = 5.99425 6.55506 6.28091
#
# Compressibility (1/GPa) = 0.02533333
#
# Stress axis : x y z
#
# Youngs Moduli (GPa) = 58.76931 105.35536 75.74343
#
# Poissons Ratio (x) = 0.36141 0.03149
# Poissons Ratio (y) = 0.20160 0.25314
# Poissons Ratio (z) = 0.02444 0.35210
#
# Static dielectric constant tensor:
#      x y z
#    x 3.846840 0.000000 -0.240320 
#    y 0.000000 3.812940 0.000000 
#    z -0.240320 0.000000 3.985270 
# 
# 
# High freq. dielectric constant tensor:
#      x y z
#    x 1.817220 0.000000 -0.016270 
#    y 0.000000 1.828630 0.000000 
#    z -0.016270 0.000000 1.835940 
# 
# From -- ./inp_files/54162.got.cif
#   From: 2010.03.12/outbox.cif.g09.slc.cpg/sg5_28_cif.got.tgz:54162.got - 2010.03.31 09:47:26.
