data_PCOD8050804
_publ_section_title
;
Structure prediction by ZEFSAII (Michael W. Deem and Ramdas Pophale) SiO2 
 PCOD8050804
Probable space group: C 2
;
_chemical_formula_sum "Si O2"
_cell_formula_units_Z 24
_cell_length_a 13.154107
_cell_length_b 5.249066
_cell_length_c 15.006174
_cell_angle_alpha 90.000000
_cell_angle_beta 96.149963
_cell_angle_gamma 90.000000
_cell_volume 1030.164914
_symmetry_space_group_name_H-M "C 2"
_symmetry_group_IT_number 5
_symmetry_cell_setting 'monoclinic'
loop_
_space_group_symop_operation_xyz
x,y,z
-x,y,-z
1/2+x,1/2+y,z
1/2-x,1/2+y,-z
loop_
_atom_site_type_symbol
_atom_site_label
_atom_site_fract_x
_atom_site_fract_y
_atom_site_fract_z
Si Si1 0.154716 0.391970 0.081331
Si Si2 0.783181 0.484421 0.454062
Si Si3 0.453847 0.106428 0.776572
Si Si4 0.500000 0.525843 0.000000
Si Si5 0.401803 0.602499 0.666096
Si Si6 0.000000 0.289874 0.500000
Si Si7 0.140436 0.659429 0.902061
O O1 0.117958 0.625580 0.140910
O O2 0.258061 0.276747 0.132122
O O3 0.173782 0.451480 0.978742
O O4 0.061536 0.193830 0.077653
O O5 0.761930 0.710312 0.521646
O O6 0.720270 0.553736 0.358088
O O7 0.906229 0.463275 0.452755
O O8 0.450926 0.375253 0.726779
O O9 0.571224 0.047787 0.816104
O O10 0.414368 0.876035 0.712773
O O11 0.577029 0.368720 0.948255
O O12 0.457328 0.611412 0.575059
#
# Coordination Sequence:
#
# PCOD8050804 Si02
#       7
#     4   4   4   2   4   2   4
#     4  12  25  41  70  97 136 194 242 287 348 421
#     4  10  22  43  72 103 133 176 233 284 344 423
#     4  12  26  45  66 106 150 178 231 305 347 407
#     4  12  20  44  66  94 136 178 248 290 338 408
#     4  11  26  44  72 104 141 185 230 292 358 416
#     4  10  24  48  78 100 138 188 240 278 358 436
#     4  12  25  41  71  98 135 196 238 286 353 416
#
# _framework density 23.297239999999999
#
# number of rings (size 3 to 8) (size 9 to 14) (size 15 to 20)
#    0.000    0.667    5.000    3.000    0.000    8.667 
#    0.000    0.000    0.000    0.000    0.000    0.000 
#    0.000    0.000    0.000    0.000    0.000    0.000 
#
# Total GULP energy -148770.073738 kJ/mol
# GULP energy per Si atom -12397.506145 kJ/mol
# Density = 2.324421 g / cm^3
# Si number density = 23.297240 Si / 1000 Ang^3
#
#
#
# Elastic Constant Matrix: (Units=GPa)
#
#
# Indices 1 2 3 4 5 6 
#
# 1 143.1167 20.5011 41.4214 0.0000 41.6666 0.0000
# 2 20.5011 93.4878 24.8672 0.0000 10.6959 0.0000
# 3 41.4214 24.8672 107.4143 0.0000 24.4025 0.0000
# 4 0.0000 0.0000 0.0000 19.8315 0.0000 -41.9523
# 5 41.6666 10.6959 24.4025 0.0000 37.7494 0.0000
# 6 0.0000 0.0000 0.0000 -41.9523 0.0000 -53.5323
#
#
#
# Elastic Compliance Matrix: (Units=1/GPa)
#
#
# Indices 1 2 3 4 5 6 
#
# 1 0.010589 -0.000713 -0.001534 0.000000 -0.010493 0.000000
# 2 -0.000713 0.011550 -0.002150 0.000000 -0.001095 0.000000
# 3 -0.001534 -0.002150 0.011576 0.000000 -0.005181 0.000000
# 4 0.000000 0.000000 0.000000 0.018972 0.000000 -0.014868
# 5 -0.010493 -0.001095 -0.005181 0.000000 0.041732 0.000000
# 6 0.000000 0.000000 0.000000 -0.014868 0.000000 -0.007028
#
#
# Mechanical properties :
#
#
# Convention : Reuss Voigt Hill
#
# Bulk Modulus (GPa) = 40.12869 57.51090 48.81979
# Shear Modulus (GPa) = 47.85038 17.95832 32.90435
#
# Velocity S-wave (km/s) = 4.53692 2.77940 3.76223
# Velocity P-wave (km/s) = 6.68632 5.91941 6.31452
#
# Compressibility (1/GPa) = 0.02491983
#
# Stress axis : x y z
#
# Youngs Moduli (GPa) = 94.44172 86.57830 86.38545
#
# Poissons Ratio (x) = 0.06176 0.13253
# Poissons Ratio (y) = 0.06737 0.18573
# Poissons Ratio (z) = 0.14488 0.18615
#
# Static dielectric constant tensor:
#      x y z
#    x 4.943410 0.000000 -0.161880 
#    y 0.000000 4.168730 0.000000 
#    z -0.161880 0.000000 5.205080 
# 
# 
# High freq. dielectric constant tensor:
#      x y z
#    x 1.923710 0.000000 0.026650 
#    y 0.000000 1.924920 0.000000 
#    z 0.026650 0.000000 1.917700 
# 
# From -- ./inp_files/53665.got.cif
#   From: 2010.03.12/outbox.cif.g09.slc.cpg/sg5_27_cif.got.tgz:53665.got - 2010.03.31 09:47:26.
