data_PCOD8050239
_publ_section_title
;
Structure prediction by ZEFSAII (Michael W. Deem and Ramdas Pophale) SiO2 
 PCOD8050239
Probable space group: C 2
;
_chemical_formula_sum "Si O2"
_cell_formula_units_Z 32
_cell_length_a 29.773933
_cell_length_b 5.700977
_cell_length_c 19.575656
_cell_angle_alpha 90.000000
_cell_angle_beta 153.414811
_cell_angle_gamma 90.000000
_cell_volume 1487.037663
_symmetry_space_group_name_H-M "C 2"
_symmetry_group_IT_number 5
_symmetry_cell_setting 'monoclinic'
loop_
_space_group_symop_operation_xyz
x,y,z
-x,y,-z
1/2+x,1/2+y,z
1/2-x,1/2+y,-z
loop_
_atom_site_type_symbol
_atom_site_label
_atom_site_fract_x
_atom_site_fract_y
_atom_site_fract_z
Si Si1 0.026925 0.555610 0.277730
Si Si2 0.591824 0.659222 0.470228
Si Si3 0.751753 0.215530 0.905429
Si Si4 0.232898 0.719447 0.514799
Si Si5 0.864416 0.533019 0.954773
Si Si6 0.286437 0.924031 0.266528
Si Si7 0.730078 0.812597 0.293327
Si Si8 0.101683 0.900522 0.813981
O O1 0.935275 0.678316 0.193037
O O2 0.066801 0.332606 0.373335
O O3 0.118450 0.730783 0.386844
O O4 0.977356 0.499880 0.136293
O O5 0.619682 0.766921 0.582200
O O6 0.688618 0.513586 0.579119
O O7 0.494645 0.505230 0.355032
O O8 0.785932 0.416422 0.900364
O O9 0.682692 0.318871 0.869854
O O10 0.688421 0.031218 0.773522
O O11 0.849728 0.095341 0.071075
O O12 0.248752 0.462421 0.501603
O O13 0.305875 0.722909 0.680862
O O14 0.822453 0.796528 0.887701
O O15 0.862373 0.409699 0.877458
O O16 0.282937 0.107974 0.323359
#
# Coordination Sequence:
#
# PCOD8050239 Si02
#       8
#     4   4   4   4   4   4   4   4
#     4  12  23  44  71 102 130 192 234 287 358 435
#     4  11  21  41  70  93 134 185 237 286 345 433
#     4  11  24  39  62 102 136 183 239 289 346 399
#     4  12  27  46  79 108 141 180 242 307 365 437
#     4  10  22  41  71  95 138 186 230 280 349 429
#     4  10  21  42  67  94 136 181 230 285 350 422
#     4  10  22  44  69 100 136 183 220 291 367 423
#     4  12  24  39  67  96 139 185 240 293 342 423
#
# _framework density 21.519295
#
# number of rings (size 3 to 8) (size 9 to 14) (size 15 to 20)
#    0.000    1.000    5.000    1.500    1.750    0.000 
#    0.000   15.625    0.000    0.000    0.000    0.000 
#    0.000    0.000    0.000    0.000    0.000    0.000 
#
# Total GULP energy -198273.660187 kJ/mol
# GULP energy per Si atom -12392.103762 kJ/mol
# Density = 2.147032 g / cm^3
# Si number density = 21.519295 Si / 1000 Ang^3
#
#
#
# Elastic Constant Matrix: (Units=GPa)
#
#
# Indices 1 2 3 4 5 6 
#
# 1 62.1724 9.8236 12.1779 0.0000 -22.0116 0.0000
# 2 9.8236 84.7748 29.5020 -0.0014 -12.7728 0.0002
# 3 12.1779 29.5020 130.2352 -0.0002 -28.0192 0.0001
# 4 0.0000 -0.0014 -0.0002 47.0926 0.0000 -3.4875
# 5 -22.0116 -12.7728 -28.0192 0.0000 26.1560 0.0000
# 6 0.0000 0.0002 0.0001 -3.4875 0.0000 25.7997
#
#
#
# Elastic Compliance Matrix: (Units=1/GPa)
#
#
# Indices 1 2 3 4 5 6 
#
# 1 0.023618 -0.000272 0.002730 0.000000 0.022667 0.000000
# 2 -0.000272 0.013154 -0.002107 0.000000 0.003938 0.000000
# 3 0.002730 -0.002107 0.010621 0.000000 0.012646 0.000000
# 4 0.000000 0.000000 0.000000 0.021449 0.000000 0.002899
# 5 0.022667 0.003938 0.012646 0.000000 0.072777 0.000000
# 6 0.000000 0.000000 0.000000 0.002899 0.000000 0.039152
#
#
# Mechanical properties :
#
#
# Convention : Reuss Voigt Hill
#
# Bulk Modulus (GPa) = 20.79233 42.24328 31.51780
# Shear Modulus (GPa) = 25.49705 34.85491 30.17598
#
# Velocity S-wave (km/s) = 3.44589 4.02892 3.74876
# Velocity P-wave (km/s) = 5.05128 6.42775 5.78063
#
# Compressibility (1/GPa) = 0.04809466
#
# Stress axis : x y z
#
# Youngs Moduli (GPa) = 42.34144 76.02239 94.15132
#
# Poissons Ratio (x) = 0.02064 -0.25701
# Poissons Ratio (y) = 0.01150 0.19840
# Poissons Ratio (z) = -0.11558 0.16019
#
# Static dielectric constant tensor:
#      x y z
#    x 3.649700 0.000000 -0.378070 
#    y 0.000000 4.172540 0.000000 
#    z -0.378070 0.000000 4.257840 
# 
# 
# High freq. dielectric constant tensor:
#      x y z
#    x 1.810520 0.000000 -0.030820 
#    y 0.000000 1.861310 0.000000 
#    z -0.030820 0.000000 1.861890 
# 
# From -- ./inp_files/63744.got.cif
#   From: 2010.03.12/outbox.cif.g09.slc.cpg/sg5_32_cif.got.tgz:63744.got - 2010.03.31 09:47:26.
