data_PCOD8050479
_publ_section_title
;
Structure prediction by ZEFSAII (Michael W. Deem and Ramdas Pophale) SiO2 
 PCOD8050479
Probable space group: C 2
;
_chemical_formula_sum "Si O2"
_cell_formula_units_Z 22
_cell_length_a 15.017261
_cell_length_b 12.800428
_cell_length_c 12.454567
_cell_angle_alpha 90.000000
_cell_angle_beta 26.864512
_cell_angle_gamma 90.000000
_cell_volume 1081.855218
_symmetry_space_group_name_H-M "C 2"
_symmetry_group_IT_number 5
_symmetry_cell_setting 'monoclinic'
loop_
_space_group_symop_operation_xyz
x,y,z
-x,y,-z
1/2+x,1/2+y,z
1/2-x,1/2+y,-z
loop_
_atom_site_type_symbol
_atom_site_label
_atom_site_fract_x
_atom_site_fract_y
_atom_site_fract_z
Si Si1 0.843584 0.131280 0.251352
Si Si2 0.034530 0.305884 0.715043
Si Si3 0.266555 0.496489 0.519868
Si Si4 0.905670 0.837275 0.818219
Si Si5 0.500000 0.245185 0.500000
Si Si6 0.131242 0.709693 0.752952
O O1 0.955961 0.207260 0.214755
O O2 0.669010 0.179775 0.372705
O O3 0.748485 0.035963 0.417753
O O4 0.000000 0.085384 0.000000
O O5 0.115412 0.402017 0.698734
O O6 0.170083 0.280494 0.463852
O O7 0.820451 0.336472 0.900063
O O8 0.490480 0.451396 0.288766
O O9 0.201559 0.588518 0.671807
O O10 0.898247 0.814312 0.700114
O O11 0.014917 0.747077 0.770480
O O12 0.000000 0.729212 0.000000
#
# Coordination Sequence:
#
# PCOD8050479 Si02
#       6
#     4   4   4   4   2   4
#     4  11  22  39  67  93 132 167 214 274 323 384
#     4  10  22  41  64  92 133 169 219 267 327 384
#     4  10  22  40  59 100 124 167 216 273 317 387
#     4  11  23  40  68  95 131 173 219 267 331 385
#     4  12  20  40  70  96 120 172 216 264 324 382
#     4  10  23  43  64  90 137 172 214 268 330 389
#
# _framework density 20.335436999999999
#
# number of rings (size 3 to 8) (size 9 to 14) (size 15 to 20)
#    0.000    1.455    7.273    0.000    0.000   10.182 
#    0.000    0.000    0.000    0.000    0.000    0.000 
#    0.000    0.000    0.000    0.000    0.000    0.000 
#
# Total GULP energy -136291.867842 kJ/mol
# GULP energy per Si atom -12390.169804 kJ/mol
# Density = 2.028915 g / cm^3
# Si number density = 20.335437 Si / 1000 Ang^3
#
#
#
# Elastic Constant Matrix: (Units=GPa)
#
#
# Indices 1 2 3 4 5 6 
#
# 1 81.8689 29.0613 44.2017 0.0014 1.3601 -0.0018
# 2 29.0613 70.6561 29.7608 -0.0007 -5.8421 0.0004
# 3 44.2017 29.7608 145.6802 0.0004 -1.8220 -0.0014
# 4 0.0014 -0.0007 0.0004 22.1832 -0.0008 -5.6559
# 5 1.3601 -5.8421 -1.8220 -0.0008 48.8187 0.0016
# 6 -0.0018 0.0004 -0.0014 -5.6559 0.0016 33.9270
#
#
#
# Elastic Compliance Matrix: (Units=1/GPa)
#
#
# Indices 1 2 3 4 5 6 
#
# 1 0.016136 -0.005107 -0.003868 -0.000001 -0.001205 0.000001
# 2 -0.005107 0.017251 -0.001948 0.000001 0.002134 -0.000001
# 3 -0.003868 -0.001948 0.008438 0.000000 0.000190 0.000000
# 4 -0.000001 0.000001 0.000000 0.047080 0.000001 0.007849
# 5 -0.001205 0.002134 0.000190 0.000001 0.020780 -0.000001
# 6 0.000001 -0.000001 0.000000 0.007849 -0.000001 0.030783
#
#
# Mechanical properties :
#
#
# Convention : Reuss Voigt Hill
#
# Bulk Modulus (GPa) = 50.05217 56.02809 53.04013
# Shear Modulus (GPa) = 29.59050 33.99788 31.79419
#
# Velocity S-wave (km/s) = 3.81874 4.09327 3.95839
# Velocity P-wave (km/s) = 6.64157 7.06764 6.85791
#
# Compressibility (1/GPa) = 0.01997915
#
# Stress axis : x y z
#
# Youngs Moduli (GPa) = 61.97415 57.96905 118.51006
#
# Poissons Ratio (x) = 0.29607 0.45834
# Poissons Ratio (y) = 0.31652 0.23083
# Poissons Ratio (z) = 0.23969 0.11291
#
# Static dielectric constant tensor:
#      x y z
#    x 3.574160 0.000000 0.064000 
#    y 0.000000 3.804250 0.000000 
#    z 0.064000 0.000000 4.156810 
# 
# 
# High freq. dielectric constant tensor:
#      x y z
#    x 1.774840 0.000000 -0.003290 
#    y 0.000000 1.789180 0.000000 
#    z -0.003290 0.000000 1.810990 
# 
# From -- ./inp_files/42642.got.cif
#   From: 2010.03.12/outbox.cif.g09.slc.cpg/sg5_22_cif.got.tgz:42642.got - 2010.03.31 09:47:26.
