data_PCOD8051908
_publ_section_title
;
Structure prediction by ZEFSAII (Michael W. Deem and Ramdas Pophale) SiO2 
 PCOD8051908
Probable space group: C 2
;
_chemical_formula_sum "Si O2"
_cell_formula_units_Z 20
_cell_length_a 8.783521
_cell_length_b 12.102397
_cell_length_c 8.239675
_cell_angle_alpha 90.000000
_cell_angle_beta 111.073286
_cell_angle_gamma 90.000000
_cell_volume 817.312640
_symmetry_space_group_name_H-M "C 2"
_symmetry_group_IT_number 5
_symmetry_cell_setting 'monoclinic'
loop_
_space_group_symop_operation_xyz
x,y,z
-x,y,-z
1/2+x,1/2+y,z
1/2-x,1/2+y,-z
loop_
_atom_site_type_symbol
_atom_site_label
_atom_site_fract_x
_atom_site_fract_y
_atom_site_fract_z
Si Si1 0.096860 0.199680 0.702504
Si Si2 0.195481 0.524730 0.085837
Si Si3 0.831579 0.834816 0.347567
Si Si4 0.688909 0.616729 0.208196
Si Si5 0.672717 0.917031 0.589765
O O1 0.161750 0.326595 0.731969
O O2 0.000000 0.174588 0.500000
O O3 0.986093 0.174293 0.821663
O O4 0.257282 0.121407 0.768364
O O5 0.284478 0.412828 0.178630
O O6 0.281911 0.558438 0.951736
O O7 0.000000 0.511271 0.000000
O O8 0.830279 0.708536 0.284956
O O9 0.696663 0.846390 0.435560
O O10 0.000000 0.866149 0.500000
O O11 0.696893 0.513508 0.336085
O O12 0.500000 0.978035 0.500000
#
# Coordination Sequence:
#
# PCOD8051908 Si02
#       5
#     4   4   4   4   4
#     4  11  24  50  77 110 152 209 263 324 392 476
#     4  12  29  46  74 115 164 203 264 326 402 464
#     4  12  27  48  79 114 156 208 270 319 393 487
#     4  12  26  46  80 111 158 203 263 330 401 457
#     4  11  23  46  78 110 154 202 265 322 392 470
#
# _framework density 24.470444000000001
#
# number of rings (size 3 to 8) (size 9 to 14) (size 15 to 20)
#    0.000    0.400    4.000    5.400    5.600    0.000 
#    0.000    0.000    0.000    0.000    0.000    0.000 
#    0.000    0.000    0.000    0.000    0.000    0.000 
#
# Total GULP energy -123931.783747 kJ/mol
# GULP energy per Si atom -12393.178375 kJ/mol
# Density = 2.441475 g / cm^3
# Si number density = 24.470444 Si / 1000 Ang^3
#
#
#
# Elastic Constant Matrix: (Units=GPa)
#
#
# Indices 1 2 3 4 5 6 
#
# 1 100.5224 37.5322 48.7327 0.0000 1.2930 0.0000
# 2 37.5322 186.7025 64.7292 0.0000 6.5332 0.0000
# 3 48.7327 64.7292 114.7802 0.0000 -3.1111 0.0000
# 4 0.0000 0.0000 0.0000 39.8634 0.0000 -3.2371
# 5 1.2930 6.5332 -3.1111 0.0000 52.9548 0.0000
# 6 0.0000 0.0000 0.0000 -3.2371 0.0000 30.5904
#
#
#
# Elastic Compliance Matrix: (Units=1/GPa)
#
#
# Indices 1 2 3 4 5 6 
#
# 1 0.012646 -0.000819 -0.004921 0.000000 -0.000497 0.000000
# 2 -0.000819 0.006769 -0.003497 0.000000 -0.001021 0.000000
# 3 -0.004921 -0.003497 0.012809 0.000000 0.001304 0.000000
# 4 0.000000 0.000000 0.000000 0.025303 0.000000 0.002678
# 5 -0.000497 -0.001021 0.001304 0.000000 0.019099 0.000000
# 6 0.000000 0.000000 0.000000 0.002678 0.000000 0.032973
#
#
# Mechanical properties :
#
#
# Convention : Reuss Voigt Hill
#
# Bulk Modulus (GPa) = 72.72664 78.22149 75.47406
# Shear Modulus (GPa) = 37.69148 41.41579 39.55363
#
# Velocity S-wave (km/s) = 3.92891 4.11844 4.02479
# Velocity P-wave (km/s) = 7.09693 7.39260 7.24627
#
# Compressibility (1/GPa) = 0.01375012
#
# Stress axis : x y z
#
# Youngs Moduli (GPa) = 79.07834 147.73401 78.06899
#
# Poissons Ratio (x) = 0.12095 0.38416
# Poissons Ratio (y) = 0.06474 0.27303
# Poissons Ratio (z) = 0.38913 0.51667
#
# Static dielectric constant tensor:
#      x y z
#    x 4.598550 0.000000 0.070480 
#    y 0.000000 4.627370 0.000000 
#    z 0.070480 0.000000 4.431170 
# 
# 
# High freq. dielectric constant tensor:
#      x y z
#    x 1.969530 0.000000 0.000680 
#    y 0.000000 1.987740 0.000000 
#    z 0.000680 0.000000 1.971100 
# 
# From -- ./inp_files/14342.got.cif
#   From: 2010.03.12/outbox.cif.g09.slc.cpg/sg5_8_cif.got.tgz:14342.got - 2010.03.31 09:47:26.
