data_PCOD8051924
_publ_section_title
;
Structure prediction by ZEFSAII (Michael W. Deem and Ramdas Pophale) SiO2 
 PCOD8051924
Probable space group: C 2
;
_chemical_formula_sum "Si O2"
_cell_formula_units_Z 26
_cell_length_a 9.438443
_cell_length_b 22.577294
_cell_length_c 12.668317
_cell_angle_alpha 90.000000
_cell_angle_beta 28.311771
_cell_angle_gamma 90.000000
_cell_volume 1280.312501
_symmetry_space_group_name_H-M "C 2"
_symmetry_group_IT_number 5
_symmetry_cell_setting 'monoclinic'
loop_
_space_group_symop_operation_xyz
x,y,z
-x,y,-z
1/2+x,1/2+y,z
1/2-x,1/2+y,-z
loop_
_atom_site_type_symbol
_atom_site_label
_atom_site_fract_x
_atom_site_fract_y
_atom_site_fract_z
Si Si1 0.793413 0.072870 0.354336
Si Si2 0.000000 0.818475 0.500000
Si Si3 0.861031 0.647115 0.979173
Si Si4 0.095451 0.967572 0.053039
Si Si5 0.177845 0.876547 0.174951
Si Si6 0.408559 0.757693 0.946495
Si Si7 0.681011 0.038427 0.659402
O O1 0.500000 0.104431 0.500000
O O2 0.726575 0.039727 0.505774
O O3 0.895376 0.025520 0.200211
O O4 0.032803 0.122998 0.215023
O O5 0.012238 0.861584 0.594885
O O6 0.709533 0.775664 0.685759
O O7 0.065084 0.601998 0.778283
O O8 0.816491 0.710626 0.955975
O O9 0.000000 0.658998 0.000000
O O10 0.020626 0.921981 0.197162
O O11 0.000000 0.942027 0.000000
O O12 0.443866 0.986079 0.836664
O O13 0.500000 0.901611 0.000000
O O14 0.213301 0.816471 0.086151
O O15 0.500000 0.731502 0.000000
O O16 0.000000 0.021242 0.500000
#
# Coordination Sequence:
#
# PCOD8051924 Si02
#       7
#     4   2   4   4   4   4   4
#     4  11  24  40  61  91 125 170 204 248 312 371
#     4   8  18  42  62  94 118 164 208 250 310 380
#     4  11  24  39  62  95 127 161 207 259 304 367
#     4  11  24  41  63  95 128 161 210 260 305 368
#     4   9  21  40  63  91 124 161 208 255 307 369
#     4   9  21  39  63  90 123 161 208 251 308 367
#     4  11  24  43  60  90 131 166 205 252 311 372
#
# _framework density 20.307542000000002
#
# number of rings (size 3 to 8) (size 9 to 14) (size 15 to 20)
#    0.000    2.154    3.077    0.000    5.385    4.308 
#    1.385    0.000    0.000    0.000    0.000    0.000 
#    0.000    0.000    0.000    0.000    0.000    0.000 
#
# Total GULP energy -161138.322665 kJ/mol
# GULP energy per Si atom -12395.255590 kJ/mol
# Density = 2.026132 g / cm^3
# Si number density = 20.307542 Si / 1000 Ang^3
#
#
#
# Elastic Constant Matrix: (Units=GPa)
#
#
# Indices 1 2 3 4 5 6 
#
# 1 139.5055 46.2920 45.1313 0.0085 -9.0319 0.0073
# 2 46.2920 78.9821 23.9030 -0.0010 -5.6955 -0.0007
# 3 45.1313 23.9030 108.6394 0.0194 0.2037 0.0173
# 4 0.0085 -0.0010 0.0194 19.4564 -0.0134 4.6122
# 5 -9.0319 -5.6955 0.2037 -0.0134 36.7516 -0.0121
# 6 0.0073 -0.0007 0.0173 4.6122 -0.0121 42.2964
#
#
#
# Elastic Compliance Matrix: (Units=1/GPa)
#
#
# Indices 1 2 3 4 5 6 
#
# 1 0.009830 -0.004716 -0.003049 0.000000 0.001702 0.000000
# 2 -0.004716 0.015994 -0.001562 0.000005 0.001328 0.000002
# 3 -0.003049 -0.001562 0.010817 -0.000010 -0.001051 -0.000003
# 4 0.000000 0.000005 -0.000010 0.052761 0.000018 -0.005753
# 5 0.001702 0.001328 -0.001051 0.000018 0.027840 0.000006
# 6 0.000000 0.000002 -0.000003 -0.005753 0.000006 0.024270
#
#
# Mechanical properties :
#
#
# Convention : Reuss Voigt Hill
#
# Bulk Modulus (GPa) = 55.59886 61.97550 58.78718
# Shear Modulus (GPa) = 30.09142 33.82094 31.95618
#
# Velocity S-wave (km/s) = 3.85357 4.08540 3.97118
# Velocity P-wave (km/s) = 6.87298 7.26903 7.07378
#
# Compressibility (1/GPa) = 0.01798598
#
# Stress axis : x y z
#
# Youngs Moduli (GPa) = 101.73402 62.52489 92.44579
#
# Poissons Ratio (x) = 0.29485 0.28187
# Poissons Ratio (y) = 0.47975 0.14444
# Poissons Ratio (z) = 0.31019 0.09769
#
# Static dielectric constant tensor:
#      x y z
#    x 3.118940 0.000110 0.370690 
#    y 0.000110 3.455440 -0.000060 
#    z 0.370690 -0.000060 3.705970 
# 
# 
# High freq. dielectric constant tensor:
#      x y z
#    x 1.794850 0.000000 0.008610 
#    y 0.000000 1.778810 0.000000 
#    z 0.008610 0.000000 1.800840 
# 
# From -- ./inp_files/37521.got.cif
#   From: 2010.03.12/outbox.cif.g09.slc.cpg/sg5_19_cif.got.tgz:37521.got - 2010.03.31 09:47:26.
