data_PCOD8051142
_publ_section_title
;
Structure prediction by ZEFSAII (Michael W. Deem and Ramdas Pophale) SiO2 
 PCOD8051142
Probable space group: C 2
;
_chemical_formula_sum "Si O2"
_cell_formula_units_Z 18
_cell_length_a 7.068256
_cell_length_b 18.188412
_cell_length_c 5.099637
_cell_angle_alpha 90.000000
_cell_angle_beta 104.685758
_cell_angle_gamma 90.000000
_cell_volume 634.192838
_symmetry_space_group_name_H-M "C 2"
_symmetry_group_IT_number 5
_symmetry_cell_setting 'monoclinic'
loop_
_space_group_symop_operation_xyz
x,y,z
-x,y,-z
1/2+x,1/2+y,z
1/2-x,1/2+y,-z
loop_
_atom_site_type_symbol
_atom_site_label
_atom_site_fract_x
_atom_site_fract_y
_atom_site_fract_z
Si Si1 0.768648 0.935520 0.904160
Si Si2 0.710977 0.635468 0.007404
Si Si3 0.269168 0.520311 0.400415
Si Si4 0.000000 0.688898 0.500000
Si Si5 0.192639 0.272935 0.721230
O O1 0.682705 0.857613 0.793418
O O2 0.694283 0.998476 0.668155
O O3 0.000000 0.928323 0.000000
O O4 0.689860 0.959419 0.163400
O O5 0.860477 0.628929 0.302023
O O6 0.500000 0.597751 0.000000
O O7 0.787146 0.599854 0.755923
O O8 0.688013 0.723382 0.980228
O O9 0.500000 0.515337 0.500000
O O10 0.887351 0.747559 0.640868
O O11 0.000000 0.250154 0.500000
#
# Coordination Sequence:
#
# PCOD8051142 Si02
#       5
#     4   4   4   2   4
#     4  10  23  44  76 110 155 205 258 317 392 466
#     4  12  25  48  81 115 158 208 264 326 394 473
#     4  10  23  44  77 112 153 207 254 319 395 461
#     4  12  28  48  78 112 156 206 264 328 392 464
#     4  12  27  49  77 113 158 206 266 328 392 467
#
# _framework density 28.382536000000002
#
# number of rings (size 3 to 8) (size 9 to 14) (size 15 to 20)
#    0.000    0.889    2.222    4.667   10.889    0.000 
#    2.000    0.000    0.000    0.000    0.000    0.000 
#    0.000    0.000    0.000    0.000    0.000    0.000 
#
# Total GULP energy -111541.413857 kJ/mol
# GULP energy per Si atom -12393.490429 kJ/mol
# Density = 2.831794 g / cm^3
# Si number density = 28.382536 Si / 1000 Ang^3
#
#
#
# Elastic Constant Matrix: (Units=GPa)
#
#
# Indices 1 2 3 4 5 6 
#
# 1 51.2824 -9.1937 25.2445 0.0000 8.4414 0.0000
# 2 -9.1937 153.1783 28.4108 0.0000 9.4483 0.0000
# 3 25.2445 28.4108 190.5515 0.0000 0.5019 0.0000
# 4 0.0000 0.0000 0.0000 12.0403 0.0000 7.9247
# 5 8.4414 9.4483 0.5019 0.0000 54.7137 0.0000
# 6 0.0000 0.0000 0.0000 7.9247 0.0000 13.6324
#
#
#
# Elastic Compliance Matrix: (Units=1/GPa)
#
#
# Indices 1 2 3 4 5 6 
#
# 1 0.022099 0.002159 -0.003240 0.000000 -0.003753 0.000000
# 2 0.002159 0.006998 -0.001325 0.000000 -0.001529 0.000000
# 3 -0.003240 -0.001325 0.005873 0.000000 0.000675 0.000000
# 4 0.000000 0.000000 0.000000 0.134526 0.000000 -0.078202
# 5 -0.003753 -0.001529 0.000675 0.000000 0.019114 0.000000
# 6 0.000000 0.000000 0.000000 -0.078202 0.000000 0.118815
#
#
# Mechanical properties :
#
#
# Convention : Reuss Voigt Hill
#
# Bulk Modulus (GPa) = 33.15895 53.77059 43.46477
# Shear Modulus (GPa) = 15.51398 39.44732 27.48065
#
# Velocity S-wave (km/s) = 2.34049 3.73211 3.11501
# Velocity P-wave (km/s) = 4.36029 6.12842 5.31835
#
# Compressibility (1/GPa) = 0.03015777
#
# Stress axis : x y z
#
# Youngs Moduli (GPa) = 45.25004 142.89662 170.27178
#
# Poissons Ratio (x) = -0.30848 0.55164
# Poissons Ratio (y) = -0.09768 0.22567
# Poissons Ratio (z) = 0.14660 0.18939
#
# Static dielectric constant tensor:
#      x y z
#    x 5.221970 0.000000 -0.062750 
#    y 0.000000 5.054400 0.000000 
#    z -0.062750 0.000000 5.763540 
# 
# 
# High freq. dielectric constant tensor:
#      x y z
#    x 2.147460 0.000000 0.009160 
#    y 0.000000 2.155940 0.000000 
#    z 0.009160 0.000000 2.174320 
# 
# From -- ./inp_files/2494.got.cif
#   From: 2010.03.12/outbox.cif.g09.slc.cpg/sg5_2_cif.got.tgz:2494.got - 2010.03.31 09:47:26.
