data_PCOD8051234
_publ_section_title
;
Structure prediction by ZEFSAII (Michael W. Deem and Ramdas Pophale) SiO2 
 PCOD8051234
Probable space group: C 2
;
_chemical_formula_sum "Si O2"
_cell_formula_units_Z 28
_cell_length_a 13.038034
_cell_length_b 7.426702
_cell_length_c 17.668171
_cell_angle_alpha 90.000000
_cell_angle_beta 137.177601
_cell_angle_gamma 90.000000
_cell_volume 1162.880054
_symmetry_space_group_name_H-M "C 2"
_symmetry_group_IT_number 5
_symmetry_cell_setting 'monoclinic'
loop_
_space_group_symop_operation_xyz
x,y,z
-x,y,-z
1/2+x,1/2+y,z
1/2-x,1/2+y,-z
loop_
_atom_site_type_symbol
_atom_site_label
_atom_site_fract_x
_atom_site_fract_y
_atom_site_fract_z
Si Si1 0.884476 0.570790 0.871694
Si Si2 0.398323 0.427692 0.795205
Si Si3 0.363254 0.203763 0.372698
Si Si4 0.675680 0.650990 0.872092
Si Si5 0.582107 0.234540 0.767643
Si Si6 0.671194 0.524700 0.029170
Si Si7 0.913535 0.395719 0.742925
O O1 0.850709 0.730601 0.794358
O O2 0.723734 0.523627 0.826315
O O3 0.943162 0.412674 0.849914
O O4 0.000000 0.620779 0.000000
O O5 0.245498 0.531108 0.694443
O O6 0.518182 0.400309 0.787259
O O7 0.488489 0.520188 0.916249
O O8 0.500000 0.146278 0.500000
O O9 0.429816 0.271540 0.328391
O O10 0.266745 0.362246 0.362803
O O11 0.769014 0.835311 0.907542
O O12 0.498138 0.704396 0.774391
O O13 0.741023 0.563315 0.983724
O O14 0.757587 0.183640 0.880833
O O15 0.475041 0.059385 0.726266
#
# Coordination Sequence:
#
# PCOD8051234 Si02
#       7
#     4   4   4   4   4   4   4
#     4  11  21  38  63  97 136 169 200 251 333 412
#     4  11  22  42  64  97 134 170 211 267 333 396
#     4  12  28  46  67  93 124 180 242 274 314 371
#     4  11  20  35  59  93 137 166 199 252 319 404
#     4  10  24  43  65  97 136 167 211 275 333 397
#     4  11  19  36  62  97 137 166 199 257 339 410
#     4  10  24  41  61  94 128 167 219 266 320 385
#
# _framework density 24.078150000000001
#
# number of rings (size 3 to 8) (size 9 to 14) (size 15 to 20)
#    0.000    1.143    4.286    3.429    2.000    2.286 
#    0.000    2.857    0.000    0.000    0.000    0.000 
#    0.000    0.000    0.000    0.000    0.000    0.000 
#
# Total GULP energy -173472.207346 kJ/mol
# GULP energy per Si atom -12390.871953 kJ/mol
# Density = 2.402335 g / cm^3
# Si number density = 24.078150 Si / 1000 Ang^3
#
#
#
# Elastic Constant Matrix: (Units=GPa)
#
#
# Indices 1 2 3 4 5 6 
#
# 1 107.3019 1.2232 34.9994 0.0000 6.2339 0.0000
# 2 1.2232 71.3317 28.9529 0.0000 6.6127 0.0000
# 3 34.9994 28.9529 141.7642 0.0000 15.1147 0.0000
# 4 0.0000 0.0000 0.0000 24.7723 0.0000 1.0255
# 5 6.2339 6.6127 15.1147 0.0000 32.2464 0.0000
# 6 0.0000 0.0000 0.0000 1.0255 0.0000 15.8822
#
#
#
# Elastic Compliance Matrix: (Units=1/GPa)
#
#
# Indices 1 2 3 4 5 6 
#
# 1 0.010218 0.000977 -0.002621 0.000000 -0.000947 0.000000
# 2 0.000977 0.015475 -0.003203 0.000000 -0.001861 0.000000
# 3 -0.002621 -0.003203 0.008664 0.000000 -0.002898 0.000000
# 4 0.000000 0.000000 0.000000 0.040476 0.000000 -0.002613
# 5 -0.000947 -0.001861 -0.002898 0.000000 0.032934 0.000000
# 6 0.000000 0.000000 0.000000 -0.002613 0.000000 0.063132
#
#
# Mechanical properties :
#
#
# Convention : Reuss Voigt Hill
#
# Bulk Modulus (GPa) = 40.54866 50.08319 45.31592
# Shear Modulus (GPa) = 26.48079 31.59500 29.03790
#
# Velocity S-wave (km/s) = 3.31990 3.62634 3.47650
# Velocity P-wave (km/s) = 5.61895 6.19510 5.91404
#
# Compressibility (1/GPa) = 0.02466173
#
# Stress axis : x y z
#
# Youngs Moduli (GPa) = 97.86294 64.62073 115.41703
#
# Poissons Ratio (x) = -0.06310 0.30253
# Poissons Ratio (y) = -0.09556 0.36970
# Poissons Ratio (z) = 0.25652 0.20699
#
# Static dielectric constant tensor:
#      x y z
#    x 5.168220 0.000000 0.031510 
#    y 0.000000 4.768720 0.000000 
#    z 0.031510 0.000000 3.691490 
# 
# 
# High freq. dielectric constant tensor:
#      x y z
#    x 1.997430 0.000000 0.003510 
#    y 0.000000 1.988050 0.000000 
#    z 0.003510 0.000000 1.879380 
# 
# From -- ./inp_files/61479.got.cif
#   From: 2010.03.12/outbox.cif.g09.slc.cpg/sg5_31_cif.got.tgz:61479.got - 2010.03.31 09:47:26.
