data_PCOD8051088
_publ_section_title
;
Structure prediction by ZEFSAII (Michael W. Deem and Ramdas Pophale) SiO2 
 PCOD8051088
Probable space group: C 2
;
_chemical_formula_sum "Si O2"
_cell_formula_units_Z 28
_cell_length_a 11.458826
_cell_length_b 10.514159
_cell_length_c 20.579763
_cell_angle_alpha 90.000000
_cell_angle_beta 149.459263
_cell_angle_gamma 90.000000
_cell_volume 1259.933691
_symmetry_space_group_name_H-M "C 2"
_symmetry_group_IT_number 5
_symmetry_cell_setting 'monoclinic'
loop_
_space_group_symop_operation_xyz
x,y,z
-x,y,-z
1/2+x,1/2+y,z
1/2-x,1/2+y,-z
loop_
_atom_site_type_symbol
_atom_site_label
_atom_site_fract_x
_atom_site_fract_y
_atom_site_fract_z
Si Si1 0.082593 0.128190 0.713940
Si Si2 0.610979 0.203321 0.795251
Si Si3 0.917300 0.618512 0.086542
Si Si4 0.444081 0.699748 0.840741
Si Si5 0.883281 0.971972 0.143670
Si Si6 0.683179 0.591245 0.540261
Si Si7 0.745172 0.814597 0.371433
O O1 0.330130 0.173849 0.806219
O O2 0.925533 0.067380 0.582263
O O3 0.945340 0.246815 0.676377
O O4 0.138623 0.022968 0.793726
O O5 0.609579 0.089501 0.848507
O O6 0.844922 0.208791 0.866281
O O7 0.563535 0.324449 0.819740
O O8 0.406740 0.181747 0.645033
O O9 0.719760 0.724737 0.974849
O O10 0.854348 0.493628 0.012134
O O11 0.415130 0.554759 0.796448
O O12 0.324825 0.804854 0.738061
O O13 0.500000 0.659579 0.500000
O O14 0.752291 0.458901 0.605649
O O15 0.000000 0.753324 0.500000
#
# Coordination Sequence:
#
# PCOD8051088 Si02
#       7
#     4   4   4   4   4   4   4
#     4  11  22  45  70  98 139 180 235 296 356 425
#     4  12  23  44  74 100 143 188 230 298 362 426
#     4  10  23  43  66 105 134 176 239 284 359 427
#     4   9  23  44  68 104 135 181 238 287 354 429
#     4   9  25  42  70 104 134 186 234 288 357 433
#     4  11  25  41  67 101 134 185 234 281 359 426
#     4  10  23  43  68 102 136 182 235 294 349 432
#
# _framework density 22.223392
#
# number of rings (size 3 to 8) (size 9 to 14) (size 15 to 20)
#    0.857    0.857    1.429    1.714    6.000    4.571 
#    0.000    2.857    6.286    0.000    0.000    0.000 
#    0.000    0.000    0.000    0.000    0.000    0.000 
#
# Total GULP energy -173435.214195 kJ/mol
# GULP energy per Si atom -12388.229585 kJ/mol
# Density = 2.217281 g / cm^3
# Si number density = 22.223392 Si / 1000 Ang^3
#
#
#
# Elastic Constant Matrix: (Units=GPa)
#
#
# Indices 1 2 3 4 5 6 
#
# 1 129.3880 35.1287 60.6701 0.0000 -11.0330 0.0001
# 2 35.1287 65.2354 39.5116 -0.0003 -0.1082 -0.0001
# 3 60.6701 39.5116 162.5882 0.0000 -6.5605 0.0001
# 4 0.0000 -0.0003 0.0000 23.4352 -0.0001 2.5679
# 5 -11.0330 -0.1082 -6.5605 -0.0001 50.4229 0.0001
# 6 0.0001 -0.0001 0.0001 2.5679 0.0001 19.1230
#
#
#
# Elastic Compliance Matrix: (Units=1/GPa)
#
#
# Indices 1 2 3 4 5 6 
#
# 1 0.010244 -0.003803 -0.002823 0.000000 0.001866 0.000000
# 2 -0.003803 0.019401 -0.003345 0.000000 -0.001226 0.000000
# 3 -0.002823 -0.003345 0.008034 0.000000 0.000420 0.000000
# 4 0.000000 0.000000 0.000000 0.043308 0.000000 -0.005816
# 5 0.001866 -0.001226 0.000420 0.000000 0.020293 0.000000
# 6 0.000000 0.000000 0.000000 -0.005816 0.000000 0.053074
#
#
# Mechanical properties :
#
#
# Convention : Reuss Voigt Hill
#
# Bulk Modulus (GPa) = 56.38199 69.75917 63.07058
# Shear Modulus (GPa) = 27.74556 33.38961 30.56759
#
# Velocity S-wave (km/s) = 3.53722 3.88035 3.71276
# Velocity P-wave (km/s) = 6.48909 7.17874 6.84261
#
# Compressibility (1/GPa) = 0.01773616
#
# Stress axis : x y z
#
# Youngs Moduli (GPa) = 97.61654 51.54322 124.47429
#
# Poissons Ratio (x) = 0.19604 0.35140
# Poissons Ratio (y) = 0.37128 0.41637
# Poissons Ratio (z) = 0.27558 0.17241
#
# Static dielectric constant tensor:
#      x y z
#    x 4.091690 0.000000 -0.122270 
#    y 0.000000 3.580320 0.000000 
#    z -0.122270 0.000000 4.391860 
# 
# 
# High freq. dielectric constant tensor:
#      x y z
#    x 1.879830 0.000000 -0.014590 
#    y 0.000000 1.836850 0.000000 
#    z -0.014590 0.000000 1.895600 
# 
# From -- ./inp_files/65318.got.cif
#   From: 2010.03.12/outbox.cif.g09.slc.cpg/sg5_33_cif.got.tgz:65318.got - 2010.03.31 09:47:26.
