data_PCOD8051813
_publ_section_title
;
Structure prediction by ZEFSAII (Michael W. Deem and Ramdas Pophale) SiO2 
 PCOD8051813
Probable space group: C 2
;
_chemical_formula_sum "Si O2"
_cell_formula_units_Z 32
_cell_length_a 14.677327
_cell_length_b 22.587764
_cell_length_c 8.618361
_cell_angle_alpha 90.000000
_cell_angle_beta 149.577791
_cell_angle_gamma 90.000000
_cell_volume 1446.808967
_symmetry_space_group_name_H-M "C 2"
_symmetry_group_IT_number 5
_symmetry_cell_setting 'monoclinic'
loop_
_space_group_symop_operation_xyz
x,y,z
-x,y,-z
1/2+x,1/2+y,z
1/2-x,1/2+y,-z
loop_
_atom_site_type_symbol
_atom_site_label
_atom_site_fract_x
_atom_site_fract_y
_atom_site_fract_z
Si Si1 0.823225 0.956870 0.341716
Si Si2 0.741092 0.824637 0.729068
Si Si3 0.820009 0.204919 0.177857
Si Si4 0.839465 0.524575 0.661812
Si Si5 0.972348 0.441888 0.624755
Si Si6 0.042435 0.656789 0.232949
Si Si7 0.311369 0.737401 0.807774
Si Si8 0.118411 0.841528 0.399878
O O1 0.808019 0.905313 0.447860
O O2 0.000000 0.955595 0.500000
O O3 0.823133 0.016820 0.450926
O O4 0.660782 0.947430 0.986638
O O5 0.675109 0.763625 0.707203
O O6 0.584749 0.873706 0.487583
O O7 0.807169 0.814682 0.651003
O O8 0.902856 0.846882 0.076599
O O9 0.000000 0.169857 0.500000
O O10 0.641969 0.164690 0.940345
O O11 0.840522 0.217955 0.026541
O O12 0.888106 0.589893 0.678752
O O13 0.817516 0.480838 0.482371
O O14 0.000000 0.497093 0.000000
O O15 0.000000 0.472778 0.500000
O O16 0.207702 0.687927 0.557975
O O17 0.000000 0.683186 0.000000
O O18 0.185259 0.795512 0.628861
O O19 0.500000 0.750563 0.000000
#
# Coordination Sequence:
#
# PCOD8051813 Si02
#       8
#     4   4   4   4   4   4   4   4
#     4  11  24  42  68 104 141 189 237 292 360 429
#     4  11  23  41  63  99 144 191 224 291 356 424
#     4  12  26  43  69 106 148 186 244 297 363 432
#     4   9  22  46  71  97 136 188 239 304 352 417
#     4  11  23  40  64  99 139 184 238 281 356 423
#     4  11  23  48  74  99 140 189 244 305 365 420
#     4  12  27  43  67 105 144 196 240 294 362 434
#     4  11  24  39  65  97 146 189 231 281 358 430
#
# _framework density 22.117637999999999
#
# number of rings (size 3 to 8) (size 9 to 14) (size 15 to 20)
#    0.000    1.000    2.500    3.750    7.000    1.000 
#    0.000   11.875    0.000    0.000    0.000    0.000 
#    0.000    0.000    0.000    0.000    0.000    0.000 
#
# Total GULP energy -198253.310394 kJ/mol
# GULP energy per Si atom -12390.831900 kJ/mol
# Density = 2.206730 g / cm^3
# Si number density = 22.117638 Si / 1000 Ang^3
#
#
#
# Elastic Constant Matrix: (Units=GPa)
#
#
# Indices 1 2 3 4 5 6 
#
# 1 129.1508 49.2131 40.6532 0.0000 -3.3285 0.0000
# 2 49.2131 117.7947 39.3847 0.0000 1.3584 0.0000
# 3 40.6532 39.3847 122.9096 0.0000 0.2745 0.0000
# 4 0.0000 0.0000 0.0000 25.0955 0.0000 1.0962
# 5 -3.3285 1.3584 0.2745 0.0000 28.1543 0.0000
# 6 0.0000 0.0000 0.0000 1.0962 0.0000 21.6947
#
#
#
# Elastic Compliance Matrix: (Units=1/GPa)
#
#
# Indices 1 2 3 4 5 6 
#
# 1 0.009735 -0.003365 -0.002144 0.000000 0.001334 0.000000
# 2 -0.003365 0.010677 -0.002306 0.000000 -0.000891 0.000000
# 3 -0.002144 -0.002306 0.009585 0.000000 -0.000236 0.000000
# 4 0.000000 0.000000 0.000000 0.039936 0.000000 -0.002018
# 5 0.001334 -0.000891 -0.000236 0.000000 0.035721 0.000000
# 6 0.000000 0.000000 0.000000 -0.002018 0.000000 0.046196
#
#
# Mechanical properties :
#
#
# Convention : Reuss Voigt Hill
#
# Bulk Modulus (GPa) = 69.61657 69.81745 69.71701
# Shear Modulus (GPa) = 29.02426 31.02918 30.02672
#
# Velocity S-wave (km/s) = 3.62645 3.74962 3.68855
# Velocity P-wave (km/s) = 7.00563 7.09796 7.05195
#
# Compressibility (1/GPa) = 0.01436440
#
# Stress axis : x y z
#
# Youngs Moduli (GPa) = 102.72571 93.66207 104.33187
#
# Poissons Ratio (x) = 0.31521 0.22373
# Poissons Ratio (y) = 0.34572 0.24060
# Poissons Ratio (z) = 0.22028 0.21599
#
# Static dielectric constant tensor:
#      x y z
#    x 4.421090 0.000000 -0.018220 
#    y 0.000000 3.717600 0.000000 
#    z -0.018220 0.000000 4.231080 
# 
# 
# High freq. dielectric constant tensor:
#      x y z
#    x 1.891110 0.000000 -0.006930 
#    y 0.000000 1.849620 0.000000 
#    z -0.006930 0.000000 1.877140 
# 
# From -- ./inp_files/25661.got.cif
#   From: 2010.03.12/outbox.cif.g09.slc.cpg/sg5_13_cif.got.tgz:25661.got - 2010.03.31 09:47:26.
