data_PCOD8051514
_publ_section_title
;
Structure prediction by ZEFSAII (Michael W. Deem and Ramdas Pophale) SiO2 
 PCOD8051514
Probable space group: C 2
;
_chemical_formula_sum "Si O2"
_cell_formula_units_Z 28
_cell_length_a 17.937411
_cell_length_b 5.407008
_cell_length_c 21.141967
_cell_angle_alpha 90.000000
_cell_angle_beta 144.933136
_cell_angle_gamma 90.000000
_cell_volume 1178.084331
_symmetry_space_group_name_H-M "C 2"
_symmetry_group_IT_number 5
_symmetry_cell_setting 'monoclinic'
loop_
_space_group_symop_operation_xyz
x,y,z
-x,y,-z
1/2+x,1/2+y,z
1/2-x,1/2+y,-z
loop_
_atom_site_type_symbol
_atom_site_label
_atom_site_fract_x
_atom_site_fract_y
_atom_site_fract_z
Si Si1 0.761612 0.234180 0.797969
Si Si2 0.000000 0.443236 0.500000
Si Si3 0.288051 0.581076 0.347661
Si Si4 0.461603 0.652931 0.746243
Si Si5 0.478718 0.170090 0.278574
Si Si6 0.931435 0.887951 0.845501
Si Si7 0.000000 0.576225 0.000000
Si Si8 0.332517 0.229486 0.481139
O O1 0.702132 0.345505 0.691785
O O2 0.648435 0.160576 0.766942
O O3 0.869993 0.416046 0.902066
O O4 0.829010 0.978800 0.826713
O O5 0.940478 0.592671 0.515605
O O6 0.888731 0.278010 0.390486
O O7 0.142329 0.690027 0.250845
O O8 0.323752 0.504930 0.444785
O O9 0.541603 0.419090 0.775851
O O10 0.481194 0.618681 0.836684
O O11 0.310665 0.613431 0.623052
O O12 0.514842 0.917183 0.758661
O O13 0.613894 0.211124 0.410608
O O14 0.033747 0.741430 0.960463
#
# Coordination Sequence:
#
# PCOD8051514 Si02
#       8
#     4   2   4   4   4   4   2   4
#     4  11  24  48  75 111 140 191 263 323 383 457
#     4  12  22  34  66 102 140 196 266 308 360 418
#     4  11  21  38  70 103 145 191 259 324 365 427
#     4  12  27  47  71 107 161 204 241 304 384 452
#     4  12  29  44  73 110 160 205 244 304 374 466
#     4  11  23  47  79 106 140 195 254 326 384 455
#     4  10  26  44  92 106 138 188 274 330 396 458
#     4  12  24  42  63 109 148 213 250 297 357 463
#
# _framework density 23.767399000000001
#
# number of rings (size 3 to 8) (size 9 to 14) (size 15 to 20)
#    0.000    0.571    2.857    5.143   10.000    0.000 
#    0.000    0.000    6.286    0.000    0.000    0.000 
#    0.000    0.000    0.000    0.000    0.000    0.000 
#
# Total GULP energy -173491.384863 kJ/mol
# GULP energy per Si atom -12392.241776 kJ/mol
# Density = 2.371330 g / cm^3
# Si number density = 23.767399 Si / 1000 Ang^3
#
#
#
# Elastic Constant Matrix: (Units=GPa)
#
#
# Indices 1 2 3 4 5 6 
#
# 1 104.2525 44.1959 15.3387 -0.0074 -7.0588 -0.0157
# 2 44.1959 126.5649 25.2348 -0.0095 -15.5087 -0.0124
# 3 15.3387 25.2348 93.8425 -0.0002 -19.9784 -0.0020
# 4 -0.0074 -0.0095 -0.0002 57.4581 -0.0040 46.0099
# 5 -7.0588 -15.5087 -19.9784 -0.0040 21.2928 -0.0090
# 6 -0.0157 -0.0124 -0.0020 46.0099 -0.0090 174.6471
#
#
#
# Elastic Compliance Matrix: (Units=1/GPa)
#
#
# Indices 1 2 3 4 5 6 
#
# 1 0.011321 -0.003764 -0.000779 0.000000 0.000281 0.000001
# 2 -0.003764 0.010042 -0.000992 0.000001 0.005136 0.000000
# 3 -0.000779 -0.000992 0.013548 0.000000 0.011731 0.000001
# 4 0.000000 0.000001 0.000000 0.022057 0.000003 -0.005811
# 5 0.000281 0.005136 0.011731 0.000003 0.061805 0.000003
# 6 0.000001 0.000000 0.000001 -0.005811 0.000003 0.007257
#
#
# Mechanical properties :
#
#
# Convention : Reuss Voigt Hill
#
# Bulk Modulus (GPa) = 41.94061 54.91095 48.42578
# Shear Modulus (GPa) = 34.47189 66.67229 50.57209
#
# Velocity S-wave (km/s) = 3.81252 5.30216 4.61780
# Velocity P-wave (km/s) = 6.08811 7.78701 6.98937
#
# Compressibility (1/GPa) = 0.02384324
#
# Stress axis : x y z
#
# Youngs Moduli (GPa) = 88.32980 99.57736 73.81427
#
# Poissons Ratio (x) = 0.37477 0.05746
# Poissons Ratio (y) = 0.33244 0.07321
# Poissons Ratio (z) = 0.06876 0.09877
#
# Static dielectric constant tensor:
#      x y z
#    x 1.384340 0.000060 0.510330 
#    y 0.000060 4.472650 -0.000020 
#    z 0.510330 -0.000020 4.144830 
# 
# 
# High freq. dielectric constant tensor:
#      x y z
#    x 1.935430 0.000000 -0.008800 
#    y 0.000000 1.959910 0.000000 
#    z -0.008800 0.000000 1.923380 
# 
# From -- ./inp_files/66478.got.cif
#   From: 2010.03.12/outbox.cif.g09.slc.cpg/sg5_34_cif.got.tgz:66478.got - 2010.03.31 09:47:26.
