data_PCOD8051627
_publ_section_title
;
Structure prediction by ZEFSAII (Michael W. Deem and Ramdas Pophale) SiO2 
 PCOD8051627
Probable space group: C 2
;
_chemical_formula_sum "Si O2"
_cell_formula_units_Z 32
_cell_length_a 22.055618
_cell_length_b 9.415790
_cell_length_c 14.166844
_cell_angle_alpha 90.000000
_cell_angle_beta 149.998089
_cell_angle_gamma 90.000000
_cell_volume 1471.106787
_symmetry_space_group_name_H-M "C 2"
_symmetry_group_IT_number 5
_symmetry_cell_setting 'monoclinic'
loop_
_space_group_symop_operation_xyz
x,y,z
-x,y,-z
1/2+x,1/2+y,z
1/2-x,1/2+y,-z
loop_
_atom_site_type_symbol
_atom_site_label
_atom_site_fract_x
_atom_site_fract_y
_atom_site_fract_z
Si Si1 0.484053 0.355100 0.720525
Si Si2 0.625755 0.668712 0.135207
Si Si3 0.139437 0.132448 0.943116
Si Si4 0.574641 0.135238 0.695958
Si Si5 0.791307 0.441331 0.642526
Si Si6 0.085520 0.719111 0.194023
Si Si7 0.713717 0.929214 0.570221
Si Si8 0.497849 0.829005 0.384896
O O1 0.588489 0.471938 0.881448
O O2 0.520795 0.271465 0.676157
O O3 0.354016 0.435980 0.535131
O O4 0.484204 0.229488 0.799426
O O5 0.646723 0.805067 0.228356
O O6 0.736200 0.559534 0.300090
O O7 0.500000 0.598126 0.000000
O O8 0.613779 0.709135 0.008785
O O9 0.078369 0.209283 0.771576
O O10 0.282325 0.143235 0.122683
O O11 0.500000 0.130949 0.500000
O O12 0.551445 0.983155 0.713569
O O13 0.854745 0.579053 0.773127
O O14 0.843140 0.478872 0.605936
O O15 0.187763 0.833947 0.348269
O O16 0.000000 0.783856 0.000000
O O17 0.634783 0.828258 0.530955
O O18 0.500000 0.798448 0.500000
#
# Coordination Sequence:
#
# PCOD8051627 Si02
#       8
#     4   4   4   4   4   4   4   4
#     4  11  24  44  66  93 131 173 218 271 331 396
#     4  12  23  39  64  95 130 172 220 276 334 397
#     4  12  25  43  66  98 131 176 229 280 336 405
#     4  11  24  44  68  95 130 175 224 279 338 399
#     4  11  22  39  63  94 128 167 210 268 329 395
#     4  11  23  38  61  93 126 161 206 262 322 383
#     4  11  21  40  63  89 125 170 216 265 328 395
#     4  11  24  43  65  93 130 178 227 281 339 400
#
# _framework density 21.752329
#
# number of rings (size 3 to 8) (size 9 to 14) (size 15 to 20)
#    0.000    0.750    0.000   10.500    0.000    2.500 
#    0.000    3.750    0.000    0.000    0.000    0.000 
#    0.000    0.000    0.000    0.000    0.000    0.000 
#
# Total GULP energy -198246.882801 kJ/mol
# GULP energy per Si atom -12390.430175 kJ/mol
# Density = 2.170282 g / cm^3
# Si number density = 21.752329 Si / 1000 Ang^3
#
#
#
# Elastic Constant Matrix: (Units=GPa)
#
#
# Indices 1 2 3 4 5 6 
#
# 1 121.1853 37.0765 50.9512 0.0000 1.1171 0.0000
# 2 37.0765 105.2204 43.7361 0.0000 4.7672 0.0000
# 3 50.9512 43.7361 102.9331 0.0000 2.1812 0.0000
# 4 0.0000 0.0000 0.0000 25.8196 0.0000 -2.7916
# 5 1.1171 4.7672 2.1812 0.0000 31.1501 0.0000
# 6 0.0000 0.0000 0.0000 -2.7916 0.0000 39.9352
#
#
#
# Elastic Compliance Matrix: (Units=1/GPa)
#
#
# Indices 1 2 3 4 5 6 
#
# 1 0.010729 -0.001920 -0.004500 0.000000 0.000224 0.000000
# 2 -0.001920 0.011950 -0.004096 0.000000 -0.001473 0.000000
# 3 -0.004500 -0.004096 0.013686 0.000000 -0.000170 0.000000
# 4 0.000000 0.000000 0.000000 0.039025 0.000000 0.002728
# 5 0.000224 -0.001473 -0.000170 0.000000 0.032332 0.000000
# 6 0.000000 0.000000 0.000000 0.002728 0.000000 0.025231
#
#
# Mechanical properties :
#
#
# Convention : Reuss Voigt Hill
#
# Bulk Modulus (GPa) = 65.21594 65.87406 65.54500
# Shear Modulus (GPa) = 31.42758 32.55264 31.99011
#
# Velocity S-wave (km/s) = 3.80517 3.87268 3.83907
# Velocity P-wave (km/s) = 7.02509 7.09551 7.06039
#
# Compressibility (1/GPa) = 0.01533367
#
# Stress axis : x y z
#
# Youngs Moduli (GPa) = 93.20413 83.68419 73.06674
#
# Poissons Ratio (x) = 0.16071 0.32877
# Poissons Ratio (y) = 0.17900 0.29925
# Poissons Ratio (z) = 0.41938 0.34273
#
# Static dielectric constant tensor:
#      x y z
#    x 4.061630 0.000000 0.013840 
#    y 0.000000 3.883150 0.000000 
#    z 0.013840 0.000000 4.055370 
# 
# 
# High freq. dielectric constant tensor:
#      x y z
#    x 1.862800 0.000000 0.001290 
#    y 0.000000 1.853660 0.000000 
#    z 0.001290 0.000000 1.863510 
# 
# From -- ./inp_files/57717.got.cif
#   From: 2010.03.12/outbox.cif.g09.slc.cpg/sg5_29_cif.got.tgz:57717.got - 2010.03.31 09:47:26.
