data_PCOD8051197
_publ_section_title
;
Structure prediction by ZEFSAII (Michael W. Deem and Ramdas Pophale) SiO2 
 PCOD8051197
Probable space group: C 2
;
_chemical_formula_sum "Si O2"
_cell_formula_units_Z 24
_cell_length_a 11.582071
_cell_length_b 8.966273
_cell_length_c 11.182359
_cell_angle_alpha 90.000000
_cell_angle_beta 84.865330
_cell_angle_gamma 90.000000
_cell_volume 1156.605683
_symmetry_space_group_name_H-M "C 2"
_symmetry_group_IT_number 5
_symmetry_cell_setting 'monoclinic'
loop_
_space_group_symop_operation_xyz
x,y,z
-x,y,-z
1/2+x,1/2+y,z
1/2-x,1/2+y,-z
loop_
_atom_site_type_symbol
_atom_site_label
_atom_site_fract_x
_atom_site_fract_y
_atom_site_fract_z
Si Si1 0.120869 0.426000 0.336513
Si Si2 0.506384 0.335766 0.124021
Si Si3 0.888797 0.927949 0.362181
Si Si4 0.000000 0.676154 0.500000
Si Si5 0.500000 0.679763 0.500000
Si Si6 0.318084 0.169280 0.016593
Si Si7 0.610099 0.863651 0.069638
O O1 0.259837 0.433712 0.323012
O O2 0.068152 0.575860 0.398126
O O3 0.081737 0.280533 0.411255
O O4 0.073394 0.409213 0.206728
O O5 0.482879 0.429367 0.244922
O O6 0.630851 0.249114 0.110392
O O7 0.500000 0.434570 0.000000
O O8 0.405163 0.208462 0.118569
O O9 0.907150 0.780634 0.440729
O O10 0.912444 0.077842 0.432675
O O11 0.313073 0.993158 0.997574
O O12 0.188593 0.216315 0.061975
O O13 0.500000 0.828664 0.000000
#
# Coordination Sequence:
#
# PCOD8051197 Si02
#       7
#     4   4   4   2   2   4   4
#     4  11  23  43  61  88 131 160 204 268 298 366
#     4   8  17  39  61  86 124 160 190 251 315 357
#     4  11  20  43  66  88 123 166 206 257 309 366
#     4  10  24  36  66  90 114 174 214 242 316 360
#     4  10  26  40  62  96 118 160 222 252 298 370
#     4   9  21  39  60  92 127 159 201 249 310 373
#     4  12  23  41  64  93 127 167 204 253 319 373
#
# _framework density 20.750371000000001
#
# number of rings (size 3 to 8) (size 9 to 14) (size 15 to 20)
#    1.000    0.667    3.333    2.000    0.000    2.667 
#    3.000    6.667    0.000    0.000    0.000    0.000 
#    0.000    0.000    0.000    0.000    0.000    0.000 
#
# Total GULP energy -148713.063341 kJ/mol
# GULP energy per Si atom -12392.755278 kJ/mol
# Density = 2.070314 g / cm^3
# Si number density = 20.750371 Si / 1000 Ang^3
#
#
#
# Elastic Constant Matrix: (Units=GPa)
#
#
# Indices 1 2 3 4 5 6 
#
# 1 72.7420 4.9405 15.5812 0.0000 2.2699 0.0000
# 2 4.9405 76.3104 14.4067 0.0000 -2.4852 0.0000
# 3 15.5812 14.4067 91.7182 0.0000 7.4162 0.0000
# 4 0.0000 0.0000 0.0000 13.2686 0.0000 -3.2237
# 5 2.2699 -2.4852 7.4162 0.0000 28.2380 0.0000
# 6 0.0000 0.0000 0.0000 -3.2237 0.0000 17.3660
#
#
#
# Elastic Compliance Matrix: (Units=1/GPa)
#
#
# Indices 1 2 3 4 5 6 
#
# 1 0.014293 -0.000510 -0.002300 0.000000 -0.000590 0.000000
# 2 -0.000510 0.013612 -0.002198 0.000000 0.001816 0.000000
# 3 -0.002300 -0.002198 0.011892 0.000000 -0.003132 0.000000
# 4 0.000000 0.000000 0.000000 0.078926 0.000000 0.014651
# 5 -0.000590 0.001816 -0.003132 0.000000 0.036443 0.000000
# 6 0.000000 0.000000 0.000000 0.014651 0.000000 0.060304
#
#
# Mechanical properties :
#
#
# Convention : Reuss Voigt Hill
#
# Bulk Modulus (GPa) = 33.58043 34.51414 34.04729
# Shear Modulus (GPa) = 21.23925 25.49732 23.36829
#
# Velocity S-wave (km/s) = 3.20278 3.50918 3.35947
# Velocity P-wave (km/s) = 5.46766 5.75224 5.61175
#
# Compressibility (1/GPa) = 0.02977925
#
# Stress axis : x y z
#
# Youngs Moduli (GPa) = 69.96439 73.46688 84.08832
#
# Poissons Ratio (x) = 0.03749 0.19343
# Poissons Ratio (y) = 0.03570 0.18484
# Poissons Ratio (z) = 0.16094 0.16150
#
# Static dielectric constant tensor:
#      x y z
#    x 3.509390 0.000000 -0.036370 
#    y 0.000000 3.630490 0.000000 
#    z -0.036370 0.000000 3.775390 
# 
# 
# High freq. dielectric constant tensor:
#      x y z
#    x 1.805430 0.000000 -0.005430 
#    y 0.000000 1.805980 0.000000 
#    z -0.005430 0.000000 1.809160 
# 
# From -- ./inp_files/38391.got.cif
#   From: 2010.03.12/outbox.cif.g09.slc.cpg/sg5_20_cif.got.tgz:38391.got - 2010.03.31 09:47:26.
