data_PCOD8051082
_publ_section_title
;
Structure prediction by ZEFSAII (Michael W. Deem and Ramdas Pophale) SiO2 
 PCOD8051082
Probable space group: C 2
;
_chemical_formula_sum "Si O2"
_cell_formula_units_Z 22
_cell_length_a 15.331256
_cell_length_b 13.004088
_cell_length_c 6.112948
_cell_angle_alpha 90.000000
_cell_angle_beta 56.050993
_cell_angle_gamma 90.000000
_cell_volume 1010.981041
_symmetry_space_group_name_H-M "C 2"
_symmetry_group_IT_number 5
_symmetry_cell_setting 'monoclinic'
loop_
_space_group_symop_operation_xyz
x,y,z
-x,y,-z
1/2+x,1/2+y,z
1/2-x,1/2+y,-z
loop_
_atom_site_type_symbol
_atom_site_label
_atom_site_fract_x
_atom_site_fract_y
_atom_site_fract_z
Si Si1 0.197718 0.004640 0.261962
Si Si2 0.114819 0.409092 0.733334
Si Si3 0.272966 0.702189 0.529154
Si Si4 0.323847 0.070665 0.703231
Si Si5 0.924224 0.701494 0.921002
Si Si6 0.500000 0.365698 0.500000
O O1 0.167600 0.105765 0.443587
O O2 0.302325 0.951753 0.208925
O O3 0.099901 0.931533 0.422781
O O4 0.221186 0.028445 0.974830
O O5 0.143944 0.292121 0.629749
O O6 0.119484 0.480673 0.511890
O O7 0.000000 0.409120 0.000000
O O8 0.214666 0.666223 0.389699
O O9 0.185082 0.740241 0.823855
O O10 0.407124 0.114353 0.762350
O O11 0.981531 0.799589 0.741916
O O12 0.000000 0.651410 0.000000
#
# Coordination Sequence:
#
# PCOD8051082 Si02
#       6
#     4   4   4   4   4   2
#     4  10  24  42  65  94 126 171 215 259 317 377
#     4  11  24  42  65  94 130 170 213 261 317 379
#     4  10  23  43  63  92 129 167 213 259 317 382
#     4  10  23  43  64  92 131 166 211 266 315 374
#     4  11  22  37  67  97 124 164 214 267 316 371
#     4  12  24  42  68  96 128 164 214 268 316 372
#
# _framework density 21.761042
#
# number of rings (size 3 to 8) (size 9 to 14) (size 15 to 20)
#    0.000    1.455    0.000    4.364    0.000   17.455 
#    0.000    0.000    0.000    0.000    0.000    0.000 
#    0.000    0.000    0.000    0.000    0.000    0.000 
#
# Total GULP energy -136432.931884 kJ/mol
# GULP energy per Si atom -12402.993808 kJ/mol
# Density = 2.171151 g / cm^3
# Si number density = 21.761042 Si / 1000 Ang^3
#
#
#
# Elastic Constant Matrix: (Units=GPa)
#
#
# Indices 1 2 3 4 5 6 
#
# 1 124.8075 72.3893 70.7755 0.0000 0.3054 0.0000
# 2 72.3893 161.2941 90.8353 0.0000 -7.0835 0.0000
# 3 70.7755 90.8353 149.5296 0.0000 2.0729 0.0000
# 4 0.0000 0.0000 0.0000 47.0825 0.0000 -13.5473
# 5 0.3054 -7.0835 2.0729 0.0000 35.6698 0.0000
# 6 0.0000 0.0000 0.0000 -13.5473 0.0000 30.3743
#
#
#
# Elastic Compliance Matrix: (Units=1/GPa)
#
#
# Indices 1 2 3 4 5 6 
#
# 1 0.012035 -0.003378 -0.003637 0.000000 -0.000563 0.000000
# 2 -0.003378 0.010549 -0.004842 0.000000 0.002405 0.000000
# 3 -0.003637 -0.004842 0.011373 0.000000 -0.001591 0.000000
# 4 0.000000 0.000000 0.000000 0.024366 0.000000 0.010868
# 5 -0.000563 0.002405 -0.001591 0.000000 0.028610 0.000000
# 6 0.000000 0.000000 0.000000 0.010868 0.000000 0.037770
#
#
# Mechanical properties :
#
#
# Convention : Reuss Voigt Hill
#
# Bulk Modulus (GPa) = 97.63525 100.40348 99.01937
# Shear Modulus (GPa) = 32.93130 36.06738 34.49934
#
# Velocity S-wave (km/s) = 3.89435 4.07557 3.98599
# Velocity P-wave (km/s) = 8.07377 8.26960 8.17227
#
# Compressibility (1/GPa) = 0.01024220
#
# Stress axis : x y z
#
# Youngs Moduli (GPa) = 83.08869 94.79817 87.93026
#
# Poissons Ratio (x) = 0.32025 0.31977
# Poissons Ratio (y) = 0.28069 0.42580
# Poissons Ratio (z) = 0.30216 0.45906
#
# Static dielectric constant tensor:
#      x y z
#    x 3.766080 0.000000 0.250210 
#    y 0.000000 4.084480 0.000000 
#    z 0.250210 0.000000 4.257260 
# 
# 
# High freq. dielectric constant tensor:
#      x y z
#    x 1.844380 0.000000 0.006360 
#    y 0.000000 1.860490 0.000000 
#    z 0.006360 0.000000 1.877360 
# 
# From -- ./inp_files/4764.got.cif
#   From: 2010.03.12/outbox.cif.g09.slc.cpg/sg5_3_cif.got.tgz:4764.got - 2010.03.31 09:47:26.
