data_PCOD8051277
_publ_section_title
;
Structure prediction by ZEFSAII (Michael W. Deem and Ramdas Pophale) SiO2 
 PCOD8051277
Probable space group: C 2
;
_chemical_formula_sum "Si O2"
_cell_formula_units_Z 32
_cell_length_a 12.935555
_cell_length_b 8.205501
_cell_length_c 24.306455
_cell_angle_alpha 90.000000
_cell_angle_beta 34.738313
_cell_angle_gamma 90.000000
_cell_volume 1470.132431
_symmetry_space_group_name_H-M "C 2"
_symmetry_group_IT_number 5
_symmetry_cell_setting 'monoclinic'
loop_
_space_group_symop_operation_xyz
x,y,z
-x,y,-z
1/2+x,1/2+y,z
1/2-x,1/2+y,-z
loop_
_atom_site_type_symbol
_atom_site_label
_atom_site_fract_x
_atom_site_fract_y
_atom_site_fract_z
Si Si1 0.121498 0.676150 0.813725
Si Si2 0.205793 0.184194 0.616328
Si Si3 0.789618 0.361402 0.084377
Si Si4 0.105051 0.431101 0.279996
Si Si5 0.087820 0.939319 0.274993
Si Si6 0.146773 0.532029 0.141834
Si Si7 0.452856 0.203459 0.610190
Si Si8 0.659940 0.207269 0.973606
O O1 0.232680 0.843483 0.756551
O O2 0.255491 0.575122 0.793917
O O3 0.062940 0.579036 0.783539
O O4 0.931358 0.709093 0.926938
O O5 0.281019 0.189072 0.645266
O O6 0.363368 0.217325 0.504085
O O7 0.053915 0.317940 0.673063
O O8 0.113045 0.008129 0.648978
O O9 0.658298 0.326897 0.194584
O O10 0.765479 0.185712 0.065359
O O11 0.730013 0.533801 0.081824
O O12 0.000000 0.391357 0.000000
O O13 0.179737 0.519771 0.192938
O O14 0.020664 0.553190 0.360606
O O15 0.080083 0.860932 0.338313
O O16 0.200955 0.359772 0.090144
O O17 0.500000 0.236327 0.000000
#
# Coordination Sequence:
#
# PCOD8051277 Si02
#       8
#     4   4   4   4   4   4   4   4
#     4  11  25  41  62  97 128 179 229 272 339 399
#     4  10  24  43  66 100 133 168 222 280 338 412
#     4  11  23  40  66  95 133 180 230 276 326 404
#     4  11  23  44  65  93 137 169 217 283 334 403
#     4  11  21  43  66  90 135 171 218 282 333 394
#     4  12  25  41  65  95 134 181 228 279 338 400
#     4  11  23  41  71 100 126 175 222 268 354 412
#     4  11  21  44  61  88 139 181 223 291 331 380
#
# _framework density 21.766746999999999
#
# number of rings (size 3 to 8) (size 9 to 14) (size 15 to 20)
#    0.000    1.000    5.000    2.625    3.500    0.000 
#    0.000    0.000    0.000    6.000    0.000    0.000 
#    0.000    0.000    0.000    0.000    0.000    0.000 
#
# Total GULP energy -198230.916079 kJ/mol
# GULP energy per Si atom -12389.432255 kJ/mol
# Density = 2.171720 g / cm^3
# Si number density = 21.766747 Si / 1000 Ang^3
#
#
#
# Elastic Constant Matrix: (Units=GPa)
#
#
# Indices 1 2 3 4 5 6 
#
# 1 92.5196 36.1538 30.5310 -0.0004 -16.0733 0.0003
# 2 36.1538 138.5544 32.7459 -0.0008 -9.9315 0.0009
# 3 30.5310 32.7459 94.3977 -0.0013 0.6515 0.0003
# 4 -0.0004 -0.0008 -0.0013 -55.2325 0.0000 6.4650
# 5 -16.0733 -9.9315 0.6515 0.0000 27.8812 -0.0001
# 6 0.0003 0.0009 0.0003 6.4650 -0.0001 34.0753
#
#
#
# Elastic Compliance Matrix: (Units=1/GPa)
#
#
# Indices 1 2 3 4 5 6 
#
# 1 0.014283 -0.002270 -0.003884 0.000000 0.007516 0.000000
# 2 -0.002270 0.008458 -0.002212 0.000000 0.001756 0.000000
# 3 -0.003884 -0.002212 0.012640 0.000000 -0.003322 0.000000
# 4 0.000000 0.000000 0.000000 -0.017712 0.000000 0.003360
# 5 0.007516 0.001756 -0.003322 0.000000 0.040903 0.000000
# 6 0.000000 0.000000 0.000000 0.003360 0.000000 0.028709
#
#
# Mechanical properties :
#
#
# Convention : Reuss Voigt Hill
#
# Bulk Modulus (GPa) = 53.62209 58.25923 55.94066
# Shear Modulus (GPa) = 45.35969 16.41421 30.88695
#
# Velocity S-wave (km/s) = 4.56993 2.74906 3.77104
# Velocity P-wave (km/s) = 7.24803 6.07452 6.68707
#
# Compressibility (1/GPa) = 0.01864903
#
# Stress axis : x y z
#
# Youngs Moduli (GPa) = 70.01276 118.22532 79.11451
#
# Poissons Ratio (x) = 0.26841 0.30727
# Poissons Ratio (y) = 0.15895 0.17500
# Poissons Ratio (z) = 0.27192 0.26152
#
# Static dielectric constant tensor:
#      x y z
#    x 4.002510 0.000000 0.008940 
#    y 0.000000 4.171610 0.000000 
#    z 0.008940 0.000000 3.945590 
# 
# 
# High freq. dielectric constant tensor:
#      x y z
#    x 1.856070 0.000000 0.000170 
#    y 0.000000 1.870060 0.000000 
#    z 0.000170 0.000000 1.842000 
# 
# From -- ./inp_files/70604.got.cif
#   From: 2010.03.12/outbox.cif.g09.slc.cpg/sg5_36_cif.got.tgz:70604.got - 2010.03.31 09:47:26.
