data_PCOD8051770
_publ_section_title
;
Structure prediction by ZEFSAII (Michael W. Deem and Ramdas Pophale) SiO2 
 PCOD8051770
Probable space group: C 2
;
_chemical_formula_sum "Si O2"
_cell_formula_units_Z 32
_cell_length_a 11.462428
_cell_length_b 8.611931
_cell_length_c 27.898535
_cell_angle_alpha 90.000000
_cell_angle_beta 32.338695
_cell_angle_gamma 90.000000
_cell_volume 1473.159927
_symmetry_space_group_name_H-M "C 2"
_symmetry_group_IT_number 5
_symmetry_cell_setting 'monoclinic'
loop_
_space_group_symop_operation_xyz
x,y,z
-x,y,-z
1/2+x,1/2+y,z
1/2-x,1/2+y,-z
loop_
_atom_site_type_symbol
_atom_site_label
_atom_site_fract_x
_atom_site_fract_y
_atom_site_fract_z
Si Si1 0.446553 0.813210 0.395576
Si Si2 0.093461 0.435639 0.687018
Si Si3 0.904297 0.753513 0.724707
Si Si4 0.084729 0.198209 0.086753
Si Si5 0.553608 0.342246 0.093527
Si Si6 0.529486 0.456234 0.589445
Si Si7 0.321087 0.729464 0.842368
Si Si8 0.420956 0.411382 0.244513
O O1 0.416282 0.800345 0.348932
O O2 0.453691 0.635825 0.406479
O O3 0.250857 0.898463 0.489719
O O4 0.659952 0.913342 0.335672
O O5 0.341900 0.451978 0.615083
O O6 0.986494 0.576701 0.693537
O O7 0.953398 0.385369 0.782153
O O8 0.644693 0.772157 0.818589
O O9 0.982846 0.853928 0.652603
O O10 0.007554 0.802503 0.738247
O O11 0.240189 0.223778 0.079836
O O12 0.041287 0.023207 0.084413
O O13 0.199616 0.285406 0.002590
O O14 0.393084 0.232468 0.117332
O O15 0.503429 0.327772 0.167138
O O16 0.479995 0.581202 0.780321
#
# Coordination Sequence:
#
# PCOD8051770 Si02
#       8
#     4   4   4   4   4   4   4   4
#     4  12  26  48  71 106 142 184 235 287 354 416
#     4  12  23  47  74  98 138 186 232 286 352 414
#     4  12  25  46  71 101 143 185 234 288 348 420
#     4  11  25  43  69 104 135 186 233 286 351 418
#     4  11  25  45  69 101 141 180 236 289 346 417
#     4  12  28  46  72 104 143 184 234 296 346 418
#     4  11  22  45  73  96 137 185 231 288 353 412
#     4  11  26  44  71 102 141 184 233 288 348 421
#
# _framework density 21.722013
#
# number of rings (size 3 to 8) (size 9 to 14) (size 15 to 20)
#    0.000    0.500    5.000    3.000    3.500    2.000 
#    4.500    0.000    0.000    0.000    0.000    0.000 
#    0.000    0.000    0.000    0.000    0.000    0.000 
#
# Total GULP energy -198327.005088 kJ/mol
# GULP energy per Si atom -12395.437818 kJ/mol
# Density = 2.167257 g / cm^3
# Si number density = 21.722013 Si / 1000 Ang^3
#
#
#
# Elastic Constant Matrix: (Units=GPa)
#
#
# Indices 1 2 3 4 5 6 
#
# 1 117.7113 38.2776 30.7424 -0.0008 -6.8340 -0.0007
# 2 38.2776 92.1518 36.1876 0.0003 -8.4884 -0.0011
# 3 30.7424 36.1876 125.4764 0.0006 -8.1458 -0.0023
# 4 -0.0008 0.0003 0.0006 38.5657 -0.0003 1.5783
# 5 -6.8340 -8.4884 -8.1458 -0.0003 23.5676 0.0002
# 6 -0.0007 -0.0011 -0.0023 1.5783 0.0002 45.5720
#
#
#
# Elastic Compliance Matrix: (Units=1/GPa)
#
#
# Indices 1 2 3 4 5 6 
#
# 1 0.010072 -0.003537 -0.001371 0.000000 0.001173 0.000000
# 2 -0.003537 0.013730 -0.002904 0.000000 0.002916 0.000000
# 3 -0.001371 -0.002904 0.009257 0.000000 0.001756 0.000000
# 4 0.000000 0.000000 0.000000 0.025967 0.000000 -0.000899
# 5 0.001173 0.002916 0.001756 0.000000 0.044428 0.000000
# 6 0.000000 0.000000 0.000000 -0.000899 0.000000 0.021974
#
#
# Mechanical properties :
#
#
# Convention : Reuss Voigt Hill
#
# Bulk Modulus (GPa) = 57.35875 60.63940 58.99908
# Shear Modulus (GPa) = 34.04516 36.88321 35.46418
#
# Velocity S-wave (km/s) = 3.96322 4.12511 4.04498
# Velocity P-wave (km/s) = 6.88520 7.11796 7.00255
#
# Compressibility (1/GPa) = 0.01743413
#
# Stress axis : x y z
#
# Youngs Moduli (GPa) = 99.28730 72.83467 108.02523
#
# Poissons Ratio (x) = 0.25762 0.14815
# Poissons Ratio (y) = 0.35118 0.31368
# Poissons Ratio (z) = 0.13617 0.21150
#
# Static dielectric constant tensor:
#      x y z
#    x 4.401340 0.000000 -0.183190 
#    y 0.000000 3.969830 0.000000 
#    z -0.183190 0.000000 4.113970 
# 
# 
# High freq. dielectric constant tensor:
#      x y z
#    x 1.866490 0.000000 -0.001090 
#    y 0.000000 1.856330 0.000000 
#    z -0.001090 0.000000 1.864320 
# 
# From -- ./inp_files/71741.got.cif
#   From: 2010.03.12/outbox.cif.g09.slc.cpg/sg5_36_cif.got.tgz:71741.got - 2010.03.31 09:47:26.
