data_PCOD8051687
_publ_section_title
;
Structure prediction by ZEFSAII (Michael W. Deem and Ramdas Pophale) SiO2 
 PCOD8051687
Probable space group: C 2
;
_chemical_formula_sum "Si O2"
_cell_formula_units_Z 20
_cell_length_a 11.086957
_cell_length_b 9.209162
_cell_length_c 13.126875
_cell_angle_alpha 90.000000
_cell_angle_beta 137.030628
_cell_angle_gamma 90.000000
_cell_volume 913.541046
_symmetry_space_group_name_H-M "C 2"
_symmetry_group_IT_number 5
_symmetry_cell_setting 'monoclinic'
loop_
_space_group_symop_operation_xyz
x,y,z
-x,y,-z
1/2+x,1/2+y,z
1/2-x,1/2+y,-z
loop_
_atom_site_type_symbol
_atom_site_label
_atom_site_fract_x
_atom_site_fract_y
_atom_site_fract_z
Si Si1 0.118327 0.867510 0.222414
Si Si2 0.177237 0.104030 0.697394
Si Si3 0.311847 0.596259 0.563626
Si Si4 0.126451 0.399038 0.310209
Si Si5 0.760661 0.816451 0.911183
O O1 0.245605 0.730535 0.332544
O O2 0.125966 0.999344 0.303565
O O3 0.181452 0.919507 0.148458
O O4 0.913258 0.812888 0.090547
O O5 0.268832 0.950785 0.726178
O O6 0.962581 0.091676 0.566445
O O7 0.232612 0.153596 0.846853
O O8 0.139124 0.523609 0.405948
O O9 0.276745 0.756596 0.584432
O O10 0.923189 0.372295 0.155161
#
# Coordination Sequence:
#
# PCOD8051687 Si02
#       5
#     4   4   4   4   4
#     4   9  19  42  65  84 121 160 203 250 306 359
#     4   9  20  41  61  83 121 161 201 247 299 356
#     4  11  23  39  60  92 125 161 203 250 303 368
#     4  11  22  39  61  92 125 159 203 251 305 364
#     4   8  20  39  67  83 116 165 198 248 309 353
#
# _framework density 21.89283
#
# number of rings (size 3 to 8) (size 9 to 14) (size 15 to 20)
#    1.200    1.200    0.000    1.800    0.000    7.200 
#   10.800    0.000    8.800    0.000    0.000    0.000 
#    0.000    0.000    0.000    0.000    0.000    0.000 
#
# Total GULP energy -123887.610234 kJ/mol
# GULP energy per Si atom -12388.761023 kJ/mol
# Density = 2.184300 g / cm^3
# Si number density = 21.892830 Si / 1000 Ang^3
#
#
#
# Elastic Constant Matrix: (Units=GPa)
#
#
# Indices 1 2 3 4 5 6 
#
# 1 86.4350 51.8687 24.3542 0.0000 15.1187 0.0000
# 2 51.8687 102.9337 17.6962 0.0000 7.0156 0.0000
# 3 24.3542 17.6962 73.1418 0.0000 23.2096 0.0000
# 4 0.0000 0.0000 0.0000 25.8802 0.0000 0.2195
# 5 15.1187 7.0156 23.2096 0.0000 27.8051 0.0000
# 6 0.0000 0.0000 0.0000 0.2195 0.0000 47.6780
#
#
#
# Elastic Compliance Matrix: (Units=1/GPa)
#
#
# Indices 1 2 3 4 5 6 
#
# 1 0.018290 -0.008438 -0.002133 0.000000 -0.006035 0.000000
# 2 -0.008438 0.014040 -0.001250 0.000000 0.002089 0.000000
# 3 -0.002133 -0.001250 0.019339 0.000000 -0.014668 0.000000
# 4 0.000000 0.000000 0.000000 0.038641 0.000000 -0.000178
# 5 -0.006035 0.002089 -0.014668 0.000000 0.050962 0.000000
# 6 0.000000 0.000000 0.000000 -0.000178 0.000000 0.020975
#
#
# Mechanical properties :
#
#
# Convention : Reuss Voigt Hill
#
# Bulk Modulus (GPa) = 35.68206 50.03876 42.86041
# Shear Modulus (GPa) = 25.61057 31.51208 28.56133
#
# Velocity S-wave (km/s) = 3.42397 3.79803 3.61584
# Velocity P-wave (km/s) = 5.65379 6.49147 6.08706
#
# Compressibility (1/GPa) = 0.02802529
#
# Stress axis : x y z
#
# Youngs Moduli (GPa) = 54.67536 71.22734 51.70832
#
# Poissons Ratio (x) = 0.60103 0.11031
# Poissons Ratio (y) = 0.46136 0.06464
# Poissons Ratio (z) = 0.11664 0.08904
#
# Static dielectric constant tensor:
#      x y z
#    x 3.859400 0.000000 0.088910 
#    y 0.000000 3.748790 0.000000 
#    z 0.088910 0.000000 3.839020 
# 
# 
# High freq. dielectric constant tensor:
#      x y z
#    x 1.845100 0.000000 0.004770 
#    y 0.000000 1.837600 0.000000 
#    z 0.004770 0.000000 1.866710 
# 
# From -- ./inp_files/37931.got.cif
#   From: 2010.03.12/outbox.cif.g09.slc.cpg/sg5_19_cif.got.tgz:37931.got - 2010.03.31 09:47:26.
