data_PCOD8051236
_publ_section_title
;
Structure prediction by ZEFSAII (Michael W. Deem and Ramdas Pophale) SiO2 
 PCOD8051236
Probable space group: C 2
;
_chemical_formula_sum "Si O2"
_cell_formula_units_Z 28
_cell_length_a 8.651995
_cell_length_b 14.880371
_cell_length_c 10.842172
_cell_angle_alpha 90.000000
_cell_angle_beta 62.159940
_cell_angle_gamma 90.000000
_cell_volume 1234.308371
_symmetry_space_group_name_H-M "C 2"
_symmetry_group_IT_number 5
_symmetry_cell_setting 'monoclinic'
loop_
_space_group_symop_operation_xyz
x,y,z
-x,y,-z
1/2+x,1/2+y,z
1/2-x,1/2+y,-z
loop_
_atom_site_type_symbol
_atom_site_label
_atom_site_fract_x
_atom_site_fract_y
_atom_site_fract_z
Si Si1 0.689834 0.171470 0.484337
Si Si2 0.085231 0.874599 0.795517
Si Si3 0.294987 0.560053 0.226199
Si Si4 0.500000 0.982634 0.000000
Si Si5 0.910376 0.528903 0.291985
Si Si6 0.327923 0.860315 0.482170
Si Si7 0.230060 0.334938 0.032134
Si Si8 0.500000 0.695365 0.000000
O O1 0.500000 0.196573 0.500000
O O2 0.787728 0.097208 0.366864
O O3 0.671803 0.121877 0.624202
O O4 0.814341 0.259148 0.434889
O O5 0.154945 0.865456 0.631591
O O6 0.222991 0.833798 0.841662
O O7 0.061719 0.980613 0.834113
O O8 0.900910 0.824017 0.881194
O O9 0.108737 0.519485 0.261454
O O10 0.345045 0.637959 0.114440
O O11 0.360795 0.926724 0.973949
O O12 0.601298 0.037999 0.853881
O O13 0.818947 0.436689 0.378191
O O14 0.500000 0.874769 0.500000
O O15 0.093227 0.254804 0.068691
#
# Coordination Sequence:
#
# PCOD8051236 Si02
#       8
#     4   4   4   2   4   4   4   2
#     4  10  25  44  67  99 134 177 239 280 347 411
#     4  11  22  45  69  93 137 188 226 269 356 417
#     4  11  22  43  70  93 133 187 228 275 349 418
#     4  11  22  42  74  93 138 174 234 291 342 395
#     4  11  23  47  68 101 134 188 228 290 347 414
#     4  12  23  43  71  98 138 180 227 286 340 412
#     4  10  24  41  66 104 129 179 233 281 342 411
#     4  11  26  40  70 103 138 174 238 297 332 413
#
# _framework density 22.68477
#
# number of rings (size 3 to 8) (size 9 to 14) (size 15 to 20)
#    0.000    1.143    4.286    1.286   10.000    0.000 
#    5.143    0.714    0.000    0.000    0.000    0.000 
#    0.000    0.000    0.000    0.000    0.000    0.000 
#
# Total GULP energy -173547.627683 kJ/mol
# GULP energy per Si atom -12396.259120 kJ/mol
# Density = 2.263314 g / cm^3
# Si number density = 22.684770 Si / 1000 Ang^3
#
#
#
# Elastic Constant Matrix: (Units=GPa)
#
#
# Indices 1 2 3 4 5 6 
#
# 1 42.6471 18.7649 10.0457 0.0000 -1.2168 0.0000
# 2 18.7649 101.4054 28.0708 0.0000 3.2801 0.0000
# 3 10.0457 28.0708 135.5860 0.0000 13.7283 0.0000
# 4 0.0000 0.0000 0.0000 19.9692 0.0000 -12.0691
# 5 -1.2168 3.2801 13.7283 0.0000 28.9479 0.0000
# 6 0.0000 0.0000 0.0000 -12.0691 0.0000 25.8121
#
#
#
# Elastic Compliance Matrix: (Units=1/GPa)
#
#
# Indices 1 2 3 4 5 6 
#
# 1 0.025775 -0.004509 -0.001195 0.000000 0.002161 0.000000
# 2 -0.004509 0.011250 -0.001940 0.000000 -0.000544 0.000000
# 3 -0.001195 -0.001940 0.008244 0.000000 -0.003740 0.000000
# 4 0.000000 0.000000 0.000000 0.069803 0.000000 0.032638
# 5 0.002161 -0.000544 -0.003740 0.000000 0.036471 0.000000
# 6 0.000000 0.000000 0.000000 0.032638 0.000000 0.054002
#
#
# Mechanical properties :
#
#
# Convention : Reuss Voigt Hill
#
# Bulk Modulus (GPa) = 33.35307 43.71125 38.53216
# Shear Modulus (GPa) = 21.66113 29.79631 25.72872
#
# Velocity S-wave (km/s) = 3.09346 3.62815 3.37142
# Velocity P-wave (km/s) = 5.24348 6.07142 5.67257
#
# Compressibility (1/GPa) = 0.02998225
#
# Stress axis : x y z
#
# Youngs Moduli (GPa) = 38.79679 88.88579 121.29613
#
# Poissons Ratio (x) = 0.40077 0.14496
# Poissons Ratio (y) = 0.17493 0.23532
# Poissons Ratio (z) = 0.04636 0.17244
#
# Static dielectric constant tensor:
#      x y z
#    x 3.881160 0.000000 -0.035840 
#    y 0.000000 4.117910 0.000000 
#    z -0.035840 0.000000 4.403100 
# 
# 
# High freq. dielectric constant tensor:
#      x y z
#    x 1.866880 0.000000 -0.004070 
#    y 0.000000 1.895360 0.000000 
#    z -0.004070 0.000000 1.910550 
# 
# From -- ./inp_files/36331.got.cif
#   From: 2010.03.12/outbox.cif.g09.slc.cpg/sg5_19_cif.got.tgz:36331.got - 2010.03.31 09:47:26.
