data_PCOD8051992
_publ_section_title
;
Structure prediction by ZEFSAII (Michael W. Deem and Ramdas Pophale) SiO2 
 PCOD8051992
Probable space group: C 2
;
_chemical_formula_sum "Si O2"
_cell_formula_units_Z 30
_cell_length_a 14.547541
_cell_length_b 11.647888
_cell_length_c 7.832870
_cell_angle_alpha 90.000000
_cell_angle_beta 112.852748
_cell_angle_gamma 90.000000
_cell_volume 1223.082814
_symmetry_space_group_name_H-M "C 2"
_symmetry_group_IT_number 5
_symmetry_cell_setting 'monoclinic'
loop_
_space_group_symop_operation_xyz
x,y,z
-x,y,-z
1/2+x,1/2+y,z
1/2-x,1/2+y,-z
loop_
_atom_site_type_symbol
_atom_site_label
_atom_site_fract_x
_atom_site_fract_y
_atom_site_fract_z
Si Si1 0.338806 0.953440 0.099529
Si Si2 0.775583 0.527230 0.689345
Si Si3 0.044093 0.416657 0.344814
Si Si4 0.000000 0.806953 0.500000
Si Si5 0.605256 0.449274 0.324867
Si Si6 0.311850 0.190236 0.216430
Si Si7 0.909131 0.202238 0.811449
Si Si8 0.211916 0.772349 0.163489
O O1 0.456536 0.950573 0.149133
O O2 0.313232 0.834549 0.177279
O O3 0.307613 0.052335 0.210753
O O4 0.283346 0.966310 0.878775
O O5 0.869039 0.507146 0.632560
O O6 0.681672 0.469080 0.534097
O O7 0.762102 0.664723 0.696026
O O8 0.082707 0.286352 0.346031
O O9 0.000000 0.434464 0.500000
O O10 0.009903 0.887449 0.340178
O O11 0.100895 0.731093 0.592244
O O12 0.574229 0.570514 0.224457
O O13 0.643191 0.365475 0.204842
O O14 0.200273 0.229927 0.188981
O O15 0.342746 0.229067 0.047544
O O16 0.000000 0.237083 0.000000
#
# Coordination Sequence:
#
# PCOD8051992 Si02
#       8
#     4   4   4   2   4   4   4   4
#     4  11  24  47  77 111 147 199 251 314 376 450
#     4  11  27  48  76 108 154 197 254 312 381 450
#     4  12  27  45  75 108 149 198 261 310 370 452
#     4  12  30  46  74 114 156 202 250 314 378 460
#     4  12  29  45  76 110 156 196 251 316 385 451
#     4  11  27  50  79 108 156 198 253 311 385 454
#     4  12  28  51  76 109 153 204 253 317 383 449
#     4  11  25  48  78 109 148 199 252 311 380 452
#
# _framework density 24.528184
#
# number of rings (size 3 to 8) (size 9 to 14) (size 15 to 20)
#    0.000    0.533    1.333    5.200   11.200    2.133 
#    0.000    0.000    0.000    0.000    0.000    0.000 
#    0.000    0.000    0.000    0.000    0.000    0.000 
#
# Total GULP energy -186021.190044 kJ/mol
# GULP energy per Si atom -12401.412670 kJ/mol
# Density = 2.447236 g / cm^3
# Si number density = 24.528184 Si / 1000 Ang^3
#
#
#
# Elastic Constant Matrix: (Units=GPa)
#
#
# Indices 1 2 3 4 5 6 
#
# 1 128.9937 43.1870 44.1279 0.0000 -2.0711 0.0000
# 2 43.1870 148.3487 40.5737 0.0000 -14.6458 0.0000
# 3 44.1279 40.5737 83.2849 0.0000 -1.7151 0.0000
# 4 0.0000 0.0000 0.0000 44.1363 0.0000 -9.6449
# 5 -2.0711 -14.6458 -1.7151 0.0000 47.2924 0.0000
# 6 0.0000 0.0000 0.0000 -9.6449 0.0000 44.0253
#
#
#
# Elastic Compliance Matrix: (Units=1/GPa)
#
#
# Indices 1 2 3 4 5 6 
#
# 1 0.009811 -0.001682 -0.004384 0.000000 -0.000250 0.000000
# 2 -0.001682 0.008317 -0.003112 0.000000 0.002389 0.000000
# 3 -0.004384 -0.003112 0.015834 0.000000 -0.000581 0.000000
# 4 0.000000 0.000000 0.000000 0.023796 0.000000 0.005213
# 5 -0.000250 0.002389 -0.000581 0.000000 0.021853 0.000000
# 6 0.000000 0.000000 0.000000 0.005213 0.000000 0.023856
#
#
# Mechanical properties :
#
#
# Convention : Reuss Voigt Hill
#
# Bulk Modulus (GPa) = 64.07363 68.48941 66.28152
# Shear Modulus (GPa) = 39.36210 42.60671 40.98441
#
# Velocity S-wave (km/s) = 4.01030 4.17232 4.09211
# Velocity P-wave (km/s) = 6.90091 7.15502 7.02911
#
# Compressibility (1/GPa) = 0.01560705
#
# Stress axis : x y z
#
# Youngs Moduli (GPa) = 101.92451 120.22966 63.15585
#
# Poissons Ratio (x) = 0.20221 0.27689
# Poissons Ratio (y) = 0.17142 0.19652
# Poissons Ratio (z) = 0.44686 0.37411
#
# Static dielectric constant tensor:
#      x y z
#    x 4.378440 0.000000 -0.021330 
#    y 0.000000 4.722910 0.000000 
#    z -0.021330 0.000000 4.404500 
# 
# 
# High freq. dielectric constant tensor:
#      x y z
#    x 1.973640 0.000000 -0.006950 
#    y 0.000000 1.997240 0.000000 
#    z -0.006950 0.000000 1.977620 
# 
# From -- ./inp_files/23926.got.cif
#   From: 2010.03.12/outbox.cif.g09.slc.cpg/sg5_12_cif.got.tgz:23926.got - 2010.03.31 09:47:26.
