data_PCOD8051208
_publ_section_title
;
Structure prediction by ZEFSAII (Michael W. Deem and Ramdas Pophale) SiO2 
 PCOD8051208
Probable space group: C 2
;
_chemical_formula_sum "Si O2"
_cell_formula_units_Z 24
_cell_length_a 19.185008
_cell_length_b 8.337905
_cell_length_c 14.405066
_cell_angle_alpha 90.000000
_cell_angle_beta 30.044601
_cell_angle_gamma 90.000000
_cell_volume 1153.690223
_symmetry_space_group_name_H-M "C 2"
_symmetry_group_IT_number 5
_symmetry_cell_setting 'monoclinic'
loop_
_space_group_symop_operation_xyz
x,y,z
-x,y,-z
1/2+x,1/2+y,z
1/2-x,1/2+y,-z
loop_
_atom_site_type_symbol
_atom_site_label
_atom_site_fract_x
_atom_site_fract_y
_atom_site_fract_z
Si Si1 0.500000 0.204130 0.000000
Si Si2 0.000000 0.568643 0.500000
Si Si3 0.167216 0.176377 0.641730
Si Si4 0.601126 0.517562 0.101578
Si Si5 0.431742 0.034140 0.256654
Si Si6 0.123513 0.676038 0.172783
Si Si7 0.210045 0.972241 0.773603
O O1 0.517899 0.092322 0.068421
O O2 0.357816 0.304941 0.180167
O O3 0.065822 0.683417 0.344832
O O4 0.123886 0.456505 0.398359
O O5 0.310807 0.159744 0.421281
O O6 0.132759 0.362389 0.688833
O O7 0.181870 0.106149 0.728435
O O8 0.051725 0.090162 0.711141
O O9 0.601239 0.342703 0.146437
O O10 0.713907 0.632087 0.020024
O O11 0.629190 0.518097 0.959768
O O12 0.540860 0.033284 0.215834
#
# Coordination Sequence:
#
# PCOD8051208 Si02
#       7
#     2   2   4   4   4   4   4
#     4  12  24  44  68 102 130 176 224 282 334 408
#     4  10  24  38  74  92 132 178 222 268 342 388
#     4  12  24  44  69  98 131 179 224 280 335 392
#     4  11  23  41  69  95 135 178 217 281 328 398
#     4  12  26  42  70  97 137 173 230 277 333 404
#     4  11  22  45  64  98 135 178 227 272 338 394
#     4  11  21  42  69  95 135 172 220 276 338 393
#
# _framework density 20.802811999999999
#
# number of rings (size 3 to 8) (size 9 to 14) (size 15 to 20)
#    0.000    0.667    5.000    3.000    2.333    0.000 
#    0.000    0.000    0.000    1.000    0.000    0.000 
#    0.000    0.000    0.000    0.000    0.000    0.000 
#
# Total GULP energy -148802.506004 kJ/mol
# GULP energy per Si atom -12400.208834 kJ/mol
# Density = 2.075546 g / cm^3
# Si number density = 20.802812 Si / 1000 Ang^3
#
#
#
# Elastic Constant Matrix: (Units=GPa)
#
#
# Indices 1 2 3 4 5 6 
#
# 1 122.0967 46.4930 50.7015 0.0000 -6.4527 0.0000
# 2 46.4930 105.9481 18.8020 0.0000 5.1800 0.0000
# 3 50.7015 18.8020 82.2200 0.0000 -8.1304 0.0000
# 4 0.0000 0.0000 0.0000 27.1142 0.0000 0.4155
# 5 -6.4527 5.1800 -8.1304 0.0000 49.4474 0.0000
# 6 0.0000 0.0000 0.0000 0.4155 0.0000 30.8095
#
#
#
# Elastic Compliance Matrix: (Units=1/GPa)
#
#
# Indices 1 2 3 4 5 6 
#
# 1 0.012732 -0.004442 -0.006735 0.000000 0.001019 0.000000
# 2 -0.004442 0.011487 -0.000065 0.000000 -0.001794 0.000000
# 3 -0.006735 -0.000065 0.016513 0.000000 0.001843 0.000000
# 4 0.000000 0.000000 0.000000 0.036889 0.000000 -0.000497
# 5 0.001019 -0.001794 0.001843 0.000000 0.020847 0.000000
# 6 0.000000 0.000000 0.000000 -0.000497 0.000000 0.032464
#
#
# Mechanical properties :
#
#
# Convention : Reuss Voigt Hill
#
# Bulk Modulus (GPa) = 54.79950 60.25085 57.52518
# Shear Modulus (GPa) = 31.34821 34.42545 32.88683
#
# Velocity S-wave (km/s) = 3.88612 4.07239 3.98035
# Velocity P-wave (km/s) = 6.82169 7.15110 6.98834
#
# Compressibility (1/GPa) = 0.01824834
#
# Stress axis : x y z
#
# Youngs Moduli (GPa) = 78.54102 87.05445 60.55949
#
# Poissons Ratio (x) = 0.38669 0.40786
# Poissons Ratio (y) = 0.34887 0.00394
# Poissons Ratio (z) = 0.52896 0.00567
#
# Static dielectric constant tensor:
#      x y z
#    x 4.112470 0.000000 -0.190200 
#    y 0.000000 3.492950 0.000000 
#    z -0.190200 0.000000 4.036820 
# 
# 
# High freq. dielectric constant tensor:
#      x y z
#    x 1.834280 0.000000 -0.008810 
#    y 0.000000 1.794110 0.000000 
#    z -0.008810 0.000000 1.825660 
# 
# From -- ./inp_files/29029.got.cif
#   From: 2010.03.12/outbox.cif.g09.slc.cpg/sg5_15_cif.got.tgz:29029.got - 2010.03.31 09:47:26.
