data_PCOD8051481
_publ_section_title
;
Structure prediction by ZEFSAII (Michael W. Deem and Ramdas Pophale) SiO2 
 PCOD8051481
Probable space group: C 2
;
_chemical_formula_sum "Si O2"
_cell_formula_units_Z 18
_cell_length_a 7.793228
_cell_length_b 18.031980
_cell_length_c 6.401122
_cell_angle_alpha 90.000000
_cell_angle_beta 58.292106
_cell_angle_gamma 90.000000
_cell_volume 765.267192
_symmetry_space_group_name_H-M "C 2"
_symmetry_group_IT_number 5
_symmetry_cell_setting 'monoclinic'
loop_
_space_group_symop_operation_xyz
x,y,z
-x,y,-z
1/2+x,1/2+y,z
1/2-x,1/2+y,-z
loop_
_atom_site_type_symbol
_atom_site_label
_atom_site_fract_x
_atom_site_fract_y
_atom_site_fract_z
Si Si1 0.806949 0.966340 0.991748
Si Si2 0.922567 0.121338 0.772907
Si Si3 0.736617 0.354509 0.325896
Si Si4 0.500000 0.931382 0.500000
Si Si5 0.211469 0.686919 0.251397
O O1 0.630600 0.985688 0.269872
O O2 0.707743 0.901163 0.916008
O O3 0.000000 0.938657 0.000000
O O4 0.855015 0.035631 0.811491
O O5 0.000000 0.149897 0.500000
O O6 0.126883 0.126242 0.777201
O O7 0.733542 0.171630 0.984806
O O8 0.500000 0.367082 0.500000
O O9 0.851666 0.379015 0.460475
O O10 0.788786 0.268966 0.251769
O O11 0.000000 0.670631 0.500000
#
# Coordination Sequence:
#
# PCOD8051481 Si02
#       5
#     4   4   4   2   4
#     4  12  25  47  72 109 150 195 251 307 365 449
#     4  11  26  46  74 102 150 196 246 303 369 445
#     4  11  25  49  75 112 148 194 254 305 370 451
#     4  12  28  44  82 104 152 200 244 312 386 420
#     4  10  25  48  72 107 149 189 250 307 371 447
#
# _framework density 23.521198999999999
#
# number of rings (size 3 to 8) (size 9 to 14) (size 15 to 20)
#    0.000    0.889    4.444    1.333    9.333    0.889 
#    4.000    0.000    0.000    0.000    0.000    0.000 
#    0.000    0.000    0.000    0.000    0.000    0.000 
#
# Total GULP energy -111535.522177 kJ/mol
# GULP energy per Si atom -12392.835797 kJ/mol
# Density = 2.346766 g / cm^3
# Si number density = 23.521199 Si / 1000 Ang^3
#
#
#
# Elastic Constant Matrix: (Units=GPa)
#
#
# Indices 1 2 3 4 5 6 
#
# 1 108.8588 24.1958 45.5371 0.0000 -2.6024 0.0000
# 2 24.1958 90.2599 41.2130 0.0000 -5.3254 0.0000
# 3 45.5371 41.2130 219.1580 0.0000 -28.2997 0.0000
# 4 0.0000 0.0000 0.0000 33.2345 0.0000 2.1133
# 5 -2.6024 -5.3254 -28.2997 0.0000 43.5469 0.0000
# 6 0.0000 0.0000 0.0000 2.1133 0.0000 13.7022
#
#
#
# Elastic Compliance Matrix: (Units=1/GPa)
#
#
# Indices 1 2 3 4 5 6 
#
# 1 0.010399 -0.001970 -0.001901 0.000000 -0.000855 0.000000
# 2 -0.001970 0.012493 -0.001919 0.000000 0.000163 0.000000
# 3 -0.001901 -0.001919 0.005757 0.000000 0.003393 0.000000
# 4 0.000000 0.000000 0.000000 0.030387 0.000000 -0.004687
# 5 -0.000855 0.000163 0.003393 0.000000 0.025138 0.000000
# 6 0.000000 0.000000 0.000000 -0.004687 0.000000 0.073704
#
#
# Mechanical properties :
#
#
# Convention : Reuss Voigt Hill
#
# Bulk Modulus (GPa) = 58.58474 71.12982 64.85728
# Shear Modulus (GPa) = 28.54760 38.58543 33.56652
#
# Velocity S-wave (km/s) = 3.48759 4.05465 3.78176
# Velocity P-wave (km/s) = 6.41709 7.22680 6.83395
#
# Compressibility (1/GPa) = 0.01706929
#
# Stress axis : x y z
#
# Youngs Moduli (GPa) = 96.16576 80.04432 173.70787
#
# Poissons Ratio (x) = 0.15770 0.33013
# Poissons Ratio (y) = 0.18947 0.33333
# Poissons Ratio (z) = 0.18276 0.15360
#
# Static dielectric constant tensor:
#      x y z
#    x 4.168740 0.000000 0.049880 
#    y 0.000000 3.948700 0.000000 
#    z 0.049880 0.000000 5.277620 
# 
# 
# High freq. dielectric constant tensor:
#      x y z
#    x 1.921060 0.000000 -0.016730 
#    y 0.000000 1.917910 0.000000 
#    z -0.016730 0.000000 1.963680 
# 
# From -- ./inp_files/2809.got.cif
#   From: 2010.03.12/outbox.cif.g09.slc.cpg/sg5_2_cif.got.tgz:2809.got - 2010.03.31 09:47:26.
