data_PCOD8051847
_publ_section_title
;
Structure prediction by ZEFSAII (Michael W. Deem and Ramdas Pophale) SiO2 
 PCOD8051847
Probable space group: C 2
;
_chemical_formula_sum "Si O2"
_cell_formula_units_Z 32
_cell_length_a 11.144845
_cell_length_b 8.185901
_cell_length_c 30.005032
_cell_angle_alpha 90.000000
_cell_angle_beta 29.603263
_cell_angle_gamma 90.000000
_cell_volume 1352.240655
_symmetry_space_group_name_H-M "C 2"
_symmetry_group_IT_number 5
_symmetry_cell_setting 'monoclinic'
loop_
_space_group_symop_operation_xyz
x,y,z
-x,y,-z
1/2+x,1/2+y,z
1/2-x,1/2+y,-z
loop_
_atom_site_type_symbol
_atom_site_label
_atom_site_fract_x
_atom_site_fract_y
_atom_site_fract_z
Si Si1 0.170293 0.640630 0.481187
Si Si2 0.675329 0.266088 0.035256
Si Si3 0.346525 0.749483 0.830918
Si Si4 0.950998 0.749224 0.750775
Si Si5 0.499459 0.600902 0.133062
Si Si6 0.590712 0.106179 0.147529
Si Si7 0.494571 0.790886 0.553130
Si Si8 0.426491 0.596274 0.718890
O O1 0.274559 0.733792 0.490963
O O2 0.389735 0.574464 0.380850
O O3 0.000000 0.742427 0.500000
O O4 0.005223 0.488248 0.551181
O O5 0.433535 0.209669 0.087664
O O6 0.628044 0.445029 0.070010
O O7 0.749656 0.140743 0.051833
O O8 0.892281 0.258521 0.929167
O O9 0.436679 0.611578 0.835837
O O10 0.500078 0.722533 0.735154
O O11 0.386917 0.926492 0.839208
O O12 0.850366 0.738098 0.833508
O O13 0.242070 0.722081 0.654272
O O14 0.795611 0.607262 0.775066
O O15 0.874170 0.920101 0.755842
O O16 0.320276 0.159703 0.222111
O O17 0.500000 0.728422 0.500000
#
# Coordination Sequence:
#
# PCOD8051847 Si02
#       8
#     4   4   4   4   4   4   4   4
#     4  11  24  46  70 103 141 185 233 295 362 427
#     4  11  26  45  66 102 144 188 240 294 353 414
#     4  11  24  44  69  99 136 185 237 289 352 420
#     4  12  23  45  72  97 139 184 233 290 356 421
#     4  12  25  44  71 102 142 192 237 294 355 414
#     4  11  23  45  69  98 139 181 240 292 347 425
#     4  11  25  48  71 105 142 182 236 298 362 434
#     4  11  23  43  71  98 135 181 231 292 353 428
#
# _framework density 23.664427
#
# number of rings (size 3 to 8) (size 9 to 14) (size 15 to 20)
#    0.000    0.750    6.250    1.875    1.750    3.000 
#    6.750    0.000    0.000    0.000    0.000    0.000 
#    0.000    0.000    0.000    0.000    0.000    0.000 
#
# Total GULP energy -198236.420581 kJ/mol
# GULP energy per Si atom -12389.776286 kJ/mol
# Density = 2.361057 g / cm^3
# Si number density = 23.664427 Si / 1000 Ang^3
#
#
#
# Elastic Constant Matrix: (Units=GPa)
#
#
# Indices 1 2 3 4 5 6 
#
# 1 173.7682 20.8520 13.0192 -0.0370 13.0369 -0.0352
# 2 20.8520 62.9701 -4.1295 0.0359 10.3580 0.0012
# 3 13.0192 -4.1295 56.0552 0.1746 7.5191 0.0598
# 4 -0.0370 0.0359 0.1746 28.8981 0.0075 1.8540
# 5 13.0369 10.3580 7.5191 0.0075 31.5293 -0.0103
# 6 -0.0352 0.0012 0.0598 1.8540 -0.0103 44.0949
#
#
#
# Elastic Compliance Matrix: (Units=1/GPa)
#
#
# Indices 1 2 3 4 5 6 
#
# 1 0.006204 -0.001876 -0.001361 0.000019 -0.001624 0.000006
# 2 -0.001876 0.017585 0.002482 -0.000037 -0.005593 -0.000005
# 3 -0.001361 0.002482 0.018980 -0.000117 -0.004779 -0.000023
# 4 0.000019 -0.000037 -0.000117 0.034699 0.000024 -0.001459
# 5 -0.001624 -0.005593 -0.004779 0.000024 0.035365 0.000013
# 6 0.000006 -0.000005 -0.000023 -0.001459 0.000013 0.022740
#
#
# Mechanical properties :
#
#
# Convention : Reuss Voigt Hill
#
# Bulk Modulus (GPa) = 24.23891 39.14190 31.69041
# Shear Modulus (GPa) = 33.14850 38.44123 35.79487
#
# Velocity S-wave (km/s) = 3.74675 4.03480 3.89344
# Velocity P-wave (km/s) = 5.38354 6.18728 5.79935
#
# Compressibility (1/GPa) = 0.04125598
#
# Stress axis : x y z
#
# Youngs Moduli (GPa) = 161.19114 56.86770 52.68719
#
# Poissons Ratio (x) = 0.10671 0.07172
# Poissons Ratio (y) = 0.30247 -0.13075
# Poissons Ratio (z) = 0.21943 -0.14112
#
# Static dielectric constant tensor:
#      x y z
#    x 4.939490 -0.000160 0.157200 
#    y -0.000160 3.984950 -0.000200 
#    z 0.157200 -0.000200 4.257090 
# 
# 
# High freq. dielectric constant tensor:
#      x y z
#    x 1.972300 0.000000 0.005240 
#    y 0.000000 1.913530 -0.000020 
#    z 0.005240 -0.000020 1.926480 
# 
# From -- ./inp_files/71735.got.cif
#   From: 2010.03.12/outbox.cif.g09.slc.cpg/sg5_36_cif.got.tgz:71735.got - 2010.03.31 09:47:26.
