data_PCOD8051131
_publ_section_title
;
Structure prediction by ZEFSAII (Michael W. Deem and Ramdas Pophale) SiO2 
 PCOD8051131
Probable space group: C 2
;
_chemical_formula_sum "Si O2"
_cell_formula_units_Z 22
_cell_length_a 14.892226
_cell_length_b 8.840747
_cell_length_c 24.491769
_cell_angle_alpha 90.000000
_cell_angle_beta 18.064722
_cell_angle_gamma 90.000000
_cell_volume 999.903452
_symmetry_space_group_name_H-M "C 2"
_symmetry_group_IT_number 5
_symmetry_cell_setting 'monoclinic'
loop_
_space_group_symop_operation_xyz
x,y,z
-x,y,-z
1/2+x,1/2+y,z
1/2-x,1/2+y,-z
loop_
_atom_site_type_symbol
_atom_site_label
_atom_site_fract_x
_atom_site_fract_y
_atom_site_fract_z
Si Si1 0.640332 0.521990 0.255129
Si Si2 0.724035 0.042412 0.078316
Si Si3 0.265442 0.638190 0.376939
Si Si4 0.133668 0.705786 0.022032
Si Si5 0.341416 0.468603 0.540150
Si Si6 0.500000 0.759975 0.000000
O O1 0.385277 0.563274 0.361732
O O2 0.479156 0.528266 0.405579
O O3 0.916236 0.636858 0.101648
O O4 0.742160 0.361946 0.172805
O O5 0.565410 0.125768 0.119337
O O6 0.498506 0.003089 0.257006
O O7 0.937435 0.159967 0.983046
O O8 0.890683 0.888947 0.962548
O O9 0.108845 0.789992 0.487458
O O10 0.000000 0.546695 0.500000
O O11 0.533272 0.663525 0.181500
O O12 0.500000 0.546105 0.500000
#
# Coordination Sequence:
#
# PCOD8051131 Si02
#       6
#     4   4   4   4   4   2
#     4  12  24  47  74 102 146 189 245 297 352 426
#     4  11  26  43  72 105 141 189 241 295 363 424
#     4  10  24  43  70 101 141 186 232 290 363 418
#     4  11  23  47  74 100 142 191 239 294 355 431
#     4  10  23  44  68 102 142 182 232 296 360 420
#     4  12  28  42  70 108 142 192 250 296 350 428
#
# _framework density 22.002123999999998
#
# number of rings (size 3 to 8) (size 9 to 14) (size 15 to 20)
#    0.000    1.091    3.636    1.091   12.727    0.000 
#    0.000    0.909    0.000    0.000    0.000    0.000 
#    0.000    0.000    0.000    0.000    0.000    0.000 
#
# Total GULP energy -136320.603425 kJ/mol
# GULP energy per Si atom -12392.782130 kJ/mol
# Density = 2.195205 g / cm^3
# Si number density = 22.002124 Si / 1000 Ang^3
#
#
#
# Elastic Constant Matrix: (Units=GPa)
#
#
# Indices 1 2 3 4 5 6 
#
# 1 179.9727 68.2172 52.1501 0.2620 -20.3660 0.0586
# 2 68.2172 121.6435 31.4838 -0.0712 -4.4512 0.0921
# 3 52.1501 31.4838 90.4925 -0.4285 -6.4221 0.4915
# 4 0.2620 -0.0712 -0.4285 20.0889 0.0419 -0.4708
# 5 -20.3660 -4.4512 -6.4221 0.0419 46.2616 -0.1685
# 6 0.0586 0.0921 0.4915 -0.4708 -0.1685 40.6696
#
#
#
# Elastic Compliance Matrix: (Units=1/GPa)
#
#
# Indices 1 2 3 4 5 6 
#
# 1 0.008204 -0.003655 -0.003258 -0.000194 0.002808 0.000045
# 2 -0.003655 0.010671 -0.001664 0.000052 -0.000813 -0.000002
# 3 -0.003258 -0.001664 0.013530 0.000321 0.000283 -0.000150
# 4 -0.000194 0.000052 0.000321 0.049802 -0.000079 0.000572
# 5 0.002808 -0.000813 0.000283 -0.000079 0.022814 0.000088
# 6 0.000045 -0.000002 -0.000150 0.000572 0.000088 0.024597
#
#
# Mechanical properties :
#
#
# Convention : Reuss Voigt Hill
#
# Bulk Modulus (GPa) = 65.56956 77.31231 71.44094
# Shear Modulus (GPa) = 32.92617 37.42120 35.17369
#
# Velocity S-wave (km/s) = 3.87266 4.12855 4.00265
# Velocity P-wave (km/s) = 7.06136 7.61193 7.34181
#
# Compressibility (1/GPa) = 0.01525098
#
# Stress axis : x y z
#
# Youngs Moduli (GPa) = 121.89398 93.70949 73.91203
#
# Poissons Ratio (x) = 0.34249 0.24082
# Poissons Ratio (y) = 0.44550 0.12298
# Poissons Ratio (z) = 0.39715 0.15593
#
# Static dielectric constant tensor:
#      x y z
#    x 4.223730 0.000660 -0.172170 
#    y 0.000660 3.925430 -0.000040 
#    z -0.172170 -0.000040 3.933770 
# 
# 
# High freq. dielectric constant tensor:
#      x y z
#    x 1.879590 -0.000040 0.000340 
#    y -0.000040 1.850760 0.000080 
#    z 0.000340 0.000080 1.866330 
# 
# From -- ./inp_files/68684.got.cif
#   From: 2010.03.12/outbox.cif.g09.slc.cpg/sg5_35_cif.got.tgz:68684.got - 2010.03.31 09:47:26.
