data_PCOD8051104
_publ_section_title
;
Structure prediction by ZEFSAII (Michael W. Deem and Ramdas Pophale) SiO2 
 PCOD8051104
Probable space group: C 2
;
_chemical_formula_sum "Si O2"
_cell_formula_units_Z 20
_cell_length_a 13.918180
_cell_length_b 5.031595
_cell_length_c 11.812617
_cell_angle_alpha 90.000000
_cell_angle_beta 108.903679
_cell_angle_gamma 90.000000
_cell_volume 782.627352
_symmetry_space_group_name_H-M "C 2"
_symmetry_group_IT_number 5
_symmetry_cell_setting 'monoclinic'
loop_
_space_group_symop_operation_xyz
x,y,z
-x,y,-z
1/2+x,1/2+y,z
1/2-x,1/2+y,-z
loop_
_atom_site_type_symbol
_atom_site_label
_atom_site_fract_x
_atom_site_fract_y
_atom_site_fract_z
Si Si1 0.966488 0.649450 0.755690
Si Si2 0.186433 0.164180 0.946293
Si Si3 0.401221 0.649857 0.863348
Si Si4 0.813137 0.538797 0.503899
Si Si5 0.671713 0.036147 0.745016
O O1 0.960628 0.365516 0.813621
O O2 0.899460 0.657865 0.617110
O O3 0.082241 0.717137 0.765036
O O4 0.930555 0.859145 0.833448
O O5 0.165799 0.252439 0.809550
O O6 0.268020 0.370272 0.031309
O O7 0.086082 0.172406 0.992883
O O8 0.279434 0.680327 0.798242
O O9 0.773434 0.263235 0.541019
O O10 0.855781 0.474856 0.395504
#
# Coordination Sequence:
#
# PCOD8051104 Si02
#       5
#     4   4   4   4   4
#     4  12  25  44  73 106 135 191 229 290 351 422
#     4  10  23  43  72 103 138 193 231 286 353 414
#     4  11  24  46  68 101 147 176 239 284 349 412
#     4  12  24  45  72 102 143 185 229 296 356 411
#     4  11  25  46  73 101 145 183 237 288 349 419
#
# _framework density 25.554948
#
# number of rings (size 3 to 8) (size 9 to 14) (size 15 to 20)
#    0.000    0.800    4.000    3.000    0.000    7.200 
#    0.000   10.000    0.000    0.000    0.000    0.000 
#    0.000    0.000    0.000    0.000    0.000    0.000 
#
# Total GULP energy -124015.163786 kJ/mol
# GULP energy per Si atom -12401.516379 kJ/mol
# Density = 2.549678 g / cm^3
# Si number density = 25.554948 Si / 1000 Ang^3
#
#
#
# Elastic Constant Matrix: (Units=GPa)
#
#
# Indices 1 2 3 4 5 6 
#
# 1 104.1566 23.2936 35.7914 0.0000 -25.8014 0.0000
# 2 23.2936 66.6891 24.8094 0.0000 -6.7552 0.0000
# 3 35.7914 24.8094 177.5611 0.0000 -15.4300 0.0000
# 4 0.0000 0.0000 0.0000 44.9161 0.0000 -12.3493
# 5 -25.8014 -6.7552 -15.4300 0.0000 46.0971 0.0000
# 6 0.0000 0.0000 0.0000 -12.3493 0.0000 33.5009
#
#
#
# Elastic Compliance Matrix: (Units=1/GPa)
#
#
# Indices 1 2 3 4 5 6 
#
# 1 0.012288 -0.003126 -0.001527 0.000000 0.005909 0.000000
# 2 -0.003126 0.016731 -0.001696 0.000000 0.000135 0.000000
# 3 -0.001527 -0.001696 0.006263 0.000000 0.000993 0.000000
# 4 0.000000 0.000000 0.000000 0.024775 0.000000 0.009133
# 5 0.005909 0.000135 0.000993 0.000000 0.025353 0.000000
# 6 0.000000 0.000000 0.000000 0.009133 0.000000 0.033216
#
#
# Mechanical properties :
#
#
# Convention : Reuss Voigt Hill
#
# Bulk Modulus (GPa) = 44.27583 57.35506 50.81544
# Shear Modulus (GPa) = 36.00958 42.53697 39.27328
#
# Velocity S-wave (km/s) = 3.75788 4.08429 3.92448
# Velocity P-wave (km/s) = 6.01599 6.68838 6.36108
#
# Compressibility (1/GPa) = 0.02258569
#
# Stress axis : x y z
#
# Youngs Moduli (GPa) = 81.37800 59.76828 159.67024
#
# Poissons Ratio (x) = 0.18681 0.24378
# Poissons Ratio (y) = 0.25436 0.27080
# Poissons Ratio (z) = 0.12425 0.10137
#
# Static dielectric constant tensor:
#      x y z
#    x 4.980510 0.000000 -0.166220 
#    y 0.000000 4.229050 0.000000 
#    z -0.166220 0.000000 5.001720 
# 
# 
# High freq. dielectric constant tensor:
#      x y z
#    x 2.038580 0.000000 -0.006130 
#    y 0.000000 2.011830 0.000000 
#    z -0.006130 0.000000 2.044790 
# 
# From -- ./inp_files/41030.got.cif
#   From: 2010.03.12/outbox.cif.g09.slc.cpg/sg5_21_cif.got.tgz:41030.got - 2010.03.31 09:47:26.
