data_PCOD8051327
_publ_section_title
;
Structure prediction by ZEFSAII (Michael W. Deem and Ramdas Pophale) SiO2 
 PCOD8051327
Probable space group: C 2
;
_chemical_formula_sum "Si O2"
_cell_formula_units_Z 26
_cell_length_a 18.253425
_cell_length_b 5.111739
_cell_length_c 23.689838
_cell_angle_alpha 90.000000
_cell_angle_beta 150.698808
_cell_angle_gamma 90.000000
_cell_volume 1081.781675
_symmetry_space_group_name_H-M "C 2"
_symmetry_group_IT_number 5
_symmetry_cell_setting 'monoclinic'
loop_
_space_group_symop_operation_xyz
x,y,z
-x,y,-z
1/2+x,1/2+y,z
1/2-x,1/2+y,-z
loop_
_atom_site_type_symbol
_atom_site_label
_atom_site_fract_x
_atom_site_fract_y
_atom_site_fract_z
Si Si1 0.185319 0.332370 0.432892
Si Si2 0.232463 0.210551 0.346856
Si Si3 0.987159 0.877156 0.141049
Si Si4 0.751447 0.102451 0.263658
Si Si5 0.282906 0.157577 0.091047
Si Si6 0.000000 0.394970 0.500000
Si Si7 0.358337 0.658019 0.212182
O O1 0.190898 0.609774 0.468485
O O2 0.208752 0.412149 0.382509
O O3 0.033997 0.169842 0.343296
O O4 0.232026 0.329132 0.283518
O O5 0.093155 0.012527 0.258875
O O6 0.389926 0.068652 0.464125
O O7 0.892387 0.650003 0.109550
O O8 0.883652 0.097061 0.042413
O O9 0.096917 0.759342 0.167508
O O10 0.771907 0.075020 0.210845
O O11 0.899832 0.229074 0.389905
O O12 0.301341 0.449475 0.127925
O O13 0.321638 0.946750 0.164686
#
# Coordination Sequence:
#
# PCOD8051327 Si02
#       7
#     4   4   4   4   4   2   4
#     4  12  27  45  75 110 151 197 255 310 378 445
#     4  11  25  46  75 110 148 205 252 313 383 465
#     4  11  27  49  77 107 143 206 254 313 380 469
#     4  11  27  47  75 111 155 198 256 312 393 459
#     4  12  27  51  78 108 150 200 260 311 384 444
#     4  10  24  44  74 106 148 202 252 304 374 470
#     4  12  28  49  75 114 154 195 250 328 377 451
#
# _framework density 24.034424000000001
#
# number of rings (size 3 to 8) (size 9 to 14) (size 15 to 20)
#    0.000    0.615    1.538    4.154   17.231    0.615 
#    0.000    0.000    0.000    0.000    0.000    0.000 
#    0.000    0.000    0.000    0.000    0.000    0.000 
#
# Total GULP energy -161158.678764 kJ/mol
# GULP energy per Si atom -12396.821443 kJ/mol
# Density = 2.397972 g / cm^3
# Si number density = 24.034424 Si / 1000 Ang^3
#
#
#
# Elastic Constant Matrix: (Units=GPa)
#
#
# Indices 1 2 3 4 5 6 
#
# 1 122.8254 17.4037 42.0678 -0.0047 -7.2879 -0.0453
# 2 17.4037 84.0417 19.6704 -0.0396 5.4684 -0.0088
# 3 42.0678 19.6704 114.7523 -0.0099 29.1544 0.0018
# 4 -0.0047 -0.0396 -0.0099 30.5008 0.0074 -6.4638
# 5 -7.2879 5.4684 29.1544 0.0074 32.0003 -0.0236
# 6 -0.0453 -0.0088 0.0018 -6.4638 -0.0236 42.9515
#
#
#
# Elastic Compliance Matrix: (Units=1/GPa)
#
#
# Indices 1 2 3 4 5 6 
#
# 1 0.010766 -0.001406 -0.005712 -0.000001 0.007896 0.000016
# 2 -0.001406 0.012581 -0.001319 0.000017 -0.001269 0.000003
# 3 -0.005712 -0.001319 0.014713 0.000003 -0.014480 -0.000014
# 4 -0.000001 0.000017 0.000003 0.033866 -0.000010 0.005097
# 5 0.007896 -0.001269 -0.014480 -0.000010 0.046457 0.000033
# 6 0.000016 0.000003 -0.000014 0.005097 0.000033 0.024049
#
#
# Mechanical properties :
#
#
# Convention : Reuss Voigt Hill
#
# Bulk Modulus (GPa) = 47.19917 53.32259 50.26088
# Shear Modulus (GPa) = 30.05382 37.25570 33.65476
#
# Velocity S-wave (km/s) = 3.54001 3.94140 3.74608
# Velocity P-wave (km/s) = 6.03238 6.55339 6.29828
#
# Compressibility (1/GPa) = 0.02118681
#
# Stress axis : x y z
#
# Youngs Moduli (GPa) = 92.88790 79.48301 67.96598
#
# Poissons Ratio (x) = 0.11178 0.38820
# Poissons Ratio (y) = 0.13063 0.08963
# Poissons Ratio (z) = 0.53054 0.10482
#
# Static dielectric constant tensor:
#      x y z
#    x 4.392880 -0.000030 0.158330 
#    y -0.000030 4.169800 0.000000 
#    z 0.158330 0.000000 4.461180 
# 
# 
# High freq. dielectric constant tensor:
#      x y z
#    x 1.955180 0.000000 0.008970 
#    y 0.000000 1.950430 0.000000 
#    z 0.008970 0.000000 1.963710 
# 
# From -- ./inp_files/69024.got.cif
#   From: 2010.03.12/outbox.cif.g09.slc.cpg/sg5_35_cif.got.tgz:69024.got - 2010.03.31 09:47:26.
