data_PCOD8051213
_publ_section_title
;
Structure prediction by ZEFSAII (Michael W. Deem and Ramdas Pophale) SiO2 
 PCOD8051213
Probable space group: C 2
;
_chemical_formula_sum "Si O2"
_cell_formula_units_Z 28
_cell_length_a 8.954260
_cell_length_b 5.100082
_cell_length_c 30.648122
_cell_angle_alpha 90.000000
_cell_angle_beta 118.448195
_cell_angle_gamma 90.000000
_cell_volume 1230.615009
_symmetry_space_group_name_H-M "C 2"
_symmetry_group_IT_number 5
_symmetry_cell_setting 'monoclinic'
loop_
_space_group_symop_operation_xyz
x,y,z
-x,y,-z
1/2+x,1/2+y,z
1/2-x,1/2+y,-z
loop_
_atom_site_type_symbol
_atom_site_label
_atom_site_fract_x
_atom_site_fract_y
_atom_site_fract_z
Si Si1 0.087581 0.604900 0.170408
Si Si2 0.803291 0.502522 0.981749
Si Si3 0.726317 0.981725 0.280629
Si Si4 0.021132 0.634136 0.325495
Si Si5 0.641184 0.605120 0.867007
Si Si6 0.030604 0.139535 0.370870
Si Si7 0.635433 0.572649 0.481441
O O1 0.939535 0.389718 0.150973
O O2 0.212074 0.567955 0.228716
O O3 0.198987 0.572347 0.142612
O O4 0.001856 0.888698 0.161839
O O5 0.706313 0.586214 0.925020
O O6 0.718135 0.233795 0.986216
O O7 0.000000 0.449385 0.000000
O O8 0.547093 0.010967 0.280579
O O9 0.838930 0.181234 0.325773
O O10 0.816962 0.695458 0.297349
O O11 0.104070 0.428498 0.371722
O O12 0.114677 0.907225 0.353004
O O13 0.035155 0.066183 0.422003
O O14 0.500000 0.637892 0.500000
O O15 0.718144 0.289990 0.500646
#
# Coordination Sequence:
#
# PCOD8051213 Si02
#       7
#     4   4   4   4   4   4   4
#     4  12  27  44  71  98 149 176 230 275 356 401
#     4  12  25  45  74 101 136 181 237 282 338 404
#     4  10  26  41  69  96 131 181 222 275 329 409
#     4  10  24  39  68  94 130 165 233 266 331 384
#     4  12  26  46  68 105 139 183 223 290 340 405
#     4  10  26  42  71  93 135 169 232 270 336 401
#     4  12  28  47  71 102 138 179 224 285 351 405
#
# _framework density 22.752852000000001
#
# number of rings (size 3 to 8) (size 9 to 14) (size 15 to 20)
#    0.857    0.000    0.000    6.000   10.000    0.000 
#    0.000    0.000    0.000    0.000    0.000    0.000 
#    0.000    0.000    0.000    0.000    0.000    0.000 
#
# Total GULP energy -173478.734703 kJ/mol
# GULP energy per Si atom -12391.338193 kJ/mol
# Density = 2.270107 g / cm^3
# Si number density = 22.752852 Si / 1000 Ang^3
#
#
#
# Elastic Constant Matrix: (Units=GPa)
#
#
# Indices 1 2 3 4 5 6 
#
# 1 105.7224 37.6575 21.5118 0.0000 -18.9439 0.0000
# 2 37.6575 105.5391 5.1288 0.0000 -5.6680 0.0000
# 3 21.5118 5.1288 101.1587 0.0000 -6.0351 0.0000
# 4 0.0000 0.0000 0.0000 28.2997 0.0000 -0.4809
# 5 -18.9439 -5.6680 -6.0351 0.0000 32.8022 0.0000
# 6 0.0000 0.0000 0.0000 -0.4809 0.0000 31.0892
#
#
#
# Elastic Compliance Matrix: (Units=1/GPa)
#
#
# Indices 1 2 3 4 5 6 
#
# 1 0.012393 -0.003995 -0.002070 0.000000 0.006086 0.000000
# 2 -0.003995 0.010867 0.000276 0.000000 -0.000378 0.000000
# 3 -0.002070 0.000276 0.010357 0.000000 0.000758 0.000000
# 4 0.000000 0.000000 0.000000 0.035345 0.000000 0.000547
# 5 0.006086 -0.000378 0.000758 0.000000 0.034075 0.000000
# 6 0.000000 0.000000 0.000000 0.000547 0.000000 0.032174
#
#
# Mechanical properties :
#
#
# Convention : Reuss Voigt Hill
#
# Bulk Modulus (GPa) = 45.37236 49.00182 47.18709
# Shear Modulus (GPa) = 32.43918 34.97971 33.70944
#
# Velocity S-wave (km/s) = 3.77997 3.92519 3.85326
# Velocity P-wave (km/s) = 6.24784 6.49047 6.37031
#
# Compressibility (1/GPa) = 0.02203985
#
# Stress axis : x y z
#
# Youngs Moduli (GPa) = 80.68859 92.02386 96.55457
#
# Poissons Ratio (x) = 0.36760 0.19985
# Poissons Ratio (y) = 0.32232 -0.02664
# Poissons Ratio (z) = 0.16701 -0.02539
#
# Static dielectric constant tensor:
#      x y z
#    x 4.088940 0.000000 -0.072340 
#    y 0.000000 4.222620 0.000000 
#    z -0.072340 0.000000 4.142800 
# 
# 
# High freq. dielectric constant tensor:
#      x y z
#    x 1.891950 0.000000 -0.009410 
#    y 0.000000 1.912480 0.000000 
#    z -0.009410 0.000000 1.905240 
# 
# From -- ./inp_files/71522.got.cif
#   From: 2010.03.12/outbox.cif.g09.slc.cpg/sg5_36_cif.got.tgz:71522.got - 2010.03.31 09:47:26.
