data_PCOD8051640
_publ_section_title
;
Structure prediction by ZEFSAII (Michael W. Deem and Ramdas Pophale) SiO2 
 PCOD8051640
Probable space group: C 2
;
_chemical_formula_sum "Si O2"
_cell_formula_units_Z 24
_cell_length_a 9.239425
_cell_length_b 18.682187
_cell_length_c 9.731923
_cell_angle_alpha 90.000000
_cell_angle_beta 135.321795
_cell_angle_gamma 90.000000
_cell_volume 1181.145530
_symmetry_space_group_name_H-M "C 2"
_symmetry_group_IT_number 5
_symmetry_cell_setting 'monoclinic'
loop_
_space_group_symop_operation_xyz
x,y,z
-x,y,-z
1/2+x,1/2+y,z
1/2-x,1/2+y,-z
loop_
_atom_site_type_symbol
_atom_site_label
_atom_site_fract_x
_atom_site_fract_y
_atom_site_fract_z
Si Si1 0.969705 0.103060 0.138356
Si Si2 0.992633 0.270845 0.832888
Si Si3 0.367551 0.358138 0.539183
Si Si4 0.401662 0.010368 0.074756
Si Si5 0.681756 0.515492 0.507650
Si Si6 0.849811 0.868005 0.023795
O O1 0.994657 0.186833 0.178480
O O2 0.136855 0.063018 0.344004
O O3 0.744104 0.079326 0.036687
O O4 0.000000 0.081835 0.000000
O O5 0.791115 0.297156 0.614894
O O6 0.179922 0.307942 0.879178
O O7 0.000000 0.292543 0.000000
O O8 0.500000 0.379384 0.500000
O O9 0.273091 0.434895 0.515636
O O10 0.516375 0.334141 0.762045
O O11 0.592146 0.038933 0.292338
O O12 0.500000 0.983706 0.000000
O O13 0.262462 0.943697 0.028336
O O14 0.500000 0.524181 0.500000
O O15 0.000000 0.879455 0.000000
#
# Coordination Sequence:
#
# PCOD8051640 Si02
#       6
#     4   4   4   4   4   4
#     4  11  26  45  65 103 140 173 225 281 333 400
#     4  11  24  46  70  96 137 184 222 271 340 407
#     4  11  21  41  75  97 126 177 234 270 326 410
#     4  12  22  43  73  95 134 185 225 272 338 403
#     4  11  22  41  72 101 125 177 232 275 328 407
#     4  12  25  42  67 104 134 170 230 285 333 387
#
# _framework density 20.319258000000001
#
# number of rings (size 3 to 8) (size 9 to 14) (size 15 to 20)
#    0.000    0.667    6.667    2.000    0.000    3.333 
#    3.000    0.000    0.000    0.000    0.000    0.000 
#    0.000    0.000    0.000    0.000    0.000    0.000 
#
# Total GULP energy -148722.633433 kJ/mol
# GULP energy per Si atom -12393.552786 kJ/mol
# Density = 2.027301 g / cm^3
# Si number density = 20.319258 Si / 1000 Ang^3
#
#
#
# Elastic Constant Matrix: (Units=GPa)
#
#
# Indices 1 2 3 4 5 6 
#
# 1 113.2619 51.4775 44.4881 0.0000 3.2637 0.0000
# 2 51.4775 135.6070 61.5393 0.0000 6.1112 0.0000
# 3 44.4881 61.5393 163.3477 0.0000 21.1951 0.0000
# 4 0.0000 0.0000 0.0000 32.7046 0.0000 -0.4822
# 5 3.2637 6.1112 21.1951 0.0000 38.0956 0.0000
# 6 0.0000 0.0000 0.0000 -0.4822 0.0000 28.0516
#
#
#
# Elastic Compliance Matrix: (Units=1/GPa)
#
#
# Indices 1 2 3 4 5 6 
#
# 1 0.011072 -0.003409 -0.001810 0.000000 0.000605 0.000000
# 2 -0.003409 0.009952 -0.002858 0.000000 0.000286 0.000000
# 3 -0.001810 -0.002858 0.008204 0.000000 -0.003951 0.000000
# 4 0.000000 0.000000 0.000000 0.030585 0.000000 0.000526
# 5 0.000605 0.000286 -0.003951 0.000000 0.028350 0.000000
# 6 0.000000 0.000000 0.000000 0.000526 0.000000 0.035658
#
#
# Mechanical properties :
#
#
# Convention : Reuss Voigt Hill
#
# Bulk Modulus (GPa) = 76.48178 80.80295 78.64236
# Shear Modulus (GPa) = 34.64215 36.75113 35.69664
#
# Velocity S-wave (km/s) = 4.13351 4.25748 4.19595
# Velocity P-wave (km/s) = 7.77837 8.00132 7.89063
#
# Compressibility (1/GPa) = 0.01307501
#
# Stress axis : x y z
#
# Youngs Moduli (GPa) = 90.31902 100.47741 121.88895
#
# Poissons Ratio (x) = 0.34253 0.22058
# Poissons Ratio (y) = 0.30790 0.34837
# Poissons Ratio (z) = 0.16345 0.28717
#
# Static dielectric constant tensor:
#      x y z
#    x 3.793310 0.000000 0.073580 
#    y 0.000000 3.586260 0.000000 
#    z 0.073580 0.000000 4.016880 
# 
# 
# High freq. dielectric constant tensor:
#      x y z
#    x 1.788610 0.000000 0.010810 
#    y 0.000000 1.787670 0.000000 
#    z 0.010810 0.000000 1.810930 
# 
# From -- ./inp_files/16686.got.cif
#   From: 2010.03.12/outbox.cif.g09.slc.cpg/sg5_9_cif.got.tgz:16686.got - 2010.03.31 09:47:26.
