data_PCOD8051993
_publ_section_title
;
Structure prediction by ZEFSAII (Michael W. Deem and Ramdas Pophale) SiO2 
 PCOD8051993
Probable space group: C 2
;
_chemical_formula_sum "Si O2"
_cell_formula_units_Z 28
_cell_length_a 13.848027
_cell_length_b 12.724473
_cell_length_c 8.285620
_cell_angle_alpha 90.000000
_cell_angle_beta 122.607687
_cell_angle_gamma 90.000000
_cell_volume 1229.874564
_symmetry_space_group_name_H-M "C 2"
_symmetry_group_IT_number 5
_symmetry_cell_setting 'monoclinic'
loop_
_space_group_symop_operation_xyz
x,y,z
-x,y,-z
1/2+x,1/2+y,z
1/2-x,1/2+y,-z
loop_
_atom_site_type_symbol
_atom_site_label
_atom_site_fract_x
_atom_site_fract_y
_atom_site_fract_z
Si Si1 0.576500 0.146830 0.219941
Si Si2 0.760245 0.960956 0.393882
Si Si3 0.889178 0.369977 0.995225
Si Si4 0.000000 0.041919 0.500000
Si Si5 0.299122 0.015469 0.159175
Si Si6 0.348170 0.680719 0.158158
Si Si7 0.719323 0.335827 0.271430
Si Si8 0.000000 0.607170 0.500000
O O1 0.607463 0.267539 0.205333
O O2 0.508544 0.162020 0.329900
O O3 0.688627 0.070724 0.334549
O O4 0.500000 0.105235 0.000000
O O5 0.725193 0.891219 0.209093
O O6 0.732691 0.886846 0.521141
O O7 0.896454 0.977561 0.490282
O O8 0.893614 0.447724 0.149967
O O9 0.892232 0.248560 0.047885
O O10 0.000000 0.401358 0.000000
O O11 0.046914 0.111388 0.688432
O O12 0.198663 0.935951 0.132183
O O13 0.375683 0.050976 0.381227
O O14 0.252495 0.106508 0.001189
O O15 0.308680 0.755256 0.269175
#
# Coordination Sequence:
#
# PCOD8051993 Si02
#       8
#     4   4   4   2   4   4   4   2
#     4  12  26  50  77 113 154 198 255 324 377 452
#     4  12  25  48  72 110 150 193 248 313 381 459
#     4  11  25  42  76 106 142 189 253 314 379 444
#     4  12  26  48  74 100 156 202 236 306 386 450
#     4  11  24  48  71 108 149 198 250 312 378 465
#     4  11  26  47  73 104 152 195 252 313 377 454
#     4  11  26  45  76 104 149 193 250 309 385 447
#     4  12  24  42  84 110 148 206 256 312 392 444
#
# _framework density 22.766549999999999
#
# number of rings (size 3 to 8) (size 9 to 14) (size 15 to 20)
#    0.000    0.571    4.286    3.000    4.000    4.000 
#    0.000    0.000    0.000    0.000    0.000    0.000 
#    0.000    0.000    0.000    0.000    0.000    0.000 
#
# Total GULP energy -173432.906271 kJ/mol
# GULP energy per Si atom -12388.064734 kJ/mol
# Density = 2.271473 g / cm^3
# Si number density = 22.766550 Si / 1000 Ang^3
#
#
#
# Elastic Constant Matrix: (Units=GPa)
#
#
# Indices 1 2 3 4 5 6 
#
# 1 113.6558 44.6325 53.4444 0.0000 -8.4681 0.0000
# 2 44.6325 112.5661 57.1170 0.0000 -1.2215 0.0000
# 3 53.4444 57.1170 132.5967 0.0000 0.1989 0.0000
# 4 0.0000 0.0000 0.0000 36.6433 0.0000 7.0936
# 5 -8.4681 -1.2215 0.1989 0.0000 44.6924 0.0000
# 6 0.0000 0.0000 0.0000 7.0936 0.0000 -105.8336
#
#
#
# Elastic Compliance Matrix: (Units=1/GPa)
#
#
# Indices 1 2 3 4 5 6 
#
# 1 0.011725 -0.002848 -0.003502 0.000000 0.002159 0.000000
# 2 -0.002848 0.012065 -0.004049 0.000000 -0.000192 0.000000
# 3 -0.003502 -0.004049 0.010698 0.000000 -0.000822 0.000000
# 4 0.000000 0.000000 0.000000 0.026941 0.000000 0.001806
# 5 0.002159 -0.000192 -0.000822 0.000000 0.022783 0.000000
# 6 0.000000 0.000000 0.000000 0.001806 0.000000 -0.009328
#
#
# Mechanical properties :
#
#
# Convention : Reuss Voigt Hill
#
# Bulk Modulus (GPa) = 73.04633 74.35626 73.70129
# Shear Modulus (GPa) = 49.87723 8.67542 29.27633
#
# Velocity S-wave (km/s) = 4.68569 1.95419 3.58989
# Velocity P-wave (km/s) = 7.83765 6.15004 7.04457
#
# Compressibility (1/GPa) = 0.01368994
#
# Stress axis : x y z
#
# Youngs Moduli (GPa) = 85.28990 82.88131 93.47109
#
# Poissons Ratio (x) = 0.23609 0.32734
# Poissons Ratio (y) = 0.24295 0.37845
# Poissons Ratio (z) = 0.29869 0.33558
#
# Static dielectric constant tensor:
#      x y z
#    x 4.077660 0.000000 -0.258670 
#    y 0.000000 4.365420 0.000000 
#    z -0.258670 0.000000 4.282100 
# 
# 
# High freq. dielectric constant tensor:
#      x y z
#    x 1.897640 0.000000 -0.021150 
#    y 0.000000 1.899720 0.000000 
#    z -0.021150 0.000000 1.903260 
# 
# From -- ./inp_files/23730.got.cif
#   From: 2010.03.12/outbox.cif.g09.slc.cpg/sg5_12_cif.got.tgz:23730.got - 2010.03.31 09:47:26.
