data_PCOD8051920
_publ_section_title
;
Structure prediction by ZEFSAII (Michael W. Deem and Ramdas Pophale) SiO2 
 PCOD8051920
Probable space group: C 2
;
_chemical_formula_sum "Si O2"
_cell_formula_units_Z 18
_cell_length_a 10.211207
_cell_length_b 10.660648
_cell_length_c 13.652595
_cell_angle_alpha 90.000000
_cell_angle_beta 30.959211
_cell_angle_gamma 90.000000
_cell_volume 764.540081
_symmetry_space_group_name_H-M "C 2"
_symmetry_group_IT_number 5
_symmetry_cell_setting 'monoclinic'
loop_
_space_group_symop_operation_xyz
x,y,z
-x,y,-z
1/2+x,1/2+y,z
1/2-x,1/2+y,-z
loop_
_atom_site_type_symbol
_atom_site_label
_atom_site_fract_x
_atom_site_fract_y
_atom_site_fract_z
Si Si1 0.403134 0.068780 0.772130
Si Si2 0.305501 0.439586 0.920789
Si Si3 0.797161 0.343854 0.708680
Si Si4 0.000000 0.260204 0.000000
Si Si5 0.486062 0.575309 0.401189
O O1 0.691943 0.112326 0.573076
O O2 0.342809 0.929332 0.773520
O O3 0.238984 0.171635 0.818423
O O4 0.309039 0.058281 0.946025
O O5 0.515938 0.361912 0.845820
O O6 0.419056 0.483140 0.743747
O O7 0.073254 0.345066 0.046528
O O8 0.000000 0.391174 0.500000
O O9 0.840197 0.199679 0.710305
O O10 0.500000 0.510099 0.500000
#
# Coordination Sequence:
#
# PCOD8051920 Si02
#       5
#     4   4   4   2   4
#     4  12  26  47  72 108 142 187 238 288 356 419
#     4  12  26  49  72 106 144 184 236 296 350 418
#     4  11  23  49  76 101 145 191 231 291 358 416
#     4  12  26  44  72 106 140 182 242 282 352 420
#     4  11  26  49  74 104 143 188 238 290 353 421
#
# _framework density 23.543565999999998
#
# number of rings (size 3 to 8) (size 9 to 14) (size 15 to 20)
#    0.000    0.444    4.444    4.000    3.111    0.000 
#    8.000    1.111    0.000    0.000    0.000    0.000 
#    0.000    0.000    0.000    0.000    0.000    0.000 
#
# Total GULP energy -111608.562148 kJ/mol
# GULP energy per Si atom -12400.951350 kJ/mol
# Density = 2.348998 g / cm^3
# Si number density = 23.543566 Si / 1000 Ang^3
#
#
#
# Elastic Constant Matrix: (Units=GPa)
#
#
# Indices 1 2 3 4 5 6 
#
# 1 116.9201 50.5085 41.8551 -0.0021 -23.7263 0.0011
# 2 50.5085 101.1241 40.5797 -0.0074 -10.2308 0.0035
# 3 41.8551 40.5797 108.9969 -0.0141 -6.6664 0.0079
# 4 -0.0021 -0.0074 -0.0141 27.5715 0.0056 -9.0999
# 5 -23.7263 -10.2308 -6.6664 0.0056 46.0352 -0.0025
# 6 0.0011 0.0035 0.0079 -9.0999 -0.0025 39.1531
#
#
#
# Elastic Compliance Matrix: (Units=1/GPa)
#
#
# Indices 1 2 3 4 5 6 
#
# 1 0.012588 -0.004656 -0.002792 -0.000003 0.005049 0.000000
# 2 -0.004656 0.013529 -0.003240 0.000002 0.000137 0.000000
# 3 -0.002792 -0.003240 0.011422 0.000005 -0.000505 -0.000001
# 4 -0.000003 0.000002 0.000005 0.039283 -0.000005 0.009130
# 5 0.005049 0.000137 -0.000505 -0.000005 0.024282 0.000000
# 6 0.000000 0.000000 -0.000001 0.009130 0.000000 0.027663
#
#
# Mechanical properties :
#
#
# Convention : Reuss Voigt Hill
#
# Bulk Modulus (GPa) = 61.87155 65.88085 63.87620
# Shear Modulus (GPa) = 32.14801 35.49183 33.81992
#
# Velocity S-wave (km/s) = 3.69923 3.88686 3.79421
# Velocity P-wave (km/s) = 6.67701 6.94168 6.81063
#
# Compressibility (1/GPa) = 0.01616252
#
# Stress axis : x y z
#
# Youngs Moduli (GPa) = 79.43913 73.91644 87.55027
#
# Poissons Ratio (x) = 0.34419 0.24440
# Poissons Ratio (y) = 0.36991 0.28369
# Poissons Ratio (z) = 0.22176 0.23951
#
# Static dielectric constant tensor:
#      x y z
#    x 4.556860 0.000000 -0.108770 
#    y 0.000000 4.041700 0.000000 
#    z -0.108770 0.000000 4.272430 
# 
# 
# High freq. dielectric constant tensor:
#      x y z
#    x 1.949080 0.000000 -0.014580 
#    y 0.000000 1.924540 0.000000 
#    z -0.014580 0.000000 1.932820 
# 
# From -- ./inp_files/52543.got.cif
#   From: 2010.03.12/outbox.cif.g09.slc.cpg/sg5_27_cif.got.tgz:52543.got - 2010.03.31 09:47:26.
