data_PCOD8051846
_publ_section_title
;
Structure prediction by ZEFSAII (Michael W. Deem and Ramdas Pophale) SiO2 
 PCOD8051846
Probable space group: C 2
;
_chemical_formula_sum "Si O2"
_cell_formula_units_Z 30
_cell_length_a 12.214550
_cell_length_b 19.509952
_cell_length_c 5.246532
_cell_angle_alpha 90.000000
_cell_angle_beta 91.783864
_cell_angle_gamma 90.000000
_cell_volume 1249.670374
_symmetry_space_group_name_H-M "C 2"
_symmetry_group_IT_number 5
_symmetry_cell_setting 'monoclinic'
loop_
_space_group_symop_operation_xyz
x,y,z
-x,y,-z
1/2+x,1/2+y,z
1/2-x,1/2+y,-z
loop_
_atom_site_type_symbol
_atom_site_label
_atom_site_fract_x
_atom_site_fract_y
_atom_site_fract_z
Si Si1 0.711606 0.373940 0.803076
Si Si2 0.926115 0.442551 0.745048
Si Si3 0.622788 0.622581 0.989199
Si Si4 0.120047 0.670858 0.559709
Si Si5 0.800528 0.733704 0.955100
Si Si6 0.858369 0.979749 0.807457
Si Si7 0.500000 0.396248 0.500000
Si Si8 0.238247 0.545759 0.402978
O O1 0.834899 0.381397 0.703551
O O2 0.716311 0.315076 0.019877
O O3 0.611244 0.355681 0.595083
O O4 0.691878 0.447579 0.941547
O O5 0.864358 0.516912 0.770878
O O6 0.000000 0.441188 0.500000
O O7 0.000000 0.430489 0.000000
O O8 0.663464 0.582217 0.741663
O O9 0.500000 0.651089 0.000000
O O10 0.694029 0.690569 0.035543
O O11 0.624890 0.561812 0.197213
O O12 0.111780 0.712787 0.822493
O O13 0.194575 0.603582 0.596346
O O14 0.000000 0.643868 0.500000
O O15 0.163282 0.718180 0.329356
O O16 0.971786 0.941966 0.746603
O O17 0.777037 0.975846 0.555536
#
# Coordination Sequence:
#
# PCOD8051846 Si02
#       8
#     4   4   4   4   4   4   2   4
#     4  12  28  46  72 110 149 198 257 307 387 441
#     4  12  27  46  74 104 149 198 245 308 372 458
#     4  11  23  44  73 106 145 192 246 311 374 444
#     4  11  25  45  71 100 143 188 238 294 371 441
#     4  11  28  47  70 105 147 191 242 305 361 453
#     4  12  21  44  72 112 142 188 245 319 375 442
#     4  12  26  42  78 106 152 192 248 328 376 444
#     4  11  23  43  71 109 142 185 248 310 370 445
#
# _framework density 24.006330999999999
#
# number of rings (size 3 to 8) (size 9 to 14) (size 15 to 20)
#    0.000    0.533    4.000    3.600    2.800    3.733 
#    0.000    1.333    0.000    0.000    0.000    0.000 
#    0.000    0.000    0.000    0.000    0.000    0.000 
#
# Total GULP energy -185830.471517 kJ/mol
# GULP energy per Si atom -12388.698101 kJ/mol
# Density = 2.395169 g / cm^3
# Si number density = 24.006331 Si / 1000 Ang^3
#
#
#
# Elastic Constant Matrix: (Units=GPa)
#
#
# Indices 1 2 3 4 5 6 
#
# 1 130.1129 23.2995 31.3480 0.0000 0.1092 0.0000
# 2 23.2995 83.0159 -2.7792 0.0000 9.0027 0.0000
# 3 31.3480 -2.7792 97.0139 0.0000 5.4235 0.0000
# 4 0.0000 0.0000 0.0000 32.7848 0.0000 -3.5513
# 5 0.1092 9.0027 5.4235 0.0000 36.4340 0.0000
# 6 0.0000 0.0000 0.0000 -3.5513 0.0000 14.7352
#
#
#
# Elastic Compliance Matrix: (Units=1/GPa)
#
#
# Indices 1 2 3 4 5 6 
#
# 1 0.008897 -0.002717 -0.003014 0.000000 0.001093 0.000000
# 2 -0.002717 0.013234 0.001451 0.000000 -0.003478 0.000000
# 3 -0.003014 0.001451 0.011438 0.000000 -0.002052 0.000000
# 4 0.000000 0.000000 0.000000 0.031320 0.000000 0.007548
# 5 0.001093 -0.003478 -0.002052 0.000000 0.028608 0.000000
# 6 0.000000 0.000000 0.000000 0.007548 0.000000 0.069684
#
#
# Mechanical properties :
#
#
# Convention : Reuss Voigt Hill
#
# Bulk Modulus (GPa) = 39.98223 45.98657 42.98440
# Shear Modulus (GPa) = 27.76598 34.00913 30.88756
#
# Velocity S-wave (km/s) = 3.40459 3.76796 3.59087
# Velocity P-wave (km/s) = 5.66974 6.17475 5.92763
#
# Compressibility (1/GPa) = 0.02501111
#
# Stress axis : x y z
#
# Youngs Moduli (GPa) = 112.39341 75.56241 87.42790
#
# Poissons Ratio (x) = 0.20527 0.26350
# Poissons Ratio (y) = 0.30533 -0.12689
# Poissons Ratio (z) = 0.33874 -0.10967
#
# Static dielectric constant tensor:
#      x y z
#    x 4.562150 0.000000 0.110910 
#    y 0.000000 4.247060 0.000000 
#    z 0.110910 0.000000 4.276320 
# 
# 
# High freq. dielectric constant tensor:
#      x y z
#    x 1.960640 0.000000 -0.001140 
#    y 0.000000 1.939430 0.000000 
#    z -0.001140 0.000000 1.956980 
# 
# From -- ./inp_files/5660.got.cif
#   From: 2010.03.12/outbox.cif.g09.slc.cpg/sg5_3_cif.got.tgz:5660.got - 2010.03.31 09:47:26.
