data_PCOD8051549
_publ_section_title
;
Structure prediction by ZEFSAII (Michael W. Deem and Ramdas Pophale) SiO2 
 PCOD8051549
Probable space group: C 2
;
_chemical_formula_sum "Si O2"
_cell_formula_units_Z 16
_cell_length_a 14.975376
_cell_length_b 4.967979
_cell_length_c 7.816895
_cell_angle_alpha 90.000000
_cell_angle_beta 78.691064
_cell_angle_gamma 90.000000
_cell_volume 570.264854
_symmetry_space_group_name_H-M "C 2"
_symmetry_group_IT_number 5
_symmetry_cell_setting 'monoclinic'
loop_
_space_group_symop_operation_xyz
x,y,z
-x,y,-z
1/2+x,1/2+y,z
1/2-x,1/2+y,-z
loop_
_atom_site_type_symbol
_atom_site_label
_atom_site_fract_x
_atom_site_fract_y
_atom_site_fract_z
Si Si1 0.150972 0.353620 0.697443
Si Si2 0.147729 0.713306 0.396632
Si Si3 0.402812 0.961910 0.914866
Si Si4 0.496547 0.452953 0.758110
O O1 0.105272 0.559384 0.577764
O O2 0.254957 0.337958 0.596175
O O3 0.152282 0.480318 0.887210
O O4 0.100038 0.063087 0.692788
O O5 0.163238 0.521852 0.222290
O O6 0.068270 0.932908 0.387852
O O7 0.446121 0.668254 0.897873
O O8 0.490221 0.167444 0.862812
#
# Coordination Sequence:
#
# PCOD8051549 Si02
#       4
#     4   4   4   4
#     4  12  27  55  90 123 177 230 281 360 441 506
#     4  10  30  52  84 133 166 228 284 357 428 518
#     4  10  27  56  81 124 168 224 289 351 423 510
#     4  10  27  57  80 123 170 219 291 350 419 514
#
# _framework density 28.057141000000001
#
# number of rings (size 3 to 8) (size 9 to 14) (size 15 to 20)
#    1.500    0.000    0.000    0.750    7.000    9.000 
#   13.500    0.000    0.000    0.000    0.000    0.000 
#    0.000    0.000    0.000    0.000    0.000    0.000 
#
# Total GULP energy -99147.886609 kJ/mol
# GULP energy per Si atom -12393.485826 kJ/mol
# Density = 2.799328 g / cm^3
# Si number density = 28.057141 Si / 1000 Ang^3
#
#
#
# Elastic Constant Matrix: (Units=GPa)
#
#
# Indices 1 2 3 4 5 6 
#
# 1 137.8991 14.9432 50.3904 0.0000 -14.5103 0.0000
# 2 14.9432 105.2829 62.4107 0.0000 -8.2547 0.0000
# 3 50.3904 62.4107 202.1230 0.0000 2.6992 0.0000
# 4 0.0000 0.0000 0.0000 -131.6127 0.0000 -36.0253
# 5 -14.5103 -8.2547 2.6992 0.0000 48.8930 0.0000
# 6 0.0000 0.0000 0.0000 -36.0253 0.0000 29.1528
#
#
#
# Elastic Compliance Matrix: (Units=1/GPa)
#
#
# Indices 1 2 3 4 5 6 
#
# 1 0.008300 0.000339 -0.002209 0.000000 0.002642 0.000000
# 2 0.000339 0.011873 -0.003781 0.000000 0.002314 0.000000
# 3 -0.002209 -0.003781 0.006688 0.000000 -0.001663 0.000000
# 4 0.000000 0.000000 0.000000 -0.005678 0.000000 -0.007016
# 5 0.002642 0.002314 -0.001663 0.000000 0.021720 0.000000
# 6 0.000000 0.000000 0.000000 -0.007016 0.000000 0.025632
#
#
# Mechanical properties :
#
#
# Convention : Reuss Voigt Hill
#
# Bulk Modulus (GPa) = 64.27727 77.86593 71.07160
# Shear Modulus (GPa) = 58.80598 10.45732 34.63165
#
# Velocity S-wave (km/s) = 4.58311 1.93268 3.51711
# Velocity P-wave (km/s) = 7.13902 5.72653 6.47143
#
# Compressibility (1/GPa) = 0.01555760
#
# Stress axis : x y z
#
# Youngs Moduli (GPa) = 120.47765 84.22335 149.51963
#
# Poissons Ratio (x) = -0.02852 0.33031
# Poissons Ratio (y) = -0.04080 0.56541
# Poissons Ratio (z) = 0.26616 0.31849
#
# Static dielectric constant tensor:
#      x y z
#    x 4.718780 0.000000 0.365000 
#    y 0.000000 5.056410 0.000000 
#    z 0.365000 0.000000 5.129430 
# 
# 
# High freq. dielectric constant tensor:
#      x y z
#    x 2.125970 0.000000 0.013270 
#    y 0.000000 2.126120 0.000000 
#    z 0.013270 0.000000 2.174560 
# 
# From -- ./inp_files/25815.got.cif
#   From: 2010.03.12/outbox.cif.g09.slc.cpg/sg5_13_cif.got.tgz:25815.got - 2010.03.31 09:47:26.
