data_PCOD8051966
_publ_section_title
;
Structure prediction by ZEFSAII (Michael W. Deem and Ramdas Pophale) SiO2 
 PCOD8051966
Probable space group: C 2
;
_chemical_formula_sum "Si O2"
_cell_formula_units_Z 16
_cell_length_a 12.472371
_cell_length_b 12.494334
_cell_length_c 10.161034
_cell_angle_alpha 90.000000
_cell_angle_beta 23.336383
_cell_angle_gamma 90.000000
_cell_volume 627.243658
_symmetry_space_group_name_H-M "C 2"
_symmetry_group_IT_number 5
_symmetry_cell_setting 'monoclinic'
loop_
_space_group_symop_operation_xyz
x,y,z
-x,y,-z
1/2+x,1/2+y,z
1/2-x,1/2+y,-z
loop_
_atom_site_type_symbol
_atom_site_label
_atom_site_fract_x
_atom_site_fract_y
_atom_site_fract_z
Si Si1 0.738347 0.808980 0.130500
Si Si2 0.078411 0.036703 0.114228
Si Si3 0.206389 0.259238 0.875020
Si Si4 0.010402 0.589190 0.136010
O O1 0.500000 0.780984 0.500000
O O2 0.624433 0.806783 0.109495
O O3 0.970487 0.718768 0.883115
O O4 0.868196 0.923770 0.017214
O O5 0.758858 0.054257 0.485535
O O6 0.201111 0.129783 0.884307
O O7 0.225631 0.039789 0.090640
O O8 0.500000 0.299043 0.500000
O O9 0.000000 0.305371 0.000000
O O10 0.000000 0.544761 0.000000
#
# Coordination Sequence:
#
# PCOD8051966 Si02
#       4
#     4   4   4   4
#     4  11  26  48  77 109 143 192 245 297 358 430
#     4  11  25  44  70 105 142 189 240 295 356 426
#     4  11  24  45  69 102 145 187 233 295 358 424
#     4  11  24  45  69 104 148 188 234 297 360 426
#
# _framework density 25.508427999999999
#
# number of rings (size 3 to 8) (size 9 to 14) (size 15 to 20)
#    0.000    1.000    0.000    7.500    0.000   12.000 
#    0.000    0.000    0.000    0.000    0.000    0.000 
#    0.000    0.000    0.000    0.000    0.000    0.000 
#
# Total GULP energy -99253.156216 kJ/mol
# GULP energy per Si atom -12406.644527 kJ/mol
# Density = 2.545037 g / cm^3
# Si number density = 25.508428 Si / 1000 Ang^3
#
#
#
# Elastic Constant Matrix: (Units=GPa)
#
#
# Indices 1 2 3 4 5 6 
#
# 1 148.0722 -19.4959 58.0012 -0.1894 3.9628 -0.0318
# 2 -19.4959 118.0175 34.6836 -0.0269 -6.5647 -0.0640
# 3 58.0012 34.6836 153.5430 -0.2117 -4.3422 -0.0331
# 4 -0.1894 -0.0269 -0.2117 35.9813 0.1380 -0.2423
# 5 3.9628 -6.5647 -4.3422 0.1380 43.9895 0.0161
# 6 -0.0318 -0.0640 -0.0331 -0.2423 0.0161 0.0715
#
#
#
# Elastic Compliance Matrix: (Units=1/GPa)
#
#
# Indices 1 2 3 4 5 6 
#
# 1 0.008610 0.002510 -0.003841 0.000059 -0.000782 0.004670
# 2 0.002510 0.009870 -0.003149 0.000056 0.000933 0.008473
# 3 -0.003841 -0.003149 0.008696 0.000022 0.000734 -0.000591
# 4 0.000059 0.000056 0.000022 0.028443 -0.000119 0.096489
# 5 -0.000782 0.000933 0.000734 -0.000119 0.023017 -0.004767
# 6 0.004670 0.008473 -0.000591 0.096489 -0.004767 14.320178
#
#
# Mechanical properties :
#
#
# Convention : Reuss Voigt Hill
#
# Bulk Modulus (GPa) = 54.89598 62.89005 58.89302
# Shear Modulus (GPa) = 0.34689 39.10471 19.72580
#
# Velocity S-wave (km/s) = 0.36917 3.91962 2.78385
# Velocity P-wave (km/s) = 4.66360 6.72255 5.78540
#
# Compressibility (1/GPa) = 0.01821627
#
# Stress axis : x y z
#
# Youngs Moduli (GPa) = 116.13895 101.31654 114.99879
#
# Poissons Ratio (x) = -0.25432 0.44167
# Poissons Ratio (y) = -0.29153 0.36218
# Poissons Ratio (z) = 0.44605 0.31909
#
# Static dielectric constant tensor:
#      x y z
#    x 4.790600 -0.000090 -0.031130 
#    y -0.000090 4.679280 0.000360 
#    z -0.031130 0.000360 4.337590 
# 
# 
# High freq. dielectric constant tensor:
#      x y z
#    x 2.031100 -0.000010 -0.001230 
#    y -0.000010 2.019620 0.000010 
#    z -0.001230 0.000010 2.011140 
# 
# From -- ./inp_files/40002.got.cif
#   From: 2010.03.12/outbox.cif.g09.slc.cpg/sg5_21_cif.got.tgz:40002.got - 2010.03.31 09:47:26.
