data_PCOD8051336
_publ_section_title
;
Structure prediction by ZEFSAII (Michael W. Deem and Ramdas Pophale) SiO2 
 PCOD8051336
Probable space group: C 2
;
_chemical_formula_sum "Si O2"
_cell_formula_units_Z 26
_cell_length_a 10.957063
_cell_length_b 8.795966
_cell_length_c 25.511833
_cell_angle_alpha 90.000000
_cell_angle_beta 150.465627
_cell_angle_gamma 90.000000
_cell_volume 1212.043965
_symmetry_space_group_name_H-M "C 2"
_symmetry_group_IT_number 5
_symmetry_cell_setting 'monoclinic'
loop_
_space_group_symop_operation_xyz
x,y,z
-x,y,-z
1/2+x,1/2+y,z
1/2-x,1/2+y,-z
loop_
_atom_site_type_symbol
_atom_site_label
_atom_site_fract_x
_atom_site_fract_y
_atom_site_fract_z
Si Si1 0.861758 0.494520 0.538321
Si Si2 0.041071 0.330703 0.696007
Si Si3 0.261302 0.248341 0.576688
Si Si4 0.373144 0.118794 0.206422
Si Si5 0.500000 0.205716 0.500000
Si Si6 0.990108 0.629597 0.861126
Si Si7 0.935405 0.345199 0.034302
O O1 0.660008 0.387545 0.432840
O O2 0.719099 0.593093 0.528777
O O3 0.064411 0.391346 0.644759
O O4 0.009827 0.604462 0.555511
O O5 0.149314 0.454397 0.776112
O O6 0.204061 0.178740 0.762688
O O7 0.749017 0.304540 0.596517
O O8 0.447092 0.229909 0.693917
O O9 0.000000 0.305541 0.500000
O O10 0.466318 0.086486 0.182832
O O11 0.110450 0.201456 0.111181
O O12 0.039687 0.483957 0.916016
O O13 0.160687 0.775960 0.937960
O O14 0.000000 0.406920 0.000000
#
# Coordination Sequence:
#
# PCOD8051336 Si02
#       7
#     4   4   4   4   2   4   4
#     4  11  24  39  61  90 134 171 224 261 317 378
#     4  11  26  42  62  98 132 176 221 266 321 387
#     4  11  23  38  62  89 128 173 216 263 316 380
#     4  10  25  40  66  96 129 167 222 265 329 387
#     4  12  26  38  62  94 136 174 226 262 316 380
#     4  11  24  44  72  94 131 168 213 274 337 387
#     4  10  24  45  69 100 126 164 216 272 334 400
#
# _framework density 21.451369
#
# number of rings (size 3 to 8) (size 9 to 14) (size 15 to 20)
#    0.000    1.231    2.308    1.846    6.462    4.923 
#    0.000    0.000    0.000    0.000    0.000    0.000 
#    0.000    0.000    0.000    0.000    0.000    0.000 
#
# Total GULP energy -161159.420926 kJ/mol
# GULP energy per Si atom -12396.878533 kJ/mol
# Density = 2.140254 g / cm^3
# Si number density = 21.451369 Si / 1000 Ang^3
#
#
#
# Elastic Constant Matrix: (Units=GPa)
#
#
# Indices 1 2 3 4 5 6 
#
# 1 102.1353 53.3004 54.2211 0.0000 -19.0021 0.0000
# 2 53.3004 108.8397 43.2938 0.0000 -19.0355 0.0000
# 3 54.2211 43.2938 93.8282 -0.0001 -11.5485 0.0004
# 4 0.0000 0.0000 -0.0001 44.7857 0.0000 -16.3370
# 5 -19.0021 -19.0355 -11.5485 0.0000 45.5297 0.0000
# 6 0.0000 0.0000 0.0004 -16.3370 0.0000 32.6354
#
#
#
# Elastic Compliance Matrix: (Units=1/GPa)
#
#
# Indices 1 2 3 4 5 6 
#
# 1 0.016587 -0.004794 -0.006986 0.000000 0.003146 0.000000
# 2 -0.004794 0.013205 -0.002983 0.000000 0.002764 0.000000
# 3 -0.006986 -0.002983 0.016060 0.000000 -0.000089 0.000000
# 4 0.000000 0.000000 0.000000 0.027317 0.000000 0.013675
# 5 0.003146 0.002764 -0.000089 0.000000 0.024410 0.000000
# 6 0.000000 0.000000 0.000000 0.013675 0.000000 0.037487
#
#
# Mechanical properties :
#
#
# Convention : Reuss Voigt Hill
#
# Bulk Modulus (GPa) = 61.24720 67.38153 64.31437
# Shear Modulus (GPa) = 29.40621 34.85602 32.13111
#
# Velocity S-wave (km/s) = 3.70649 4.03536 3.87442
# Velocity P-wave (km/s) = 6.85063 7.29326 7.07541
#
# Compressibility (1/GPa) = 0.01632728
#
# Stress axis : x y z
#
# Youngs Moduli (GPa) = 60.28994 75.72794 62.26611
#
# Poissons Ratio (x) = 0.36301 0.43498
# Poissons Ratio (y) = 0.28900 0.18573
# Poissons Ratio (z) = 0.42118 0.22588
#
# Static dielectric constant tensor:
#      x y z
#    x 3.989570 0.000000 -0.279820 
#    y 0.000000 3.906840 0.000000 
#    z -0.279820 0.000000 3.944330 
# 
# 
# High freq. dielectric constant tensor:
#      x y z
#    x 1.845510 0.000000 -0.018610 
#    y 0.000000 1.854320 0.000000 
#    z -0.018610 0.000000 1.838800 
# 
# From -- ./inp_files/38396.got.cif
#   From: 2010.03.12/outbox.cif.g09.slc.cpg/sg5_20_cif.got.tgz:38396.got - 2010.03.31 09:47:26.
