data_PCOD8051272
_publ_section_title
;
Structure prediction by ZEFSAII (Michael W. Deem and Ramdas Pophale) SiO2 
 PCOD8051272
Probable space group: C 2
;
_chemical_formula_sum "Si O2"
_cell_formula_units_Z 22
_cell_length_a 19.034987
_cell_length_b 4.943225
_cell_length_c 9.739635
_cell_angle_alpha 90.000000
_cell_angle_beta 104.646196
_cell_angle_gamma 90.000000
_cell_volume 886.664133
_symmetry_space_group_name_H-M "C 2"
_symmetry_group_IT_number 5
_symmetry_cell_setting 'monoclinic'
loop_
_space_group_symop_operation_xyz
x,y,z
-x,y,-z
1/2+x,1/2+y,z
1/2-x,1/2+y,-z
loop_
_atom_site_type_symbol
_atom_site_label
_atom_site_fract_x
_atom_site_fract_y
_atom_site_fract_z
Si Si1 0.500000 0.052720 0.500000
Si Si2 0.379815 0.039093 0.027873
Si Si3 0.508845 0.333711 0.771804
Si Si4 0.751853 0.793935 0.587244
Si Si5 0.623674 0.742752 0.715490
Si Si6 0.130922 0.027584 0.157013
O O1 0.471690 0.235559 0.612347
O O2 0.567223 0.878218 0.583659
O O3 0.350424 0.325568 0.959107
O O4 0.365781 0.832774 0.896081
O O5 0.464334 0.082108 0.119152
O O6 0.341849 0.940384 0.150362
O O7 0.582611 0.499329 0.772575
O O8 0.451299 0.501557 0.829626
O O9 0.715922 0.031510 0.475542
O O10 0.814831 0.963564 0.693264
O O11 0.692341 0.657798 0.658584
#
# Coordination Sequence:
#
# PCOD8051272 Si02
#       6
#     2   4   4   4   4   4
#     4  10  24  42  74 110 142 202 246 310 362 430
#     4  11  26  45  74 109 146 194 248 304 367 446
#     4  11  25  43  76 109 153 189 256 305 369 438
#     4  12  30  51  76 107 153 195 252 305 380 445
#     4  11  26  46  75 108 150 196 252 309 366 446
#     4  12  27  46  75 109 150 198 241 310 376 436
#
# _framework density 24.812104000000001
#
# number of rings (size 3 to 8) (size 9 to 14) (size 15 to 20)
#    0.000    0.727    1.818    3.273   17.818    1.455 
#    0.000    0.000    0.000    0.000    0.000    0.000 
#    0.000    0.000    0.000    0.000    0.000    0.000 
#
# Total GULP energy -136318.111107 kJ/mol
# GULP energy per Si atom -12392.555555 kJ/mol
# Density = 2.475563 g / cm^3
# Si number density = 24.812104 Si / 1000 Ang^3
#
#
#
# Elastic Constant Matrix: (Units=GPa)
#
#
# Indices 1 2 3 4 5 6 
#
# 1 99.4965 20.2583 17.4477 0.0000 -14.8124 0.0000
# 2 20.2583 98.7469 21.3725 0.0000 -7.3040 0.0000
# 3 17.4477 21.3725 95.0493 0.0000 -0.4124 0.0000
# 4 0.0000 0.0000 0.0000 56.9768 0.0000 -0.8636
# 5 -14.8124 -7.3040 -0.4124 0.0000 25.1686 0.0000
# 6 0.0000 0.0000 0.0000 -0.8636 0.0000 23.8312
#
#
#
# Elastic Compliance Matrix: (Units=1/GPa)
#
#
# Indices 1 2 3 4 5 6 
#
# 1 0.011619 -0.001532 -0.001761 0.000000 0.006365 0.000000
# 2 -0.001532 0.011086 -0.002202 0.000000 0.002280 0.000000
# 3 -0.001761 -0.002202 0.011333 0.000000 -0.001489 0.000000
# 4 0.000000 0.000000 0.000000 0.017561 0.000000 0.000636
# 5 0.006365 0.002280 -0.001489 0.000000 0.044115 0.000000
# 6 0.000000 0.000000 0.000000 0.000636 0.000000 0.041985
#
#
# Mechanical properties :
#
#
# Convention : Reuss Voigt Hill
#
# Bulk Modulus (GPa) = 43.38547 45.71664 44.55105
# Shear Modulus (GPa) = 31.97546 36.80958 34.39252
#
# Velocity S-wave (km/s) = 3.59375 3.85584 3.72710
# Velocity P-wave (km/s) = 5.89437 6.18777 6.04285
#
# Compressibility (1/GPa) = 0.02304919
#
# Stress axis : x y z
#
# Youngs Moduli (GPa) = 86.06770 90.20122 88.24032
#
# Poissons Ratio (x) = 0.13817 0.15537
# Poissons Ratio (y) = 0.13184 0.19428
# Poissons Ratio (z) = 0.15154 0.19860
#
# Static dielectric constant tensor:
#      x y z
#    x 4.014610 0.000000 -0.152200 
#    y 0.000000 4.483880 0.000000 
#    z -0.152200 0.000000 4.997290 
# 
# 
# High freq. dielectric constant tensor:
#      x y z
#    x 1.950690 0.000000 -0.004840 
#    y 0.000000 1.990880 0.000000 
#    z -0.004840 0.000000 2.021470 
# 
# From -- ./inp_files/28382.got.cif
#   From: 2010.03.12/outbox.cif.g09.slc.cpg/sg5_15_cif.got.tgz:28382.got - 2010.03.31 09:47:26.
