data_PCOD8051912
_publ_section_title
;
Structure prediction by ZEFSAII (Michael W. Deem and Ramdas Pophale) SiO2 
 PCOD8051912
Probable space group: C 2
;
_chemical_formula_sum "Si O2"
_cell_formula_units_Z 30
_cell_length_a 8.512818
_cell_length_b 14.694899
_cell_length_c 11.823624
_cell_angle_alpha 90.000000
_cell_angle_beta 68.031554
_cell_angle_gamma 90.000000
_cell_volume 1371.680552
_symmetry_space_group_name_H-M "C 2"
_symmetry_group_IT_number 5
_symmetry_cell_setting 'monoclinic'
loop_
_space_group_symop_operation_xyz
x,y,z
-x,y,-z
1/2+x,1/2+y,z
1/2-x,1/2+y,-z
loop_
_atom_site_type_symbol
_atom_site_label
_atom_site_fract_x
_atom_site_fract_y
_atom_site_fract_z
Si Si1 0.000000 0.872340 0.500000
Si Si2 0.857112 0.089411 0.220081
Si Si3 0.181502 0.809123 0.009025
Si Si4 0.841667 0.753929 0.736054
Si Si5 0.804230 0.488050 0.528334
Si Si6 0.731038 0.621337 0.119031
Si Si7 0.341775 0.995411 0.910936
Si Si8 0.401620 0.094129 0.292667
O O1 0.109116 0.814794 0.382676
O O2 0.150324 0.921674 0.530981
O O3 0.835299 0.200009 0.234518
O O4 0.748874 0.035566 0.342193
O O5 0.810247 0.048220 0.110958
O O6 0.053654 0.070674 0.178829
O O7 0.158081 0.813975 0.150569
O O8 0.268634 0.714399 0.952109
O O9 0.000000 0.819900 0.000000
O O10 0.306638 0.888985 0.936414
O O11 0.963784 0.667952 0.708978
O O12 0.803052 0.563080 0.429988
O O13 0.000000 0.449170 0.500000
O O14 0.782379 0.643215 0.233777
O O15 0.857108 0.548114 0.026762
O O16 0.512121 0.006043 0.790621
#
# Coordination Sequence:
#
# PCOD8051912 Si02
#       8
#     2   4   4   4   4   4   4   4
#     4  12  30  46  72 110 138 182 252 304 346 428
#     4  11  24  46  72  95 141 196 228 292 364 423
#     4  12  24  40  70 106 142 187 234 290 361 435
#     4  11  24  47  67  96 145 183 231 291 357 416
#     4  12  25  48  77 101 139 190 243 291 363 419
#     4  12  23  44  67 107 141 179 242 283 357 438
#     4  11  24  41  70  99 144 188 227 294 361 417
#     4  11  23  47  73  96 142 192 230 292 358 426
#
# _framework density 21.870982000000001
#
# number of rings (size 3 to 8) (size 9 to 14) (size 15 to 20)
#    0.000    0.533    6.667    3.200    5.600    1.067 
#    4.800    0.000    0.000    0.000    0.000    0.000 
#    0.000    0.000    0.000    0.000    0.000    0.000 
#
# Total GULP energy -185885.737092 kJ/mol
# GULP energy per Si atom -12392.382473 kJ/mol
# Density = 2.182120 g / cm^3
# Si number density = 21.870982 Si / 1000 Ang^3
#
#
#
# Elastic Constant Matrix: (Units=GPa)
#
#
# Indices 1 2 3 4 5 6 
#
# 1 73.6792 13.0389 20.0467 0.0000 4.0042 0.0000
# 2 13.0389 83.7832 15.4456 0.0000 -0.7852 0.0000
# 3 20.0467 15.4456 90.6306 0.0000 12.6228 0.0000
# 4 0.0000 0.0000 0.0000 51.9730 0.0000 6.5538
# 5 4.0042 -0.7852 12.6228 0.0000 32.7112 0.0000
# 6 0.0000 0.0000 0.0000 6.5538 0.0000 18.9599
#
#
#
# Elastic Compliance Matrix: (Units=1/GPa)
#
#
# Indices 1 2 3 4 5 6 
#
# 1 0.014700 -0.001770 -0.002846 0.000000 -0.000744 0.000000
# 2 -0.001770 0.012578 -0.001928 0.000000 0.001263 0.000000
# 3 -0.002846 -0.001928 0.012629 0.000000 -0.004571 0.000000
# 4 0.000000 0.000000 0.000000 0.020118 0.000000 -0.006954
# 5 -0.000744 0.001263 -0.004571 0.000000 0.032456 0.000000
# 6 0.000000 0.000000 0.000000 -0.006954 0.000000 0.055147
#
#
# Mechanical properties :
#
#
# Convention : Reuss Voigt Hill
#
# Bulk Modulus (GPa) = 37.28755 38.35059 37.81907
# Shear Modulus (GPa) = 29.47147 34.03295 31.75221
#
# Velocity S-wave (km/s) = 3.67483 3.94899 3.81438
# Velocity P-wave (km/s) = 5.92383 6.19401 6.06042
#
# Compressibility (1/GPa) = 0.02681860
#
# Stress axis : x y z
#
# Youngs Moduli (GPa) = 68.02510 79.50205 79.18524
#
# Poissons Ratio (x) = 0.14072 0.22539
# Poissons Ratio (y) = 0.12041 0.15267
# Poissons Ratio (z) = 0.19363 0.15328
#
# Static dielectric constant tensor:
#      x y z
#    x 4.090010 0.000000 0.404780 
#    y 0.000000 3.949640 0.000000 
#    z 0.404780 0.000000 2.922040 
# 
# 
# High freq. dielectric constant tensor:
#      x y z
#    x 1.870660 0.000000 0.007800 
#    y 0.000000 1.842560 0.000000 
#    z 0.007800 0.000000 1.876710 
# 
# From -- ./inp_files/36352.got.cif
#   From: 2010.03.12/outbox.cif.g09.slc.cpg/sg5_19_cif.got.tgz:36352.got - 2010.03.31 09:47:26.
