data_PCOD8051771
_publ_section_title
;
Structure prediction by ZEFSAII (Michael W. Deem and Ramdas Pophale) SiO2 
 PCOD8051771
Probable space group: C 2
;
_chemical_formula_sum "Si O2"
_cell_formula_units_Z 32
_cell_length_a 17.751944
_cell_length_b 14.031161
_cell_length_c 11.538847
_cell_angle_alpha 90.000000
_cell_angle_beta 29.358525
_cell_angle_gamma 90.000000
_cell_volume 1409.093776
_symmetry_space_group_name_H-M "C 2"
_symmetry_group_IT_number 5
_symmetry_cell_setting 'monoclinic'
loop_
_space_group_symop_operation_xyz
x,y,z
-x,y,-z
1/2+x,1/2+y,z
1/2-x,1/2+y,-z
loop_
_atom_site_type_symbol
_atom_site_label
_atom_site_fract_x
_atom_site_fract_y
_atom_site_fract_z
Si Si1 0.647483 0.194910 0.559371
Si Si2 0.553228 0.005200 0.602095
Si Si3 0.324043 0.241717 0.052305
Si Si4 0.114225 0.464685 0.941861
Si Si5 0.264908 0.950329 0.839355
Si Si6 0.199617 0.142303 0.418322
Si Si7 0.181020 0.793848 0.293074
Si Si8 0.154346 0.138598 0.083566
O O1 0.596290 0.116217 0.533432
O O2 0.773027 0.155340 0.480965
O O3 0.704741 0.279506 0.399581
O O4 0.504940 0.231090 0.825656
O O5 0.414825 0.978814 0.706793
O O6 0.700145 0.949923 0.347136
O O7 0.512371 0.989691 0.790565
O O8 0.290962 0.346441 0.043746
O O9 0.254370 0.234952 0.273885
O O10 0.258449 0.155643 0.058922
O O11 0.206838 0.553318 0.761659
O O12 0.241013 0.396564 0.830745
O O13 0.000000 0.418110 0.000000
O O14 0.149294 0.033622 0.032705
O O15 0.018898 0.146549 0.641428
O O16 0.000000 0.793646 0.500000
O O17 0.285033 0.716889 0.087724
#
# Coordination Sequence:
#
# PCOD8051771 Si02
#       8
#     4   4   4   4   4   4   4   4
#     4  12  24  50  71  97 147 194 231 291 359 424
#     4  11  22  45  74  97 140 185 236 285 355 419
#     4  12  25  45  76 103 142 190 238 291 354 425
#     4  12  26  47  74 106 145 191 235 294 364 426
#     4  11  25  43  74 105 136 186 240 294 347 413
#     4  12  28  46  69 107 147 186 235 297 359 422
#     4  12  27  47  74 106 141 191 241 295 356 424
#     4  12  26  46  72 108 144 182 240 299 351 423
#
# _framework density 22.709631000000002
#
# number of rings (size 3 to 8) (size 9 to 14) (size 15 to 20)
#    0.000    0.250    6.250    1.500    8.750    1.000 
#    0.000    1.250    0.000    0.000    0.000    0.000 
#    0.000    0.000    0.000    0.000    0.000    0.000 
#
# Total GULP energy -198230.876209 kJ/mol
# GULP energy per Si atom -12389.429763 kJ/mol
# Density = 2.265794 g / cm^3
# Si number density = 22.709631 Si / 1000 Ang^3
#
#
#
# Elastic Constant Matrix: (Units=GPa)
#
#
# Indices 1 2 3 4 5 6 
#
# 1 71.9172 22.6479 13.1167 0.0003 8.0092 -0.0001
# 2 22.6479 82.8847 5.0311 0.0000 0.2444 0.0000
# 3 13.1167 5.0311 93.4400 0.0005 9.3029 -0.0003
# 4 0.0003 0.0000 0.0005 21.1291 -0.0002 -0.7229
# 5 8.0092 0.2444 9.3029 -0.0002 31.4004 0.0001
# 6 -0.0001 0.0000 -0.0003 -0.7229 0.0001 28.9492
#
#
#
# Elastic Compliance Matrix: (Units=1/GPa)
#
#
# Indices 1 2 3 4 5 6 
#
# 1 0.015938 -0.004244 -0.001656 0.000000 -0.003541 0.000000
# 2 -0.004244 0.013235 -0.000221 0.000000 0.001045 0.000000
# 3 -0.001656 -0.000221 0.011236 0.000000 -0.002905 0.000000
# 4 0.000000 0.000000 0.000000 0.047368 0.000000 0.001183
# 5 -0.003541 0.001045 -0.002905 0.000000 0.033602 0.000000
# 6 0.000000 0.000000 0.000000 0.001183 0.000000 0.034573
#
#
# Mechanical properties :
#
#
# Convention : Reuss Voigt Hill
#
# Bulk Modulus (GPa) = 35.50344 36.64814 36.07579
# Shear Modulus (GPa) = 28.15586 30.12550 29.14068
#
# Velocity S-wave (km/s) = 3.52493 3.64614 3.58604
# Velocity P-wave (km/s) = 5.67754 5.82224 5.75034
#
# Compressibility (1/GPa) = 0.02816628
#
# Stress axis : x y z
#
# Youngs Moduli (GPa) = 62.74377 75.55764 89.00268
#
# Poissons Ratio (x) = 0.32066 0.14740
# Poissons Ratio (y) = 0.26628 0.01966
# Poissons Ratio (z) = 0.10392 0.01669
#
# Static dielectric constant tensor:
#      x y z
#    x 4.072950 0.000000 0.451360 
#    y 0.000000 4.530570 0.000000 
#    z 0.451360 0.000000 4.611060 
# 
# 
# High freq. dielectric constant tensor:
#      x y z
#    x 1.889630 0.000000 0.019460 
#    y 0.000000 1.890700 0.000000 
#    z 0.019460 0.000000 1.912060 
# 
# From -- ./inp_files/44967.got.cif
#   From: 2010.03.12/outbox.cif.g09.slc.cpg/sg5_23_cif.got.tgz:44967.got - 2010.03.31 09:47:26.
