data_PCOD8051904
_publ_section_title
;
Structure prediction by ZEFSAII (Michael W. Deem and Ramdas Pophale) SiO2 
 PCOD8051904
Probable space group: C 2
;
_chemical_formula_sum "Si O2"
_cell_formula_units_Z 32
_cell_length_a 24.271196
_cell_length_b 9.089349
_cell_length_c 9.936330
_cell_angle_alpha 90.000000
_cell_angle_beta 32.724484
_cell_angle_gamma 90.000000
_cell_volume 1185.020602
_symmetry_space_group_name_H-M "C 2"
_symmetry_group_IT_number 5
_symmetry_cell_setting 'monoclinic'
loop_
_space_group_symop_operation_xyz
x,y,z
-x,y,-z
1/2+x,1/2+y,z
1/2-x,1/2+y,-z
loop_
_atom_site_type_symbol
_atom_site_label
_atom_site_fract_x
_atom_site_fract_y
_atom_site_fract_z
Si Si1 0.922809 0.077540 0.954443
Si Si2 0.768024 0.678925 0.904453
Si Si3 0.151153 0.459991 0.480912
Si Si4 0.923029 0.837515 0.763892
Si Si5 0.671262 0.363727 0.681282
Si Si6 0.950231 0.621255 0.928600
Si Si7 0.695967 0.867865 0.839010
Si Si8 0.418425 0.691252 0.553252
O O1 0.036720 0.088105 0.658900
O O2 0.863707 0.966930 0.967431
O O3 0.876765 0.237404 0.064194
O O4 0.910196 0.995974 0.123411
O O5 0.797636 0.589283 0.710798
O O6 0.855982 0.716922 0.826915
O O7 0.726302 0.835156 0.930903
O O8 0.676139 0.606657 0.181555
O O9 0.226810 0.389911 0.436607
O O10 0.118998 0.340592 0.437946
O O11 0.050520 0.526909 0.765514
O O12 0.000000 0.915002 0.500000
O O13 0.985317 0.741419 0.745822
O O14 0.610411 0.209379 0.827768
O O15 0.703609 0.372231 0.460598
O O16 0.865126 0.518008 0.037543
O O17 0.500000 0.734596 0.500000
#
# Coordination Sequence:
#
# PCOD8051904 Si02
#       8
#     4   4   4   4   4   4   4   4
#     4  11  23  46  73 104 147 202 236 321 398 441
#     4  12  27  42  76 110 147 203 247 312 411 467
#     4  12  25  48  75 112 147 209 255 315 403 463
#     4  11  25  44  72 108 159 187 248 323 387 487
#     4  11  26  51  75 106 150 201 267 320 379 464
#     4  11  25  47  73 112 148 197 261 327 377 479
#     4  12  25  48  74 104 151 198 261 321 386 468
#     4  12  23  43  73 109 152 183 251 311 391 490
#
# _framework density 27.003751000000001
#
# number of rings (size 3 to 8) (size 9 to 14) (size 15 to 20)
#    0.000    0.500    5.000    2.625    3.500    0.500 
#    4.500    0.000    2.750    0.000    0.000    0.000 
#    0.000    0.000    0.000    0.000    0.000    0.000 
#
# Total GULP energy -198283.250463 kJ/mol
# GULP energy per Si atom -12392.703154 kJ/mol
# Density = 2.694229 g / cm^3
# Si number density = 27.003751 Si / 1000 Ang^3
#
#
#
# Elastic Constant Matrix: (Units=GPa)
#
#
# Indices 1 2 3 4 5 6 
#
# 1 37.2890 -9.4632 12.3891 0.0000 -7.7401 0.0000
# 2 -9.4632 81.3258 18.2311 0.0000 7.2219 0.0000
# 3 12.3891 18.2311 179.6565 0.0000 14.2464 0.0000
# 4 0.0000 0.0000 0.0000 52.2100 0.0000 -6.4478
# 5 -7.7401 7.2219 14.2464 0.0000 34.9888 0.0000
# 6 0.0000 0.0000 0.0000 -6.4478 0.0000 31.5864
#
#
#
# Elastic Compliance Matrix: (Units=1/GPa)
#
#
# Indices 1 2 3 4 5 6 
#
# 1 0.030210 0.003553 -0.003013 0.000000 0.007176 0.000000
# 2 0.003553 0.013158 -0.001475 0.000000 -0.001329 0.000000
# 3 -0.003013 -0.001475 0.006151 0.000000 -0.002867 0.000000
# 4 0.000000 0.000000 0.000000 0.019649 0.000000 0.004011
# 5 0.007176 -0.001329 -0.002867 0.000000 0.031610 0.000000
# 6 0.000000 0.000000 0.000000 0.004011 0.000000 0.032478
#
#
# Mechanical properties :
#
#
# Convention : Reuss Voigt Hill
#
# Bulk Modulus (GPa) = 20.98617 37.84282 29.41449
# Shear Modulus (GPa) = 33.11084 42.23133 37.67109
#
# Velocity S-wave (km/s) = 3.50545 3.95892 3.73906
# Velocity P-wave (km/s) = 4.91657 5.91115 5.43665
#
# Compressibility (1/GPa) = 0.04765044
#
# Stress axis : x y z
#
# Youngs Moduli (GPa) = 33.10170 75.99716 162.57701
#
# Poissons Ratio (x) = -0.27005 0.48983
# Poissons Ratio (y) = -0.11762 0.23979
# Poissons Ratio (z) = 0.09973 0.11209
#
# Static dielectric constant tensor:
#      x y z
#    x 4.480320 0.000000 0.038100 
#    y 0.000000 4.979780 0.000000 
#    z 0.038100 0.000000 5.488030 
# 
# 
# High freq. dielectric constant tensor:
#      x y z
#    x 2.067670 0.000000 0.008000 
#    y 0.000000 2.093210 0.000000 
#    z 0.008000 0.000000 2.109530 
# 
# From -- ./inp_files/48386.got.cif
#   From: 2010.03.12/outbox.cif.g09.slc.cpg/sg5_25_cif.got.tgz:48386.got - 2010.03.31 09:47:26.
