data_PCOD8051487
_publ_section_title
;
Structure prediction by ZEFSAII (Michael W. Deem and Ramdas Pophale) SiO2 
 PCOD8051487
Probable space group: C 2
;
_chemical_formula_sum "Si O2"
_cell_formula_units_Z 18
_cell_length_a 5.350889
_cell_length_b 24.296483
_cell_length_c 5.310216
_cell_angle_alpha 90.000000
_cell_angle_beta 92.219612
_cell_angle_gamma 90.000000
_cell_volume 689.851441
_symmetry_space_group_name_H-M "C 2"
_symmetry_group_IT_number 5
_symmetry_cell_setting 'monoclinic'
loop_
_space_group_symop_operation_xyz
x,y,z
-x,y,-z
1/2+x,1/2+y,z
1/2-x,1/2+y,-z
loop_
_atom_site_type_symbol
_atom_site_label
_atom_site_fract_x
_atom_site_fract_y
_atom_site_fract_z
Si Si1 0.256801 0.862310 0.158706
Si Si2 0.862571 0.134075 0.243075
Si Si3 0.151629 0.747571 0.264160
Si Si4 0.744669 0.982922 0.835498
Si Si5 0.500000 0.066257 0.500000
O O1 0.500000 0.857567 0.000000
O O2 0.266911 0.807922 0.337776
O O3 0.256409 0.921794 0.295981
O O4 0.000000 0.858957 0.000000
O O5 0.856495 0.200405 0.225418
O O6 0.592313 0.104718 0.268825
O O7 0.000000 0.115333 0.500000
O O8 0.000000 0.110827 0.000000
O O9 0.000000 0.726807 0.500000
O O10 0.000000 0.751544 0.000000
O O11 0.724214 0.027398 0.611923
O O12 0.500000 0.988435 0.000000
O O13 0.000000 0.992896 0.000000
#
# Coordination Sequence:
#
# PCOD8051487 Si02
#       5
#     4   4   4   4   2
#     4   9  20  45  74 110 151 200 255 322 396 473
#     4  12  29  49  78 114 156 209 269 330 403 475
#     4  11  23  47  76 113 153 199 256 328 401 477
#     4  10  25  49  77 111 158 209 267 330 399 474
#     4  12  30  48  74 116 160 212 276 328 396 484
#
# _framework density 26.092576999999999
#
# number of rings (size 3 to 8) (size 9 to 14) (size 15 to 20)
#    0.000    1.333    1.111    2.000    6.222    1.778 
#   22.000    0.000    0.000    0.000    0.000    0.000 
#    0.000    0.000    0.000    0.000    0.000    0.000 
#
# Total GULP energy -111515.831211 kJ/mol
# GULP energy per Si atom -12390.647912 kJ/mol
# Density = 2.603319 g / cm^3
# Si number density = 26.092577 Si / 1000 Ang^3
#
#
#
# Elastic Constant Matrix: (Units=GPa)
#
#
# Indices 1 2 3 4 5 6 
#
# 1 140.7768 38.2517 42.5157 0.0000 -14.0733 0.0000
# 2 38.2517 206.3074 45.1121 0.0000 -5.4634 0.0000
# 3 42.5157 45.1121 146.0299 0.0000 -16.1432 0.0000
# 4 0.0000 0.0000 0.0000 32.6649 0.0000 4.9045
# 5 -14.0733 -5.4634 -16.1432 0.0000 42.7172 0.0000
# 6 0.0000 0.0000 0.0000 4.9045 0.0000 40.1842
#
#
#
# Elastic Compliance Matrix: (Units=1/GPa)
#
#
# Indices 1 2 3 4 5 6 
#
# 1 0.008130 -0.001057 -0.001836 0.000000 0.001849 0.000000
# 2 -0.001057 0.005336 -0.001361 0.000000 -0.000180 0.000000
# 3 -0.001836 -0.001361 0.008053 0.000000 0.002264 0.000000
# 4 0.000000 0.000000 0.000000 0.031185 0.000000 -0.003806
# 5 0.001849 -0.000180 0.002264 0.000000 0.024852 0.000000
# 6 0.000000 0.000000 0.000000 -0.003806 0.000000 0.025350
#
#
# Mechanical properties :
#
#
# Convention : Reuss Voigt Hill
#
# Bulk Modulus (GPa) = 76.85266 82.76367 79.80816
# Shear Modulus (GPa) = 43.19636 47.59557 45.39596
#
# Velocity S-wave (km/s) = 4.07320 4.27559 4.17562
# Velocity P-wave (km/s) = 7.18603 7.49415 7.34171
#
# Compressibility (1/GPa) = 0.01301191
#
# Stress axis : x y z
#
# Youngs Moduli (GPa) = 123.00100 187.41191 124.17585
#
# Poissons Ratio (x) = 0.19808 0.22799
# Poissons Ratio (y) = 0.13001 0.16895
# Poissons Ratio (z) = 0.22583 0.25498
#
# Static dielectric constant tensor:
#      x y z
#    x 4.818180 0.000000 -0.052540 
#    y 0.000000 5.811660 0.000000 
#    z -0.052540 0.000000 4.265420 
# 
# 
# High freq. dielectric constant tensor:
#      x y z
#    x 2.044340 0.000000 -0.007330 
#    y 0.000000 2.087130 0.000000 
#    z -0.007330 0.000000 2.013780 
# 
# From -- ./inp_files/1072.got.cif
#   From: 2010.03.12/outbox.cif.g09.slc.cpg/sg5_1_cif.got.tgz:1072.got - 2010.03.31 09:47:26.
