data_PCOD8051174
_publ_section_title
;
Structure prediction by ZEFSAII (Michael W. Deem and Ramdas Pophale) SiO2 
 PCOD8051174
Probable space group: C 2
;
_chemical_formula_sum "Si O2"
_cell_formula_units_Z 28
_cell_length_a 18.808510
_cell_length_b 8.568906
_cell_length_c 13.256773
_cell_angle_alpha 90.000000
_cell_angle_beta 36.481356
_cell_angle_gamma 90.000000
_cell_volume 1270.322942
_symmetry_space_group_name_H-M "C 2"
_symmetry_group_IT_number 5
_symmetry_cell_setting 'monoclinic'
loop_
_space_group_symop_operation_xyz
x,y,z
-x,y,-z
1/2+x,1/2+y,z
1/2-x,1/2+y,-z
loop_
_atom_site_type_symbol
_atom_site_label
_atom_site_fract_x
_atom_site_fract_y
_atom_site_fract_z
Si Si1 0.990762 0.548570 0.123333
Si Si2 0.864140 0.931216 0.152377
Si Si3 0.643316 0.442314 0.433597
Si Si4 0.795288 0.736411 0.040711
Si Si5 0.254790 0.200226 0.411917
Si Si6 0.357396 0.746715 0.261748
Si Si7 0.874415 0.956372 0.773838
O O1 0.875761 0.616135 0.312141
O O2 0.972673 0.361376 0.130762
O O3 0.000000 0.619955 0.000000
O O4 0.106515 0.598710 0.055118
O O5 0.800210 0.867723 0.123653
O O6 0.789141 0.873331 0.335476
O O7 0.869587 0.118410 0.159254
O O8 0.000000 0.868297 0.000000
O O9 0.704611 0.612973 0.369186
O O10 0.728548 0.327397 0.397411
O O11 0.515700 0.452187 0.634617
O O12 0.641841 0.389020 0.319881
O O13 0.673060 0.636354 0.167322
O O14 0.810762 0.835749 0.921360
O O15 0.152321 0.182970 0.613110
#
# Coordination Sequence:
#
# PCOD8051174 Si02
#       7
#     4   4   4   4   4   4   4
#     4  11  20  43  66  96 135 164 206 286 350 381
#     4  12  23  41  69 104 136 161 219 293 344 391
#     4  10  23  47  62  92 137 179 224 268 332 396
#     4  12  24  44  69  95 136 178 231 271 325 393
#     4  11  20  41  67  97 132 170 205 279 352 391
#     4  11  25  37  72 106 125 167 219 282 347 405
#     4  11  26  43  69  88 135 193 224 266 319 394
#
# _framework density 22.041640000000001
#
# number of rings (size 3 to 8) (size 9 to 14) (size 15 to 20)
#    0.000    0.857    4.286    3.857    4.000    1.143 
#    0.000    0.000    0.000    0.000    0.000    0.000 
#    0.000    0.000    0.000    0.000    0.000    0.000 
#
# Total GULP energy -173474.588954 kJ/mol
# GULP energy per Si atom -12391.042068 kJ/mol
# Density = 2.199147 g / cm^3
# Si number density = 22.041640 Si / 1000 Ang^3
#
#
#
# Elastic Constant Matrix: (Units=GPa)
#
#
# Indices 1 2 3 4 5 6 
#
# 1 80.1396 39.0207 26.4756 0.0000 1.1683 0.0000
# 2 39.0207 137.0852 34.6611 0.0000 2.6513 0.0000
# 3 26.4756 34.6611 77.4981 0.0000 9.4131 0.0000
# 4 0.0000 0.0000 0.0000 40.7563 0.0000 3.3302
# 5 1.1683 2.6513 9.4131 0.0000 32.5331 0.0000
# 6 0.0000 0.0000 0.0000 3.3302 0.0000 34.3670
#
#
#
# Elastic Compliance Matrix: (Units=1/GPa)
#
#
# Indices 1 2 3 4 5 6 
#
# 1 0.015402 -0.003432 -0.003828 0.000000 0.000834 0.000000
# 2 -0.003432 0.008995 -0.002877 0.000000 0.000223 0.000000
# 3 -0.003828 -0.002877 0.016016 0.000000 -0.004262 0.000000
# 4 0.000000 0.000000 0.000000 0.024732 0.000000 -0.002397
# 5 0.000834 0.000223 -0.004262 0.000000 0.031923 0.000000
# 6 0.000000 0.000000 0.000000 -0.002397 0.000000 0.029330
#
#
# Mechanical properties :
#
#
# Convention : Reuss Voigt Hill
#
# Bulk Modulus (GPa) = 49.65915 55.00417 52.33166
# Shear Modulus (GPa) = 32.59756 34.50231 33.54993
#
# Velocity S-wave (km/s) = 3.84983 3.96071 3.90566
# Velocity P-wave (km/s) = 6.50693 6.77681 6.64324
#
# Compressibility (1/GPa) = 0.02013728
#
# Stress axis : x y z
#
# Youngs Moduli (GPa) = 64.92687 111.17318 62.43788
#
# Poissons Ratio (x) = 0.38159 0.23901
# Poissons Ratio (y) = 0.22285 0.17966
# Poissons Ratio (z) = 0.24854 0.31990
#
# Static dielectric constant tensor:
#      x y z
#    x 3.733010 0.000000 -0.092660 
#    y 0.000000 3.926280 0.000000 
#    z -0.092660 0.000000 4.023680 
# 
# 
# High freq. dielectric constant tensor:
#      x y z
#    x 1.849450 0.000000 0.006360 
#    y 0.000000 1.870670 0.000000 
#    z 0.006360 0.000000 1.873180 
# 
# From -- ./inp_files/56898.got.cif
#   From: 2010.03.12/outbox.cif.g09.slc.cpg/sg5_29_cif.got.tgz:56898.got - 2010.03.31 09:47:26.
