data_PCOD8051625
_publ_section_title
;
Structure prediction by ZEFSAII (Michael W. Deem and Ramdas Pophale) SiO2 
 PCOD8051625
Probable space group: C 2
;
_chemical_formula_sum "Si O2"
_cell_formula_units_Z 32
_cell_length_a 11.031259
_cell_length_b 18.184298
_cell_length_c 13.187554
_cell_angle_alpha 90.000000
_cell_angle_beta 34.246873
_cell_angle_gamma 90.000000
_cell_volume 1488.706039
_symmetry_space_group_name_H-M "C 2"
_symmetry_group_IT_number 5
_symmetry_cell_setting 'monoclinic'
loop_
_space_group_symop_operation_xyz
x,y,z
-x,y,-z
1/2+x,1/2+y,z
1/2-x,1/2+y,-z
loop_
_atom_site_type_symbol
_atom_site_label
_atom_site_fract_x
_atom_site_fract_y
_atom_site_fract_z
Si Si1 0.472483 0.440150 0.798306
Si Si2 0.651021 0.830747 0.487716
Si Si3 0.869023 0.217889 0.992609
Si Si4 0.408841 0.865614 0.855579
Si Si5 0.940630 0.108699 0.293947
Si Si6 0.796243 0.934618 0.701639
Si Si7 0.113360 0.682015 0.651778
Si Si8 0.292867 0.098240 0.211682
O O1 0.686285 0.392813 0.664057
O O2 0.542024 0.524548 0.751877
O O3 0.341549 0.419571 0.787471
O O4 0.298001 0.420388 0.006058
O O5 0.500000 0.806235 0.500000
O O6 0.506926 0.864858 0.676167
O O7 0.782093 0.761466 0.439564
O O8 0.826383 0.285373 0.946149
O O9 0.009208 0.156263 0.839346
O O10 0.642190 0.184501 0.185285
O O11 0.000000 0.244251 0.000000
O O12 0.584302 0.892122 0.815307
O O13 0.704368 0.126632 0.502696
O O14 0.104363 0.129472 0.271223
O O15 0.000000 0.903121 0.500000
O O16 0.770311 0.020869 0.694207
O O17 0.166419 0.656583 0.728835
O O18 0.500000 0.085036 0.000000
#
# Coordination Sequence:
#
# PCOD8051625 Si02
#       8
#     4   4   4   4   4   4   4   4
#     4  11  24  46  69 103 136 174 228 281 341 401
#     4  12  27  46  69 100 136 184 228 273 343 409
#     4  12  27  46  69 100 136 184 228 273 343 409
#     4  12  25  45  71  98 137 176 227 287 336 402
#     4  11  24  46  69 103 136 174 228 281 341 401
#     4  11  21  39  72 106 134 171 221 290 346 393
#     4  12  25  45  71  98 137 176 227 287 336 402
#     4  11  21  39  72 106 134 171 221 290 346 393
#
# _framework density 21.495177999999999
#
# number of rings (size 3 to 8) (size 9 to 14) (size 15 to 20)
#    0.000    0.500    5.000    5.250    0.000    1.000 
#    4.500    0.000    0.000    0.000    0.000    0.000 
#    0.000    0.000    0.000    0.000    0.000    0.000 
#
# Total GULP energy -198511.661654 kJ/mol
# GULP energy per Si atom -12406.978853 kJ/mol
# Density = 2.144625 g / cm^3
# Si number density = 21.495178 Si / 1000 Ang^3
#
#
#
# Elastic Constant Matrix: (Units=GPa)
#
#
# Indices 1 2 3 4 5 6 
#
# 1 50.9359 9.9184 16.0727 0.0053 -0.6579 0.0151
# 2 9.9184 80.7960 28.3955 -0.0253 -0.8054 -0.0094
# 3 16.0727 28.3955 155.3360 -0.0243 -3.8525 0.0151
# 4 0.0053 -0.0253 -0.0243 41.1423 -0.0055 0.2169
# 5 -0.6579 -0.8054 -3.8525 -0.0055 24.4653 -0.0112
# 6 0.0151 -0.0094 0.0151 0.2169 -0.0112 30.3536
#
#
#
# Elastic Compliance Matrix: (Units=1/GPa)
#
#
# Indices 1 2 3 4 5 6 
#
# 1 0.020565 -0.001898 -0.001776 -0.000005 0.000211 -0.000010
# 2 -0.001898 0.013402 -0.002253 0.000007 0.000035 0.000006
# 3 -0.001776 -0.002253 0.007058 0.000003 0.000989 -0.000003
# 4 -0.000005 0.000007 0.000003 0.024307 0.000006 -0.000174
# 5 0.000211 0.000035 0.000989 0.000006 0.041037 0.000015
# 6 -0.000010 0.000006 -0.000003 -0.000174 0.000015 0.032946
#
#
# Mechanical properties :
#
#
# Convention : Reuss Voigt Hill
#
# Bulk Modulus (GPa) = 34.27992 43.98233 39.13113
# Shear Modulus (GPa) = 31.07678 34.70433 32.89056
#
# Velocity S-wave (km/s) = 3.80643 4.02246 3.91594
# Velocity P-wave (km/s) = 5.94146 6.48687 6.22015
#
# Compressibility (1/GPa) = 0.02917159
#
# Stress axis : x y z
#
# Youngs Moduli (GPa) = 48.62582 74.61627 141.68933
#
# Poissons Ratio (x) = 0.14165 0.25159
# Poissons Ratio (y) = 0.09231 0.31916
# Poissons Ratio (z) = 0.08634 0.16808
#
# Static dielectric constant tensor:
#      x y z
#    x 3.627930 0.000020 -0.019000 
#    y 0.000020 3.860610 0.000160 
#    z -0.019000 0.000160 4.160350 
# 
# 
# High freq. dielectric constant tensor:
#      x y z
#    x 1.819620 0.000000 0.000490 
#    y 0.000000 1.846900 0.000010 
#    z 0.000490 0.000010 1.870180 
# 
# From -- ./inp_files/53443.got.cif
#   From: 2010.03.12/outbox.cif.g09.slc.cpg/sg5_27_cif.got.tgz:53443.got - 2010.03.31 09:47:26.
