data_PCOD8051013
_publ_section_title
;
Structure prediction by ZEFSAII (Michael W. Deem and Ramdas Pophale) SiO2 
 PCOD8051013
Probable space group: C 2
;
_chemical_formula_sum "Si O2"
_cell_formula_units_Z 26
_cell_length_a 10.776662
_cell_length_b 9.076219
_cell_length_c 13.587611
_cell_angle_alpha 90.000000
_cell_angle_beta 118.354671
_cell_angle_gamma 90.000000
_cell_volume 1169.572471
_symmetry_space_group_name_H-M "C 2"
_symmetry_group_IT_number 5
_symmetry_cell_setting 'monoclinic'
loop_
_space_group_symop_operation_xyz
x,y,z
-x,y,-z
1/2+x,1/2+y,z
1/2-x,1/2+y,-z
loop_
_atom_site_type_symbol
_atom_site_label
_atom_site_fract_x
_atom_site_fract_y
_atom_site_fract_z
Si Si1 0.334774 0.774340 0.453047
Si Si2 0.261407 0.445621 0.762091
Si Si3 0.096960 0.363122 0.871420
Si Si4 0.661716 0.427434 0.560419
Si Si5 0.713341 0.764513 0.222449
Si Si6 0.500000 0.358812 0.000000
Si Si7 0.691354 0.170884 0.954761
O O1 0.500000 0.822257 0.500000
O O2 0.234556 0.828731 0.325000
O O3 0.323426 0.599481 0.455604
O O4 0.266073 0.840553 0.526016
O O5 0.112752 0.410035 0.762304
O O6 0.275063 0.606488 0.716548
O O7 0.377833 0.449142 0.896314
O O8 0.162789 0.497848 0.959025
O O9 0.941634 0.328629 0.846880
O O10 0.182449 0.212548 0.923759
O O11 0.500000 0.375065 0.500000
O O12 0.704784 0.390359 0.688177
O O13 0.778898 0.729498 0.142402
O O14 0.552286 0.257534 0.931694
#
# Coordination Sequence:
#
# PCOD8051013 Si02
#       7
#     4   4   4   4   4   2   4
#     4  11  25  48  73 103 142 184 233 297 350 422
#     4  10  24  42  67  95 139 180 227 285 342 410
#     4  10  23  41  64  99 133 184 229 279 341 409
#     4  11  27  45  71 108 137 183 239 287 358 415
#     4  11  24  41  68  98 135 181 229 287 342 412
#     4  10  24  42  62 102 138 178 228 278 344 410
#     4  10  24  39  64  96 135 180 225 279 336 405
#
# _framework density 22.230346999999998
#
# number of rings (size 3 to 8) (size 9 to 14) (size 15 to 20)
#    0.000    1.538    0.000    2.308   12.923    6.154 
#    0.000    0.000    0.000    0.000    0.000    0.000 
#    0.000    0.000    0.000    0.000    0.000    0.000 
#
# Total GULP energy -161062.551183 kJ/mol
# GULP energy per Si atom -12389.427014 kJ/mol
# Density = 2.217975 g / cm^3
# Si number density = 22.230347 Si / 1000 Ang^3
#
#
#
# Elastic Constant Matrix: (Units=GPa)
#
#
# Indices 1 2 3 4 5 6 
#
# 1 145.8432 58.2282 38.6271 0.0000 5.1707 0.0000
# 2 58.2282 110.3320 35.8937 0.0000 3.7786 0.0000
# 3 38.6271 35.8937 80.9350 0.0000 5.2082 0.0000
# 4 0.0000 0.0000 0.0000 37.0684 0.0000 -8.5872
# 5 5.1707 3.7786 5.2082 0.0000 19.3258 0.0000
# 6 0.0000 0.0000 0.0000 -8.5872 0.0000 28.7627
#
#
#
# Elastic Compliance Matrix: (Units=1/GPa)
#
#
# Indices 1 2 3 4 5 6 
#
# 1 0.009149 -0.003967 -0.002544 0.000000 -0.000987 0.000000
# 2 -0.003967 0.012325 -0.003547 0.000000 -0.000392 0.000000
# 3 -0.002544 -0.003547 0.015320 0.000000 -0.002755 0.000000
# 4 0.000000 0.000000 0.000000 0.028982 0.000000 0.008653
# 5 -0.000987 -0.000392 -0.002755 0.000000 0.052827 0.000000
# 6 0.000000 0.000000 0.000000 0.008653 0.000000 0.037351
#
#
# Mechanical properties :
#
#
# Convention : Reuss Voigt Hill
#
# Bulk Modulus (GPa) = 59.96017 66.95645 63.45831
# Shear Modulus (GPa) = 27.52863 30.65545 29.09204
#
# Velocity S-wave (km/s) = 3.52282 3.71751 3.62147
# Velocity P-wave (km/s) = 6.60134 6.97218 6.78929
#
# Compressibility (1/GPa) = 0.01667774
#
# Stress axis : x y z
#
# Youngs Moduli (GPa) = 109.29793 81.13776 65.27420
#
# Poissons Ratio (x) = 0.32190 0.16604
# Poissons Ratio (y) = 0.43361 0.23154
# Poissons Ratio (z) = 0.27802 0.28781
#
# Static dielectric constant tensor:
#      x y z
#    x 4.344610 0.000000 -0.033890 
#    y 0.000000 4.231530 0.000000 
#    z -0.033890 0.000000 3.885490 
# 
# 
# High freq. dielectric constant tensor:
#      x y z
#    x 1.890540 0.000000 -0.007490 
#    y 0.000000 1.883880 0.000000 
#    z -0.007490 0.000000 1.863220 
# 
# From -- ./inp_files/52333.got.cif
#   From: 2010.03.12/outbox.cif.g09.slc.cpg/sg5_27_cif.got.tgz:52333.got - 2010.03.31 09:47:26.
