data_PCOD8051301
_publ_section_title
;
Structure prediction by ZEFSAII (Michael W. Deem and Ramdas Pophale) SiO2 
 PCOD8051301
Probable space group: C 2
;
_chemical_formula_sum "Si O2"
_cell_formula_units_Z 30
_cell_length_a 23.631446
_cell_length_b 13.826658
_cell_length_c 8.632492
_cell_angle_alpha 90.000000
_cell_angle_beta 149.234119
_cell_angle_gamma 90.000000
_cell_volume 1442.832419
_symmetry_space_group_name_H-M "C 2"
_symmetry_group_IT_number 5
_symmetry_cell_setting 'monoclinic'
loop_
_space_group_symop_operation_xyz
x,y,z
-x,y,-z
1/2+x,1/2+y,z
1/2-x,1/2+y,-z
loop_
_atom_site_type_symbol
_atom_site_label
_atom_site_fract_x
_atom_site_fract_y
_atom_site_fract_z
Si Si1 0.259723 0.102040 0.546840
Si Si2 0.470811 0.053698 0.209393
Si Si3 0.000000 0.726023 0.500000
Si Si4 0.702233 0.976449 0.631267
Si Si5 0.102353 0.361352 0.834660
Si Si6 0.676648 0.377314 0.815698
Si Si7 0.115248 0.950506 0.355461
Si Si8 0.789363 0.320847 0.606765
O O1 0.235010 0.213773 0.507478
O O2 0.236390 0.062241 0.319021
O O3 0.184282 0.048918 0.496793
O O4 0.388122 0.072549 0.872366
O O5 0.484876 0.158957 0.315856
O O6 0.586337 0.009777 0.428160
O O7 0.413494 0.978128 0.193998
O O8 0.108509 0.790957 0.732903
O O9 0.677714 0.883859 0.464695
O O10 0.788717 0.952276 0.969948
O O11 0.000000 0.313905 0.500000
O O12 0.212739 0.334320 0.001466
O O13 0.111194 0.321620 0.032069
O O14 0.602379 0.430479 0.509153
O O15 0.178592 0.861330 0.425337
O O16 0.000000 0.962845 0.000000
#
# Coordination Sequence:
#
# PCOD8051301 Si02
#       8
#     4   4   2   4   4   4   4   4
#     4  11  24  43  67 102 132 179 232 277 342 408
#     4  12  22  42  71 101 130 173 237 287 337 398
#     4  12  28  38  72 108 132 178 238 282 348 398
#     4  11  23  41  70 100 139 171 222 295 346 398
#     4  11  21  46  69  95 140 181 221 286 350 396
#     4  11  24  43  66 101 138 178 221 288 350 406
#     4  10  24  45  63  90 140 184 216 278 347 406
#     4  10  24  44  66 100 136 178 230 278 345 412
#
# _framework density 20.792434
#
# number of rings (size 3 to 8) (size 9 to 14) (size 15 to 20)
#    0.000    1.067    6.000    1.200    9.333    0.000 
#    2.400    1.333    0.000    0.000    0.000    0.000 
#    0.000    0.000    0.000    0.000    0.000    0.000 
#
# Total GULP energy -185995.817451 kJ/mol
# GULP energy per Si atom -12399.721163 kJ/mol
# Density = 2.074511 g / cm^3
# Si number density = 20.792434 Si / 1000 Ang^3
#
#
#
# Elastic Constant Matrix: (Units=GPa)
#
#
# Indices 1 2 3 4 5 6 
#
# 1 105.8578 54.7953 44.5058 0.0000 -5.9471 0.0000
# 2 54.7953 138.1924 41.5991 0.0000 7.6738 0.0000
# 3 44.5058 41.5991 138.3666 0.0000 -9.2272 0.0000
# 4 0.0000 0.0000 0.0000 32.1167 0.0000 -1.5119
# 5 -5.9471 7.6738 -9.2272 0.0000 36.6826 0.0000
# 6 0.0000 0.0000 0.0000 -1.5119 0.0000 25.0600
#
#
#
# Elastic Compliance Matrix: (Units=1/GPa)
#
#
# Indices 1 2 3 4 5 6 
#
# 1 0.013034 -0.004492 -0.002683 0.000000 0.002378 0.000000
# 2 -0.004492 0.009701 -0.001684 0.000000 -0.003181 0.000000
# 3 -0.002683 -0.001684 0.008737 0.000000 0.002115 0.000000
# 4 0.000000 0.000000 0.000000 0.031225 0.000000 0.001884
# 5 0.002378 -0.003181 0.002115 0.000000 0.028844 0.000000
# 6 0.000000 0.000000 0.000000 0.001884 0.000000 0.040018
#
#
# Mechanical properties :
#
#
# Convention : Reuss Voigt Hill
#
# Bulk Modulus (GPa) = 72.70759 73.80193 73.25476
# Shear Modulus (GPa) = 32.49657 34.87295 33.68476
#
# Velocity S-wave (km/s) = 3.95765 4.09980 4.02935
# Velocity P-wave (km/s) = 7.47851 7.61464 7.54689
#
# Compressibility (1/GPa) = 0.01375372
#
# Stress axis : x y z
#
# Youngs Moduli (GPa) = 76.72415 103.08105 114.44977
#
# Poissons Ratio (x) = 0.46308 0.30708
# Poissons Ratio (y) = 0.34468 0.19270
# Poissons Ratio (z) = 0.20586 0.17356
#
# Static dielectric constant tensor:
#      x y z
#    x 3.807750 0.000000 -0.192380 
#    y 0.000000 3.592180 0.000000 
#    z -0.192380 0.000000 4.072630 
# 
# 
# High freq. dielectric constant tensor:
#      x y z
#    x 1.814620 0.000000 -0.013490 
#    y 0.000000 1.796210 0.000000 
#    z -0.013490 0.000000 1.825980 
# 
# From -- ./inp_files/31026.got.cif
#   From: 2010.03.12/outbox.cif.g09.slc.cpg/sg5_16_cif.got.tgz:31026.got - 2010.03.31 09:47:26.
