data_PCOD8051077
_publ_section_title
;
Structure prediction by ZEFSAII (Michael W. Deem and Ramdas Pophale) SiO2 
 PCOD8051077
Probable space group: C 2
;
_chemical_formula_sum "Si O2"
_cell_formula_units_Z 22
_cell_length_a 15.546960
_cell_length_b 8.252282
_cell_length_c 7.546335
_cell_angle_alpha 90.000000
_cell_angle_beta 97.577544
_cell_angle_gamma 90.000000
_cell_volume 959.724103
_symmetry_space_group_name_H-M "C 2"
_symmetry_group_IT_number 5
_symmetry_cell_setting 'monoclinic'
loop_
_space_group_symop_operation_xyz
x,y,z
-x,y,-z
1/2+x,1/2+y,z
1/2-x,1/2+y,-z
loop_
_atom_site_type_symbol
_atom_site_label
_atom_site_fract_x
_atom_site_fract_y
_atom_site_fract_z
Si Si1 0.826884 0.122700 0.114049
Si Si2 0.666426 0.347056 0.167996
Si Si3 0.049371 0.392552 0.781534
Si Si4 0.000000 0.674030 0.000000
Si Si5 0.298514 0.529170 0.474864
Si Si6 0.130595 0.366142 0.423425
O O1 0.737231 0.216251 0.127871
O O2 0.904269 0.250135 0.094117
O O3 0.850860 0.021343 0.301392
O O4 0.816882 0.006874 0.944595
O O5 0.676681 0.388599 0.379193
O O6 0.568197 0.286542 0.120499
O O7 0.096025 0.406581 0.607874
O O8 0.056738 0.563891 0.882187
O O9 0.947164 0.354499 0.737213
O O10 0.196621 0.511154 0.394018
O O11 0.316280 0.699873 0.572929
#
# Coordination Sequence:
#
# PCOD8051077 Si02
#       6
#     4   4   4   2   4   4
#     4  11  26  46  73 101 139 182 230 282 347 406
#     4  12  27  45  69 105 138 183 232 282 342 413
#     4  10  23  46  67  98 139 178 226 281 346 405
#     4  12  28  44  66 104 142 178 232 286 344 398
#     4  11  23  45  70 100 137 177 228 279 345 402
#     4  10  23  42  73  97 132 182 227 275 349 403
#
# _framework density 22.923255000000001
#
# number of rings (size 3 to 8) (size 9 to 14) (size 15 to 20)
#    0.000    1.091    3.636    2.182    7.636    0.000 
#    3.273    0.000    0.000    0.000    0.000    0.000 
#    0.000    0.000    0.000    0.000    0.000    0.000 
#
# Total GULP energy -136387.221952 kJ/mol
# GULP energy per Si atom -12398.838359 kJ/mol
# Density = 2.287108 g / cm^3
# Si number density = 22.923255 Si / 1000 Ang^3
#
#
#
# Elastic Constant Matrix: (Units=GPa)
#
#
# Indices 1 2 3 4 5 6 
#
# 1 128.6201 51.4722 21.5571 0.0000 16.9476 0.0000
# 2 51.4722 86.8162 30.4866 0.0000 -3.7692 0.0000
# 3 21.5571 30.4866 81.9581 0.0000 2.1217 0.0000
# 4 0.0000 0.0000 0.0000 39.5405 0.0000 -7.0745
# 5 16.9476 -3.7692 2.1217 0.0000 28.5143 0.0000
# 6 0.0000 0.0000 0.0000 -7.0745 0.0000 54.3734
#
#
#
# Elastic Compliance Matrix: (Units=1/GPa)
#
#
# Indices 1 2 3 4 5 6 
#
# 1 0.011750 -0.007244 -0.000191 0.000000 -0.007927 0.000000
# 2 -0.007244 0.017844 -0.004914 0.000000 0.007030 0.000000
# 3 -0.000191 -0.004914 0.014121 0.000000 -0.001587 0.000000
# 4 0.000000 0.000000 0.000000 0.025893 0.000000 0.003369
# 5 -0.007927 0.007030 -0.001587 0.000000 0.040829 0.000000
# 6 0.000000 0.000000 0.000000 0.003369 0.000000 0.018830
#
#
# Mechanical properties :
#
#
# Convention : Reuss Voigt Hill
#
# Bulk Modulus (GPa) = 52.58393 56.04736 54.31564
# Shear Modulus (GPa) = 31.19079 37.41089 34.30084
#
# Velocity S-wave (km/s) = 3.69272 4.04419 3.87244
# Velocity P-wave (km/s) = 6.41642 6.80517 6.61365
#
# Compressibility (1/GPa) = 0.01901722
#
# Stress axis : x y z
#
# Youngs Moduli (GPa) = 85.10534 56.04064 70.81803
#
# Poissons Ratio (x) = 0.40594 0.01352
# Poissons Ratio (y) = 0.61647 0.34803
# Poissons Ratio (z) = 0.01625 0.27540
#
# Static dielectric constant tensor:
#      x y z
#    x 4.257220 0.000000 0.250650 
#    y 0.000000 4.136460 0.000000 
#    z 0.250650 0.000000 4.264010 
# 
# 
# High freq. dielectric constant tensor:
#      x y z
#    x 1.906270 0.000000 0.011330 
#    y 0.000000 1.904230 0.000000 
#    z 0.011330 0.000000 1.914490 
# 
# From -- ./inp_files/22738.got.cif
#   From: 2010.03.12/outbox.cif.g09.slc.cpg/sg5_12_cif.got.tgz:22738.got - 2010.03.31 09:47:26.
