data_PCOD8051970
_publ_section_title
;
Structure prediction by ZEFSAII (Michael W. Deem and Ramdas Pophale) SiO2 
 PCOD8051970
Probable space group: C 2
;
_chemical_formula_sum "Si O2"
_cell_formula_units_Z 24
_cell_length_a 13.560807
_cell_length_b 6.462061
_cell_length_c 15.485204
_cell_angle_alpha 90.000000
_cell_angle_beta 49.430017
_cell_angle_gamma 90.000000
_cell_volume 1030.778655
_symmetry_space_group_name_H-M "C 2"
_symmetry_group_IT_number 5
_symmetry_cell_setting 'monoclinic'
loop_
_space_group_symop_operation_xyz
x,y,z
-x,y,-z
1/2+x,1/2+y,z
1/2-x,1/2+y,-z
loop_
_atom_site_type_symbol
_atom_site_label
_atom_site_fract_x
_atom_site_fract_y
_atom_site_fract_z
Si Si1 0.938105 0.172410 0.894330
Si Si2 0.000000 0.772979 0.500000
Si Si3 0.697110 0.327788 0.924662
Si Si4 0.139580 0.412189 0.326426
Si Si5 0.406184 0.765323 0.348344
Si Si6 0.288129 0.586910 0.568922
Si Si7 0.000000 0.485485 0.000000
O O1 0.807523 0.270236 0.930019
O O2 0.008919 0.344116 0.910839
O O3 0.039373 0.119112 0.759566
O O4 0.909097 0.968861 0.966562
O O5 0.909009 0.634325 0.613736
O O6 0.902730 0.919180 0.504199
O O7 0.753167 0.449471 0.809420
O O8 0.630123 0.120923 0.928450
O O9 0.019040 0.293296 0.354032
O O10 0.195488 0.272749 0.372193
O O11 0.287984 0.665652 0.469380
O O12 0.352559 0.979570 0.337269
#
# Coordination Sequence:
#
# PCOD8051970 Si02
#       7
#     4   2   4   4   4   4   2
#     4  11  25  47  70 105 141 185 237 294 348 421
#     4  12  22  42  70 100 142 184 226 290 356 404
#     4  11  25  45  74 101 143 187 237 291 350 417
#     4  11  24  46  68 104 141 186 235 290 347 420
#     4  11  24  45  70 102 141 179 239 287 350 420
#     4  12  24  46  69 104 141 187 231 289 357 418
#     4  12  24  48  72 100 138 192 234 282 364 408
#
# _framework density 23.283367999999999
#
# number of rings (size 3 to 8) (size 9 to 14) (size 15 to 20)
#    0.000    0.667    5.000    2.500    0.000    5.333 
#    3.000    0.000    0.000    0.000    0.000    0.000 
#    0.000    0.000    0.000    0.000    0.000    0.000 
#
# Total GULP energy -148808.467668 kJ/mol
# GULP energy per Si atom -12400.705639 kJ/mol
# Density = 2.323037 g / cm^3
# Si number density = 23.283368 Si / 1000 Ang^3
#
#
#
# Elastic Constant Matrix: (Units=GPa)
#
#
# Indices 1 2 3 4 5 6 
#
# 1 77.9745 21.3643 38.1502 0.0000 20.0380 0.0002
# 2 21.3643 78.2691 34.1387 0.0001 17.4313 0.0003
# 3 38.1502 34.1387 118.2155 0.0000 8.3926 0.0000
# 4 0.0000 0.0001 0.0000 35.4256 0.0000 -2.4549
# 5 20.0380 17.4313 8.3926 0.0000 25.6137 0.0000
# 6 0.0002 0.0003 0.0000 -2.4549 0.0000 45.7435
#
#
#
# Elastic Compliance Matrix: (Units=1/GPa)
#
#
# Indices 1 2 3 4 5 6 
#
# 1 0.018636 0.000015 -0.005102 0.000000 -0.012918 0.000000
# 2 0.000015 0.016833 -0.004148 0.000000 -0.010108 0.000000
# 3 -0.005102 -0.004148 0.011077 0.000000 0.003185 0.000000
# 4 0.000000 0.000000 0.000000 0.028334 0.000000 0.001521
# 5 -0.012918 -0.010108 0.003185 0.000000 0.054983 0.000000
# 6 0.000000 0.000000 0.000000 0.001521 0.000000 0.021943
#
#
# Mechanical properties :
#
#
# Convention : Reuss Voigt Hill
#
# Bulk Modulus (GPa) = 35.61611 51.30727 43.46169
# Shear Modulus (GPa) = 27.83429 33.41028 30.62228
#
# Velocity S-wave (km/s) = 3.46129 3.79217 3.63050
# Velocity P-wave (km/s) = 5.59500 6.42324 6.02337
#
# Compressibility (1/GPa) = 0.02807718
#
# Stress axis : x y z
#
# Youngs Moduli (GPa) = 53.65874 59.40756 90.27412
#
# Poissons Ratio (x) = -0.00090 0.46054
# Poissons Ratio (y) = -0.00082 0.37449
# Poissons Ratio (z) = 0.27374 0.24644
#
# Static dielectric constant tensor:
#      x y z
#    x 4.352240 0.000000 0.087690 
#    y 0.000000 4.111670 0.000000 
#    z 0.087690 0.000000 4.306340 
# 
# 
# High freq. dielectric constant tensor:
#      x y z
#    x 1.939190 0.000000 0.007910 
#    y 0.000000 1.912230 0.000000 
#    z 0.007910 0.000000 1.925660 
# 
# From -- ./inp_files/53771.got.cif
#   From: 2010.03.12/outbox.cif.g09.slc.cpg/sg5_27_cif.got.tgz:53771.got - 2010.03.31 09:47:26.
