data_PCOD8051187
_publ_section_title
;
Structure prediction by ZEFSAII (Michael W. Deem and Ramdas Pophale) SiO2 
 PCOD8051187
Probable space group: C 2
;
_chemical_formula_sum "Si O2"
_cell_formula_units_Z 18
_cell_length_a 5.335563
_cell_length_b 24.660877
_cell_length_c 5.318314
_cell_angle_alpha 90.000000
_cell_angle_beta 89.285633
_cell_angle_gamma 90.000000
_cell_volume 699.727572
_symmetry_space_group_name_H-M "C 2"
_symmetry_group_IT_number 5
_symmetry_cell_setting 'monoclinic'
loop_
_space_group_symop_operation_xyz
x,y,z
-x,y,-z
1/2+x,1/2+y,z
1/2-x,1/2+y,-z
loop_
_atom_site_type_symbol
_atom_site_label
_atom_site_fract_x
_atom_site_fract_y
_atom_site_fract_z
Si Si1 0.347597 0.645320 0.247230
Si Si2 0.751922 0.530073 0.657909
Si Si3 0.154777 0.415581 0.238156
Si Si4 0.240039 0.760388 0.157082
Si Si5 0.500000 0.339223 0.500000
O O1 0.500000 0.638866 0.500000
O O2 0.211534 0.587581 0.196115
O O3 0.182315 0.699788 0.271016
O O4 0.500000 0.659028 0.000000
O O5 0.500000 0.531268 0.500000
O O6 0.744313 0.476546 0.833761
O O7 0.000000 0.523008 0.500000
O O8 0.392517 0.376676 0.276538
O O9 0.000000 0.415812 0.500000
O O10 0.000000 0.393680 0.000000
O O11 0.230372 0.802255 0.391281
O O12 0.500000 0.766423 0.000000
O O13 0.000000 0.776771 0.000000
#
# Coordination Sequence:
#
# PCOD8051187 Si02
#       5
#     4   4   4   4   2
#     4  10  25  48  79 115 158 200 259 326 399 476
#     4  10  23  48  79 114 159 203 259 330 399 478
#     4  11  28  50  78 116 159 211 271 331 403 478
#     4  11  30  50  79 116 157 212 270 330 401 478
#     4  12  30  50  82 112 170 212 278 332 402 484
#
# _framework density 25.724298999999998
#
# number of rings (size 3 to 8) (size 9 to 14) (size 15 to 20)
#    0.000    1.333    1.111    0.000   14.000   11.556 
#    0.000    0.000    0.000    0.000    0.000    0.000 
#    0.000    0.000    0.000    0.000    0.000    0.000 
#
# Total GULP energy -111497.960747 kJ/mol
# GULP energy per Si atom -12388.662305 kJ/mol
# Density = 2.566575 g / cm^3
# Si number density = 25.724299 Si / 1000 Ang^3
#
#
#
# Elastic Constant Matrix: (Units=GPa)
#
#
# Indices 1 2 3 4 5 6 
#
# 1 138.7943 46.9893 37.4812 0.0000 4.4478 0.0000
# 2 46.9893 244.6327 46.1562 0.0000 -1.4364 0.0000
# 3 37.4812 46.1562 126.2677 0.0000 12.3545 0.0000
# 4 0.0000 0.0000 0.0000 15.8472 0.0000 -0.9027
# 5 4.4478 -1.4364 12.3545 0.0000 40.2092 0.0000
# 6 0.0000 0.0000 0.0000 -0.9027 0.0000 37.3656
#
#
#
# Elastic Compliance Matrix: (Units=1/GPa)
#
#
# Indices 1 2 3 4 5 6 
#
# 1 0.008148 -0.001200 -0.001946 0.000000 -0.000346 0.000000
# 2 -0.001200 0.004585 -0.001391 0.000000 0.000724 0.000000
# 3 -0.001946 -0.001391 0.009268 0.000000 -0.002682 0.000000
# 4 0.000000 0.000000 0.000000 0.063190 0.000000 0.001527
# 5 -0.000346 0.000724 -0.002682 0.000000 0.025758 0.000000
# 6 0.000000 0.000000 0.000000 0.001527 0.000000 0.026799
#
#
# Mechanical properties :
#
#
# Convention : Reuss Voigt Hill
#
# Bulk Modulus (GPa) = 77.35409 85.66090 81.50750
# Shear Modulus (GPa) = 33.08399 43.95559 38.51979
#
# Velocity S-wave (km/s) = 3.59011 4.13815 3.87383
# Velocity P-wave (km/s) = 6.87902 7.49695 7.19462
#
# Compressibility (1/GPa) = 0.01292756
#
# Stress axis : x y z
#
# Youngs Moduli (GPa) = 122.73307 218.10927 107.89688
#
# Poissons Ratio (x) = 0.26171 0.20998
# Poissons Ratio (y) = 0.14727 0.15004
# Poissons Ratio (z) = 0.23885 0.30330
#
# Static dielectric constant tensor:
#      x y z
#    x 4.347020 0.000000 -0.062710 
#    y 0.000000 6.474880 0.000000 
#    z -0.062710 0.000000 4.393060 
# 
# 
# High freq. dielectric constant tensor:
#      x y z
#    x 2.009560 0.000000 -0.000710 
#    y 0.000000 2.078770 0.000000 
#    z -0.000710 0.000000 2.010110 
# 
# From -- ./inp_files/893.got.cif
#   From: 2010.03.12/outbox.cif.g09.slc.cpg/sg5_1_cif.got.tgz:893.got - 2010.03.31 09:47:26.
