data_PCOD8051126
_publ_section_title
;
Structure prediction by ZEFSAII (Michael W. Deem and Ramdas Pophale) SiO2 
 PCOD8051126
Probable space group: C 2
;
_chemical_formula_sum "Si O2"
_cell_formula_units_Z 18
_cell_length_a 5.189540
_cell_length_b 22.728341
_cell_length_c 6.762264
_cell_angle_alpha 90.000000
_cell_angle_beta 84.893912
_cell_angle_gamma 90.000000
_cell_volume 794.441358
_symmetry_space_group_name_H-M "C 2"
_symmetry_group_IT_number 5
_symmetry_cell_setting 'monoclinic'
loop_
_space_group_symop_operation_xyz
x,y,z
-x,y,-z
1/2+x,1/2+y,z
1/2-x,1/2+y,-z
loop_
_atom_site_type_symbol
_atom_site_label
_atom_site_fract_x
_atom_site_fract_y
_atom_site_fract_z
Si Si1 0.757754 0.521500 0.872278
Si Si2 0.271408 0.203086 0.385301
Si Si3 0.757671 0.305125 0.878162
Si Si4 0.500000 0.090529 0.500000
Si Si5 0.256550 0.413134 0.374961
O O1 0.704493 0.453424 0.822397
O O2 0.813833 0.553983 0.658568
O O3 0.500000 0.546550 0.000000
O O4 0.000000 0.528593 0.000000
O O5 0.500000 0.232668 0.500000
O O6 0.270235 0.235891 0.174404
O O7 0.323079 0.132696 0.369274
O O8 0.000000 0.217385 0.500000
O O9 0.788731 0.345409 0.682178
O O10 0.500000 0.327487 0.000000
O O11 0.000000 0.315323 0.000000
O O12 0.500000 0.420391 0.500000
O O13 0.000000 0.436686 0.500000
#
# Coordination Sequence:
#
# PCOD8051126 Si02
#       5
#     4   4   4   2   4
#     4  12  27  46  74 109 143 190 244 295 359 425
#     4  10  23  44  67  92 137 185 237 275 357 415
#     4  12  24  42  68 106 142 174 238 298 351 428
#     4  10  28  48  74 100 154 188 248 290 356 422
#     4  12  24  44  75 100 144 188 230 293 369 425
#
# _framework density 22.657433999999999
#
# number of rings (size 3 to 8) (size 9 to 14) (size 15 to 20)
#    0.667    0.000    1.111    6.667    3.111    0.889 
#    0.000    0.000    0.000    0.000    0.000    0.000 
#    0.000    0.000    0.000    0.000    0.000    0.000 
#
# Total GULP energy -111576.462930 kJ/mol
# GULP energy per Si atom -12397.384770 kJ/mol
# Density = 2.260587 g / cm^3
# Si number density = 22.657434 Si / 1000 Ang^3
#
#
#
# Elastic Constant Matrix: (Units=GPa)
#
#
# Indices 1 2 3 4 5 6 
#
# 1 208.3274 29.7699 62.3398 0.0000 -1.5764 0.0000
# 2 29.7699 103.6816 44.8849 0.0000 -2.7942 0.0000
# 3 62.3398 44.8849 101.5135 0.0000 -15.5855 0.0000
# 4 0.0000 0.0000 0.0000 54.0155 0.0000 10.8675
# 5 -1.5764 -2.7942 -15.5855 0.0000 42.1442 0.0000
# 6 0.0000 0.0000 0.0000 10.8675 0.0000 53.5564
#
#
#
# Elastic Compliance Matrix: (Units=1/GPa)
#
#
# Indices 1 2 3 4 5 6 
#
# 1 0.005938 -0.000098 -0.003785 0.000000 -0.001184 0.000000
# 2 -0.000098 0.011990 -0.005428 0.000000 -0.001216 0.000000
# 3 -0.003785 -0.005428 0.015371 0.000000 0.005183 0.000000
# 4 0.000000 0.000000 0.000000 0.019301 0.000000 -0.003917
# 5 -0.001184 -0.001216 0.005183 0.000000 0.025520 0.000000
# 6 0.000000 0.000000 0.000000 -0.003917 0.000000 0.019467
#
#
# Mechanical properties :
#
#
# Convention : Reuss Voigt Hill
#
# Bulk Modulus (GPa) = 68.13411 76.39019 72.26215
# Shear Modulus (GPa) = 41.28803 48.37840 44.83322
#
# Velocity S-wave (km/s) = 4.27344 4.62585 4.45313
# Velocity P-wave (km/s) = 7.38149 7.89429 7.64219
#
# Compressibility (1/GPa) = 0.01467694
#
# Stress axis : x y z
#
# Youngs Moduli (GPa) = 168.41345 83.40180 65.05848
#
# Poissons Ratio (x) = 0.00820 0.24623
# Poissons Ratio (y) = 0.01657 0.35313
# Poissons Ratio (z) = 0.63739 0.45269
#
# Static dielectric constant tensor:
#      x y z
#    x 4.066070 0.000000 -0.063340 
#    y 0.000000 3.964160 0.000000 
#    z -0.063340 0.000000 3.736760 
# 
# 
# High freq. dielectric constant tensor:
#      x y z
#    x 1.910100 0.000000 -0.007220 
#    y 0.000000 1.894920 0.000000 
#    z -0.007220 0.000000 1.884040 
# 
# From -- ./inp_files/849.got.cif
#   From: 2010.03.12/outbox.cif.g09.slc.cpg/sg5_1_cif.got.tgz:849.got - 2010.03.31 09:47:26.
