data_PCOD8051618
_publ_section_title
;
Structure prediction by ZEFSAII (Michael W. Deem and Ramdas Pophale) SiO2 
 PCOD8051618
Probable space group: C 2
;
_chemical_formula_sum "Si O2"
_cell_formula_units_Z 18
_cell_length_a 10.436251
_cell_length_b 16.937335
_cell_length_c 7.379536
_cell_angle_alpha 90.000000
_cell_angle_beta 134.999914
_cell_angle_gamma 90.000000
_cell_volume 922.368160
_symmetry_space_group_name_H-M "C 2"
_symmetry_group_IT_number 5
_symmetry_cell_setting 'monoclinic'
loop_
_space_group_symop_operation_xyz
x,y,z
-x,y,-z
1/2+x,1/2+y,z
1/2-x,1/2+y,-z
loop_
_atom_site_type_symbol
_atom_site_label
_atom_site_fract_x
_atom_site_fract_y
_atom_site_fract_z
Si Si1 0.703338 0.078980 0.219241
Si Si2 0.015904 0.329636 0.812566
Si Si3 0.196482 0.960324 0.978605
Si Si4 0.000000 0.204308 0.500000
Si Si5 0.717877 0.448292 0.414359
O O1 0.831696 0.151706 0.397470
O O2 0.701432 0.015425 0.377458
O O3 0.500000 0.111622 0.000000
O O4 0.774103 0.040801 0.102849
O O5 0.176026 0.393191 0.974596
O O6 0.065774 0.256910 0.734079
O O7 0.828746 0.367815 0.554643
O O8 0.000000 0.296994 0.000000
O O9 0.242789 0.977610 0.233551
O O10 0.990762 0.931006 0.747974
#
# Coordination Sequence:
#
# PCOD8051618 Si02
#       5
#     4   4   4   2   4
#     4  12  24  42  68  98 134 173 218 274 330 385
#     4  12  24  42  68  98 134 173 218 274 330 385
#     4  11  21  38  70 100 123 173 226 262 316 405
#     4  12  28  44  60 104 148 162 212 292 336 368
#     4  11  21  38  70 100 123 173 226 262 316 405
#
# _framework density 19.514983999999998
#
# number of rings (size 3 to 8) (size 9 to 14) (size 15 to 20)
#    0.000    0.444    8.889    0.000    0.000    3.556 
#    0.000    0.000    0.000    0.000    0.000    0.000 
#    0.000    0.000    0.000    0.000    0.000    0.000 
#
# Total GULP energy -111663.982697 kJ/mol
# GULP energy per Si atom -12407.109189 kJ/mol
# Density = 1.947057 g / cm^3
# Si number density = 19.514984 Si / 1000 Ang^3
#
#
#
# Elastic Constant Matrix: (Units=GPa)
#
#
# Indices 1 2 3 4 5 6 
#
# 1 75.7657 11.3361 16.7143 0.0000 -5.8581 0.0000
# 2 11.3361 67.6129 11.3359 0.0000 0.0001 0.0000
# 3 16.7143 11.3359 75.7658 0.0000 5.8589 0.0000
# 4 0.0000 0.0000 0.0000 21.6563 0.0000 -0.0001
# 5 -5.8581 0.0001 5.8589 0.0000 54.1586 0.0000
# 6 0.0000 0.0000 0.0000 -0.0001 0.0000 21.6562
#
#
#
# Elastic Compliance Matrix: (Units=1/GPa)
#
#
# Indices 1 2 3 4 5 6 
#
# 1 0.014291 -0.001891 -0.003015 0.000000 0.001872 0.000000
# 2 -0.001891 0.015424 -0.001891 0.000000 0.000000 0.000000
# 3 -0.003015 -0.001891 0.014291 0.000000 -0.001872 0.000000
# 4 0.000000 0.000000 0.000000 0.046176 0.000000 0.000000
# 5 0.001872 0.000000 -0.001872 0.000000 0.018869 0.000000
# 6 0.000000 0.000000 0.000000 0.000000 0.000000 0.046176
#
#
# Mechanical properties :
#
#
# Convention : Reuss Voigt Hill
#
# Bulk Modulus (GPa) = 32.87879 33.10190 32.99035
# Shear Modulus (GPa) = 27.93952 31.47807 29.70880
#
# Velocity S-wave (km/s) = 3.78788 4.02060 3.90597
# Velocity P-wave (km/s) = 6.00127 6.20909 6.10606
#
# Compressibility (1/GPa) = 0.03041474
#
# Stress axis : x y z
#
# Youngs Moduli (GPa) = 69.97290 64.83378 69.97292
#
# Poissons Ratio (x) = 0.12258 0.21094
# Poissons Ratio (y) = 0.13230 0.13229
# Poissons Ratio (z) = 0.21094 0.12258
#
# Static dielectric constant tensor:
#      x y z
#    x 3.778350 0.000000 0.000020 
#    y 0.000000 3.319750 0.000000 
#    z 0.000020 0.000000 3.778360 
# 
# 
# High freq. dielectric constant tensor:
#      x y z
#    x 1.778460 0.000000 0.000000 
#    y 0.000000 1.733380 0.000000 
#    z 0.000000 0.000000 1.778460 
# 
# From -- ./inp_files/21101.got.cif
#   From: 2010.03.12/outbox.cif.g09.slc.cpg/sg5_11_cif.got.tgz:21101.got - 2010.03.31 09:47:26.
