data_PCOD8051363
_publ_section_title
;
Structure prediction by ZEFSAII (Michael W. Deem and Ramdas Pophale) SiO2 
 PCOD8051363
Probable space group: C 2
;
_chemical_formula_sum "Si O2"
_cell_formula_units_Z 26
_cell_length_a 20.327995
_cell_length_b 5.560137
_cell_length_c 12.029106
_cell_angle_alpha 90.000000
_cell_angle_beta 58.167265
_cell_angle_gamma 90.000000
_cell_volume 1155.110527
_symmetry_space_group_name_H-M "C 2"
_symmetry_group_IT_number 5
_symmetry_cell_setting 'monoclinic'
loop_
_space_group_symop_operation_xyz
x,y,z
-x,y,-z
1/2+x,1/2+y,z
1/2-x,1/2+y,-z
loop_
_atom_site_type_symbol
_atom_site_label
_atom_site_fract_x
_atom_site_fract_y
_atom_site_fract_z
Si Si1 0.401023 0.949480 0.821899
Si Si2 0.206166 0.586858 0.268429
Si Si3 0.282288 0.203682 0.340065
Si Si4 0.987421 0.937372 0.765317
Si Si5 0.650188 0.877627 0.897898
Si Si6 0.500000 0.555908 0.000000
Si Si7 0.143039 0.873715 0.509795
O O1 0.440977 0.687059 0.789233
O O2 0.334989 0.922044 0.786874
O O3 0.450900 0.189488 0.750164
O O4 0.366117 0.014391 0.972780
O O5 0.266593 0.456573 0.296563
O O6 0.265259 0.764780 0.154416
O O7 0.138644 0.712353 0.402120
O O8 0.321362 0.213712 0.424411
O O9 0.342869 0.059875 0.210284
O O10 0.197945 0.092753 0.429951
O O11 0.062135 0.980107 0.622265
O O12 0.004512 0.898945 0.882159
O O13 0.578733 0.707099 0.931120
#
# Coordination Sequence:
#
# PCOD8051363 Si02
#       7
#     4   4   4   4   4   2   4
#     4  11  29  48  72 110 144 192 239 286 371 428
#     4  11  26  47  71 103 143 193 239 297 351 435
#     4  11  24  43  73 104 138 188 244 299 357 420
#     4  11  28  47  74 107 146 191 237 301 353 434
#     4  10  26  43  75 105 142 184 238 302 359 429
#     4  10  24  46  72 110 142 182 238 304 368 412
#     4  11  25  44  72 104 140 189 246 296 358 418
#
# _framework density 22.508669999999999
#
# number of rings (size 3 to 8) (size 9 to 14) (size 15 to 20)
#    0.000    1.231    1.538    0.923   21.538    1.231 
#    0.000    0.000    0.000    0.000    0.000    0.000 
#    0.000    0.000    0.000    0.000    0.000    0.000 
#
# Total GULP energy -161116.132310 kJ/mol
# GULP energy per Si atom -12393.548639 kJ/mol
# Density = 2.245744 g / cm^3
# Si number density = 22.508670 Si / 1000 Ang^3
#
#
#
# Elastic Constant Matrix: (Units=GPa)
#
#
# Indices 1 2 3 4 5 6 
#
# 1 90.0662 19.9165 39.1953 -0.0006 10.0442 -0.0011
# 2 19.9165 87.9448 16.2580 0.0004 -2.8303 0.0004
# 3 39.1953 16.2580 111.1582 -0.0010 -19.9731 -0.0015
# 4 -0.0006 0.0004 -0.0010 28.7779 0.0002 6.0529
# 5 10.0442 -2.8303 -19.9731 0.0002 33.4978 0.0003
# 6 -0.0011 0.0004 -0.0015 6.0529 0.0003 26.1167
#
#
#
# Elastic Compliance Matrix: (Units=1/GPa)
#
#
# Indices 1 2 3 4 5 6 
#
# 1 0.015588 -0.002575 -0.006719 0.000000 -0.008898 0.000000
# 2 -0.002575 0.012112 -0.000606 0.000000 0.001434 0.000000
# 3 -0.006719 -0.000606 0.013223 0.000000 0.009848 0.000000
# 4 0.000000 0.000000 0.000000 0.036530 0.000000 -0.008466
# 5 -0.008898 0.001434 0.009848 0.000000 0.038514 0.000000
# 6 0.000000 0.000000 0.000000 -0.008466 0.000000 0.040252
#
#
# Mechanical properties :
#
#
# Convention : Reuss Voigt Hill
#
# Bulk Modulus (GPa) = 47.33712 48.87877 48.10795
# Shear Modulus (GPa) = 27.31352 31.93177 29.62264
#
# Velocity S-wave (km/s) = 3.48726 3.77057 3.63168
# Velocity P-wave (km/s) = 6.10663 6.38114 6.24540
#
# Compressibility (1/GPa) = 0.02112507
#
# Stress axis : x y z
#
# Youngs Moduli (GPa) = 64.14997 82.56276 75.62334
#
# Poissons Ratio (x) = 0.21256 0.50810
# Poissons Ratio (y) = 0.16516 0.04583
# Poissons Ratio (z) = 0.43101 0.05004
#
# Static dielectric constant tensor:
#      x y z
#    x 3.950630 0.000000 0.048150 
#    y 0.000000 3.893340 0.000000 
#    z 0.048150 0.000000 4.413850 
# 
# 
# High freq. dielectric constant tensor:
#      x y z
#    x 1.879490 0.000000 -0.000630 
#    y 0.000000 1.881510 0.000000 
#    z -0.000630 0.000000 1.912170 
# 
# From -- ./inp_files/45585.got.cif
#   From: 2010.03.12/outbox.cif.g09.slc.cpg/sg5_23_cif.got.tgz:45585.got - 2010.03.31 09:47:26.
