data_PCOD8051499
_publ_section_title
;
Structure prediction by ZEFSAII (Michael W. Deem and Ramdas Pophale) SiO2 
 PCOD8051499
Probable space group: C 2
;
_chemical_formula_sum "Si O2"
_cell_formula_units_Z 26
_cell_length_a 15.611413
_cell_length_b 8.501390
_cell_length_c 10.522815
_cell_angle_alpha 90.000000
_cell_angle_beta 55.759513
_cell_angle_gamma 90.000000
_cell_volume 1154.524599
_symmetry_space_group_name_H-M "C 2"
_symmetry_group_IT_number 5
_symmetry_cell_setting 'monoclinic'
loop_
_space_group_symop_operation_xyz
x,y,z
-x,y,-z
1/2+x,1/2+y,z
1/2-x,1/2+y,-z
loop_
_atom_site_type_symbol
_atom_site_label
_atom_site_fract_x
_atom_site_fract_y
_atom_site_fract_z
Si Si1 0.933316 0.282810 0.280817
Si Si2 0.245919 0.385342 0.899684
Si Si3 0.218431 0.018794 0.872334
Si Si4 0.768516 0.290279 0.626401
Si Si5 0.593649 0.076567 0.842293
Si Si6 0.000000 0.074653 0.000000
Si Si7 0.419624 0.588723 0.665185
O O1 0.820326 0.291196 0.443820
O O2 0.957811 0.461008 0.219148
O O3 0.931836 0.177206 0.156104
O O4 0.023296 0.216191 0.294446
O O5 0.166740 0.475203 0.874500
O O6 0.363871 0.447173 0.784618
O O7 0.241207 0.201315 0.875871
O O8 0.222364 0.417513 0.068350
O O9 0.260448 0.962708 0.698687
O O10 0.093815 0.979672 0.988082
O O11 0.653445 0.214989 0.717656
O O12 0.833360 0.180713 0.662461
O O13 0.500000 0.154456 0.000000
O O14 0.500000 0.510338 0.500000
#
# Coordination Sequence:
#
# PCOD8051499 Si02
#       7
#     4   4   4   4   4   2   4
#     4  11  21  43  70  97 137 183 224 282 348 412
#     4  11  22  41  71  94 139 176 237 279 342 409
#     4  12  25  44  69 103 132 184 233 291 341 415
#     4  10  26  41  66  98 143 176 236 280 345 407
#     4  11  23  40  68  99 132 182 226 278 342 408
#     4  12  24  42  72  98 138 180 226 278 356 402
#     4   9  20  43  67  97 136 187 223 285 348 409
#
# _framework density 22.520092000000002
#
# number of rings (size 3 to 8) (size 9 to 14) (size 15 to 20)
#    0.000    1.231    3.846    1.846    5.385    0.000 
#    0.000    2.308    0.000    0.000    0.000    0.000 
#    0.000    0.000    0.000    0.000    0.000    0.000 
#
# Total GULP energy -161099.245835 kJ/mol
# GULP energy per Si atom -12392.249680 kJ/mol
# Density = 2.246883 g / cm^3
# Si number density = 22.520092 Si / 1000 Ang^3
#
#
#
# Elastic Constant Matrix: (Units=GPa)
#
#
# Indices 1 2 3 4 5 6 
#
# 1 52.0966 12.0533 28.9093 0.0000 -5.2147 0.0000
# 2 12.0533 57.8193 28.3858 0.0000 -3.6334 0.0000
# 3 28.9093 28.3858 159.7563 0.0000 -9.7680 0.0000
# 4 0.0000 0.0000 0.0000 -0.6475 0.0000 19.6837
# 5 -5.2147 -3.6334 -9.7680 0.0000 37.4821 0.0000
# 6 0.0000 0.0000 0.0000 19.6837 0.0000 12.1432
#
#
#
# Elastic Compliance Matrix: (Units=1/GPa)
#
#
# Indices 1 2 3 4 5 6 
#
# 1 0.021891 -0.002801 -0.003347 0.000000 0.001902 0.000000
# 2 -0.002801 0.019342 -0.002885 0.000000 0.000733 0.000000
# 3 -0.003347 -0.002885 0.007451 0.000000 0.001196 0.000000
# 4 0.000000 0.000000 0.000000 -0.030718 0.000000 0.049793
# 5 0.001902 0.000733 0.001196 0.000000 0.027327 0.000000
# 6 0.000000 0.000000 0.000000 0.049793 0.000000 0.001638
#
#
# Mechanical properties :
#
#
# Convention : Reuss Voigt Hill
#
# Bulk Modulus (GPa) = 32.66111 45.37434 39.01773
# Shear Modulus (GPa) = 66.48729 23.15048 44.81889
#
# Velocity S-wave (km/s) = 5.43945 3.20971 4.46598
# Velocity P-wave (km/s) = 7.34743 5.82481 6.62998
#
# Compressibility (1/GPa) = 0.03061745
#
# Stress axis : x y z
#
# Youngs Moduli (GPa) = 45.68084 51.70219 134.20921
#
# Poissons Ratio (x) = 0.14480 0.44926
# Poissons Ratio (y) = 0.12793 0.38719
# Poissons Ratio (z) = 0.15292 0.14916
#
# Static dielectric constant tensor:
#      x y z
#    x 4.137100 0.000000 -0.220430 
#    y 0.000000 3.932130 0.000000 
#    z -0.220430 0.000000 6.277700 
# 
# 
# High freq. dielectric constant tensor:
#      x y z
#    x 1.889510 0.000000 -0.002690 
#    y 0.000000 1.869700 0.000000 
#    z -0.002690 0.000000 1.897520 
# 
# From -- ./inp_files/44112.got.cif
#   From: 2010.03.12/outbox.cif.g09.slc.cpg/sg5_23_cif.got.tgz:44112.got - 2010.03.31 09:47:26.
