data_PCOD8051244
_publ_section_title
;
Structure prediction by ZEFSAII (Michael W. Deem and Ramdas Pophale) SiO2 
 PCOD8051244
Probable space group: C 2
;
_chemical_formula_sum "Si O2"
_cell_formula_units_Z 26
_cell_length_a 11.999981
_cell_length_b 8.131041
_cell_length_c 14.845506
_cell_angle_alpha 90.000000
_cell_angle_beta 129.313352
_cell_angle_gamma 90.000000
_cell_volume 1120.702009
_symmetry_space_group_name_H-M "C 2"
_symmetry_group_IT_number 5
_symmetry_cell_setting 'monoclinic'
loop_
_space_group_symop_operation_xyz
x,y,z
-x,y,-z
1/2+x,1/2+y,z
1/2-x,1/2+y,-z
loop_
_atom_site_type_symbol
_atom_site_label
_atom_site_fract_x
_atom_site_fract_y
_atom_site_fract_z
Si Si1 0.801560 0.780320 0.630837
Si Si2 0.349165 0.762000 0.270431
Si Si3 0.234574 0.984271 0.060547
Si Si4 0.159668 0.405994 0.386178
Si Si5 0.401883 0.273249 0.159986
Si Si6 0.000000 0.241042 0.000000
Si Si7 0.237094 0.395171 0.228936
O O1 0.668179 0.797688 0.631339
O O2 0.859808 0.600580 0.632411
O O3 0.769563 0.881220 0.524943
O O4 0.937371 0.847078 0.758652
O O5 0.243699 0.868173 0.152927
O O6 0.514977 0.799688 0.329366
O O7 0.298577 0.574430 0.233634
O O8 0.386947 0.081059 0.122264
O O9 0.114153 0.124165 0.009086
O O10 0.201904 0.882553 0.954804
O O11 0.239256 0.349453 0.335605
O O12 0.344854 0.271199 0.234002
O O13 0.075091 0.362265 0.110721
#
# Coordination Sequence:
#
# PCOD8051244 Si02
#       7
#     4   4   4   4   4   2   4
#     4  11  26  46  71 100 140 184 243 288 361 421
#     4  11  24  46  71 101 138 191 232 302 357 424
#     4  11  23  41  71 102 147 181 237 297 363 426
#     4  11  26  47  68 101 141 189 240 292 351 432
#     4  11  24  43  68 108 136 187 233 296 362 427
#     4  10  24  42  64 108 144 188 242 292 362 430
#     4  10  26  42  70 101 143 183 241 289 361 425
#
# _framework density 23.199743999999999
#
# number of rings (size 3 to 8) (size 9 to 14) (size 15 to 20)
#    0.000    1.231    1.538    2.308    8.615    6.154 
#    2.769    0.000    0.000    0.000    0.000    0.000 
#    0.000    0.000    0.000    0.000    0.000    0.000 
#
# Total GULP energy -161099.272034 kJ/mol
# GULP energy per Si atom -12392.251695 kJ/mol
# Density = 2.314694 g / cm^3
# Si number density = 23.199744 Si / 1000 Ang^3
#
#
#
# Elastic Constant Matrix: (Units=GPa)
#
#
# Indices 1 2 3 4 5 6 
#
# 1 103.8724 47.8616 40.2373 0.0000 -12.2016 0.0000
# 2 47.8616 80.5064 45.1568 0.0000 -5.9237 0.0000
# 3 40.2373 45.1568 124.4865 0.0000 -11.1849 0.0000
# 4 0.0000 0.0000 0.0000 39.0502 0.0000 -0.3298
# 5 -12.2016 -5.9237 -11.1849 0.0000 40.3292 0.0000
# 6 0.0000 0.0000 0.0000 -0.3298 0.0000 41.0002
#
#
#
# Elastic Compliance Matrix: (Units=1/GPa)
#
#
# Indices 1 2 3 4 5 6 
#
# 1 0.013863 -0.007113 -0.001659 0.000000 0.002689 0.000000
# 2 -0.007113 0.019266 -0.004747 0.000000 -0.000639 0.000000
# 3 -0.001659 -0.004747 0.010444 0.000000 0.001697 0.000000
# 4 0.000000 0.000000 0.000000 0.025610 0.000000 0.000206
# 5 0.002689 -0.000639 0.001697 0.000000 0.025987 0.000000
# 6 0.000000 0.000000 0.000000 0.000206 0.000000 0.024392
#
#
# Mechanical properties :
#
#
# Convention : Reuss Voigt Hill
#
# Bulk Modulus (GPa) = 60.47967 63.93073 62.20520
# Shear Modulus (GPa) = 32.87075 35.78322 34.32699
#
# Velocity S-wave (km/s) = 3.76820 3.93160 3.85077
# Velocity P-wave (km/s) = 6.71254 6.94452 6.82952
#
# Compressibility (1/GPa) = 0.01653448
#
# Stress axis : x y z
#
# Youngs Moduli (GPa) = 72.13201 51.90536 95.75263
#
# Poissons Ratio (x) = 0.36923 0.15886
# Poissons Ratio (y) = 0.51311 0.45451
# Poissons Ratio (z) = 0.11967 0.24638
#
# Static dielectric constant tensor:
#      x y z
#    x 4.203240 0.000000 0.088810 
#    y 0.000000 4.216550 0.000000 
#    z 0.088810 0.000000 4.435620 
# 
# 
# High freq. dielectric constant tensor:
#      x y z
#    x 1.918500 0.000000 -0.004780 
#    y 0.000000 1.918860 0.000000 
#    z -0.004780 0.000000 1.924220 
# 
# From -- ./inp_files/54315.got.cif
#   From: 2010.03.12/outbox.cif.g09.slc.cpg/sg5_28_cif.got.tgz:54315.got - 2010.03.31 09:47:26.
