data_PCOD8051671
_publ_section_title
;
Structure prediction by ZEFSAII (Michael W. Deem and Ramdas Pophale) SiO2 
 PCOD8051671
Probable space group: C 2
;
_chemical_formula_sum "Si O2"
_cell_formula_units_Z 30
_cell_length_a 11.576227
_cell_length_b 15.161638
_cell_length_c 8.963500
_cell_angle_alpha 90.000000
_cell_angle_beta 70.007372
_cell_angle_gamma 90.000000
_cell_volume 1478.416943
_symmetry_space_group_name_H-M "C 2"
_symmetry_group_IT_number 5
_symmetry_cell_setting 'monoclinic'
loop_
_space_group_symop_operation_xyz
x,y,z
-x,y,-z
1/2+x,1/2+y,z
1/2-x,1/2+y,-z
loop_
_atom_site_type_symbol
_atom_site_label
_atom_site_fract_x
_atom_site_fract_y
_atom_site_fract_z
Si Si1 0.603109 0.242310 0.202314
Si Si2 0.203355 0.279496 0.645298
Si Si3 0.893563 0.873097 0.364857
Si Si4 0.500000 0.524465 0.500000
Si Si5 0.220125 0.146169 0.380530
Si Si6 0.525497 0.889351 0.158512
Si Si7 0.479206 0.070227 0.334001
Si Si8 0.223722 0.804780 0.861994
O O1 0.730984 0.248691 0.233060
O O2 0.494861 0.295740 0.333584
O O3 0.562813 0.140810 0.209781
O O4 0.621945 0.280724 0.029335
O O5 0.284668 0.354161 0.529302
O O6 0.184400 0.195503 0.548422
O O7 0.070554 0.317187 0.742364
O O8 0.953759 0.966079 0.380663
O O9 0.837302 0.875888 0.223385
O O10 0.608473 0.583264 0.383918
O O11 0.337789 0.084954 0.354516
O O12 0.241405 0.215947 0.240356
O O13 0.659585 0.847443 0.110558
O O14 0.520137 0.973868 0.266362
O O15 0.500000 0.917539 0.000000
O O16 0.500000 0.081885 0.500000
#
# Coordination Sequence:
#
# PCOD8051671 Si02
#       8
#     4   4   4   2   4   4   4   4
#     4  12  21  46  69  97 132 176 228 277 325 406
#     4  11  21  45  71  93 133 179 228 266 334 409
#     4  11  23  40  72  97 124 179 226 272 323 390
#     4  12  24  42  68  98 140 166 234 282 324 396
#     4  11  25  42  70  99 133 184 222 277 338 399
#     4  12  28  44  66 104 140 174 219 288 348 392
#     4  12  26  43  70 102 132 175 234 285 327 400
#     4  11  26  44  71  97 137 179 222 268 349 406
#
# _framework density 20.291975999999998
#
# number of rings (size 3 to 8) (size 9 to 14) (size 15 to 20)
#    0.000    0.533    6.667    2.000    7.467    0.000 
#    0.000    0.000    2.933    0.000    0.000    0.000 
#    0.000    0.000    0.000    0.000    0.000    0.000 
#
# Total GULP energy -186095.826515 kJ/mol
# GULP energy per Si atom -12406.388434 kJ/mol
# Density = 2.024579 g / cm^3
# Si number density = 20.291976 Si / 1000 Ang^3
#
#
#
# Elastic Constant Matrix: (Units=GPa)
#
#
# Indices 1 2 3 4 5 6 
#
# 1 114.7910 36.2040 31.5173 0.0000 4.8870 0.0000
# 2 36.2040 73.6536 22.8114 0.0000 -2.8214 0.0000
# 3 31.5173 22.8114 92.9767 0.0000 2.8220 0.0000
# 4 0.0000 0.0000 0.0000 24.4404 0.0000 -1.7754
# 5 4.8870 -2.8214 2.8220 0.0000 29.9132 0.0000
# 6 0.0000 0.0000 0.0000 -1.7754 0.0000 46.6400
#
#
#
# Elastic Compliance Matrix: (Units=1/GPa)
#
#
# Indices 1 2 3 4 5 6 
#
# 1 0.010963 -0.004690 -0.002505 0.000000 -0.001997 0.000000
# 2 -0.004690 0.016789 -0.002608 0.000000 0.002596 0.000000
# 3 -0.002505 -0.002608 0.012275 0.000000 -0.000995 0.000000
# 4 0.000000 0.000000 0.000000 0.041029 0.000000 0.001562
# 5 -0.001997 0.002596 -0.000995 0.000000 0.034095 0.000000
# 6 0.000000 0.000000 0.000000 0.001562 0.000000 0.021500
#
#
# Mechanical properties :
#
#
# Convention : Reuss Voigt Hill
#
# Bulk Modulus (GPa) = 48.96832 51.38741 50.17787
# Shear Modulus (GPa) = 30.66249 32.92462 31.79356
#
# Velocity S-wave (km/s) = 3.89146 4.03245 3.96258
# Velocity P-wave (km/s) = 6.66150 6.86002 6.76149
#
# Compressibility (1/GPa) = 0.02042137
#
# Stress axis : x y z
#
# Youngs Moduli (GPa) = 91.21259 59.56105 81.46818
#
# Poissons Ratio (x) = 0.27932 0.20409
# Poissons Ratio (y) = 0.42775 0.21250
# Poissons Ratio (z) = 0.22850 0.15535
#
# Static dielectric constant tensor:
#      x y z
#    x 3.883420 0.000000 0.074380 
#    y 0.000000 3.590160 0.000000 
#    z 0.074380 0.000000 3.647820 
# 
# 
# High freq. dielectric constant tensor:
#      x y z
#    x 1.812100 0.000000 0.003150 
#    y 0.000000 1.786670 0.000000 
#    z 0.003150 0.000000 1.791020 
# 
# From -- ./inp_files/20586.got.cif
#   From: 2010.03.12/outbox.cif.g09.slc.cpg/sg5_11_cif.got.tgz:20586.got - 2010.03.31 09:47:26.
