data_PCOD8051760
_publ_section_title
;
Structure prediction by ZEFSAII (Michael W. Deem and Ramdas Pophale) SiO2 
 PCOD8051760
Probable space group: C 2
;
_chemical_formula_sum "Si O2"
_cell_formula_units_Z 20
_cell_length_a 18.333595
_cell_length_b 6.650166
_cell_length_c 7.316897
_cell_angle_alpha 90.000000
_cell_angle_beta 78.329878
_cell_angle_gamma 90.000000
_cell_volume 873.645856
_symmetry_space_group_name_H-M "C 2"
_symmetry_group_IT_number 5
_symmetry_cell_setting 'monoclinic'
loop_
_space_group_symop_operation_xyz
x,y,z
-x,y,-z
1/2+x,1/2+y,z
1/2-x,1/2+y,-z
loop_
_atom_site_type_symbol
_atom_site_label
_atom_site_fract_x
_atom_site_fract_y
_atom_site_fract_z
Si Si1 0.329347 0.771940 0.789892
Si Si2 0.416589 0.755673 0.097094
Si Si3 0.418071 0.525195 0.463615
Si Si4 0.682441 0.179840 0.360831
Si Si5 0.292062 0.020232 0.272423
O O1 0.365858 0.686971 0.587203
O O2 0.241711 0.705878 0.829207
O O3 0.339026 0.014586 0.782247
O O4 0.371546 0.677873 0.942626
O O5 0.416122 0.578365 0.248783
O O6 0.377571 0.963875 0.184578
O O7 0.500000 0.813781 0.000000
O O8 0.500000 0.545887 0.500000
O O9 0.388427 0.300227 0.520257
O O10 0.742515 0.326915 0.239952
O O11 0.720233 0.058113 0.507205
#
# Coordination Sequence:
#
# PCOD8051760 Si02
#       5
#     4   4   4   4   4
#     4  11  25  45  71 104 143 184 243 297 355 424
#     4  12  26  45  72 105 148 190 231 299 364 428
#     4  11  24  46  70 100 145 191 237 296 358 430
#     4  11  22  44  76 100 136 191 241 293 356 423
#     4  11  23  42  72 105 137 184 238 294 355 430
#
# _framework density 22.892574
#
# number of rings (size 3 to 8) (size 9 to 14) (size 15 to 20)
#    0.000    0.800    6.000    1.200    2.800    2.400 
#    3.600    1.000    0.000    0.000    0.000    0.000 
#    0.000    0.000    0.000    0.000    0.000    0.000 
#
# Total GULP energy -123983.226566 kJ/mol
# GULP energy per Si atom -12398.322657 kJ/mol
# Density = 2.284047 g / cm^3
# Si number density = 22.892574 Si / 1000 Ang^3
#
#
#
# Elastic Constant Matrix: (Units=GPa)
#
#
# Indices 1 2 3 4 5 6 
#
# 1 113.4482 41.6898 31.7252 0.0000 -1.2799 0.0000
# 2 41.6898 130.4700 33.6852 0.0000 -3.1384 0.0000
# 3 31.7252 33.6852 88.8542 0.0000 13.1719 0.0000
# 4 0.0000 0.0000 0.0000 20.9524 0.0000 -3.1810
# 5 -1.2799 -3.1384 13.1719 0.0000 43.3434 0.0000
# 6 0.0000 0.0000 0.0000 -3.1810 0.0000 31.4891
#
#
#
# Elastic Compliance Matrix: (Units=1/GPa)
#
#
# Indices 1 2 3 4 5 6 
#
# 1 0.010608 -0.002603 -0.002952 0.000000 0.001022 0.000000
# 2 -0.002603 0.009252 -0.002792 0.000000 0.001441 0.000000
# 3 -0.002952 -0.002792 0.014042 0.000000 -0.004557 0.000000
# 4 0.000000 0.000000 0.000000 0.048471 0.000000 0.004896
# 5 0.001022 0.001441 -0.004557 0.000000 0.024591 0.000000
# 6 0.000000 0.000000 0.000000 0.004896 0.000000 0.032252
#
#
# Mechanical properties :
#
#
# Convention : Reuss Voigt Hill
#
# Bulk Modulus (GPa) = 58.11108 60.77475 59.44291
# Shear Modulus (GPa) = 30.93184 34.20181 32.56683
#
# Velocity S-wave (km/s) = 3.67982 3.86944 3.77582
# Velocity P-wave (km/s) = 6.59501 6.82414 6.71055
#
# Compressibility (1/GPa) = 0.01720842
#
# Stress axis : x y z
#
# Youngs Moduli (GPa) = 94.26634 108.08754 71.21294
#
# Poissons Ratio (x) = 0.28134 0.21025
# Poissons Ratio (y) = 0.24536 0.19881
# Poissons Ratio (z) = 0.27831 0.30175
#
# Static dielectric constant tensor:
#      x y z
#    x 4.246490 0.000000 -0.032180 
#    y 0.000000 4.063210 0.000000 
#    z -0.032180 0.000000 4.105960 
# 
# 
# High freq. dielectric constant tensor:
#      x y z
#    x 1.903130 0.000000 0.006380 
#    y 0.000000 1.890030 0.000000 
#    z 0.006380 0.000000 1.910800 
# 
# From -- ./inp_files/25952.got.cif
#   From: 2010.03.12/outbox.cif.g09.slc.cpg/sg5_13_cif.got.tgz:25952.got - 2010.03.31 09:47:26.
