data_PCOD8051651
_publ_section_title
;
Structure prediction by ZEFSAII (Michael W. Deem and Ramdas Pophale) SiO2 
 PCOD8051651
Probable space group: C 2
;
_chemical_formula_sum "Si O2"
_cell_formula_units_Z 22
_cell_length_a 7.808917
_cell_length_b 15.481689
_cell_length_c 8.451408
_cell_angle_alpha 90.000000
_cell_angle_beta 103.285277
_cell_angle_gamma 90.000000
_cell_volume 994.391153
_symmetry_space_group_name_H-M "C 2"
_symmetry_group_IT_number 5
_symmetry_cell_setting 'monoclinic'
loop_
_space_group_symop_operation_xyz
x,y,z
-x,y,-z
1/2+x,1/2+y,z
1/2-x,1/2+y,-z
loop_
_atom_site_type_symbol
_atom_site_label
_atom_site_fract_x
_atom_site_fract_y
_atom_site_fract_z
Si Si1 0.072380 0.268780 0.171047
Si Si2 0.000000 0.638461 0.000000
Si Si3 0.707904 0.366872 0.530754
Si Si4 0.745039 0.216093 0.301993
Si Si5 0.193894 0.054829 0.475830
Si Si6 0.682215 0.590204 0.112324
O O1 0.930346 0.216098 0.248324
O O2 0.198504 0.329674 0.295537
O O3 0.187475 0.193836 0.117067
O O4 0.000000 0.320487 0.000000
O O5 0.851953 0.572054 0.037503
O O6 0.083120 0.702402 0.149210
O O7 0.500000 0.368334 0.500000
O O8 0.747375 0.309596 0.384817
O O9 0.787002 0.463834 0.538173
O O10 0.720508 0.139925 0.427779
O O11 0.206716 0.052990 0.290698
O O12 0.000000 0.051863 0.500000
O O13 0.500000 0.552978 0.000000
#
# Coordination Sequence:
#
# PCOD8051651 Si02
#       6
#     4   2   4   4   4   4
#     4  11  21  44  72  92 136 185 224 283 348 401
#     4  12  24  40  72 106 130 188 234 282 348 404
#     4  11  25  42  68 105 135 178 237 281 340 418
#     4  12  23  43  69  95 140 178 235 279 349 410
#     4  11  22  44  71  98 137 186 226 283 349 410
#     4  11  21  42  71 100 133 182 229 286 344 410
#
# _framework density 22.124089999999999
#
# number of rings (size 3 to 8) (size 9 to 14) (size 15 to 20)
#    0.000    0.727    7.273    1.636    0.000    0.000 
#    9.818    0.000    0.000    0.000    0.000    0.000 
#    0.000    0.000    0.000    0.000    0.000    0.000 
#
# Total GULP energy -136314.327076 kJ/mol
# GULP energy per Si atom -12392.211552 kJ/mol
# Density = 2.207373 g / cm^3
# Si number density = 22.124090 Si / 1000 Ang^3
#
#
#
# Elastic Constant Matrix: (Units=GPa)
#
#
# Indices 1 2 3 4 5 6 
#
# 1 111.9998 19.4518 44.5488 0.0000 -3.9080 0.0000
# 2 19.4518 96.9830 40.4326 0.0000 5.0974 0.0000
# 3 44.5488 40.4326 162.6443 0.0000 10.8960 0.0000
# 4 0.0000 0.0000 0.0000 24.7193 0.0000 -0.8239
# 5 -3.9080 5.0974 10.8960 0.0000 44.2640 0.0000
# 6 0.0000 0.0000 0.0000 -0.8239 0.0000 22.2881
#
#
#
# Elastic Compliance Matrix: (Units=1/GPa)
#
#
# Indices 1 2 3 4 5 6 
#
# 1 0.010223 -0.001031 -0.002656 0.000000 0.001675 0.000000
# 2 -0.001031 0.011625 -0.002554 0.000000 -0.000801 0.000000
# 3 -0.002656 -0.002554 0.007633 0.000000 -0.001819 0.000000
# 4 0.000000 0.000000 0.000000 0.040504 0.000000 0.001497
# 5 0.001675 -0.000801 -0.001819 0.000000 0.023280 0.000000
# 6 0.000000 0.000000 0.000000 0.001497 0.000000 0.044922
#
#
# Mechanical properties :
#
#
# Convention : Reuss Voigt Hill
#
# Bulk Modulus (GPa) = 58.82947 64.49927 61.66437
# Shear Modulus (GPa) = 31.98293 36.06721 34.02507
#
# Velocity S-wave (km/s) = 3.80625 4.04198 3.92589
# Velocity P-wave (km/s) = 6.77976 7.14144 6.96295
#
# Compressibility (1/GPa) = 0.01699828
#
# Stress axis : x y z
#
# Youngs Moduli (GPa) = 97.82332 86.02398 131.01765
#
# Poissons Ratio (x) = 0.08870 0.34797
# Poissons Ratio (y) = 0.10087 0.33458
# Poissons Ratio (z) = 0.25981 0.21968
#
# Static dielectric constant tensor:
#      x y z
#    x 4.013470 0.000000 -0.027380 
#    y 0.000000 4.151880 0.000000 
#    z -0.027380 0.000000 4.326670 
# 
# 
# High freq. dielectric constant tensor:
#      x y z
#    x 1.873400 0.000000 -0.003100 
#    y 0.000000 1.841840 0.000000 
#    z -0.003100 0.000000 1.892750 
# 
# From -- ./inp_files/14881.got.cif
#   From: 2010.03.12/outbox.cif.g09.slc.cpg/sg5_8_cif.got.tgz:14881.got - 2010.03.31 09:47:26.
