data_PCOD8051332
_publ_section_title
;
Structure prediction by ZEFSAII (Michael W. Deem and Ramdas Pophale) SiO2 
 PCOD8051332
Probable space group: C 2
;
_chemical_formula_sum "Si O2"
_cell_formula_units_Z 30
_cell_length_a 8.260737
_cell_length_b 12.023402
_cell_length_c 15.136037
_cell_angle_alpha 90.000000
_cell_angle_beta 68.467900
_cell_angle_gamma 90.000000
_cell_volume 1398.428685
_symmetry_space_group_name_H-M "C 2"
_symmetry_group_IT_number 5
_symmetry_cell_setting 'monoclinic'
loop_
_space_group_symop_operation_xyz
x,y,z
-x,y,-z
1/2+x,1/2+y,z
1/2-x,1/2+y,-z
loop_
_atom_site_type_symbol
_atom_site_label
_atom_site_fract_x
_atom_site_fract_y
_atom_site_fract_z
Si Si1 0.728192 0.370940 0.395588
Si Si2 0.357235 0.122200 0.605953
Si Si3 0.762611 0.936290 0.113173
Si Si4 0.337447 0.252325 0.970295
Si Si5 0.135072 0.919762 0.598589
Si Si6 0.957502 0.543334 0.257874
Si Si7 0.500000 0.607337 0.000000
Si Si8 0.107696 0.772427 0.773943
O O1 0.729805 0.242285 0.370951
O O2 0.764578 0.380525 0.493737
O O3 0.552659 0.436069 0.406676
O O4 0.873099 0.431370 0.309804
O O5 0.500000 0.117853 0.500000
O O6 0.438507 0.100328 0.683984
O O7 0.202326 0.035232 0.623287
O O8 0.765021 0.843717 0.189872
O O9 0.583739 0.005028 0.153328
O O10 0.776648 0.873359 0.016891
O O11 0.920039 0.025735 0.091497
O O12 0.412206 0.269950 0.855919
O O13 0.500000 0.208492 0.000000
O O14 0.163331 0.176479 0.006997
O O15 0.115882 0.824656 0.675528
O O16 0.832280 0.642065 0.245771
#
# Coordination Sequence:
#
# PCOD8051332 Si02
#       8
#     4   4   4   4   4   4   2   4
#     4  11  25  43  63 101 139 168 234 277 335 418
#     4  12  22  43  67  93 134 178 226 279 336 404
#     4  11  24  44  68 105 140 173 235 288 345 420
#     4  10  24  45  67 105 141 178 234 295 345 420
#     4  11  23  41  66  96 131 184 216 282 341 393
#     4  12  24  41  71  98 132 180 223 279 345 411
#     4  12  22  48  76  94 142 196 224 290 366 406
#     4  11  21  43  68  95 138 175 221 287 336 397
#
# _framework density 21.452648
#
# number of rings (size 3 to 8) (size 9 to 14) (size 15 to 20)
#    0.000    0.800    8.667    0.000    0.000    3.200 
#    6.000    0.000    0.000    0.000    0.000    0.000 
#    0.000    0.000    0.000    0.000    0.000    0.000 
#
# Total GULP energy -185863.354592 kJ/mol
# GULP energy per Si atom -12390.890306 kJ/mol
# Density = 2.140382 g / cm^3
# Si number density = 21.452648 Si / 1000 Ang^3
#
#
#
# Elastic Constant Matrix: (Units=GPa)
#
#
# Indices 1 2 3 4 5 6 
#
# 1 69.4767 55.8963 10.7875 0.0000 -9.3512 0.0000
# 2 55.8963 163.6224 30.1304 0.0000 -17.0592 0.0000
# 3 10.7875 30.1304 69.3366 0.0000 -24.7630 0.0000
# 4 0.0000 0.0000 0.0000 30.7498 0.0000 -7.6955
# 5 -9.3512 -17.0592 -24.7630 0.0000 27.1546 0.0000
# 6 0.0000 0.0000 0.0000 -7.6955 0.0000 41.2996
#
#
#
# Elastic Compliance Matrix: (Units=1/GPa)
#
#
# Indices 1 2 3 4 5 6 
#
# 1 0.020099 -0.006681 0.001111 0.000000 0.003737 0.000000
# 2 -0.006681 0.008961 -0.002470 0.000000 0.001076 0.000000
# 3 0.001111 -0.002470 0.022105 0.000000 0.018989 0.000000
# 4 0.000000 0.000000 0.000000 0.034111 0.000000 0.006356
# 5 0.003737 0.001076 0.018989 0.000000 0.056105 0.000000
# 6 0.000000 0.000000 0.000000 0.006356 0.000000 0.025398
#
#
# Mechanical properties :
#
#
# Convention : Reuss Voigt Hill
#
# Bulk Modulus (GPa) = 28.50297 55.11823 41.81060
# Shear Modulus (GPa) = 25.69974 33.54889 29.62432
#
# Velocity S-wave (km/s) = 3.46493 3.95885 3.72010
# Velocity P-wave (km/s) = 5.41507 6.82975 6.16313
#
# Compressibility (1/GPa) = 0.03508406
#
# Stress axis : x y z
#
# Youngs Moduli (GPa) = 49.75372 111.59335 45.23939
#
# Poissons Ratio (x) = 0.74557 -0.05026
# Poissons Ratio (y) = 0.33241 0.11176
# Poissons Ratio (z) = -0.05528 0.27567
#
# Static dielectric constant tensor:
#      x y z
#    x 3.689090 0.000000 -0.106690 
#    y 0.000000 4.132990 0.000000 
#    z -0.106690 0.000000 4.191200 
# 
# 
# High freq. dielectric constant tensor:
#      x y z
#    x 1.806890 0.000000 -0.008930 
#    y 0.000000 1.859840 0.000000 
#    z -0.008930 0.000000 1.856000 
# 
# From -- ./inp_files/50479.got.cif
#   From: 2010.03.12/outbox.cif.g09.slc.cpg/sg5_26_cif.got.tgz:50479.got - 2010.03.31 09:47:26.
