data_PCOD8051266
_publ_section_title
;
Structure prediction by ZEFSAII (Michael W. Deem and Ramdas Pophale) SiO2 
 PCOD8051266
Probable space group: C 2
;
_chemical_formula_sum "Si O2"
_cell_formula_units_Z 20
_cell_length_a 27.389311
_cell_length_b 5.003559
_cell_length_c 17.495213
_cell_angle_alpha 90.000000
_cell_angle_beta 160.171715
_cell_angle_gamma 90.000000
_cell_volume 813.276517
_symmetry_space_group_name_H-M "C 2"
_symmetry_group_IT_number 5
_symmetry_cell_setting 'monoclinic'
loop_
_space_group_symop_operation_xyz
x,y,z
-x,y,-z
1/2+x,1/2+y,z
1/2-x,1/2+y,-z
loop_
_atom_site_type_symbol
_atom_site_label
_atom_site_fract_x
_atom_site_fract_y
_atom_site_fract_z
Si Si1 0.103836 0.473680 0.481939
Si Si2 0.822602 0.410867 0.140800
Si Si3 0.052187 0.448216 0.901769
Si Si4 0.356040 0.313329 0.322863
Si Si5 0.927001 0.924413 0.970921
O O1 0.116447 0.754337 0.546856
O O2 0.260771 0.343371 0.713869
O O3 0.981020 0.307877 0.346601
O O4 0.061954 0.503928 0.332362
O O5 0.825721 0.534811 0.230890
O O6 0.722092 0.151004 0.984126
O O7 0.215097 0.500928 0.109348
O O8 0.003427 0.651860 0.895933
O O9 0.047547 0.149001 0.927531
O O10 0.500000 0.455274 0.500000
O O11 0.000000 0.016353 0.000000
#
# Coordination Sequence:
#
# PCOD8051266 Si02
#       5
#     4   4   4   4   4
#     4  10  24  42  70  99 134 181 223 273 330 398
#     4  11  23  39  65  96 142 181 217 264 326 396
#     4  11  24  45  70 100 135 175 228 277 336 405
#     4   9  21  42  63 103 142 182 220 268 325 402
#     4  11  27  48  70  99 133 172 230 290 341 396
#
# _framework density 24.59188
#
# number of rings (size 3 to 8) (size 9 to 14) (size 15 to 20)
#    0.000    1.600    2.000    0.600    5.600    9.600 
#    0.000    6.000    0.000    0.000    0.000    0.000 
#    0.000    0.000    0.000    0.000    0.000    0.000 
#
# Total GULP energy -123918.567272 kJ/mol
# GULP energy per Si atom -12391.856727 kJ/mol
# Density = 2.453591 g / cm^3
# Si number density = 24.591880 Si / 1000 Ang^3
#
#
#
# Elastic Constant Matrix: (Units=GPa)
#
#
# Indices 1 2 3 4 5 6 
#
# 1 132.3384 30.2209 54.4536 0.0002 -19.6743 0.0000
# 2 30.2209 83.2193 25.5235 0.0014 -4.7276 0.0000
# 3 54.4536 25.5235 96.0669 0.0008 -24.5742 0.0001
# 4 0.0002 0.0014 0.0008 3.6695 0.0001 -4.9591
# 5 -19.6743 -4.7276 -24.5742 0.0001 41.8187 0.0000
# 6 0.0000 0.0000 0.0001 -4.9591 0.0000 31.9715
#
#
#
# Elastic Compliance Matrix: (Units=1/GPa)
#
#
# Indices 1 2 3 4 5 6 
#
# 1 0.010291 -0.002163 -0.004805 0.000002 0.001774 0.000000
# 2 -0.002163 0.013553 -0.002640 -0.000006 -0.001037 -0.000001
# 3 -0.004805 -0.002640 0.015511 -0.000003 0.006556 -0.000001
# 4 0.000002 -0.000006 -0.000003 0.344795 -0.000002 0.053481
# 5 0.001774 -0.001037 0.006556 -0.000002 0.028482 0.000000
# 6 0.000000 -0.000001 -0.000001 0.053481 0.000000 0.039573
#
#
# Mechanical properties :
#
#
# Convention : Reuss Voigt Hill
#
# Bulk Modulus (GPa) = 49.65322 59.11339 54.38330
# Shear Modulus (GPa) = 10.45731 28.92039 19.68885
#
# Velocity S-wave (km/s) = 2.06436 3.43303 2.83260
# Velocity P-wave (km/s) = 5.09086 6.30905 5.73241
#
# Compressibility (1/GPa) = 0.02013968
#
# Stress axis : x y z
#
# Youngs Moduli (GPa) = 97.17180 73.78642 64.46831
#
# Poissons Ratio (x) = 0.15958 0.30977
# Poissons Ratio (y) = 0.21016 0.17020
# Poissons Ratio (z) = 0.46691 0.19480
#
# Static dielectric constant tensor:
#      x y z
#    x 4.377640 0.000000 -0.176740 
#    y 0.000000 3.901540 0.000000 
#    z -0.176740 0.000000 4.795790 
# 
# 
# High freq. dielectric constant tensor:
#      x y z
#    x 1.978600 0.000000 -0.020070 
#    y 0.000000 1.952470 0.000000 
#    z -0.020070 0.000000 1.984290 
# 
# From -- ./inp_files/63516.got.cif
#   From: 2010.03.12/outbox.cif.g09.slc.cpg/sg5_32_cif.got.tgz:63516.got - 2010.03.31 09:47:26.
