data_PCOD8051989
_publ_section_title
;
Structure prediction by ZEFSAII (Michael W. Deem and Ramdas Pophale) SiO2 
 PCOD8051989
Probable space group: C 2
;
_chemical_formula_sum "Si O2"
_cell_formula_units_Z 28
_cell_length_a 14.355281
_cell_length_b 10.803232
_cell_length_c 8.706435
_cell_angle_alpha 90.000000
_cell_angle_beta 113.048252
_cell_angle_gamma 90.000000
_cell_volume 1242.442832
_symmetry_space_group_name_H-M "C 2"
_symmetry_group_IT_number 5
_symmetry_cell_setting 'monoclinic'
loop_
_space_group_symop_operation_xyz
x,y,z
-x,y,-z
1/2+x,1/2+y,z
1/2-x,1/2+y,-z
loop_
_atom_site_type_symbol
_atom_site_label
_atom_site_fract_x
_atom_site_fract_y
_atom_site_fract_z
Si Si1 0.179519 0.651330 0.474708
Si Si2 0.500283 0.037236 0.820132
Si Si3 0.094257 0.141607 0.965378
Si Si4 0.898359 0.870087 0.993393
Si Si5 0.746193 0.895823 0.625831
Si Si6 0.940699 0.316298 0.321787
Si Si7 0.679175 0.183564 0.816843
O O1 0.248935 0.766206 0.463980
O O2 0.244214 0.522056 0.521386
O O3 0.138840 0.694064 0.616112
O O4 0.084638 0.632957 0.297098
O O5 0.614819 0.078851 0.859960
O O6 0.483306 0.905454 0.724690
O O7 0.500000 0.015278 0.000000
O O8 0.107249 0.210096 0.812452
O O9 0.067253 0.000011 0.910595
O O10 0.201936 0.151741 0.121244
O O11 0.000000 0.200261 0.000000
O O12 0.836082 0.805019 0.088599
O O13 0.838744 0.899963 0.801126
O O14 0.000000 0.796346 0.000000
O O15 0.645846 0.902589 0.662999
O O16 0.000000 0.251610 0.500000
#
# Coordination Sequence:
#
# PCOD8051989 Si02
#       7
#     4   4   4   4   4   4   4
#     4  12  27  46  75 109 151 192 251 307 374 444
#     4  12  25  46  76 106 140 196 252 301 365 445
#     4  11  26  44  71 104 145 194 242 303 380 441
#     4  11  24  47  72 104 149 194 243 308 379 447
#     4  12  25  47  71 109 150 196 244 314 372 438
#     4  12  24  45  72 102 148 187 247 306 367 437
#     4  12  23  45  74 103 141 187 248 303 364 443
#
# _framework density 22.536249000000002
#
# number of rings (size 3 to 8) (size 9 to 14) (size 15 to 20)
#    0.000    0.286    5.714    3.000    2.000    2.286 
#    0.000    1.429    0.000    0.000    0.000    0.000 
#    0.000    0.000    0.000    0.000    0.000    0.000 
#
# Total GULP energy -173548.047869 kJ/mol
# GULP energy per Si atom -12396.289134 kJ/mol
# Density = 2.248496 g / cm^3
# Si number density = 22.536249 Si / 1000 Ang^3
#
#
#
# Elastic Constant Matrix: (Units=GPa)
#
#
# Indices 1 2 3 4 5 6 
#
# 1 114.2309 30.9915 42.4539 0.0000 -1.7800 0.0000
# 2 30.9915 129.8373 39.2598 0.0000 -16.1902 0.0000
# 3 42.4539 39.2598 137.0649 0.0000 -6.8451 0.0000
# 4 0.0000 0.0000 0.0000 35.5249 0.0000 -5.3227
# 5 -1.7800 -16.1902 -6.8451 0.0000 39.8784 0.0000
# 6 0.0000 0.0000 0.0000 -5.3227 0.0000 35.4413
#
#
#
# Elastic Compliance Matrix: (Units=1/GPa)
#
#
# Indices 1 2 3 4 5 6 
#
# 1 0.010213 -0.001706 -0.002710 0.000000 -0.000702 0.000000
# 2 -0.001706 0.009098 -0.001913 0.000000 0.003289 0.000000
# 3 -0.002710 -0.001913 0.008713 0.000000 0.000598 0.000000
# 4 0.000000 0.000000 0.000000 0.028797 0.000000 0.004325
# 5 -0.000702 0.003289 0.000598 0.000000 0.026483 0.000000
# 6 0.000000 0.000000 0.000000 0.004325 0.000000 0.028865
#
#
# Mechanical properties :
#
#
# Convention : Reuss Voigt Hill
#
# Bulk Modulus (GPa) = 65.07884 67.39371 66.23628
# Shear Modulus (GPa) = 38.47652 40.06410 39.27031
#
# Velocity S-wave (km/s) = 4.13645 4.22093 4.17890
# Velocity P-wave (km/s) = 7.19401 7.32970 7.26217
#
# Compressibility (1/GPa) = 0.01536598
#
# Stress axis : x y z
#
# Youngs Moduli (GPa) = 97.91251 109.91657 114.77090
#
# Poissons Ratio (x) = 0.18752 0.31101
# Poissons Ratio (y) = 0.16704 0.21959
# Poissons Ratio (z) = 0.26532 0.21030
#
# Static dielectric constant tensor:
#      x y z
#    x 4.143190 0.000000 -0.051250 
#    y 0.000000 4.154530 0.000000 
#    z -0.051250 0.000000 4.210150 
# 
# 
# High freq. dielectric constant tensor:
#      x y z
#    x 1.884940 0.000000 0.002240 
#    y 0.000000 1.891560 0.000000 
#    z 0.002240 0.000000 1.894850 
# 
# From -- ./inp_files/23721.got.cif
#   From: 2010.03.12/outbox.cif.g09.slc.cpg/sg5_12_cif.got.tgz:23721.got - 2010.03.31 09:47:26.
