data_PCOD8051873
_publ_section_title
;
Structure prediction by ZEFSAII (Michael W. Deem and Ramdas Pophale) SiO2 
 PCOD8051873
Probable space group: C 2
;
_chemical_formula_sum "Si O2"
_cell_formula_units_Z 22
_cell_length_a 14.660469
_cell_length_b 10.543487
_cell_length_c 17.877365
_cell_angle_alpha 90.000000
_cell_angle_beta 20.886901
_cell_angle_gamma 90.000000
_cell_volume 985.201149
_symmetry_space_group_name_H-M "C 2"
_symmetry_group_IT_number 5
_symmetry_cell_setting 'monoclinic'
loop_
_space_group_symop_operation_xyz
x,y,z
-x,y,-z
1/2+x,1/2+y,z
1/2-x,1/2+y,-z
loop_
_atom_site_type_symbol
_atom_site_label
_atom_site_fract_x
_atom_site_fract_y
_atom_site_fract_z
Si Si1 0.579828 0.142420 0.166778
Si Si2 0.035436 0.241649 0.558530
Si Si3 0.000000 0.722344 0.500000
Si Si4 0.094299 0.519581 0.556556
Si Si5 0.525322 0.803406 0.058316
Si Si6 0.668593 0.546340 0.169032
O O1 0.326139 0.225865 0.361012
O O2 0.553054 0.037476 0.252070
O O3 0.822676 0.230470 0.994588
O O4 0.625607 0.081226 0.051837
O O5 0.975940 0.390410 0.613707
O O6 0.000000 0.199716 0.500000
O O7 0.854734 0.155177 0.749882
O O8 0.966691 0.634509 0.452610
O O9 0.760391 0.818781 0.689588
O O10 0.397848 0.510888 0.339199
O O11 0.500000 0.723647 0.000000
O O12 0.689505 0.925058 0.904786
#
# Coordination Sequence:
#
# PCOD8051873 Si02
#       6
#     4   4   2   4   4   4
#     4  11  25  44  70 105 143 188 238 302 366 428
#     4  11  26  46  71 104 147 191 244 297 365 440
#     4  12  24  44  76 112 142 192 252 304 356 430
#     4  11  23  44  74 107 139 187 243 303 361 432
#     4  12  26  45  72 107 144 187 243 297 366 435
#     4  11  27  46  69 104 147 189 237 300 371 424
#
# _framework density 22.330466000000001
#
# number of rings (size 3 to 8) (size 9 to 14) (size 15 to 20)
#    0.000    0.727    6.364    0.000    5.091    2.909 
#    0.000    1.818    0.000    0.000    0.000    0.000 
#    0.000    0.000    0.000    0.000    0.000    0.000 
#
# Total GULP energy -136366.811836 kJ/mol
# GULP energy per Si atom -12396.982894 kJ/mol
# Density = 2.227964 g / cm^3
# Si number density = 22.330466 Si / 1000 Ang^3
#
#
#
# Elastic Constant Matrix: (Units=GPa)
#
#
# Indices 1 2 3 4 5 6 
#
# 1 111.2745 25.4774 35.8280 -0.0189 15.8475 0.0234
# 2 25.4774 89.6423 41.5283 -0.1692 1.8409 -0.0292
# 3 35.8280 41.5283 143.4501 -0.1770 4.2306 0.0051
# 4 -0.0189 -0.1692 -0.1770 22.1273 0.0127 6.4333
# 5 15.8475 1.8409 4.2306 0.0127 48.6480 -0.0069
# 6 0.0234 -0.0292 0.0051 6.4333 -0.0069 29.7705
#
#
#
# Elastic Compliance Matrix: (Units=1/GPa)
#
#
# Indices 1 2 3 4 5 6 
#
# 1 0.010532 -0.002024 -0.001950 -0.000018 -0.003185 -0.000007
# 2 -0.002024 0.013274 -0.003350 0.000073 0.000448 0.000000
# 3 -0.001950 -0.003350 0.008427 0.000044 0.000029 -0.000013
# 4 -0.000018 0.000073 0.000044 0.048224 -0.000015 -0.010421
# 5 -0.003185 0.000448 0.000029 -0.000015 0.021574 0.000011
# 6 -0.000007 0.000000 -0.000013 -0.010421 0.000011 0.035842
#
#
# Mechanical properties :
#
#
# Convention : Reuss Voigt Hill
#
# Bulk Modulus (GPa) = 56.87385 61.11494 58.99439
# Shear Modulus (GPa) = 31.56894 36.21138 33.89016
#
# Velocity S-wave (km/s) = 3.76402 4.03129 3.89995
# Velocity P-wave (km/s) = 6.66445 7.00687 6.83781
#
# Compressibility (1/GPa) = 0.01758277
#
# Stress axis : x y z
#
# Youngs Moduli (GPa) = 94.95022 75.33659 118.66207
#
# Poissons Ratio (x) = 0.15250 0.23145
# Poissons Ratio (y) = 0.19221 0.39755
# Poissons Ratio (z) = 0.18520 0.25240
#
# Static dielectric constant tensor:
#      x y z
#    x 4.155810 -0.000060 -0.014300 
#    y -0.000060 3.796570 0.000380 
#    z -0.014300 0.000380 4.056300 
# 
# 
# High freq. dielectric constant tensor:
#      x y z
#    x 1.899440 0.000000 -0.000300 
#    y 0.000000 1.862280 0.000030 
#    z -0.000300 0.000030 1.888810 
# 
# From -- ./inp_files/6585.got.cif
#   From: 2010.03.12/outbox.cif.g09.slc.cpg/sg5_4_cif.got.tgz:6585.got - 2010.03.31 09:47:26.
