data_PCOD8051644
_publ_section_title
;
Structure prediction by ZEFSAII (Michael W. Deem and Ramdas Pophale) SiO2 
 PCOD8051644
Probable space group: C 2
;
_chemical_formula_sum "Si O2"
_cell_formula_units_Z 26
_cell_length_a 10.047930
_cell_length_b 9.952225
_cell_length_c 24.878370
_cell_angle_alpha 90.000000
_cell_angle_beta 35.928427
_cell_angle_gamma 90.000000
_cell_volume 1459.787721
_symmetry_space_group_name_H-M "C 2"
_symmetry_group_IT_number 5
_symmetry_cell_setting 'monoclinic'
loop_
_space_group_symop_operation_xyz
x,y,z
-x,y,-z
1/2+x,1/2+y,z
1/2-x,1/2+y,-z
loop_
_atom_site_type_symbol
_atom_site_label
_atom_site_fract_x
_atom_site_fract_y
_atom_site_fract_z
Si Si1 0.637068 0.992390 0.241682
Si Si2 0.000000 0.401496 0.000000
Si Si3 0.958791 0.983132 0.814840
Si Si4 0.396029 0.775004 0.251896
Si Si5 0.231859 0.034599 0.453437
Si Si6 0.070933 0.751231 0.535474
Si Si7 0.792863 0.276012 0.163775
O O1 0.569540 0.877043 0.222475
O O2 0.431030 0.043655 0.345258
O O3 0.724429 0.120862 0.180041
O O4 0.835117 0.935451 0.215013
O O5 0.772687 0.493586 0.073625
O O6 0.993950 0.307090 0.055292
O O7 0.010640 0.125004 0.769926
O O8 0.923614 0.871350 0.779682
O O9 0.381238 0.810467 0.194087
O O10 0.150025 0.788956 0.358347
O O11 0.276963 0.138087 0.486667
O O12 0.000000 0.075102 0.500000
O O13 0.221690 0.885107 0.480954
O O14 0.000000 0.697528 0.500000
#
# Coordination Sequence:
#
# PCOD8051644 Si02
#       7
#     4   2   4   4   4   4   4
#     4  11  21  42  63  91 123 162 207 254 306 357
#     4   8  20  48  60  92 126 152 204 264 300 372
#     4   9  21  42  65  85 127 159 200 256 306 373
#     4  11  21  42  63  91 123 162 207 254 306 357
#     4  11  23  42  61  89 129 164 209 256 290 365
#     4  11  23  42  61  89 129 164 209 256 290 365
#     4   9  21  42  65  85 127 159 200 256 306 373
#
# _framework density 17.810808000000002
#
# number of rings (size 3 to 8) (size 9 to 14) (size 15 to 20)
#    0.923    0.923    6.154    0.000    0.000    4.308 
#   11.077    0.000    0.000    0.000    0.000    0.000 
#    0.000    0.000    0.000    0.000    0.000    0.000 
#
# Total GULP energy -161154.463351 kJ/mol
# GULP energy per Si atom -12396.497181 kJ/mol
# Density = 1.777027 g / cm^3
# Si number density = 17.810808 Si / 1000 Ang^3
#
#
#
# Elastic Constant Matrix: (Units=GPa)
#
#
# Indices 1 2 3 4 5 6 
#
# 1 129.9667 64.5292 6.2683 -0.0005 0.0257 0.0035
# 2 64.5292 93.7461 -10.3982 0.0000 2.7081 -0.0003
# 3 6.2683 -10.3982 62.9162 0.0003 1.9278 -0.0013
# 4 -0.0005 0.0000 0.0003 26.6007 0.0001 1.5733
# 5 0.0257 2.7081 1.9278 0.0001 34.9314 0.0006
# 6 0.0035 -0.0003 -0.0013 1.5733 0.0006 22.1227
#
#
#
# Elastic Compliance Matrix: (Units=1/GPa)
#
#
# Indices 1 2 3 4 5 6 
#
# 1 0.012125 -0.008665 -0.002665 0.000000 0.000810 -0.000002
# 2 -0.008665 0.017090 0.003734 0.000000 -0.001525 0.000002
# 3 -0.002665 0.003734 0.016814 0.000000 -0.001215 0.000002
# 4 0.000000 0.000000 0.000000 0.037752 0.000000 -0.002685
# 5 0.000810 -0.001525 -0.001215 0.000000 0.028812 -0.000001
# 6 -0.000002 0.000002 0.000002 -0.002685 -0.000001 0.045393
#
#
# Mechanical properties :
#
#
# Convention : Reuss Voigt Hill
#
# Bulk Modulus (GPa) = 32.42759 45.26973 38.84866
# Shear Modulus (GPa) = 27.25441 31.81293 29.53367
#
# Velocity S-wave (km/s) = 3.91604 4.23088 4.07650
# Velocity P-wave (km/s) = 6.22040 7.02420 6.63448
#
# Compressibility (1/GPa) = 0.03083793
#
# Stress axis : x y z
#
# Youngs Moduli (GPa) = 82.47506 58.51421 59.47394
#
# Poissons Ratio (x) = 0.50703 0.15849
# Poissons Ratio (y) = 0.71465 -0.22210
# Poissons Ratio (z) = 0.21979 -0.21852
#
# Static dielectric constant tensor:
#      x y z
#    x 3.530500 0.000020 -0.033690 
#    y 0.000020 3.306850 0.000000 
#    z -0.033690 0.000000 3.288020 
# 
# 
# High freq. dielectric constant tensor:
#      x y z
#    x 1.692400 0.000000 0.000030 
#    y 0.000000 1.688460 0.000000 
#    z 0.000030 0.000000 1.688630 
# 
# From -- ./inp_files/52130.got.cif
#   From: 2010.03.12/outbox.cif.g09.slc.cpg/sg5_27_cif.got.tgz:52130.got - 2010.03.31 09:47:26.
