data_PCOD8051900
_publ_section_title
;
Structure prediction by ZEFSAII (Michael W. Deem and Ramdas Pophale) SiO2 
 PCOD8051900
Probable space group: C 2
;
_chemical_formula_sum "Si O2"
_cell_formula_units_Z 28
_cell_length_a 26.177677
_cell_length_b 6.598090
_cell_length_c 8.216917
_cell_angle_alpha 90.000000
_cell_angle_beta 113.538270
_cell_angle_gamma 90.000000
_cell_volume 1301.157232
_symmetry_space_group_name_H-M "C 2"
_symmetry_group_IT_number 5
_symmetry_cell_setting 'monoclinic'
loop_
_space_group_symop_operation_xyz
x,y,z
-x,y,-z
1/2+x,1/2+y,z
1/2-x,1/2+y,-z
loop_
_atom_site_type_symbol
_atom_site_label
_atom_site_fract_x
_atom_site_fract_y
_atom_site_fract_z
Si Si1 0.052123 0.453100 0.682116
Si Si2 0.252615 0.695988 0.804772
Si Si3 0.327528 0.520869 0.174833
Si Si4 0.904188 0.772850 0.039852
Si Si5 0.158234 0.402334 0.609092
Si Si6 0.349558 0.928716 0.773554
Si Si7 0.447903 0.673014 0.035940
O O1 0.051826 0.620246 0.823919
O O2 0.110973 0.495444 0.666865
O O3 0.046045 0.234645 0.764198
O O4 0.000000 0.487749 0.500000
O O5 0.221522 0.491480 0.704092
O O6 0.288751 0.825340 0.720875
O O7 0.200996 0.830238 0.784722
O O8 0.288914 0.655123 0.009321
O O9 0.377636 0.429057 0.135404
O O10 0.343618 0.664315 0.347404
O O11 0.941952 0.932740 0.988466
O O12 0.858113 0.650190 0.871909
O O13 0.138413 0.446254 0.401516
O O14 0.391939 0.774467 0.904242
O O15 0.500000 0.756811 0.000000
#
# Coordination Sequence:
#
# PCOD8051900 Si02
#       7
#     4   4   4   4   4   4   4
#     4  11  24  46  70 100 136 177 230 291 348 418
#     4  12  24  40  70  97 136 181 222 278 348 411
#     4  12  22  43  68  98 131 182 229 277 340 418
#     4  11  23  46  70  98 135 183 232 280 355 417
#     4  12  26  42  68 103 137 179 233 288 341 417
#     4  11  27  43  66 103 142 178 227 291 349 419
#     4  11  24  46  72  97 136 183 228 288 353 417
#
# _framework density 21.519304000000002
#
# number of rings (size 3 to 8) (size 9 to 14) (size 15 to 20)
#    0.000    0.571    5.714    2.571    2.000    5.143 
#    2.571    0.000    0.000    0.000    0.000    0.000 
#    0.000    0.000    0.000    0.000    0.000    0.000 
#
# Total GULP energy -173491.226809 kJ/mol
# GULP energy per Si atom -12392.230486 kJ/mol
# Density = 2.147033 g / cm^3
# Si number density = 21.519304 Si / 1000 Ang^3
#
#
#
# Elastic Constant Matrix: (Units=GPa)
#
#
# Indices 1 2 3 4 5 6 
#
# 1 76.6408 14.9933 21.6776 0.0000 -1.1856 0.0000
# 2 14.9933 113.5502 35.9195 0.0000 -2.0556 0.0000
# 3 21.6776 35.9195 102.7070 0.0000 -4.8700 0.0000
# 4 0.0000 0.0000 0.0000 13.6616 0.0000 -12.1779
# 5 -1.1856 -2.0556 -4.8700 0.0000 33.3727 0.0000
# 6 0.0000 0.0000 0.0000 -12.1779 0.0000 18.7016
#
#
#
# Elastic Compliance Matrix: (Units=1/GPa)
#
#
# Indices 1 2 3 4 5 6 
#
# 1 0.013982 -0.001026 -0.002590 0.000000 0.000056 0.000000
# 2 -0.001026 0.009978 -0.003268 0.000000 0.000101 0.000000
# 3 -0.002590 -0.003268 0.011492 0.000000 0.001384 0.000000
# 4 0.000000 0.000000 0.000000 0.174466 0.000000 0.113607
# 5 0.000056 0.000101 0.001384 0.000000 0.030175 0.000000
# 6 0.000000 0.000000 0.000000 0.113607 0.000000 0.127449
#
#
# Mechanical properties :
#
#
# Convention : Reuss Voigt Hill
#
# Bulk Modulus (GPa) = 46.11746 48.67542 47.39644
# Shear Modulus (GPa) = 12.86879 27.83434 20.35157
#
# Velocity S-wave (km/s) = 2.44808 3.60037 3.07862
# Velocity P-wave (km/s) = 5.42845 6.32077 5.89153
#
# Compressibility (1/GPa) = 0.02168376
#
# Stress axis : x y z
#
# Youngs Moduli (GPa) = 71.52090 100.22233 87.02019
#
# Poissons Ratio (x) = 0.10283 0.22535
# Poissons Ratio (y) = 0.07338 0.28440
# Poissons Ratio (z) = 0.18521 0.32754
#
# Static dielectric constant tensor:
#      x y z
#    x 4.029920 0.000000 -0.183780 
#    y 0.000000 4.142410 0.000000 
#    z -0.183780 0.000000 3.852690 
# 
# 
# High freq. dielectric constant tensor:
#      x y z
#    x 1.851330 0.000000 -0.001510 
#    y 0.000000 1.856860 0.000000 
#    z -0.001510 0.000000 1.827420 
# 
# From -- ./inp_files/32337.got.cif
#   From: 2010.03.12/outbox.cif.g09.slc.cpg/sg5_17_cif.got.tgz:32337.got - 2010.03.31 09:47:26.
