data_PCOD8051209
_publ_section_title
;
Structure prediction by ZEFSAII (Michael W. Deem and Ramdas Pophale) SiO2 
 PCOD8051209
Probable space group: C 2
;
_chemical_formula_sum "Si O2"
_cell_formula_units_Z 24
_cell_length_a 5.352220
_cell_length_b 18.493513
_cell_length_c 11.337617
_cell_angle_alpha 90.000000
_cell_angle_beta 109.785910
_cell_angle_gamma 90.000000
_cell_volume 1055.961740
_symmetry_space_group_name_H-M "C 2"
_symmetry_group_IT_number 5
_symmetry_cell_setting 'monoclinic'
loop_
_space_group_symop_operation_xyz
x,y,z
-x,y,-z
1/2+x,1/2+y,z
1/2-x,1/2+y,-z
loop_
_atom_site_type_symbol
_atom_site_label
_atom_site_fract_x
_atom_site_fract_y
_atom_site_fract_z
Si Si1 0.000000 0.944350 0.500000
Si Si2 0.669560 0.011748 0.244556
Si Si3 0.243064 0.321478 0.612261
Si Si4 0.893565 0.088105 0.849122
Si Si5 0.032699 0.360216 0.831688
Si Si6 0.000000 0.781498 0.000000
Si Si7 0.146804 0.734152 0.784564
O O1 0.858466 0.892387 0.569504
O O2 0.790550 0.993857 0.393587
O O3 0.409175 0.061295 0.215380
O O4 0.898655 0.049060 0.202944
O O5 0.564559 0.941216 0.159809
O O6 0.166465 0.352328 0.726380
O O7 0.422357 0.247863 0.649003
O O8 0.000000 0.290653 0.500000
O O9 0.863461 0.171412 0.800426
O O10 0.000000 0.082850 0.000000
O O11 0.775521 0.312421 0.800074
O O12 0.245605 0.334576 0.962673
O O13 0.990760 0.726446 0.108926
#
# Coordination Sequence:
#
# PCOD8051209 Si02
#       7
#     2   4   4   4   4   2   4
#     4  12  24  50  74 110 152 196 254 330 372 454
#     4  12  28  48  77 111 150 209 249 312 387 452
#     4  11  21  42  78 107 144 189 253 320 380 440
#     4  12  30  50  74 110 164 201 248 311 390 461
#     4  11  23  42  72 110 139 195 260 311 380 445
#     4  10  24  38  76 104 152 186 264 324 366 452
#     4  11  25  46  73 109 141 205 251 308 388 450
#
# _framework density 22.728096000000001
#
# number of rings (size 3 to 8) (size 9 to 14) (size 15 to 20)
#    0.000    0.667    3.333    3.000   10.500    1.333 
#    1.500    1.667    0.000    0.000    0.000    0.000 
#    0.000    0.000    0.000    0.000    0.000    0.000 
#
# Total GULP energy -148720.101890 kJ/mol
# GULP energy per Si atom -12393.341824 kJ/mol
# Density = 2.267637 g / cm^3
# Si number density = 22.728096 Si / 1000 Ang^3
#
#
#
# Elastic Constant Matrix: (Units=GPa)
#
#
# Indices 1 2 3 4 5 6 
#
# 1 114.0051 24.1636 40.4598 0.0000 6.6800 0.0000
# 2 24.1636 84.7773 29.7334 0.0000 -2.3485 0.0000
# 3 40.4598 29.7334 128.8587 0.0000 21.6422 0.0000
# 4 0.0000 0.0000 0.0000 34.3869 0.0000 7.3595
# 5 6.6800 -2.3485 21.6422 0.0000 46.4880 0.0000
# 6 0.0000 0.0000 0.0000 7.3595 0.0000 67.7833
#
#
#
# Elastic Compliance Matrix: (Units=1/GPa)
#
#
# Indices 1 2 3 4 5 6 
#
# 1 0.010158 -0.001962 -0.002685 0.000000 -0.000309 0.000000
# 2 -0.001962 0.013424 -0.002867 0.000000 0.002295 0.000000
# 3 -0.002685 -0.002867 0.010007 0.000000 -0.004418 0.000000
# 4 0.000000 0.000000 0.000000 0.029773 0.000000 -0.003233
# 5 -0.000309 0.002295 -0.004418 0.000000 0.023728 0.000000
# 6 0.000000 0.000000 0.000000 -0.003233 0.000000 0.015104
#
#
# Mechanical properties :
#
#
# Convention : Reuss Voigt Hill
#
# Bulk Modulus (GPa) = 53.87562 57.37276 55.62419
# Shear Modulus (GPa) = 40.51578 45.28393 42.89986
#
# Velocity S-wave (km/s) = 4.22670 4.46850 4.34928
# Velocity P-wave (km/s) = 6.89753 7.20564 7.05326
#
# Compressibility (1/GPa) = 0.01856127
#
# Stress axis : x y z
#
# Youngs Moduli (GPa) = 98.44054 74.49391 99.93088
#
# Poissons Ratio (x) = 0.14618 0.26831
# Poissons Ratio (y) = 0.19317 0.28648
# Poissons Ratio (z) = 0.26431 0.21356
#
# Static dielectric constant tensor:
#      x y z
#    x 4.316980 0.000000 0.253460 
#    y 0.000000 4.030650 0.000000 
#    z 0.253460 0.000000 4.040630 
# 
# 
# High freq. dielectric constant tensor:
#      x y z
#    x 1.918800 0.000000 0.011940 
#    y 0.000000 1.883330 0.000000 
#    z 0.011940 0.000000 1.907730 
# 
# From -- ./inp_files/33564.got.cif
#   From: 2010.03.12/outbox.cif.g09.slc.cpg/sg5_17_cif.got.tgz:33564.got - 2010.03.31 09:47:26.
