data_PCOD8051022
_publ_section_title
;
Structure prediction by ZEFSAII (Michael W. Deem and Ramdas Pophale) SiO2 
 PCOD8051022
Probable space group: C 2
;
_chemical_formula_sum "Si O2"
_cell_formula_units_Z 28
_cell_length_a 15.299570
_cell_length_b 8.638632
_cell_length_c 12.175225
_cell_angle_alpha 90.000000
_cell_angle_beta 55.756178
_cell_angle_gamma 90.000000
_cell_volume 1330.218827
_symmetry_space_group_name_H-M "C 2"
_symmetry_group_IT_number 5
_symmetry_cell_setting 'monoclinic'
loop_
_space_group_symop_operation_xyz
x,y,z
-x,y,-z
1/2+x,1/2+y,z
1/2-x,1/2+y,-z
loop_
_atom_site_type_symbol
_atom_site_label
_atom_site_fract_x
_atom_site_fract_y
_atom_site_fract_z
Si Si1 0.000000 0.400520 0.500000
Si Si2 0.516003 0.203129 0.145071
Si Si3 0.000000 0.270679 0.000000
Si Si4 0.328679 0.464265 0.493170
Si Si5 0.352115 0.049938 0.103108
Si Si6 0.875889 0.619298 0.432904
Si Si7 0.886703 0.117243 0.668399
Si Si8 0.512384 0.535831 0.791830
O O1 0.913216 0.505232 0.501548
O O2 0.926293 0.294776 0.631461
O O3 0.421489 0.151715 0.134513
O O4 0.482908 0.161427 0.292056
O O5 0.530385 0.385398 0.115757
O O6 0.624820 0.115050 0.036678
O O7 0.108088 0.371487 0.921593
O O8 0.003230 0.174755 0.884395
O O9 0.209330 0.530562 0.583917
O O10 0.325635 0.279115 0.513778
O O11 0.403865 0.539221 0.535204
O O12 0.369472 0.510069 0.341337
O O13 0.234115 0.082442 0.219432
O O14 0.944145 0.044815 0.730445
#
# Coordination Sequence:
#
# PCOD8051022 Si02
#       8
#     2   4   2   4   4   4   4   4
#     4  12  28  42  66 102 136 172 218 292 330 404
#     4   9  21  43  66  87 133 169 226 262 332 388
#     4  10  24  44  68  96 130 180 232 264 336 396
#     4  11  24  44  70 101 132 179 220 273 341 403
#     4  10  23  41  67  92 127 178 221 277 323 405
#     4  11  25  42  71  97 133 175 224 274 337 398
#     4  12  25  42  67  99 141 167 224 277 340 386
#     4  11  24  42  67  97 134 174 220 284 321 398
#
# _framework density 21.049167000000001
#
# number of rings (size 3 to 8) (size 9 to 14) (size 15 to 20)
#    0.000    1.429    2.857    1.714   12.000    1.143 
#    0.000    0.000    0.000    0.000    0.000    0.000 
#    0.000    0.000    0.000    0.000    0.000    0.000 
#
# Total GULP energy -173482.933421 kJ/mol
# GULP energy per Si atom -12391.638102 kJ/mol
# Density = 2.100126 g / cm^3
# Si number density = 21.049167 Si / 1000 Ang^3
#
#
#
# Elastic Constant Matrix: (Units=GPa)
#
#
# Indices 1 2 3 4 5 6 
#
# 1 73.7554 47.9007 23.0716 0.0000 7.1821 0.0000
# 2 47.9007 167.2965 49.7648 0.0000 5.2824 0.0000
# 3 23.0716 49.7648 93.9598 0.0000 -1.1014 0.0000
# 4 0.0000 0.0000 0.0000 42.8297 0.0000 6.2707
# 5 7.1821 5.2824 -1.1014 0.0000 29.6005 0.0000
# 6 0.0000 0.0000 0.0000 6.2707 0.0000 25.7751
#
#
#
# Elastic Compliance Matrix: (Units=1/GPa)
#
#
# Indices 1 2 3 4 5 6 
#
# 1 0.017288 -0.004230 -0.002046 0.000000 -0.003516 0.000000
# 2 -0.004230 0.008189 -0.003305 0.000000 -0.000558 0.000000
# 3 -0.002046 -0.003305 0.012914 0.000000 0.001567 0.000000
# 4 0.000000 0.000000 0.000000 0.024211 0.000000 -0.005890
# 5 -0.003516 -0.000558 0.001567 0.000000 0.034794 0.000000
# 6 0.000000 0.000000 0.000000 -0.005890 0.000000 0.040230
#
#
# Mechanical properties :
#
#
# Convention : Reuss Voigt Hill
#
# Bulk Modulus (GPa) = 52.00477 64.05400 58.02939
# Shear Modulus (GPa) = 30.63745 33.92602 32.28173
#
# Velocity S-wave (km/s) = 3.81926 4.01902 3.92041
# Velocity P-wave (km/s) = 6.64899 7.21342 6.93694
#
# Compressibility (1/GPa) = 0.01922901
#
# Stress axis : x y z
#
# Youngs Moduli (GPa) = 57.84331 122.10770 77.43467
#
# Poissons Ratio (x) = 0.51657 0.15840
# Poissons Ratio (y) = 0.24470 0.25594
# Poissons Ratio (z) = 0.11833 0.40360
#
# Static dielectric constant tensor:
#      x y z
#    x 3.807000 0.000000 -0.503250 
#    y 0.000000 3.925700 0.000000 
#    z -0.503250 0.000000 5.296780 
# 
# 
# High freq. dielectric constant tensor:
#      x y z
#    x 1.808880 0.000000 -0.004140 
#    y 0.000000 1.833730 0.000000 
#    z -0.004140 0.000000 1.836920 
# 
# From -- ./inp_files/41732.got.cif
#   From: 2010.03.12/outbox.cif.g09.slc.cpg/sg5_21_cif.got.tgz:41732.got - 2010.03.31 09:47:26.
