data_PCOD8051609
_publ_section_title
;
Structure prediction by ZEFSAII (Michael W. Deem and Ramdas Pophale) SiO2 
 PCOD8051609
Probable space group: C 2
;
_chemical_formula_sum "Si O2"
_cell_formula_units_Z 26
_cell_length_a 6.281206
_cell_length_b 23.004812
_cell_length_c 9.654705
_cell_angle_alpha 90.000000
_cell_angle_beta 107.649067
_cell_angle_gamma 90.000000
_cell_volume 1329.420464
_symmetry_space_group_name_H-M "C 2"
_symmetry_group_IT_number 5
_symmetry_cell_setting 'monoclinic'
loop_
_space_group_symop_operation_xyz
x,y,z
-x,y,-z
1/2+x,1/2+y,z
1/2-x,1/2+y,-z
loop_
_atom_site_type_symbol
_atom_site_label
_atom_site_fract_x
_atom_site_fract_y
_atom_site_fract_z
Si Si1 0.500000 0.507290 0.500000
Si Si2 0.962202 0.541987 0.654409
Si Si3 0.527568 0.148072 0.846686
Si Si4 0.948235 0.824361 0.648769
Si Si5 0.196333 0.433109 0.634566
Si Si6 0.659134 0.755271 0.155548
Si Si7 0.359703 0.719797 0.348354
O O1 0.692285 0.543343 0.621027
O O2 0.380395 0.468763 0.589435
O O3 0.084949 0.590222 0.771416
O O4 0.000000 0.555063 0.500000
O O5 0.076023 0.478892 0.716985
O O6 0.720404 0.195543 0.865019
O O7 0.290738 0.170603 0.747772
O O8 0.500000 0.130539 0.000000
O O9 0.828086 0.876044 0.714645
O O10 0.787053 0.769374 0.608408
O O11 0.000000 0.843715 0.500000
O O12 0.167052 0.807022 0.779535
O O13 0.000000 0.407531 0.500000
O O14 0.518269 0.746706 0.264893
O O15 0.500000 0.776194 0.000000
O O16 0.500000 0.690419 0.500000
#
# Coordination Sequence:
#
# PCOD8051609 Si02
#       7
#     2   4   4   4   4   4   4
#     4   8  16  34  56  86 120 148 192 252 296 348
#     4   9  21  35  59  92 119 156 209 253 300 357
#     4  11  24  40  60  89 125 168 204 251 313 377
#     4  11  21  34  64  97 120 158 208 253 305 374
#     4   9  18  34  58  92 123 152 199 253 306 353
#     4  11  24  42  58  89 129 167 202 247 325 370
#     4  11  23  37  61  94 124 154 208 261 305 370
#
# _framework density 19.557395
#
# number of rings (size 3 to 8) (size 9 to 14) (size 15 to 20)
#    0.000    2.154    3.846    0.462    3.231    1.231 
#    0.000    0.000    0.000    5.538    0.000    0.000 
#    0.000    0.000    0.000    0.000    0.000    0.000 
#
# Total GULP energy -161087.577645 kJ/mol
# GULP energy per Si atom -12391.352127 kJ/mol
# Density = 1.951288 g / cm^3
# Si number density = 19.557395 Si / 1000 Ang^3
#
#
#
# Elastic Constant Matrix: (Units=GPa)
#
#
# Indices 1 2 3 4 5 6 
#
# 1 109.5426 33.5096 37.7805 0.0000 14.7845 0.0000
# 2 33.5096 111.2120 41.8203 0.0000 17.7704 0.0000
# 3 37.7805 41.8203 111.3234 0.0000 15.6311 0.0000
# 4 0.0000 0.0000 0.0000 7.0784 0.0000 18.2547
# 5 14.7845 17.7704 15.6311 0.0000 30.6455 0.0000
# 6 0.0000 0.0000 0.0000 18.2547 0.0000 14.2131
#
#
#
# Elastic Compliance Matrix: (Units=1/GPa)
#
#
# Indices 1 2 3 4 5 6 
#
# 1 0.010994 -0.001864 -0.002626 0.000000 -0.002883 0.000000
# 2 -0.001864 0.011363 -0.003056 0.000000 -0.004131 0.000000
# 3 -0.002626 -0.003056 0.011413 0.000000 -0.002782 0.000000
# 4 0.000000 0.000000 0.000000 -0.061097 0.000000 0.078471
# 5 -0.002883 -0.004131 -0.002782 0.000000 0.037837 0.000000
# 6 0.000000 0.000000 0.000000 0.078471 0.000000 -0.030428
#
#
# Mechanical properties :
#
#
# Convention : Reuss Voigt Hill
#
# Bulk Modulus (GPa) = 53.54126 62.03317 57.78722
# Shear Modulus (GPa) = 3574.47270 24.98524 1799.72897
#
# Velocity S-wave (km/s) = 42.79779 3.57814 30.36819
# Velocity P-wave (km/s) = 49.69545 6.98986 35.48588
#
# Compressibility (1/GPa) = 0.01867718
#
# Stress axis : x y z
#
# Youngs Moduli (GPa) = 90.95858 88.00646 87.62231
#
# Poissons Ratio (x) = 0.16409 0.23008
# Poissons Ratio (y) = 0.16959 0.26776
# Poissons Ratio (z) = 0.23884 0.26893
#
# Static dielectric constant tensor:
#      x y z
#    x 3.998550 0.000000 0.005740 
#    y 0.000000 3.631170 0.000000 
#    z 0.005740 0.000000 3.124210 
# 
# 
# High freq. dielectric constant tensor:
#      x y z
#    x 1.785630 0.000000 0.007310 
#    y 0.000000 1.756170 0.000000 
#    z 0.007310 0.000000 1.724070 
# 
# From -- ./inp_files/13011.got.cif
#   From: 2010.03.12/outbox.cif.g09.slc.cpg/sg5_7_cif.got.tgz:13011.got - 2010.03.31 09:47:26.
