data_PCOD8051135
_publ_section_title
;
Structure prediction by ZEFSAII (Michael W. Deem and Ramdas Pophale) SiO2 
 PCOD8051135
Probable space group: C 2
;
_chemical_formula_sum "Si O2"
_cell_formula_units_Z 32
_cell_length_a 22.212359
_cell_length_b 5.312463
_cell_length_c 18.348812
_cell_angle_alpha 90.000000
_cell_angle_beta 137.378094
_cell_angle_gamma 90.000000
_cell_volume 1466.182908
_symmetry_space_group_name_H-M "C 2"
_symmetry_group_IT_number 5
_symmetry_cell_setting 'monoclinic'
loop_
_space_group_symop_operation_xyz
x,y,z
-x,y,-z
1/2+x,1/2+y,z
1/2-x,1/2+y,-z
loop_
_atom_site_type_symbol
_atom_site_label
_atom_site_fract_x
_atom_site_fract_y
_atom_site_fract_z
Si Si1 0.035238 0.707800 0.284450
Si Si2 0.480893 0.537001 0.599435
Si Si3 0.169119 0.991129 0.325029
Si Si4 0.635352 0.962410 0.913000
Si Si5 0.639361 0.517880 0.638944
Si Si6 0.750984 0.519413 0.250315
Si Si7 0.297355 0.462852 0.954816
Si Si8 0.161099 0.350010 0.451589
O O1 0.987222 0.859951 0.305904
O O2 0.131714 0.631179 0.404067
O O3 0.968684 0.485311 0.200998
O O4 0.070844 0.867245 0.246355
O O5 0.571356 0.614744 0.640328
O O6 0.412083 0.421139 0.479067
O O7 0.429525 0.768734 0.588815
O O8 0.179474 0.080565 0.250556
O O9 0.178540 0.217193 0.390281
O O10 0.255087 0.817090 0.420803
O O11 0.696745 0.969217 0.895694
O O12 0.656661 0.202739 0.981799
O O13 0.647105 0.700052 0.965448
O O14 0.690631 0.269149 0.710899
O O15 0.698596 0.765664 0.679611
O O16 0.700553 0.467856 0.130248
#
# Coordination Sequence:
#
# PCOD8051135 Si02
#       8
#     4   4   4   4   4   4   4   4
#     4  11  24  40  69  91 132 178 229 270 321 398
#     4  10  24  38  60 101 132 175 213 277 324 397
#     4  11  24  39  64  94 134 181 227 258 323 388
#     4  10  23  44  70 100 125 166 220 281 345 396
#     4  11  25  39  64  98 141 171 217 262 337 406
#     4  12  25  43  68  95 134 181 216 272 337 399
#     4  10  23  44  70  97 130 161 217 289 346 396
#     4  11  22  40  63  92 133 178 223 270 310 393
#
# _framework density 21.825382999999999
#
# number of rings (size 3 to 8) (size 9 to 14) (size 15 to 20)
#    0.000    1.250    2.500    2.250   10.500    2.000 
#    0.000    0.625    0.000    0.000    0.000    0.000 
#    0.000    0.000    0.000    0.000    0.000    0.000 
#
# Total GULP energy -198245.873733 kJ/mol
# GULP energy per Si atom -12390.367108 kJ/mol
# Density = 2.177571 g / cm^3
# Si number density = 21.825383 Si / 1000 Ang^3
#
#
#
# Elastic Constant Matrix: (Units=GPa)
#
#
# Indices 1 2 3 4 5 6 
#
# 1 119.9324 7.0673 41.9120 -0.0036 -25.2269 -0.0024
# 2 7.0673 68.9799 -0.5310 -0.0148 -1.1881 -0.0115
# 3 41.9120 -0.5310 64.2855 -0.0057 -10.9625 -0.0004
# 4 -0.0036 -0.0148 -0.0057 32.5872 0.0001 4.9273
# 5 -25.2269 -1.1881 -10.9625 0.0001 37.7102 -0.0014
# 6 -0.0024 -0.0115 -0.0004 4.9273 -0.0014 14.4670
#
#
#
# Elastic Compliance Matrix: (Units=1/GPa)
#
#
# Indices 1 2 3 4 5 6 
#
# 1 0.012074 -0.001186 -0.006850 -0.000001 0.006048 0.000002
# 2 -0.001186 0.014624 0.000881 0.000005 -0.000076 0.000010
# 3 -0.006850 0.000881 0.020256 0.000003 0.001334 -0.000001
# 4 -0.000001 0.000005 0.000003 0.032353 0.000000 -0.011019
# 5 0.006048 -0.000076 0.001334 0.000000 0.030950 0.000004
# 6 0.000002 0.000010 -0.000001 -0.011019 0.000004 0.072876
#
#
# Mechanical properties :
#
#
# Convention : Reuss Voigt Hill
#
# Bulk Modulus (GPa) = 30.63329 38.89940 34.76634
# Shear Modulus (GPa) = 24.00104 30.60285 27.30194
#
# Velocity S-wave (km/s) = 3.31975 3.74862 3.54068
# Velocity P-wave (km/s) = 5.36287 6.04962 5.71657
#
# Compressibility (1/GPa) = 0.03264423
#
# Stress axis : x y z
#
# Youngs Moduli (GPa) = 82.82230 68.38117 49.36690
#
# Poissons Ratio (x) = 0.08107 0.33818
# Poissons Ratio (y) = 0.09819 -0.04348
# Poissons Ratio (z) = 0.56735 -0.06023
#
# Static dielectric constant tensor:
#      x y z
#    x 4.089300 0.000010 -0.024170 
#    y 0.000010 3.836410 0.000030 
#    z -0.024170 0.000030 3.790760 
# 
# 
# High freq. dielectric constant tensor:
#      x y z
#    x 1.868460 0.000000 -0.006360 
#    y 0.000000 1.856770 0.000000 
#    z -0.006360 0.000000 1.839110 
# 
# From -- ./inp_files/63175.got.cif
#   From: 2010.03.12/outbox.cif.g09.slc.cpg/sg5_32_cif.got.tgz:63175.got - 2010.03.31 09:47:26.
