data_PCOD8051599
_publ_section_title
;
Structure prediction by ZEFSAII (Michael W. Deem and Ramdas Pophale) SiO2 
 PCOD8051599
Probable space group: C 2
;
_chemical_formula_sum "Si O2"
_cell_formula_units_Z 30
_cell_length_a 23.401936
_cell_length_b 6.377519
_cell_length_c 25.044346
_cell_angle_alpha 90.000000
_cell_angle_beta 157.823783
_cell_angle_gamma 90.000000
_cell_volume 1410.847507
_symmetry_space_group_name_H-M "C 2"
_symmetry_group_IT_number 5
_symmetry_cell_setting 'monoclinic'
loop_
_space_group_symop_operation_xyz
x,y,z
-x,y,-z
1/2+x,1/2+y,z
1/2-x,1/2+y,-z
loop_
_atom_site_type_symbol
_atom_site_label
_atom_site_fract_x
_atom_site_fract_y
_atom_site_fract_z
Si Si1 0.836286 0.287050 0.814459
Si Si2 0.864453 0.532196 0.938277
Si Si3 0.935041 0.989999 0.134749
Si Si4 0.500000 0.411087 0.000000
Si Si5 0.818714 0.240751 0.136479
Si Si6 0.907706 0.446445 0.583077
Si Si7 0.223937 0.233158 0.351010
Si Si8 0.637236 0.132144 0.343384
O O1 0.772732 0.438137 0.807051
O O2 0.727709 0.279338 0.668672
O O3 0.863789 0.051210 0.858630
O O4 0.997084 0.375390 0.932447
O O5 0.926043 0.766210 0.981375
O O6 0.767823 0.548971 0.908762
O O7 0.992230 0.755842 0.196531
O O8 0.903467 0.135878 0.159204
O O9 0.783194 0.940866 0.969818
O O10 0.068693 0.098928 0.216716
O O11 0.931015 0.328385 0.280362
O O12 0.867602 0.611814 0.501480
O O13 0.778115 0.278403 0.474104
O O14 0.918694 0.558737 0.648505
O O15 0.191137 0.449676 0.351441
#
# Coordination Sequence:
#
# PCOD8051599 Si02
#       8
#     4   4   4   2   4   4   4   4
#     4   9  19  37  61  90 110 165 213 250 299 361
#     4   9  20  36  60  86 128 153 197 265 310 358
#     4  11  25  36  61  92 131 158 204 255 308 381
#     4   8  16  38  62  86 114 154 206 254 302 362
#     4  12  23  40  56  99 131 162 192 259 328 357
#     4  11  22  37  60  86 126 164 203 244 310 375
#     4  11  22  39  65  89 119 165 216 250 293 378
#     4  11  20  42  58  86 119 169 206 244 300 377
#
# _framework density 21.263815000000001
#
# number of rings (size 3 to 8) (size 9 to 14) (size 15 to 20)
#    0.000    1.867    2.667    3.200    1.867    3.200 
#    4.800    0.000    0.000    4.800    0.000    1.867 
#    0.000    0.000    0.000    0.000    0.000    0.000 
#
# Total GULP energy -185889.051658 kJ/mol
# GULP energy per Si atom -12392.603444 kJ/mol
# Density = 2.121542 g / cm^3
# Si number density = 21.263815 Si / 1000 Ang^3
#
#
#
# Elastic Constant Matrix: (Units=GPa)
#
#
# Indices 1 2 3 4 5 6 
#
# 1 72.6246 11.2722 11.5694 -0.0085 -24.2034 -0.0010
# 2 11.2722 108.5378 32.4300 -0.0121 -25.8176 -0.0006
# 3 11.5694 32.4300 83.1305 -0.0339 -31.0533 -0.0068
# 4 -0.0085 -0.0121 -0.0339 27.4520 -0.0110 -11.4369
# 5 -24.2034 -25.8176 -31.0533 -0.0110 44.6663 0.0011
# 6 -0.0010 -0.0006 -0.0068 -11.4369 0.0011 27.2288
#
#
#
# Elastic Compliance Matrix: (Units=1/GPa)
#
#
# Indices 1 2 3 4 5 6 
#
# 1 0.016939 0.000278 0.001382 0.000014 0.010300 0.000006
# 2 0.000278 0.011090 -0.002586 0.000004 0.004763 0.000001
# 3 0.001382 -0.002586 0.016976 0.000032 0.011056 0.000017
# 4 0.000014 0.000004 0.000032 0.044154 0.000043 0.018546
# 5 0.010300 0.004763 0.011056 0.000043 0.038409 0.000020
# 6 0.000006 0.000001 0.000017 0.018546 0.000020 0.044516
#
#
# Mechanical properties :
#
#
# Convention : Reuss Voigt Hill
#
# Bulk Modulus (GPa) = 23.17367 41.64845 32.41106
# Shear Modulus (GPa) = 26.55063 33.80418 30.17740
#
# Velocity S-wave (km/s) = 3.53743 3.99149 3.77130
# Velocity P-wave (km/s) = 5.25418 6.39310 5.85142
#
# Compressibility (1/GPa) = 0.04315242
#
# Stress axis : x y z
#
# Youngs Moduli (GPa) = 59.03601 90.17037 58.90772
#
# Poissons Ratio (x) = -0.02507 -0.08139
# Poissons Ratio (y) = -0.01641 0.15232
# Poissons Ratio (z) = -0.08157 0.23316
#
# Static dielectric constant tensor:
#      x y z
#    x 3.772370 0.000000 -0.232500 
#    y 0.000000 4.079670 0.000000 
#    z -0.232500 0.000000 3.805210 
# 
# 
# High freq. dielectric constant tensor:
#      x y z
#    x 1.820780 0.000000 -0.020860 
#    y 0.000000 1.850760 0.000000 
#    z -0.020860 0.000000 1.812650 
# 
# From -- ./inp_files/72375.got.cif
#   From: 2010.03.12/outbox.cif.g09.slc.cpg/sg5_37_cif.got.tgz:72375.got - 2010.03.31 09:47:26.
