data_PCOD8051468
_publ_section_title
;
Structure prediction by ZEFSAII (Michael W. Deem and Ramdas Pophale) SiO2 
 PCOD8051468
Probable space group: C 2
;
_chemical_formula_sum "Si O2"
_cell_formula_units_Z 32
_cell_length_a 12.189657
_cell_length_b 8.107464
_cell_length_c 20.767710
_cell_angle_alpha 90.000000
_cell_angle_beta 137.823471
_cell_angle_gamma 90.000000
_cell_volume 1378.026281
_symmetry_space_group_name_H-M "C 2"
_symmetry_group_IT_number 5
_symmetry_cell_setting 'monoclinic'
loop_
_space_group_symop_operation_xyz
x,y,z
-x,y,-z
1/2+x,1/2+y,z
1/2-x,1/2+y,-z
loop_
_atom_site_type_symbol
_atom_site_label
_atom_site_fract_x
_atom_site_fract_y
_atom_site_fract_z
Si Si1 0.820272 0.349420 0.945444
Si Si2 0.117849 0.559635 0.625658
Si Si3 0.197129 0.393372 0.539729
Si Si4 0.415598 0.621221 0.099684
Si Si5 0.236978 0.065371 0.174259
Si Si6 0.004091 0.333334 0.748472
Si Si7 0.034592 0.111252 0.390309
Si Si8 0.164174 0.926273 0.610788
O O1 0.705328 0.504133 0.912332
O O2 0.748504 0.241625 0.855104
O O3 0.817904 0.238598 0.008728
O O4 0.000000 0.409907 0.000000
O O5 0.202390 0.408367 0.620785
O O6 0.150243 0.551631 0.714584
O O7 0.177803 0.731191 0.624044
O O8 0.923895 0.541387 0.534059
O O9 0.133926 0.216443 0.487677
O O10 0.368184 0.441915 0.582441
O O11 0.549496 0.524958 0.113201
O O12 0.519715 0.728638 0.196201
O O13 0.321939 0.927205 0.166079
O O14 0.011057 0.213869 0.691177
O O15 0.850862 0.460960 0.668694
O O16 0.859862 0.040521 0.337302
O O17 0.000000 0.972892 0.500000
#
# Coordination Sequence:
#
# PCOD8051468 Si02
#       8
#     4   4   4   4   4   4   4   4
#     4  10  25  46  76 106 136 181 216 281 357 429
#     4  11  21  42  63  88 140 174 232 294 338 407
#     4  11  22  42  61  94 130 188 240 294 348 406
#     4  11  24  47  73 106 141 174 224 283 351 428
#     4  11  24  44  69  99 139 179 225 280 352 410
#     4  12  25  44  66 104 138 180 237 291 340 419
#     4  12  25  40  66  92 133 189 240 290 358 397
#     4  12  25  43  63  93 138 189 236 299 338 399
#
# _framework density 23.221617999999999
#
# number of rings (size 3 to 8) (size 9 to 14) (size 15 to 20)
#    0.000    0.750    5.000    2.250    3.500    2.000 
#    2.250    0.000    0.000    0.000    0.000    0.000 
#    0.000    0.000    0.000    0.000    0.000    0.000 
#
# Total GULP energy -198213.353817 kJ/mol
# GULP energy per Si atom -12388.334614 kJ/mol
# Density = 2.316876 g / cm^3
# Si number density = 23.221618 Si / 1000 Ang^3
#
#
#
# Elastic Constant Matrix: (Units=GPa)
#
#
# Indices 1 2 3 4 5 6 
#
# 1 135.9231 52.6317 34.5085 0.0000 10.9611 0.0000
# 2 52.6317 64.1779 21.6715 0.0000 9.5889 0.0000
# 3 34.5085 21.6715 87.6341 0.0000 -9.1718 0.0000
# 4 0.0000 0.0000 0.0000 20.2409 0.0000 -3.4325
# 5 10.9611 9.5889 -9.1718 0.0000 42.6284 0.0000
# 6 0.0000 0.0000 0.0000 -3.4325 0.0000 49.5594
#
#
#
# Elastic Compliance Matrix: (Units=1/GPa)
#
#
# Indices 1 2 3 4 5 6 
#
# 1 0.011306 -0.008146 -0.002609 0.000000 -0.001636 0.000000
# 2 -0.008146 0.023906 -0.003118 0.000000 -0.003954 0.000000
# 3 -0.002609 -0.003118 0.013661 0.000000 0.004311 0.000000
# 4 0.000000 0.000000 0.000000 0.049992 0.000000 0.003463
# 5 -0.001636 -0.003954 0.004311 0.000000 0.025696 0.000000
# 6 0.000000 0.000000 0.000000 0.003463 0.000000 0.020418
#
#
# Mechanical properties :
#
#
# Convention : Reuss Voigt Hill
#
# Bulk Modulus (GPa) = 47.33341 56.15094 51.74218
# Shear Modulus (GPa) = 27.81397 34.41397 31.11397
#
# Velocity S-wave (km/s) = 3.46462 3.85383 3.66440
# Velocity P-wave (km/s) = 6.03593 6.63593 6.34303
#
# Compressibility (1/GPa) = 0.02112673
#
# Stress axis : x y z
#
# Youngs Moduli (GPa) = 88.45065 41.83051 73.20375
#
# Poissons Ratio (x) = 0.34077 0.19096
# Poissons Ratio (y) = 0.72056 0.22823
# Poissons Ratio (z) = 0.23073 0.13042
#
# Static dielectric constant tensor:
#      x y z
#    x 4.676480 0.000000 -0.086650 
#    y 0.000000 4.095150 0.000000 
#    z -0.086650 0.000000 4.189070 
# 
# 
# High freq. dielectric constant tensor:
#      x y z
#    x 1.942960 0.000000 -0.007910 
#    y 0.000000 1.901430 0.000000 
#    z -0.007910 0.000000 1.903520 
# 
# From -- ./inp_files/65129.got.cif
#   From: 2010.03.12/outbox.cif.g09.slc.cpg/sg5_33_cif.got.tgz:65129.got - 2010.03.31 09:47:26.
