data_PCOD8051328
_publ_section_title
;
Structure prediction by ZEFSAII (Michael W. Deem and Ramdas Pophale) SiO2 
 PCOD8051328
Probable space group: C 2
;
_chemical_formula_sum "Si O2"
_cell_formula_units_Z 24
_cell_length_a 22.237198
_cell_length_b 5.349586
_cell_length_c 9.278544
_cell_angle_alpha 90.000000
_cell_angle_beta 114.190913
_cell_angle_gamma 90.000000
_cell_volume 1006.846004
_symmetry_space_group_name_H-M "C 2"
_symmetry_group_IT_number 5
_symmetry_cell_setting 'monoclinic'
loop_
_space_group_symop_operation_xyz
x,y,z
-x,y,-z
1/2+x,1/2+y,z
1/2-x,1/2+y,-z
loop_
_atom_site_type_symbol
_atom_site_label
_atom_site_fract_x
_atom_site_fract_y
_atom_site_fract_z
Si Si1 0.455197 0.791010 0.205562
Si Si2 0.934591 0.672591 0.685006
Si Si3 0.284191 0.097006 0.488113
Si Si4 0.226286 0.005006 0.143174
Si Si5 0.500000 0.481897 0.500000
Si Si6 0.825831 0.503390 0.986445
Si Si7 0.500000 0.467187 0.000000
O O1 0.449152 0.637565 0.349158
O O2 0.452606 0.624897 0.058769
O O3 0.526765 0.913861 0.282455
O O4 0.396280 0.995220 0.138922
O O5 0.858346 0.607602 0.615156
O O6 0.952963 0.825112 0.559331
O O7 0.952031 0.804418 0.852588
O O8 0.253472 0.376090 0.463926
O O9 0.281549 0.008901 0.320183
O O10 0.180025 0.756730 0.113560
O O11 0.179500 0.249192 0.112192
O O12 0.263154 0.003053 0.028638
#
# Coordination Sequence:
#
# PCOD8051328 Si02
#       7
#     4   4   4   4   2   4   2
#     4  11  25  44  76 107 148 197 247 323 378 450
#     4  11  27  48  74 112 149 199 257 314 385 448
#     4  12  30  48  75 106 155 204 246 308 378 462
#     4  10  24  45  68 107 143 190 249 301 364 455
#     4  10  26  44  76 116 146 192 250 326 382 450
#     4  10  24  44  75 102 142 190 247 311 370 430
#     4  10  26  46  70 104 146 192 252 312 370 462
#
# _framework density 23.836815000000001
#
# number of rings (size 3 to 8) (size 9 to 14) (size 15 to 20)
#    0.000    1.333    0.000    2.000   16.333    5.333 
#    0.000    0.000    0.000    0.000    0.000    0.000 
#    0.000    0.000    0.000    0.000    0.000    0.000 
#
# Total GULP energy -148769.604941 kJ/mol
# GULP energy per Si atom -12397.467078 kJ/mol
# Density = 2.378256 g / cm^3
# Si number density = 23.836815 Si / 1000 Ang^3
#
#
#
# Elastic Constant Matrix: (Units=GPa)
#
#
# Indices 1 2 3 4 5 6 
#
# 1 104.3287 51.0197 44.0418 0.0000 37.6049 0.0000
# 2 51.0197 162.6966 61.4537 0.0000 14.7966 0.0000
# 3 44.0418 61.4537 152.2014 0.0000 8.4442 0.0000
# 4 0.0000 0.0000 0.0000 36.4235 0.0000 13.2755
# 5 37.6049 14.7966 8.4442 0.0000 44.2101 0.0000
# 6 0.0000 0.0000 0.0000 13.2755 0.0000 26.3103
#
#
#
# Elastic Compliance Matrix: (Units=1/GPa)
#
#
# Indices 1 2 3 4 5 6 
#
# 1 0.016943 -0.003024 -0.002970 0.000000 -0.012832 0.000000
# 2 -0.003024 0.007952 -0.002355 0.000000 0.000361 0.000000
# 3 -0.002970 -0.002355 0.008285 0.000000 0.001732 0.000000
# 4 0.000000 0.000000 0.000000 0.033642 0.000000 -0.016975
# 5 -0.012832 0.000361 0.001732 0.000000 0.033083 0.000000
# 6 0.000000 0.000000 0.000000 -0.016975 0.000000 0.046573
#
#
# Mechanical properties :
#
#
# Convention : Reuss Voigt Hill
#
# Bulk Modulus (GPa) = 60.67887 81.36189 71.02038
# Shear Modulus (GPa) = 29.64382 38.90287 34.27334
#
# Velocity S-wave (km/s) = 3.53032 4.04425 3.79599
# Velocity P-wave (km/s) = 6.49067 7.48431 7.00513
#
# Compressibility (1/GPa) = 0.01648020
#
# Stress axis : x y z
#
# Youngs Moduli (GPa) = 59.02115 125.75917 120.70681
#
# Poissons Ratio (x) = 0.38035 0.35846
# Poissons Ratio (y) = 0.17850 0.28432
# Poissons Ratio (z) = 0.17527 0.29623
#
# Static dielectric constant tensor:
#      x y z
#    x 3.919080 0.000000 -0.012530 
#    y 0.000000 4.754060 0.000000 
#    z -0.012530 0.000000 4.388000 
# 
# 
# High freq. dielectric constant tensor:
#      x y z
#    x 1.928850 0.000000 0.002820 
#    y 0.000000 1.959880 0.000000 
#    z 0.002820 0.000000 1.958410 
# 
# From -- ./inp_files/30344.got.cif
#   From: 2010.03.12/outbox.cif.g09.slc.cpg/sg5_16_cif.got.tgz:30344.got - 2010.03.31 09:47:26.
