data_PCOD8051391
_publ_section_title
;
Structure prediction by ZEFSAII (Michael W. Deem and Ramdas Pophale) SiO2 
 PCOD8051391
Probable space group: C 2
;
_chemical_formula_sum "Si O2"
_cell_formula_units_Z 22
_cell_length_a 19.696143
_cell_length_b 7.702425
_cell_length_c 8.868254
_cell_angle_alpha 90.000000
_cell_angle_beta 138.740906
_cell_angle_gamma 90.000000
_cell_volume 887.234933
_symmetry_space_group_name_H-M "C 2"
_symmetry_group_IT_number 5
_symmetry_cell_setting 'monoclinic'
loop_
_space_group_symop_operation_xyz
x,y,z
-x,y,-z
1/2+x,1/2+y,z
1/2-x,1/2+y,-z
loop_
_atom_site_type_symbol
_atom_site_label
_atom_site_fract_x
_atom_site_fract_y
_atom_site_fract_z
Si Si1 0.373528 0.755740 0.138311
Si Si2 0.217333 0.268341 0.709019
Si Si3 0.391485 0.241822 0.782969
Si Si4 0.044093 0.122345 0.224156
Si Si5 0.500000 0.055601 0.500000
Si Si6 0.189113 0.656902 0.657286
O O1 0.322710 0.671434 0.206019
O O2 0.452452 0.616763 0.195817
O O3 0.437473 0.931869 0.278506
O O4 0.276981 0.791074 0.862158
O O5 0.331150 0.224591 0.840502
O O6 0.137589 0.236873 0.440897
O O7 0.223341 0.467735 0.767869
O O8 0.414601 0.433639 0.755540
O O9 0.320741 0.152053 0.539441
O O10 0.500000 0.148094 0.000000
O O11 0.000000 0.215491 0.000000
O O12 0.576182 0.188019 0.540720
#
# Coordination Sequence:
#
# PCOD8051391 Si02
#       6
#     4   4   4   4   2   4
#     4  11  22  46  71  97 140 183 231 288 357 422
#     4  11  23  45  68 100 138 181 237 287 356 428
#     4  11  25  43  64 104 140 179 236 297 349 424
#     4  11  22  43  70  98 138 185 234 283 363 421
#     4  10  24  48  66 108 138 188 228 298 346 436
#     4  11  24  44  71  98 138 180 237 285 357 416
#
# _framework density 24.796137000000002
#
# number of rings (size 3 to 8) (size 9 to 14) (size 15 to 20)
#    0.000    1.091    3.636    4.364    2.545    3.636 
#    6.545    0.000    0.000    0.000    0.000    0.000 
#    0.000    0.000    0.000    0.000    0.000    0.000 
#
# Total GULP energy -136295.246486 kJ/mol
# GULP energy per Si atom -12390.476953 kJ/mol
# Density = 2.473970 g / cm^3
# Si number density = 24.796137 Si / 1000 Ang^3
#
#
#
# Elastic Constant Matrix: (Units=GPa)
#
#
# Indices 1 2 3 4 5 6 
#
# 1 223.6577 13.6094 32.0834 0.0000 17.4757 0.0000
# 2 13.6094 26.1031 8.4801 0.0000 2.5035 0.0000
# 3 32.0834 8.4801 161.8324 0.0000 8.7739 0.0000
# 4 0.0000 0.0000 0.0000 19.7345 0.0000 -1.8067
# 5 17.4757 2.5035 8.7739 0.0000 45.3786 0.0000
# 6 0.0000 0.0000 0.0000 -1.8067 0.0000 22.7517
#
#
#
# Elastic Compliance Matrix: (Units=1/GPa)
#
#
# Indices 1 2 3 4 5 6 
#
# 1 0.004834 -0.002120 -0.000761 0.000000 -0.001598 0.000000
# 2 -0.002120 0.040045 -0.001620 0.000000 -0.001080 0.000000
# 3 -0.000761 -0.001620 0.006462 0.000000 -0.000867 0.000000
# 4 0.000000 0.000000 0.000000 0.051044 0.000000 0.004053
# 5 -0.001598 -0.001080 -0.000867 0.000000 0.022879 0.000000
# 6 0.000000 0.000000 0.000000 0.004053 0.000000 0.044275
#
#
# Mechanical properties :
#
#
# Convention : Reuss Voigt Hill
#
# Bulk Modulus (GPa) = 23.61819 57.77100 40.69459
# Shear Modulus (GPa) = 25.95354 41.40099 33.67726
#
# Velocity S-wave (km/s) = 3.23875 4.09057 3.68933
# Velocity P-wave (km/s) = 4.85094 6.75717 5.88179
#
# Compressibility (1/GPa) = 0.04234025
#
# Stress axis : x y z
#
# Youngs Moduli (GPa) = 206.86525 24.97212 154.75300
#
# Poissons Ratio (x) = 0.05294 0.11771
# Poissons Ratio (y) = 0.43856 0.25063
# Poissons Ratio (z) = 0.15735 0.04044
#
# Static dielectric constant tensor:
#      x y z
#    x 5.091980 0.000000 0.075900 
#    y 0.000000 3.807220 0.000000 
#    z 0.075900 0.000000 4.847190 
# 
# 
# High freq. dielectric constant tensor:
#      x y z
#    x 2.013770 0.000000 0.009430 
#    y 0.000000 1.930940 0.000000 
#    z 0.009430 0.000000 2.000090 
# 
# From -- ./inp_files/29063.got.cif
#   From: 2010.03.12/outbox.cif.g09.slc.cpg/sg5_15_cif.got.tgz:29063.got - 2010.03.31 09:47:26.
