data_PCOD8051058
_publ_section_title
;
Structure prediction by ZEFSAII (Michael W. Deem and Ramdas Pophale) SiO2 
 PCOD8051058
Probable space group: C 2
;
_chemical_formula_sum "Si O2"
_cell_formula_units_Z 26
_cell_length_a 18.432910
_cell_length_b 10.002802
_cell_length_c 8.006809
_cell_angle_alpha 90.000000
_cell_angle_beta 127.383540
_cell_angle_gamma 90.000000
_cell_volume 1173.052997
_symmetry_space_group_name_H-M "C 2"
_symmetry_group_IT_number 5
_symmetry_cell_setting 'monoclinic'
loop_
_space_group_symop_operation_xyz
x,y,z
-x,y,-z
1/2+x,1/2+y,z
1/2-x,1/2+y,-z
loop_
_atom_site_type_symbol
_atom_site_label
_atom_site_fract_x
_atom_site_fract_y
_atom_site_fract_z
Si Si1 0.341299 0.702390 0.586017
Si Si2 0.742742 0.864298 0.798180
Si Si3 0.823203 0.635377 0.130341
Si Si4 0.594452 0.441063 0.218921
Si Si5 0.352512 0.197488 0.525549
Si Si6 0.000000 0.319885 0.000000
Si Si7 0.500976 0.995286 0.688282
O O1 0.343636 0.812406 0.439008
O O2 0.375507 0.551330 0.599230
O O3 0.236067 0.692002 0.485527
O O4 0.407177 0.740799 0.832070
O O5 0.826264 0.923952 0.808385
O O6 0.714855 0.983966 0.885142
O O7 0.767072 0.723349 0.920784
O O8 0.824177 0.727719 0.296319
O O9 0.926070 0.616736 0.207525
O O10 0.579136 0.307550 0.304582
O O11 0.500000 0.482060 0.000000
O O12 0.401767 0.054007 0.596474
O O13 0.970583 0.395619 0.126672
O O14 0.500000 0.930407 0.500000
#
# Coordination Sequence:
#
# PCOD8051058 Si02
#       7
#     4   4   4   4   4   2   4
#     4  11  24  43  65 101 136 175 230 287 352 419
#     4  11  26  42  72 103 139 186 235 292 359 423
#     4  11  24  44  68 103 141 181 236 295 354 419
#     4  11  23  43  68 100 135 178 233 289 353 423
#     4  10  23  42  67  94 132 174 232 283 341 423
#     4  12  26  42  72 100 138 188 226 298 366 412
#     4  10  24  43  70 100 135 180 241 285 345 431
#
# _framework density 22.164387999999999
#
# number of rings (size 3 to 8) (size 9 to 14) (size 15 to 20)
#    0.000    1.231    2.308    2.769   11.846    0.000 
#    0.000    0.000    0.000    0.000    0.000    0.000 
#    0.000    0.000    0.000    0.000    0.000    0.000 
#
# Total GULP energy -161063.826610 kJ/mol
# GULP energy per Si atom -12389.525124 kJ/mol
# Density = 2.211394 g / cm^3
# Si number density = 22.164388 Si / 1000 Ang^3
#
#
#
# Elastic Constant Matrix: (Units=GPa)
#
#
# Indices 1 2 3 4 5 6 
#
# 1 56.2235 30.4180 17.3295 0.0000 0.8861 0.0000
# 2 30.4180 113.6974 46.7322 0.0000 -7.6732 0.0000
# 3 17.3295 46.7322 115.8322 0.0000 3.9706 0.0000
# 4 0.0000 0.0000 0.0000 52.9014 0.0000 -9.6782
# 5 0.8861 -7.6732 3.9706 0.0000 31.5307 0.0000
# 6 0.0000 0.0000 0.0000 -9.6782 0.0000 22.0057
#
#
#
# Elastic Compliance Matrix: (Units=1/GPa)
#
#
# Indices 1 2 3 4 5 6 
#
# 1 0.020997 -0.005360 -0.000918 0.000000 -0.001779 0.000000
# 2 -0.005360 0.012226 -0.004256 0.000000 0.003662 0.000000
# 3 -0.000918 -0.004256 0.010568 0.000000 -0.002341 0.000000
# 4 0.000000 0.000000 0.000000 0.020557 0.000000 0.009041
# 5 -0.001779 0.003662 -0.002341 0.000000 0.032951 0.000000
# 6 0.000000 0.000000 0.000000 0.009041 0.000000 0.049419
#
#
# Mechanical properties :
#
#
# Convention : Reuss Voigt Hill
#
# Bulk Modulus (GPa) = 44.00924 52.74581 48.37752
# Shear Modulus (GPa) = 28.51272 34.03912 31.27592
#
# Velocity S-wave (km/s) = 3.59056 3.92313 3.76052
# Velocity P-wave (km/s) = 6.09003 6.66111 6.38196
#
# Compressibility (1/GPa) = 0.02272250
#
# Stress axis : x y z
#
# Youngs Moduli (GPa) = 47.62567 81.79425 94.62695
#
# Poissons Ratio (x) = 0.43844 0.08685
# Poissons Ratio (y) = 0.25529 0.40274
# Poissons Ratio (z) = 0.04371 0.34812
#
# Static dielectric constant tensor:
#      x y z
#    x 3.859090 0.000000 0.067580 
#    y 0.000000 4.112240 0.000000 
#    z 0.067580 0.000000 4.253830 
# 
# 
# High freq. dielectric constant tensor:
#      x y z
#    x 1.863280 0.000000 0.013420 
#    y 0.000000 1.877780 0.000000 
#    z 0.013420 0.000000 1.882530 
# 
# From -- ./inp_files/29136.got.cif
#   From: 2010.03.12/outbox.cif.g09.slc.cpg/sg5_15_cif.got.tgz:29136.got - 2010.03.31 09:47:26.
