data_PCOD8051342
_publ_section_title
;
Structure prediction by ZEFSAII (Michael W. Deem and Ramdas Pophale) SiO2 
 PCOD8051342
Probable space group: C 2
;
_chemical_formula_sum "Si O2"
_cell_formula_units_Z 16
_cell_length_a 12.007525
_cell_length_b 7.194073
_cell_length_c 13.252825
_cell_angle_alpha 90.000000
_cell_angle_beta 33.523002
_cell_angle_gamma 90.000000
_cell_volume 632.251113
_symmetry_space_group_name_H-M "C 2"
_symmetry_group_IT_number 5
_symmetry_cell_setting 'monoclinic'
loop_
_space_group_symop_operation_xyz
x,y,z
-x,y,-z
1/2+x,1/2+y,z
1/2-x,1/2+y,-z
loop_
_atom_site_type_symbol
_atom_site_label
_atom_site_fract_x
_atom_site_fract_y
_atom_site_fract_z
Si Si1 0.796858 0.776230 0.705348
Si Si2 0.088546 0.087641 0.677529
Si Si3 0.670258 0.115284 0.931405
Si Si4 0.507712 0.159895 0.729071
O O1 0.651871 0.677110 0.735007
O O2 0.000000 0.856140 0.500000
O O3 0.868799 0.625877 0.735449
O O4 0.680010 0.940231 0.848261
O O5 0.267348 0.083085 0.460274
O O6 0.895256 0.201944 0.776984
O O7 0.012007 0.879047 0.752191
O O8 0.500000 0.241738 0.000000
O O9 0.586661 0.054050 0.104538
#
# Coordination Sequence:
#
# PCOD8051342 Si02
#       4
#     4   4   4   4
#     4   9  22  47  76  98 137 188 228 290 348 400
#     4  10  24  47  75 100 143 180 234 289 343 411
#     4  11  26  41  70 106 140 183 231 277 352 409
#     4  10  24  45  71 110 133 187 230 284 353 407
#
# _framework density 25.306401999999999
#
# number of rings (size 3 to 8) (size 9 to 14) (size 15 to 20)
#    0.000    2.000    0.000    0.000   17.500    0.000 
#   22.500    0.000    0.000    0.000    0.000    0.000 
#    0.000    0.000    0.000    0.000    0.000    0.000 
#
# Total GULP energy -99130.133200 kJ/mol
# GULP energy per Si atom -12391.266650 kJ/mol
# Density = 2.524880 g / cm^3
# Si number density = 25.306402 Si / 1000 Ang^3
#
#
#
# Elastic Constant Matrix: (Units=GPa)
#
#
# Indices 1 2 3 4 5 6 
#
# 1 216.1878 1.1996 67.4447 -0.0001 -34.8205 0.0000
# 2 1.1996 33.7977 -8.6204 -0.0001 1.9272 0.0001
# 3 67.4447 -8.6204 164.1270 -0.0003 2.7271 0.0002
# 4 -0.0001 -0.0001 -0.0003 30.6593 0.0002 11.2078
# 5 -34.8205 1.9272 2.7271 0.0002 50.6296 -0.0001
# 6 0.0000 0.0001 0.0002 11.2078 -0.0001 31.9275
#
#
#
# Elastic Compliance Matrix: (Units=1/GPa)
#
#
# Indices 1 2 3 4 5 6 
#
# 1 0.006181 -0.001155 -0.002675 0.000000 0.004439 0.000000
# 2 -0.001155 0.030282 0.002099 0.000000 -0.002060 0.000000
# 3 -0.002675 0.002099 0.007341 0.000000 -0.002315 0.000000
# 4 0.000000 0.000000 0.000000 0.037418 0.000000 -0.013135
# 5 0.004439 -0.002060 -0.002315 0.000000 0.023007 0.000000
# 6 0.000000 0.000000 0.000000 -0.013135 0.000000 0.035932
#
#
# Mechanical properties :
#
#
# Convention : Reuss Voigt Hill
#
# Bulk Modulus (GPa) = 24.78706 59.35116 42.06911
# Shear Modulus (GPa) = 31.83308 46.24918 39.04113
#
# Velocity S-wave (km/s) = 3.55055 4.27964 3.93203
# Velocity P-wave (km/s) = 5.15990 6.92275 6.10528
#
# Compressibility (1/GPa) = 0.04034363
#
# Stress axis : x y z
#
# Youngs Moduli (GPa) = 161.77532 33.02326 136.22853
#
# Poissons Ratio (x) = 0.03813 0.36435
# Poissons Ratio (y) = 0.18680 -0.28597
# Poissons Ratio (z) = 0.43267 -0.06932
#
# Static dielectric constant tensor:
#      x y z
#    x 5.350720 0.000000 -0.180490 
#    y 0.000000 3.883640 0.000000 
#    z -0.180490 0.000000 4.801140 
# 
# 
# High freq. dielectric constant tensor:
#      x y z
#    x 2.047640 0.000000 -0.009560 
#    y 0.000000 1.950930 0.000000 
#    z -0.009560 0.000000 2.031570 
# 
# From -- ./inp_files/18000.got.cif
#   From: 2010.03.12/outbox.cif.g09.slc.cpg/sg5_9_cif.got.tgz:18000.got - 2010.03.31 09:47:26.
