data_PCOD8051296
_publ_section_title
;
Structure prediction by ZEFSAII (Michael W. Deem and Ramdas Pophale) SiO2 
 PCOD8051296
Probable space group: C 2
;
_chemical_formula_sum "Si O2"
_cell_formula_units_Z 14
_cell_length_a 16.164138
_cell_length_b 7.250486
_cell_length_c 16.587879
_cell_angle_alpha 90.000000
_cell_angle_beta 162.172790
_cell_angle_gamma 90.000000
_cell_volume 595.170175
_symmetry_space_group_name_H-M "C 2"
_symmetry_group_IT_number 5
_symmetry_cell_setting 'monoclinic'
loop_
_space_group_symop_operation_xyz
x,y,z
-x,y,-z
1/2+x,1/2+y,z
1/2-x,1/2+y,-z
loop_
_atom_site_type_symbol
_atom_site_label
_atom_site_fract_x
_atom_site_fract_y
_atom_site_fract_z
Si Si1 0.928748 0.578430 0.228815
Si Si2 0.402584 0.347482 0.741953
Si Si3 0.500000 0.186526 0.000000
Si Si4 0.281138 0.332050 0.232028
O O1 0.868643 0.758784 0.226515
O O2 0.122485 0.438944 0.455723
O O3 0.067778 0.650611 0.275828
O O4 0.652030 0.477575 0.949620
O O5 0.393182 0.314886 0.829052
O O6 0.255982 0.054995 0.806240
O O7 0.500000 0.272958 0.500000
O O8 0.000000 0.238000 0.000000
#
# Coordination Sequence:
#
# PCOD8051296 Si02
#       4
#     4   4   2   4
#     4  12  27  47  73 105 145 188 237 290 358 419
#     4  12  28  45  75 105 146 185 240 289 356 423
#     4  10  28  44  74 106 142 184 236 292 352 420
#     4  10  24  43  74  97 145 180 232 289 350 410
#
# _framework density 23.522684999999999
#
# number of rings (size 3 to 8) (size 9 to 14) (size 15 to 20)
#    0.857    0.000    0.000    5.143   14.000    0.000 
#    0.000    0.000    0.000    0.000    0.000    0.000 
#    0.000    0.000    0.000    0.000    0.000    0.000 
#
# Total GULP energy -86827.853108 kJ/mol
# GULP energy per Si atom -12403.979015 kJ/mol
# Density = 2.346915 g / cm^3
# Si number density = 23.522685 Si / 1000 Ang^3
#
#
#
# Elastic Constant Matrix: (Units=GPa)
#
#
# Indices 1 2 3 4 5 6 
#
# 1 86.2999 19.9547 -1.7004 -0.1965 -19.4464 0.0265
# 2 19.9547 75.0173 0.2605 -0.5402 -3.4711 0.0688
# 3 -1.7004 0.2605 103.4638 -0.2961 -0.2784 0.0375
# 4 -0.1965 -0.5402 -0.2961-1242.4459 -0.1436 143.7341
# 5 -19.4464 -3.4711 -0.2784 -0.1436 37.1499 0.0142
# 6 0.0265 0.0688 0.0375 143.7341 0.0142 40.3125
#
#
#
# Elastic Compliance Matrix: (Units=1/GPa)
#
#
# Indices 1 2 3 4 5 6 
#
# 1 0.013951 -0.003388 0.000257 -0.000002 0.006988 0.000000
# 2 -0.003388 0.014211 -0.000093 -0.000006 -0.000447 -0.000001
# 3 0.000257 -0.000093 0.009670 -0.000002 0.000198 -0.000001
# 4 -0.000002 -0.000006 -0.000002 -0.000570 -0.000004 0.002032
# 5 0.006988 -0.000447 0.000198 -0.000004 0.030536 0.000001
# 6 0.000000 -0.000001 -0.000001 0.002032 0.000001 0.017562
#
#
# Mechanical properties :
#
#
# Convention : Reuss Voigt Hill
#
# Bulk Modulus (GPa) = 31.86440 33.53450 32.69945
# Shear Modulus (GPa) = 48.89017 -216.57896 -83.84440
#
# Velocity S-wave (km/s) = 4.56392 -9.60585 -5.97674
# Velocity P-wave (km/s) = 6.43025 10.42797 5.80493
#
# Compressibility (1/GPa) = 0.03138299
#
# Stress axis : x y z
#
# Youngs Moduli (GPa) = 71.68116 70.36696 103.41051
#
# Poissons Ratio (x) = 0.23844 -0.02654
# Poissons Ratio (y) = 0.24289 0.00958
# Poissons Ratio (z) = -0.01839 0.00652
#
# Static dielectric constant tensor:
#      x y z
#    x 7.598680 0.000600 -1.477810 
#    y 0.000600 4.037460 -0.000260 
#    z -1.477810 -0.000260 4.790150 
# 
# 
# High freq. dielectric constant tensor:
#      x y z
#    x 1.929220 0.000000 -0.009270 
#    y 0.000000 1.927510 0.000000 
#    z -0.009270 0.000000 1.941660 
# 
# From -- ./inp_files/6305.got.cif
#   From: 2010.03.12/outbox.cif.g09.slc.cpg/sg5_4_cif.got.tgz:6305.got - 2010.03.31 09:47:26.
