data_PCOD8051374
_publ_section_title
;
Structure prediction by ZEFSAII (Michael W. Deem and Ramdas Pophale) SiO2 
 PCOD8051374
Probable space group: C 2
;
_chemical_formula_sum "Si O2"
_cell_formula_units_Z 18
_cell_length_a 7.407357
_cell_length_b 12.151206
_cell_length_c 9.874334
_cell_angle_alpha 90.000000
_cell_angle_beta 57.057374
_cell_angle_gamma 90.000000
_cell_volume 745.871452
_symmetry_space_group_name_H-M "C 2"
_symmetry_group_IT_number 5
_symmetry_cell_setting 'monoclinic'
loop_
_space_group_symop_operation_xyz
x,y,z
-x,y,-z
1/2+x,1/2+y,z
1/2-x,1/2+y,-z
loop_
_atom_site_type_symbol
_atom_site_label
_atom_site_fract_x
_atom_site_fract_y
_atom_site_fract_z
Si Si1 0.000000 0.460030 0.000000
Si Si2 0.703573 0.580802 0.824631
Si Si3 0.243934 0.721105 0.442713
Si Si4 0.632930 0.852172 0.209312
Si Si5 0.373269 0.152301 0.223325
O O1 0.835071 0.539143 0.153217
O O2 0.124996 0.379733 0.051698
O O3 0.643967 0.638849 0.709043
O O4 0.794594 0.462239 0.743667
O O5 0.874793 0.653218 0.839946
O O6 0.500000 0.564774 0.000000
O O7 0.398464 0.827050 0.370703
O O8 0.260690 0.662619 0.582191
O O9 0.000000 0.751513 0.500000
O O10 0.808450 0.755931 0.157118
#
# Coordination Sequence:
#
# PCOD8051374 Si02
#       5
#     2   4   4   4   4
#     4  10  26  44  72 110 152 184 256 302 364 432
#     4  10  25  47  76 114 151 191 246 311 370 445
#     4  10  24  46  75 108 156 193 244 309 370 438
#     4  11  25  45  76 107 146 201 245 300 372 440
#     4  10  24  47  73 108 146 197 246 303 366 443
#
# _framework density 24.132846000000001
#
# number of rings (size 3 to 8) (size 9 to 14) (size 15 to 20)
#    0.000    1.778    0.000    0.667    9.333   10.667 
#    8.000   13.333    0.000    0.000    0.000    0.000 
#    0.000    0.000    0.000    0.000    0.000    0.000 
#
# Total GULP energy -111539.764392 kJ/mol
# GULP energy per Si atom -12393.307155 kJ/mol
# Density = 2.407792 g / cm^3
# Si number density = 24.132846 Si / 1000 Ang^3
#
#
#
# Elastic Constant Matrix: (Units=GPa)
#
#
# Indices 1 2 3 4 5 6 
#
# 1 76.0393 75.8426 61.5010 0.0000 9.3672 0.0000
# 2 75.8426 145.5047 76.1459 0.0000 1.2470 0.0000
# 3 61.5010 76.1459 182.0358 0.0000 9.2173 0.0000
# 4 0.0000 0.0000 0.0000 43.9459 0.0000 -10.3158
# 5 9.3672 1.2470 9.2173 0.0000 52.2138 0.0000
# 6 0.0000 0.0000 0.0000 -10.3158 0.0000 38.7198
#
#
#
# Elastic Compliance Matrix: (Units=1/GPa)
#
#
# Indices 1 2 3 4 5 6 
#
# 1 0.031152 -0.013839 -0.004510 0.000000 -0.004462 0.000000
# 2 -0.013839 0.014957 -0.001704 0.000000 0.002426 0.000000
# 3 -0.004510 -0.001704 0.007756 0.000000 -0.000519 0.000000
# 4 0.000000 0.000000 0.000000 0.024273 0.000000 0.006467
# 5 -0.004462 0.002426 -0.000519 0.000000 0.019986 0.000000
# 6 0.000000 0.000000 0.000000 0.006467 0.000000 0.027549
#
#
# Mechanical properties :
#
#
# Convention : Reuss Voigt Hill
#
# Bulk Modulus (GPa) = 72.67833 92.28431 82.48132
# Shear Modulus (GPa) = 29.34868 39.64859 34.49863
#
# Velocity S-wave (km/s) = 3.49109 4.05771 3.78501
# Velocity P-wave (km/s) = 6.81407 7.76379 7.30438
#
# Compressibility (1/GPa) = 0.01375926
#
# Stress axis : x y z
#
# Youngs Moduli (GPa) = 32.10111 66.85853 128.93158
#
# Poissons Ratio (x) = 0.92526 0.58145
# Poissons Ratio (y) = 0.44425 0.21968
# Poissons Ratio (z) = 0.14477 0.11391
#
# Static dielectric constant tensor:
#      x y z
#    x 4.572010 0.000000 0.245470 
#    y 0.000000 4.411840 0.000000 
#    z 0.245470 0.000000 4.493710 
# 
# 
# High freq. dielectric constant tensor:
#      x y z
#    x 1.965870 0.000000 0.013000 
#    y 0.000000 1.948890 0.000000 
#    z 0.013000 0.000000 1.961740 
# 
# From -- ./inp_files/35105.got.cif
#   From: 2010.03.12/outbox.cif.g09.slc.cpg/sg5_18_cif.got.tgz:35105.got - 2010.03.31 09:47:26.
