data_PCOD8051955
_publ_section_title
;
Structure prediction by ZEFSAII (Michael W. Deem and Ramdas Pophale) SiO2 
 PCOD8051955
Probable space group: C 2
;
_chemical_formula_sum "Si O2"
_cell_formula_units_Z 20
_cell_length_a 5.299968
_cell_length_b 32.071558
_cell_length_c 5.088515
_cell_angle_alpha 90.000000
_cell_angle_beta 94.080897
_cell_angle_gamma 90.000000
_cell_volume 862.743788
_symmetry_space_group_name_H-M "C 2"
_symmetry_group_IT_number 5
_symmetry_cell_setting 'monoclinic'
loop_
_space_group_symop_operation_xyz
x,y,z
-x,y,-z
1/2+x,1/2+y,z
1/2-x,1/2+y,-z
loop_
_atom_site_type_symbol
_atom_site_label
_atom_site_fract_x
_atom_site_fract_y
_atom_site_fract_z
Si Si1 0.000000 0.306770 0.000000
Si Si2 0.749119 0.243070 0.663645
Si Si3 0.500000 0.028526 0.000000
Si Si4 0.155088 0.153689 0.264164
Si Si5 0.000000 0.917300 0.500000
Si Si6 0.500000 0.082355 0.500000
Si Si7 0.000000 0.362785 0.500000
Si Si8 0.500000 0.475184 0.000000
O O1 0.228418 0.275471 0.093517
O O2 0.929497 0.335223 0.242634
O O3 0.500000 0.258108 0.500000
O O4 0.692503 0.196486 0.782642
O O5 0.000000 0.246652 0.500000
O O6 0.592361 0.054815 0.261509
O O7 0.746204 0.002151 0.943159
O O8 0.293365 0.112101 0.358629
O O9 0.000000 0.169084 0.500000
O O10 0.000000 0.139675 0.000000
O O11 0.252681 0.890163 0.530980
O O12 0.017002 0.946419 0.750968
#
# Coordination Sequence:
#
# PCOD8051955 Si02
#       8
#     2   4   2   4   2   2   2   2
#     4  12  26  49  69 114 152 190 246 314 351 423
#     4  11  25  46  70 101 144 204 256 301 353 418
#     4  12  28  45  78 112 147 184 235 302 374 415
#     4  11  24  44  68  98 143 203 255 300 352 417
#     4  12  26  52  79 108 143 186 233 286 365 470
#     4  12  26  45  69 110 150 190 244 314 349 423
#     4  12  28  45  78 112 147 184 235 302 374 415
#     4  12  26  52  79 108 143 186 233 286 365 470
#
# _framework density 23.181851000000002
#
# number of rings (size 3 to 8) (size 9 to 14) (size 15 to 20)
#    0.000    0.400    3.000    4.800    5.600    2.400 
#    0.000    0.000    0.000    0.000    0.000    0.000 
#    0.000    0.000    0.000    0.000    0.000    0.000 
#
# Total GULP energy -123933.662205 kJ/mol
# GULP energy per Si atom -12393.366220 kJ/mol
# Density = 2.312909 g / cm^3
# Si number density = 23.181851 Si / 1000 Ang^3
#
#
#
# Elastic Constant Matrix: (Units=GPa)
#
#
# Indices 1 2 3 4 5 6 
#
# 1 151.4971 70.1673 57.8512 0.0000 26.0021 0.0000
# 2 70.1673 174.6537 91.9808 0.0000 10.4814 0.0000
# 3 57.8512 91.9808 210.2554 0.0000 21.3284 0.0000
# 4 0.0000 0.0000 0.0000 67.2425 0.0000 -8.7516
# 5 26.0021 10.4814 21.3284 0.0000 44.5212 0.0000
# 6 0.0000 0.0000 0.0000 -8.7516 0.0000 31.2594
#
#
#
# Elastic Compliance Matrix: (Units=1/GPa)
#
#
# Indices 1 2 3 4 5 6 
#
# 1 0.008977 -0.002960 -0.000750 0.000000 -0.004186 0.000000
# 2 -0.002960 0.008417 -0.002987 0.000000 0.001178 0.000000
# 3 -0.000750 -0.002987 0.006468 0.000000 -0.001957 0.000000
# 4 0.000000 0.000000 0.000000 0.015434 0.000000 0.004321
# 5 -0.004186 0.001178 -0.001957 0.000000 0.025566 0.000000
# 6 0.000000 0.000000 0.000000 0.004321 0.000000 0.033200
#
#
# Mechanical properties :
#
#
# Convention : Reuss Voigt Hill
#
# Bulk Modulus (GPa) = 95.54203 108.48944 102.01574
# Shear Modulus (GPa) = 43.49817 49.69840 46.59829
#
# Velocity S-wave (km/s) = 4.33643 4.63520 4.48830
# Velocity P-wave (km/s) = 8.14717 8.69181 8.42390
#
# Compressibility (1/GPa) = 0.01046660
#
# Stress axis : x y z
#
# Youngs Moduli (GPa) = 111.39784 118.80078 154.60646
#
# Poissons Ratio (x) = 0.35166 0.11601
# Poissons Ratio (y) = 0.32974 0.46188
# Poissons Ratio (z) = 0.08359 0.35491
#
# Static dielectric constant tensor:
#      x y z
#    x 3.915830 0.000000 -0.023320 
#    y 0.000000 4.650730 0.000000 
#    z -0.023320 0.000000 4.385680 
# 
# 
# High freq. dielectric constant tensor:
#      x y z
#    x 1.904450 0.000000 0.010540 
#    y 0.000000 1.943550 0.000000 
#    z 0.010540 0.000000 1.942060 
# 
# From -- ./inp_files/1320.got.cif
#   From: 2010.03.12/outbox.cif.g09.slc.cpg/sg5_1_cif.got.tgz:1320.got - 2010.03.31 09:47:26.
