data_PCOD8051166
_publ_section_title
;
Structure prediction by ZEFSAII (Michael W. Deem and Ramdas Pophale) SiO2 
 PCOD8051166
Probable space group: C 2
;
_chemical_formula_sum "Si O2"
_cell_formula_units_Z 30
_cell_length_a 12.006052
_cell_length_b 8.356159
_cell_length_c 13.729084
_cell_angle_alpha 90.000000
_cell_angle_beta 76.408288
_cell_angle_gamma 90.000000
_cell_volume 1338.790155
_symmetry_space_group_name_H-M "C 2"
_symmetry_group_IT_number 5
_symmetry_cell_setting 'monoclinic'
loop_
_space_group_symop_operation_xyz
x,y,z
-x,y,-z
1/2+x,1/2+y,z
1/2-x,1/2+y,-z
loop_
_atom_site_type_symbol
_atom_site_label
_atom_site_fract_x
_atom_site_fract_y
_atom_site_fract_z
Si Si1 0.244620 0.477160 0.616737
Si Si2 0.146580 0.417314 0.263715
Si Si3 0.471293 0.621463 0.613223
Si Si4 0.564216 0.029945 0.805450
Si Si5 0.281208 0.604200 0.400302
Si Si6 0.719715 0.440488 0.943445
Si Si7 0.000000 0.748847 0.000000
Si Si8 0.624338 0.782265 0.940506
O O1 0.375727 0.483226 0.627046
O O2 0.162814 0.577225 0.707483
O O3 0.229886 0.565505 0.516598
O O4 0.211210 0.293638 0.615113
O O5 0.078375 0.265361 0.314513
O O6 0.202642 0.517808 0.338377
O O7 0.244126 0.361010 0.167119
O O8 0.056324 0.527269 0.225181
O O9 0.500000 0.689201 0.500000
O O10 0.586243 0.545683 0.636906
O O11 0.608662 0.857606 0.836719
O O12 0.546373 0.147535 0.899772
O O13 0.706806 0.629354 0.925180
O O14 0.604844 0.362703 0.010434
O O15 0.822811 0.418398 0.999389
O O16 0.500000 0.726357 0.000000
#
# Coordination Sequence:
#
# PCOD8051166 Si02
#       8
#     4   4   4   4   4   4   2   4
#     4  11  24  46  74 100 138 185 227 290 343 410
#     4  12  24  43  72 100 139 186 226 284 349 413
#     4  10  23  46  67  97 140 181 226 284 341 407
#     4  12  24  47  71 101 144 184 235 288 348 411
#     4  11  24  47  69 103 143 176 234 282 347 412
#     4  12  26  45  75 102 139 188 233 291 356 407
#     4  12  26  46  66 110 142 180 242 292 344 422
#     4  12  24  49  71  98 140 184 232 293 345 414
#
# _framework density 22.408290999999998
#
# number of rings (size 3 to 8) (size 9 to 14) (size 15 to 20)
#    0.000    0.533    4.000    4.800    0.000    0.000 
#   14.400    0.000    0.000    0.000    0.000    0.000 
#    0.000    0.000    0.000    0.000    0.000    0.000 
#
# Total GULP energy -186011.044876 kJ/mol
# GULP energy per Si atom -12400.736325 kJ/mol
# Density = 2.235729 g / cm^3
# Si number density = 22.408291 Si / 1000 Ang^3
#
#
#
# Elastic Constant Matrix: (Units=GPa)
#
#
# Indices 1 2 3 4 5 6 
#
# 1 145.0567 39.8402 64.8461 0.0000 8.7040 0.0000
# 2 39.8402 56.6288 31.0074 0.0000 5.0633 0.0000
# 3 64.8461 31.0074 144.7564 0.0000 -9.5153 0.0000
# 4 0.0000 0.0000 0.0000 21.1781 0.0000 -3.5205
# 5 8.7040 5.0633 -9.5153 0.0000 41.5920 0.0000
# 6 0.0000 0.0000 0.0000 -3.5205 0.0000 37.3933
#
#
#
# Elastic Compliance Matrix: (Units=1/GPa)
#
#
# Indices 1 2 3 4 5 6 
#
# 1 0.009962 -0.004843 -0.003577 0.000000 -0.002314 0.000000
# 2 -0.004843 0.022865 -0.002888 0.000000 -0.002431 0.000000
# 3 -0.003577 -0.002888 0.009342 0.000000 0.003237 0.000000
# 4 0.000000 0.000000 0.000000 0.047969 0.000000 0.004516
# 5 -0.002314 -0.002431 0.003237 0.000000 0.025564 0.000000
# 6 0.000000 0.000000 0.000000 0.004516 0.000000 0.027168
#
#
# Mechanical properties :
#
#
# Convention : Reuss Voigt Hill
#
# Bulk Modulus (GPa) = 51.14505 68.64770 59.89637
# Shear Modulus (GPa) = 29.06906 34.08254 31.57580
#
# Velocity S-wave (km/s) = 3.60564 3.90420 3.75789
# Velocity P-wave (km/s) = 6.34097 7.14319 6.75400
#
# Compressibility (1/GPa) = 0.01955223
#
# Stress axis : x y z
#
# Youngs Moduli (GPa) = 100.38102 43.73549 107.04190
#
# Poissons Ratio (x) = 0.21181 0.38293
# Poissons Ratio (y) = 0.48614 0.30914
# Poissons Ratio (z) = 0.35910 0.12631
#
# Static dielectric constant tensor:
#      x y z
#    x 4.425000 0.000000 -0.077700 
#    y 0.000000 3.778840 0.000000 
#    z -0.077700 0.000000 4.254010 
# 
# 
# High freq. dielectric constant tensor:
#      x y z
#    x 1.905720 0.000000 -0.004560 
#    y 0.000000 1.863460 0.000000 
#    z -0.004560 0.000000 1.894720 
# 
# From -- ./inp_files/52431.got.cif
#   From: 2010.03.12/outbox.cif.g09.slc.cpg/sg5_27_cif.got.tgz:52431.got - 2010.03.31 09:47:26.
