data_PCOD8051516
_publ_section_title
;
Structure prediction by ZEFSAII (Michael W. Deem and Ramdas Pophale) SiO2 
 PCOD8051516
Probable space group: C 2
;
_chemical_formula_sum "Si O2"
_cell_formula_units_Z 30
_cell_length_a 13.569936
_cell_length_b 5.427133
_cell_length_c 19.552080
_cell_angle_alpha 90.000000
_cell_angle_beta 59.853735
_cell_angle_gamma 90.000000
_cell_volume 1245.173536
_symmetry_space_group_name_H-M "C 2"
_symmetry_group_IT_number 5
_symmetry_cell_setting 'monoclinic'
loop_
_space_group_symop_operation_xyz
x,y,z
-x,y,-z
1/2+x,1/2+y,z
1/2-x,1/2+y,-z
loop_
_atom_site_type_symbol
_atom_site_label
_atom_site_fract_x
_atom_site_fract_y
_atom_site_fract_z
Si Si1 0.261707 0.057650 0.825253
Si Si2 0.043204 0.874372 0.835204
Si Si3 0.298965 0.276002 0.951389
Si Si4 0.000000 0.963511 0.500000
Si Si5 0.059808 0.200204 0.247927
Si Si6 0.727043 0.706586 0.468188
Si Si7 0.635631 0.327547 0.331442
Si Si8 0.358270 0.037673 0.304940
O O1 0.270964 0.268135 0.879813
O O2 0.341873 0.113508 0.731254
O O3 0.128716 0.025302 0.854277
O O4 0.326104 0.811151 0.828901
O O5 0.111433 0.644268 0.780445
O O6 0.935038 0.786065 0.917254
O O7 0.999517 0.026972 0.786226
O O8 0.244204 0.523451 0.999906
O O9 0.899344 0.147194 0.513486
O O10 0.960534 0.784041 0.576569
O O11 0.967561 0.407546 0.299870
O O12 0.096902 0.071201 0.304777
O O13 0.727151 0.966209 0.506844
O O14 0.814184 0.743808 0.373902
O O15 0.755176 0.349983 0.329124
#
# Coordination Sequence:
#
# PCOD8051516 Si02
#       8
#     4   4   4   2   4   4   4   4
#     4  12  26  46  78 111 144 204 248 303 373 450
#     4  12  26  47  77 107 147 193 249 305 366 453
#     4  12  29  53  80 116 155 193 242 307 383 455
#     4  10  26  46  64 110 158 200 252 328 366 438
#     4  12  22  43  73 105 144 194 253 307 366 436
#     4  11  27  46  68 102 149 202 251 311 386 431
#     4  11  23  44  71 104 148 199 259 305 378 433
#     4  11  24  41  73 105 140 193 260 306 360 454
#
# _framework density 24.093026999999999
#
# number of rings (size 3 to 8) (size 9 to 14) (size 15 to 20)
#    0.000    0.533    5.333    1.600    5.600    1.067 
#    0.000    4.000    0.000    0.000    0.000    0.000 
#    0.000    0.000    0.000    0.000    0.000    0.000 
#
# Total GULP energy -185946.667048 kJ/mol
# GULP energy per Si atom -12396.444470 kJ/mol
# Density = 2.403819 g / cm^3
# Si number density = 24.093027 Si / 1000 Ang^3
#
#
#
# Elastic Constant Matrix: (Units=GPa)
#
#
# Indices 1 2 3 4 5 6 
#
# 1 143.6574 23.6550 41.2837 -0.0031 -14.1190 0.0011
# 2 23.6550 75.3410 38.3112 -0.0084 -12.4465 0.0009
# 3 41.2837 38.3112 119.6546 -0.0027 -24.0802 -0.0021
# 4 -0.0031 -0.0084 -0.0027 38.5921 -0.0021 3.5194
# 5 -14.1190 -12.4465 -24.0802 -0.0021 37.4711 -0.0024
# 6 0.0011 0.0009 -0.0021 3.5194 -0.0024 31.5958
#
#
#
# Elastic Compliance Matrix: (Units=1/GPa)
#
#
# Indices 1 2 3 4 5 6 
#
# 1 0.007880 -0.001212 -0.002084 0.000000 0.001228 0.000000
# 2 -0.001212 0.016215 -0.004343 0.000003 0.002138 -0.000001
# 3 -0.002084 -0.004343 0.011507 0.000000 0.005167 0.000001
# 4 0.000000 0.000003 0.000000 0.026178 0.000002 -0.002916
# 5 0.001228 0.002138 0.005167 0.000002 0.031180 0.000002
# 6 0.000000 -0.000001 0.000001 -0.002916 0.000002 0.031975
#
#
# Mechanical properties :
#
#
# Convention : Reuss Voigt Hill
#
# Bulk Modulus (GPa) = 49.20214 60.57253 54.88734
# Shear Modulus (GPa) = 34.01644 37.22535 35.62089
#
# Velocity S-wave (km/s) = 3.76157 3.93500 3.84926
# Velocity P-wave (km/s) = 6.27152 6.77062 6.52584
#
# Compressibility (1/GPa) = 0.02032432
#
# Stress axis : x y z
#
# Youngs Moduli (GPa) = 126.90348 61.66997 86.90475
#
# Poissons Ratio (x) = 0.07473 0.18109
# Poissons Ratio (y) = 0.15377 0.37747
# Poissons Ratio (z) = 0.26444 0.26786
#
# Static dielectric constant tensor:
#      x y z
#    x 4.588940 0.000000 -0.085070 
#    y 0.000000 4.146820 0.000000 
#    z -0.085070 0.000000 4.731590 
# 
# 
# High freq. dielectric constant tensor:
#      x y z
#    x 1.976800 0.000000 -0.010140 
#    y 0.000000 1.942170 0.000000 
#    z -0.010140 0.000000 1.957420 
# 
# From -- ./inp_files/65672.got.cif
#   From: 2010.03.12/outbox.cif.g09.slc.cpg/sg5_33_cif.got.tgz:65672.got - 2010.03.31 09:47:26.
