data_PCOD8051529
_publ_section_title
;
Structure prediction by ZEFSAII (Michael W. Deem and Ramdas Pophale) SiO2 
 PCOD8051529
Probable space group: C 2
;
_chemical_formula_sum "Si O2"
_cell_formula_units_Z 20
_cell_length_a 6.687036
_cell_length_b 19.046813
_cell_length_c 9.146572
_cell_angle_alpha 90.000000
_cell_angle_beta 129.971851
_cell_angle_gamma 90.000000
_cell_volume 892.785748
_symmetry_space_group_name_H-M "C 2"
_symmetry_group_IT_number 5
_symmetry_cell_setting 'monoclinic'
loop_
_space_group_symop_operation_xyz
x,y,z
-x,y,-z
1/2+x,1/2+y,z
1/2-x,1/2+y,-z
loop_
_atom_site_type_symbol
_atom_site_label
_atom_site_fract_x
_atom_site_fract_y
_atom_site_fract_z
Si Si1 0.281901 0.153990 0.111893
Si Si2 0.054066 0.305972 0.355137
Si Si3 0.268434 0.499636 0.989207
Si Si4 0.000000 0.694369 0.500000
Si Si5 0.250440 0.444002 0.302785
Si Si6 0.000000 0.757878 0.000000
O O1 0.229520 0.083965 0.989910
O O2 0.414000 0.141222 0.331219
O O3 0.476599 0.208169 0.128819
O O4 0.000000 0.190691 0.000000
O O5 0.242795 0.238731 0.427659
O O6 0.214124 0.364611 0.340346
O O7 0.000000 0.324595 0.500000
O O8 0.767567 0.301230 0.145273
O O9 0.007095 0.486047 0.773676
O O10 0.500000 0.471229 0.000000
O O11 0.284253 0.454284 0.144333
O O12 0.500000 0.477653 0.500000
#
# Coordination Sequence:
#
# PCOD8051529 Si02
#       6
#     4   4   4   2   4   2
#     4  11  24  45  72 105 143 180 236 289 350 420
#     4  12  27  43  71 109 140 187 236 287 362 415
#     4  10  26  47  69 104 138 191 238 284 352 409
#     4  12  24  46  70 108 144 178 232 296 354 426
#     4  11  26  45  71 101 145 182 243 292 339 419
#     4  12  24  44  76 100 144 188 226 290 354 420
#
# _framework density 22.401793000000001
#
# number of rings (size 3 to 8) (size 9 to 14) (size 15 to 20)
#    0.000    0.800    5.000    1.200    4.200    8.000 
#    3.600    0.000    0.000    0.000    0.000    0.000 
#    0.000    0.000    0.000    0.000    0.000    0.000 
#
# Total GULP energy -123906.729255 kJ/mol
# GULP energy per Si atom -12390.672926 kJ/mol
# Density = 2.235081 g / cm^3
# Si number density = 22.401793 Si / 1000 Ang^3
#
#
#
# Elastic Constant Matrix: (Units=GPa)
#
#
# Indices 1 2 3 4 5 6 
#
# 1 143.4590 36.3310 65.7682 0.0000 14.1260 0.0000
# 2 36.3310 58.6118 31.2054 0.0000 -17.2200 0.0000
# 3 65.7682 31.2054 164.9902 0.0000 10.1703 0.0000
# 4 0.0000 0.0000 0.0000 31.4540 0.0000 0.6732
# 5 14.1260 -17.2200 10.1703 0.0000 53.8221 0.0000
# 6 0.0000 0.0000 0.0000 0.6732 0.0000 33.3424
#
#
#
# Elastic Compliance Matrix: (Units=1/GPa)
#
#
# Indices 1 2 3 4 5 6 
#
# 1 0.010120 -0.006078 -0.002632 0.000000 -0.004103 0.000000
# 2 -0.006078 0.025474 -0.003031 0.000000 0.010318 0.000000
# 3 -0.002632 -0.003031 0.007791 0.000000 -0.001751 0.000000
# 4 0.000000 0.000000 0.000000 0.031806 0.000000 -0.000642
# 5 -0.004103 0.010318 -0.001751 0.000000 0.023289 0.000000
# 6 0.000000 0.000000 0.000000 -0.000642 0.000000 0.030005
#
#
# Mechanical properties :
#
#
# Convention : Reuss Voigt Hill
#
# Bulk Modulus (GPa) = 50.24050 70.40779 60.32414
# Shear Modulus (GPa) = 31.52549 39.30745 35.41647
#
# Velocity S-wave (km/s) = 3.75544 4.19341 3.98045
# Velocity P-wave (km/s) = 6.42496 7.41242 6.93628
#
# Compressibility (1/GPa) = 0.01990426
#
# Stress axis : x y z
#
# Youngs Moduli (GPa) = 98.81098 39.25562 128.34768
#
# Poissons Ratio (x) = 0.23858 0.33778
# Poissons Ratio (y) = 0.60053 0.38908
# Poissons Ratio (z) = 0.26004 0.11900
#
# Static dielectric constant tensor:
#      x y z
#    x 4.323240 0.000000 0.259510 
#    y 0.000000 3.664340 0.000000 
#    z 0.259510 0.000000 4.146350 
# 
# 
# High freq. dielectric constant tensor:
#      x y z
#    x 1.908300 0.000000 0.014740 
#    y 0.000000 1.857200 0.000000 
#    z 0.014740 0.000000 1.890610 
# 
# From -- ./inp_files/12618.got.cif
#   From: 2010.03.12/outbox.cif.g09.slc.cpg/sg5_7_cif.got.tgz:12618.got - 2010.03.31 09:47:26.
