data_PCOD8051868
_publ_section_title
;
Structure prediction by ZEFSAII (Michael W. Deem and Ramdas Pophale) SiO2 
 PCOD8051868
Probable space group: C 2
;
_chemical_formula_sum "Si O2"
_cell_formula_units_Z 24
_cell_length_a 15.926975
_cell_length_b 7.872068
_cell_length_c 13.703339
_cell_angle_alpha 90.000000
_cell_angle_beta 142.544535
_cell_angle_gamma 90.000000
_cell_volume 1044.853451
_symmetry_space_group_name_H-M "C 2"
_symmetry_group_IT_number 5
_symmetry_cell_setting 'monoclinic'
loop_
_space_group_symop_operation_xyz
x,y,z
-x,y,-z
1/2+x,1/2+y,z
1/2-x,1/2+y,-z
loop_
_atom_site_type_symbol
_atom_site_label
_atom_site_fract_x
_atom_site_fract_y
_atom_site_fract_z
Si Si1 0.385430 0.660120 0.189178
Si Si2 0.143912 0.411227 0.013542
Si Si3 0.412113 0.093677 0.699215
Si Si4 0.074723 0.486306 0.668463
Si Si5 0.847850 0.115791 0.844031
Si Si6 0.648960 0.474702 0.358075
O O1 0.261060 0.552934 0.118881
O O2 0.444614 0.787542 0.325882
O O3 0.507281 0.533637 0.274561
O O4 0.333247 0.770038 0.049352
O O5 0.149154 0.314872 0.122442
O O6 0.994530 0.500234 0.862221
O O7 0.368737 0.281142 0.692959
O O8 0.511237 0.102188 0.695530
O O9 0.274697 0.984552 0.550353
O O10 0.238213 0.520204 0.811370
O O11 0.000000 0.536406 0.500000
O O12 0.809604 0.094155 0.695221
O O13 0.000000 0.034379 0.000000
#
# Coordination Sequence:
#
# PCOD8051868 Si02
#       6
#     4   4   4   4   4   4
#     4  11  23  44  71  98 140 187 237 278 357 423
#     4  11  23  45  72 103 137 192 231 290 353 423
#     4  11  25  45  77  98 145 191 234 281 365 421
#     4  11  24  47  68 101 142 190 229 291 352 420
#     4  12  26  45  69 103 141 176 238 299 344 404
#     4  12  25  46  72 105 138 188 236 295 342 424
#
# _framework density 22.969728
#
# number of rings (size 3 to 8) (size 9 to 14) (size 15 to 20)
#    0.000    0.667    3.333    6.000    2.333    0.000 
#    6.000    0.000    0.000    0.000    0.000    0.000 
#    0.000    0.000    0.000    0.000    0.000    0.000 
#
# Total GULP energy -148838.227286 kJ/mol
# GULP energy per Si atom -12403.185607 kJ/mol
# Density = 2.291745 g / cm^3
# Si number density = 22.969728 Si / 1000 Ang^3
#
#
#
# Elastic Constant Matrix: (Units=GPa)
#
#
# Indices 1 2 3 4 5 6 
#
# 1 53.1570 38.2477 31.4457 0.0000 5.1875 0.0000
# 2 38.2477 138.4962 48.4004 0.0000 -1.5824 0.0000
# 3 31.4457 48.4004 84.5026 0.0000 7.0806 0.0000
# 4 0.0000 0.0000 0.0000 40.9451 0.0000 7.5966
# 5 5.1875 -1.5824 7.0806 0.0000 29.5350 0.0000
# 6 0.0000 0.0000 0.0000 7.5966 0.0000 43.6337
#
#
#
# Elastic Compliance Matrix: (Units=1/GPa)
#
#
# Indices 1 2 3 4 5 6 
#
# 1 0.026802 -0.005067 -0.006791 0.000000 -0.003351 0.000000
# 2 -0.005067 0.010076 -0.004087 0.000000 0.002410 0.000000
# 3 -0.006791 -0.004087 0.016961 0.000000 -0.003092 0.000000
# 4 0.000000 0.000000 0.000000 0.025238 0.000000 -0.004394
# 5 -0.003351 0.002410 -0.003092 0.000000 0.035317 0.000000
# 6 0.000000 0.000000 0.000000 -0.004394 0.000000 0.023683
#
#
# Mechanical properties :
#
#
# Convention : Reuss Voigt Hill
#
# Bulk Modulus (GPa) = 45.56056 56.92704 51.24380
# Shear Modulus (GPa) = 28.20331 33.36024 30.78177
#
# Velocity S-wave (km/s) = 3.50787 3.81511 3.66471
# Velocity P-wave (km/s) = 6.02370 6.65162 6.34543
#
# Compressibility (1/GPa) = 0.02194881
#
# Stress axis : x y z
#
# Youngs Moduli (GPa) = 37.31037 99.24889 58.95779
#
# Poissons Ratio (x) = 0.50288 0.40037
# Poissons Ratio (y) = 0.18905 0.24098
# Poissons Ratio (z) = 0.25337 0.40567
#
# Static dielectric constant tensor:
#      x y z
#    x 4.151100 0.000000 0.159710 
#    y 0.000000 4.124410 0.000000 
#    z 0.159710 0.000000 4.213060 
# 
# 
# High freq. dielectric constant tensor:
#      x y z
#    x 1.905500 0.000000 0.017920 
#    y 0.000000 1.903300 0.000000 
#    z 0.017920 0.000000 1.913260 
# 
# From -- ./inp_files/55797.got.cif
#   From: 2010.03.12/outbox.cif.g09.slc.cpg/sg5_28_cif.got.tgz:55797.got - 2010.03.31 09:47:26.
