data_PCOD8051239
_publ_section_title
;
Structure prediction by ZEFSAII (Michael W. Deem and Ramdas Pophale) SiO2 
 PCOD8051239
Probable space group: C 2
;
_chemical_formula_sum "Si O2"
_cell_formula_units_Z 30
_cell_length_a 9.608861
_cell_length_b 14.922771
_cell_length_c 11.688674
_cell_angle_alpha 90.000000
_cell_angle_beta 60.197309
_cell_angle_gamma 90.000000
_cell_volume 1454.378031
_symmetry_space_group_name_H-M "C 2"
_symmetry_group_IT_number 5
_symmetry_cell_setting 'monoclinic'
loop_
_space_group_symop_operation_xyz
x,y,z
-x,y,-z
1/2+x,1/2+y,z
1/2-x,1/2+y,-z
loop_
_atom_site_type_symbol
_atom_site_label
_atom_site_fract_x
_atom_site_fract_y
_atom_site_fract_z
Si Si1 0.322841 0.362220 0.051392
Si Si2 0.936877 0.254150 0.737145
Si Si3 0.794989 0.527977 0.764677
Si Si4 0.108364 0.438553 0.675304
Si Si5 0.637256 0.492588 0.594714
Si Si6 0.141910 0.209790 0.853267
Si Si7 0.500000 0.644006 0.500000
Si Si8 0.690806 0.391820 0.202709
O O1 0.222934 0.272901 0.123596
O O2 0.295378 0.444416 0.145545
O O3 0.500000 0.327232 0.000000
O O4 0.284030 0.402689 0.942487
O O5 0.900336 0.205841 0.630737
O O6 0.008838 0.351163 0.685291
O O7 0.057918 0.194825 0.764044
O O8 0.747739 0.525822 0.652009
O O9 0.730986 0.618330 0.851221
O O10 0.988025 0.522224 0.703254
O O11 0.258508 0.430058 0.529918
O O12 0.171179 0.443083 0.781198
O O13 0.611198 0.581746 0.531177
O O14 0.481291 0.433762 0.692040
O O15 0.280840 0.285709 0.785092
O O16 0.000000 0.236128 0.000000
#
# Coordination Sequence:
#
# PCOD8051239 Si02
#       8
#     4   4   4   4   4   4   2   4
#     4  11  22  42  70 101 133 179 232 274 348 410
#     4  10  24  41  67  94 134 178 219 281 336 406
#     4  11  24  40  69  97 133 178 225 284 333 406
#     4  10  24  44  65  97 132 181 224 272 343 403
#     4  12  23  45  65  94 137 176 228 275 339 406
#     4  11  22  43  67  98 135 174 230 283 345 399
#     4  12  24  42  66  96 130 178 228 268 340 394
#     4  11  23  43  70  95 135 182 224 280 340 415
#
# _framework density 20.627374
#
# number of rings (size 3 to 8) (size 9 to 14) (size 15 to 20)
#    0.000    1.067    5.333    0.800    3.733    0.000 
#    4.800    1.333    0.000    0.000    0.000    0.000 
#    0.000    0.000    0.000    0.000    0.000    0.000 
#
# Total GULP energy -185879.905370 kJ/mol
# GULP energy per Si atom -12391.993691 kJ/mol
# Density = 2.058043 g / cm^3
# Si number density = 20.627374 Si / 1000 Ang^3
#
#
#
# Elastic Constant Matrix: (Units=GPa)
#
#
# Indices 1 2 3 4 5 6 
#
# 1 126.1663 46.6665 59.9071 0.0000 5.6585 0.0000
# 2 46.6665 66.1603 29.4867 0.0000 -10.4240 0.0000
# 3 59.9071 29.4867 120.6571 0.0000 3.8090 0.0000
# 4 0.0000 0.0000 0.0000 36.4899 0.0000 3.5513
# 5 5.6585 -10.4240 3.8090 0.0000 44.3155 0.0000
# 6 0.0000 0.0000 0.0000 3.5513 0.0000 26.3284
#
#
#
# Elastic Compliance Matrix: (Units=1/GPa)
#
#
# Indices 1 2 3 4 5 6 
#
# 1 0.013042 -0.007679 -0.004501 0.000000 -0.003085 0.000000
# 2 -0.007679 0.022367 -0.001855 0.000000 0.006401 0.000000
# 3 -0.004501 -0.001855 0.011002 0.000000 -0.000807 0.000000
# 4 0.000000 0.000000 0.000000 0.027769 0.000000 -0.003746
# 5 -0.003085 0.006401 -0.000807 0.000000 0.024534 0.000000
# 6 0.000000 0.000000 0.000000 -0.003746 0.000000 0.038487
#
#
# Mechanical properties :
#
#
# Convention : Reuss Voigt Hill
#
# Bulk Modulus (GPa) = 54.52930 65.01160 59.77045
# Shear Modulus (GPa) = 29.17377 33.22164 31.19771
#
# Velocity S-wave (km/s) = 3.76483 4.01753 3.89323
# Velocity P-wave (km/s) = 6.73731 7.28741 7.01775
#
# Compressibility (1/GPa) = 0.01833876
#
# Stress axis : x y z
#
# Youngs Moduli (GPa) = 76.67422 44.70909 90.89337
#
# Poissons Ratio (x) = 0.34333 0.40916
# Poissons Ratio (y) = 0.58879 0.16865
# Poissons Ratio (z) = 0.34515 0.08295
#
# Static dielectric constant tensor:
#      x y z
#    x 4.056450 0.000000 -0.043000 
#    y 0.000000 3.623410 0.000000 
#    z -0.043000 0.000000 4.060850 
# 
# 
# High freq. dielectric constant tensor:
#      x y z
#    x 1.813690 0.000000 0.012280 
#    y 0.000000 1.794970 0.000000 
#    z 0.012280 0.000000 1.814480 
# 
# From -- ./inp_files/36360.got.cif
#   From: 2010.03.12/outbox.cif.g09.slc.cpg/sg5_19_cif.got.tgz:36360.got - 2010.03.31 09:47:26.
