data_PCOD8051109
_publ_section_title
;
Structure prediction by ZEFSAII (Michael W. Deem and Ramdas Pophale) SiO2 
 PCOD8051109
Probable space group: C 2
;
_chemical_formula_sum "Si O2"
_cell_formula_units_Z 28
_cell_length_a 8.239403
_cell_length_b 11.216115
_cell_length_c 15.151416
_cell_angle_alpha 90.000000
_cell_angle_beta 62.599176
_cell_angle_gamma 90.000000
_cell_volume 1243.113693
_symmetry_space_group_name_H-M "C 2"
_symmetry_group_IT_number 5
_symmetry_cell_setting 'monoclinic'
loop_
_space_group_symop_operation_xyz
x,y,z
-x,y,-z
1/2+x,1/2+y,z
1/2-x,1/2+y,-z
loop_
_atom_site_type_symbol
_atom_site_label
_atom_site_fract_x
_atom_site_fract_y
_atom_site_fract_z
Si Si1 0.794358 0.498160 0.030737
Si Si2 0.150463 0.679391 0.538610
Si Si3 0.560305 0.774744 0.656142
Si Si4 0.321247 0.474587 0.595764
Si Si5 0.885513 0.740530 0.941830
Si Si6 0.452943 0.546752 0.747006
Si Si7 0.360870 0.305898 0.280116
O O1 0.714716 0.368962 0.019338
O O2 0.709559 0.539604 0.143995
O O3 0.768296 0.613242 0.969301
O O4 0.000000 0.465777 0.000000
O O5 0.336851 0.741544 0.460115
O O6 0.205959 0.546879 0.552730
O O7 0.078317 0.750658 0.641707
O O8 0.000000 0.672270 0.500000
O O9 0.682109 0.877506 0.670074
O O10 0.564081 0.670035 0.728602
O O11 0.351978 0.805846 0.687899
O O12 0.500000 0.419435 0.500000
O O13 0.376070 0.554512 0.665622
O O14 0.016852 0.741013 0.824277
O O15 0.000000 0.719276 0.000000
O O16 0.597206 0.444428 0.726094
#
# Coordination Sequence:
#
# PCOD8051109 Si02
#       7
#     4   4   4   4   4   4   4
#     4  10  23  43  72  98 138 178 225 285 346 403
#     4  12  26  43  68  99 135 182 229 275 333 401
#     4  12  24  42  70  95 137 182 225 275 333 399
#     4  12  25  45  66  96 140 179 227 280 331 398
#     4  10  23  45  71 103 139 174 229 285 341 409
#     4  11  24  45  65 101 136 176 229 278 333 407
#     4  11  24  47  68  98 141 180 223 279 336 402
#
# _framework density 22.524083999999998
#
# number of rings (size 3 to 8) (size 9 to 14) (size 15 to 20)
#    0.000    0.857    2.857    4.286    2.000    2.857 
#    0.000    2.857    0.000    0.000    0.000    0.000 
#    0.000    0.000    0.000    0.000    0.000    0.000 
#
# Total GULP energy -173487.413373 kJ/mol
# GULP energy per Si atom -12391.958098 kJ/mol
# Density = 2.247282 g / cm^3
# Si number density = 22.524084 Si / 1000 Ang^3
#
#
#
# Elastic Constant Matrix: (Units=GPa)
#
#
# Indices 1 2 3 4 5 6 
#
# 1 90.3412 49.6474 55.1049 0.0000 -24.2306 0.0000
# 2 49.6474 120.2318 36.5797 0.0000 -28.8069 0.0000
# 3 55.1049 36.5797 128.4824 0.0000 -21.6744 0.0000
# 4 0.0000 0.0000 0.0000 41.2485 0.0000 -10.9616
# 5 -24.2306 -28.8069 -21.6744 0.0000 30.0667 0.0000
# 6 0.0000 0.0000 0.0000 -10.9616 0.0000 14.9624
#
#
#
# Elastic Compliance Matrix: (Units=1/GPa)
#
#
# Indices 1 2 3 4 5 6 
#
# 1 0.018758 -0.004390 -0.005641 0.000000 0.006845 0.000000
# 2 -0.004390 0.012087 -0.000230 0.000000 0.007878 0.000000
# 3 -0.005641 -0.000230 0.010774 0.000000 0.003001 0.000000
# 4 0.000000 0.000000 0.000000 0.030104 0.000000 0.022055
# 5 0.006845 0.007878 0.003001 0.000000 0.048487 0.000000
# 6 0.000000 0.000000 0.000000 0.022055 0.000000 0.082992
#
#
# Mechanical properties :
#
#
# Convention : Reuss Voigt Hill
#
# Bulk Modulus (GPa) = 47.39498 69.07993 58.23746
# Shear Modulus (GPa) = 21.66802 30.43708 26.05255
#
# Velocity S-wave (km/s) = 3.10497 3.68001 3.40465
# Velocity P-wave (km/s) = 5.82598 6.98517 6.43174
#
# Compressibility (1/GPa) = 0.02109928
#
# Stress axis : x y z
#
# Youngs Moduli (GPa) = 53.31064 82.73232 92.81582
#
# Poissons Ratio (x) = 0.36316 0.52354
# Poissons Ratio (y) = 0.23401 0.02132
# Poissons Ratio (z) = 0.30071 0.01901
#
# Static dielectric constant tensor:
#      x y z
#    x 3.899410 0.000000 -0.208490 
#    y 0.000000 4.644910 0.000000 
#    z -0.208490 0.000000 4.328550 
# 
# 
# High freq. dielectric constant tensor:
#      x y z
#    x 1.871820 0.000000 -0.017000 
#    y 0.000000 1.918310 0.000000 
#    z -0.017000 0.000000 1.891830 
# 
# From -- ./inp_files/50410.got.cif
#   From: 2010.03.12/outbox.cif.g09.slc.cpg/sg5_26_cif.got.tgz:50410.got - 2010.03.31 09:47:26.
