data_PCOD8051738
_publ_section_title
;
Structure prediction by ZEFSAII (Michael W. Deem and Ramdas Pophale) SiO2 
 PCOD8051738
Probable space group: C 2
;
_chemical_formula_sum "Si O2"
_cell_formula_units_Z 24
_cell_length_a 17.689042
_cell_length_b 9.129618
_cell_length_c 15.312389
_cell_angle_alpha 90.000000
_cell_angle_beta 152.772569
_cell_angle_gamma 90.000000
_cell_volume 1131.392933
_symmetry_space_group_name_H-M "C 2"
_symmetry_group_IT_number 5
_symmetry_cell_setting 'monoclinic'
loop_
_space_group_symop_operation_xyz
x,y,z
-x,y,-z
1/2+x,1/2+y,z
1/2-x,1/2+y,-z
loop_
_atom_site_type_symbol
_atom_site_label
_atom_site_fract_x
_atom_site_fract_y
_atom_site_fract_z
Si Si1 0.355078 0.662330 0.523531
Si Si2 0.305944 0.333751 0.789942
Si Si3 0.781827 0.277690 0.109206
Si Si4 0.068445 0.521835 0.826610
Si Si5 0.123379 0.612401 0.545011
Si Si6 0.728780 0.856574 0.407990
O O1 0.272622 0.700548 0.345996
O O2 0.543640 0.702988 0.726856
O O3 0.246812 0.748739 0.484538
O O4 0.357293 0.489600 0.544185
O O5 0.219838 0.332796 0.794505
O O6 0.261828 0.489602 0.702878
O O7 0.500000 0.313498 0.000000
O O8 0.775629 0.417669 0.037812
O O9 0.630712 0.169387 0.935740
O O10 0.976455 0.560393 0.642303
O O11 0.952389 0.433920 0.776389
O O12 0.227708 0.761611 0.633828
O O13 0.000000 0.636631 0.500000
#
# Coordination Sequence:
#
# PCOD8051738 Si02
#       6
#     4   4   4   4   4   4
#     4  11  22  43  68 101 137 192 234 294 355 426
#     4  12  24  43  71 100 141 191 241 292 363 424
#     4  11  25  42  71 100 144 184 241 292 358 429
#     4  11  24  44  72 105 138 185 246 288 358 422
#     4  12  24  48  70 104 144 189 235 298 357 425
#     4  11  23  42  72  95 143 181 239 288 360 411
#
# _framework density 21.212790999999999
#
# number of rings (size 3 to 8) (size 9 to 14) (size 15 to 20)
#    0.000    0.667    6.667    1.500    2.333    4.000 
#    0.000    0.833    0.000    0.000    0.000    0.000 
#    0.000    0.000    0.000    0.000    0.000    0.000 
#
# Total GULP energy -148777.271718 kJ/mol
# GULP energy per Si atom -12398.105977 kJ/mol
# Density = 2.116451 g / cm^3
# Si number density = 21.212791 Si / 1000 Ang^3
#
#
#
# Elastic Constant Matrix: (Units=GPa)
#
#
# Indices 1 2 3 4 5 6 
#
# 1 98.1007 32.3696 11.3199 0.0001 7.9014 0.0000
# 2 32.3696 130.8284 20.4859 0.0001 -4.8240 0.0000
# 3 11.3199 20.4859 70.0175 0.0002 -6.2924 0.0000
# 4 0.0001 0.0001 0.0002 23.4524 0.0001 19.2474
# 5 7.9014 -4.8240 -6.2924 0.0001 18.0146 0.0000
# 6 0.0000 0.0000 0.0000 19.2474 0.0000 22.6495
#
#
#
# Elastic Compliance Matrix: (Units=1/GPa)
#
#
# Indices 1 2 3 4 5 6 
#
# 1 0.011878 -0.002922 -0.001656 0.000000 -0.006571 0.000000
# 2 -0.002922 0.008762 -0.001822 0.000000 0.002991 0.000000
# 3 -0.001656 -0.001822 0.015594 -0.000001 0.005685 0.000001
# 4 0.000000 0.000000 -0.000001 0.140922 -0.000001 -0.119755
# 5 -0.006571 0.002991 0.005685 -0.000001 0.061179 0.000001
# 6 0.000000 0.000000 0.000001 -0.119755 0.000001 0.145918
#
#
# Mechanical properties :
#
#
# Convention : Reuss Voigt Hill
#
# Bulk Modulus (GPa) = 42.67361 47.47749 45.07555
# Shear Modulus (GPa) = 12.34979 28.47471 20.41225
#
# Velocity S-wave (km/s) = 2.41547 3.66777 3.10540
# Velocity P-wave (km/s) = 5.28582 6.35349 5.84409
#
# Compressibility (1/GPa) = 0.02343369
#
# Stress axis : x y z
#
# Youngs Moduli (GPa) = 84.18913 114.12671 64.12721
#
# Poissons Ratio (x) = 0.33346 0.10619
# Poissons Ratio (y) = 0.24599 0.11687
# Poissons Ratio (z) = 0.13941 0.20799
#
# Static dielectric constant tensor:
#      x y z
#    x 4.660320 0.000000 -0.038380 
#    y 0.000000 4.300430 0.000000 
#    z -0.038380 0.000000 3.572420 
# 
# 
# High freq. dielectric constant tensor:
#      x y z
#    x 1.846870 0.000000 0.014330 
#    y 0.000000 1.847020 0.000000 
#    z 0.014330 0.000000 1.809390 
# 
# From -- ./inp_files/32460.got.cif
#   From: 2010.03.12/outbox.cif.g09.slc.cpg/sg5_17_cif.got.tgz:32460.got - 2010.03.31 09:47:26.
