data_PCOD8051658
_publ_section_title
;
Structure prediction by ZEFSAII (Michael W. Deem and Ramdas Pophale) SiO2 
 PCOD8051658
Probable space group: C 2
;
_chemical_formula_sum "Si O2"
_cell_formula_units_Z 32
_cell_length_a 17.892280
_cell_length_b 14.367501
_cell_length_c 12.858713
_cell_angle_alpha 90.000000
_cell_angle_beta 152.878537
_cell_angle_gamma 90.000000
_cell_volume 1506.931086
_symmetry_space_group_name_H-M "C 2"
_symmetry_group_IT_number 5
_symmetry_cell_setting 'monoclinic'
loop_
_space_group_symop_operation_xyz
x,y,z
-x,y,-z
1/2+x,1/2+y,z
1/2-x,1/2+y,-z
loop_
_atom_site_type_symbol
_atom_site_label
_atom_site_fract_x
_atom_site_fract_y
_atom_site_fract_z
Si Si1 0.323499 0.442500 0.788753
Si Si2 0.995460 0.491598 0.713853
Si Si3 0.617294 0.663259 0.563540
Si Si4 0.041817 0.960236 0.438487
Si Si5 0.215382 0.769272 0.400565
Si Si6 0.869770 0.390556 0.755545
Si Si7 0.774831 0.873856 0.960769
Si Si8 0.887567 0.674524 0.055950
O O1 0.353224 0.357219 0.746714
O O2 0.171199 0.504889 0.560146
O O3 0.500000 0.496751 0.000000
O O4 0.281007 0.404730 0.849347
O O5 0.095145 0.588967 0.840879
O O6 0.950002 0.462901 0.774434
O O7 0.105226 0.409435 0.800229
O O8 0.500000 0.719685 0.500000
O O9 0.514958 0.571157 0.407079
O O10 0.642775 0.721237 0.491097
O O11 0.790199 0.640629 0.833235
O O12 0.229556 0.943124 0.644788
O O13 0.000000 0.917092 0.500000
O O14 0.928296 0.917209 0.210116
O O15 0.298807 0.799669 0.611186
O O16 0.068975 0.699767 0.243163
O O17 0.000000 0.354232 0.000000
O O18 0.793278 0.761696 0.992539
#
# Coordination Sequence:
#
# PCOD8051658 Si02
#       8
#     4   4   4   4   4   4   4   4
#     4  11  21  43  70 101 136 177 225 284 348 400
#     4  11  26  41  69 106 137 180 232 286 341 409
#     4  11  23  37  67 103 130 162 231 286 326 399
#     4  11  23  43  65  97 134 174 224 282 343 392
#     4  11  22  40  66 100 129 176 225 281 338 403
#     4  11  22  41  64  94 136 179 224 276 346 408
#     4  12  23  44  71  96 140 180 225 286 344 404
#     4  12  23  43  68  97 137 177 231 274 344 401
#
# _framework density 21.235211
#
# number of rings (size 3 to 8) (size 9 to 14) (size 15 to 20)
#    0.000    0.750    3.750    5.250    3.500    0.000 
#    0.000    3.125    0.000    0.000    0.000    0.000 
#    0.000    0.000    0.000    0.000    0.000    0.000 
#
# Total GULP energy -198422.013798 kJ/mol
# GULP energy per Si atom -12401.375862 kJ/mol
# Density = 2.118688 g / cm^3
# Si number density = 21.235211 Si / 1000 Ang^3
#
#
#
# Elastic Constant Matrix: (Units=GPa)
#
#
# Indices 1 2 3 4 5 6 
#
# 1 135.1742 31.4894 38.1972 0.0000 9.2459 0.0000
# 2 31.4894 87.8322 29.8002 0.0000 -3.2639 0.0000
# 3 38.1972 29.8002 134.3147 0.0000 -9.4505 0.0000
# 4 0.0000 0.0000 0.0000 22.6159 0.0000 5.6089
# 5 9.2459 -3.2639 -9.4505 0.0000 39.0056 0.0000
# 6 0.0000 0.0000 0.0000 5.6089 0.0000 30.2753
#
#
#
# Elastic Compliance Matrix: (Units=1/GPa)
#
#
# Indices 1 2 3 4 5 6 
#
# 1 0.008782 -0.002529 -0.002134 0.000000 -0.002810 0.000000
# 2 -0.002529 0.013046 -0.002092 0.000000 0.001184 0.000000
# 3 -0.002134 -0.002092 0.008688 0.000000 0.002436 0.000000
# 4 0.000000 0.000000 0.000000 0.046346 0.000000 -0.008586
# 5 -0.002810 0.001184 0.002436 0.000000 0.026993 0.000000
# 6 0.000000 0.000000 0.000000 -0.008586 0.000000 0.034621
#
#
# Mechanical properties :
#
#
# Convention : Reuss Voigt Hill
#
# Bulk Modulus (GPa) = 58.80426 61.81053 60.30740
# Shear Modulus (GPa) = 31.71493 35.56829 33.64161
#
# Velocity S-wave (km/s) = 3.86878 4.09708 3.98457
# Velocity P-wave (km/s) = 6.90714 7.17998 7.04488
#
# Compressibility (1/GPa) = 0.01700557
#
# Stress axis : x y z
#
# Youngs Moduli (GPa) = 113.86527 76.65311 115.10581
#
# Poissons Ratio (x) = 0.19385 0.24566
# Poissons Ratio (y) = 0.28796 0.24079
# Poissons Ratio (z) = 0.24301 0.16035
#
# Static dielectric constant tensor:
#      x y z
#    x 4.063290 0.000000 0.036000 
#    y 0.000000 3.639580 0.000000 
#    z 0.036000 0.000000 4.072480 
# 
# 
# High freq. dielectric constant tensor:
#      x y z
#    x 1.843490 0.000000 0.011490 
#    y 0.000000 1.805180 0.000000 
#    z 0.011490 0.000000 1.849220 
# 
# From -- ./inp_files/44978.got.cif
#   From: 2010.03.12/outbox.cif.g09.slc.cpg/sg5_23_cif.got.tgz:44978.got - 2010.03.31 09:47:26.
