data_PCOD8051789
_publ_section_title
;
Structure prediction by ZEFSAII (Michael W. Deem and Ramdas Pophale) SiO2 
 PCOD8051789
Probable space group: C 2
;
_chemical_formula_sum "Si O2"
_cell_formula_units_Z 24
_cell_length_a 18.031218
_cell_length_b 9.680996
_cell_length_c 14.642862
_cell_angle_alpha 90.000000
_cell_angle_beta 153.229407
_cell_angle_gamma 90.000000
_cell_volume 1151.298996
_symmetry_space_group_name_H-M "C 2"
_symmetry_group_IT_number 5
_symmetry_cell_setting 'monoclinic'
loop_
_space_group_symop_operation_xyz
x,y,z
-x,y,-z
1/2+x,1/2+y,z
1/2-x,1/2+y,-z
loop_
_atom_site_type_symbol
_atom_site_label
_atom_site_fract_x
_atom_site_fract_y
_atom_site_fract_z
Si Si1 0.576695 0.486750 0.269942
Si Si2 0.000000 0.016585 0.500000
Si Si3 0.113230 0.729342 0.864597
Si Si4 0.208532 0.330302 0.118648
Si Si5 0.000000 0.119672 0.000000
Si Si6 0.539923 0.689922 0.711806
Si Si7 0.553206 0.952241 0.299552
O O1 0.454264 0.362352 0.157625
O O2 0.515043 0.624839 0.252118
O O3 0.752535 0.439712 0.502848
O O4 0.577758 0.520327 0.163308
O O5 0.833827 0.929008 0.309396
O O6 0.047573 0.113508 0.467174
O O7 0.182580 0.766401 0.842008
O O8 0.978087 0.610270 0.706070
O O9 0.265171 0.669801 0.090582
O O10 0.146814 0.213004 0.120460
O O11 0.049346 0.412067 0.904125
O O12 0.496438 0.852190 0.670571
#
# Coordination Sequence:
#
# PCOD8051789 Si02
#       7
#     4   2   4   4   2   4   4
#     4  12  25  45  73 103 146 186 240 300 360 421
#     4  12  24  44  72 108 134 192 248 292 350 436
#     4  11  22  47  73  97 142 198 232 286 365 431
#     4  11  26  44  73 103 144 193 240 294 359 436
#     4  12  28  46  70 114 144 180 248 310 354 424
#     4  11  23  44  70 102 139 187 242 289 350 432
#     4  11  24  45  71 103 141 191 231 301 361 423
#
# _framework density 20.846018000000001
#
# number of rings (size 3 to 8) (size 9 to 14) (size 15 to 20)
#    0.000    0.667    6.667    2.000    4.667    1.333 
#    0.000    0.000    0.000    0.000    0.000    0.000 
#    0.000    0.000    0.000    0.000    0.000    0.000 
#
# Total GULP energy -148819.129583 kJ/mol
# GULP energy per Si atom -12401.594132 kJ/mol
# Density = 2.079857 g / cm^3
# Si number density = 20.846018 Si / 1000 Ang^3
#
#
#
# Elastic Constant Matrix: (Units=GPa)
#
#
# Indices 1 2 3 4 5 6 
#
# 1 118.2480 55.2786 49.1761 0.0000 -8.5173 0.0000
# 2 55.2786 109.3490 33.4324 0.0000 -10.7412 0.0000
# 3 49.1761 33.4324 128.6916 0.0001 2.9290 0.0001
# 4 0.0000 0.0000 0.0001 28.7471 0.0000 -9.4706
# 5 -8.5173 -10.7412 2.9290 0.0000 31.5126 0.0000
# 6 0.0000 0.0000 0.0001 -9.4706 0.0000 30.8945
#
#
#
# Elastic Compliance Matrix: (Units=1/GPa)
#
#
# Indices 1 2 3 4 5 6 
#
# 1 0.012384 -0.005004 -0.003477 0.000000 0.001964 0.000000
# 2 -0.005004 0.012390 -0.001375 0.000000 0.002998 0.000000
# 3 -0.003477 -0.001375 0.009508 0.000000 -0.002292 0.000000
# 4 0.000000 0.000000 0.000000 0.038694 0.000000 0.011861
# 5 0.001964 0.002998 -0.002292 0.000000 0.033499 0.000000
# 6 0.000000 0.000000 0.000000 0.011861 0.000000 0.036004
#
#
# Mechanical properties :
#
#
# Convention : Reuss Voigt Hill
#
# Bulk Modulus (GPa) = 68.63301 70.22919 69.43110
# Shear Modulus (GPa) = 29.93173 32.79095 31.36134
#
# Velocity S-wave (km/s) = 3.79337 3.97042 3.88290
# Velocity P-wave (km/s) = 7.22368 7.40146 7.31311
#
# Compressibility (1/GPa) = 0.01457025
#
# Stress axis : x y z
#
# Youngs Moduli (GPa) = 80.75215 80.71279 105.17087
#
# Poissons Ratio (x) = 0.40391 0.36565
# Poissons Ratio (y) = 0.40410 0.14457
# Poissons Ratio (z) = 0.28075 0.11095
#
# Static dielectric constant tensor:
#      x y z
#    x 3.708140 0.000000 0.141800 
#    y 0.000000 3.859380 0.000000 
#    z 0.141800 0.000000 4.028120 
# 
# 
# High freq. dielectric constant tensor:
#      x y z
#    x 1.805540 0.000000 0.008760 
#    y 0.000000 1.830730 0.000000 
#    z 0.008760 0.000000 1.822030 
# 
# From -- ./inp_files/26576.got.cif
#   From: 2010.03.12/outbox.cif.g09.slc.cpg/sg5_14_cif.got.tgz:26576.got - 2010.03.31 09:47:26.
