data_PCOD8051081
_publ_section_title
;
Structure prediction by ZEFSAII (Michael W. Deem and Ramdas Pophale) SiO2 
 PCOD8051081
Probable space group: C 2
;
_chemical_formula_sum "Si O2"
_cell_formula_units_Z 30
_cell_length_a 13.787260
_cell_length_b 9.299082
_cell_length_c 21.192922
_cell_angle_alpha 90.000000
_cell_angle_beta 33.066358
_cell_angle_gamma 90.000000
_cell_volume 1482.488030
_symmetry_space_group_name_H-M "C 2"
_symmetry_group_IT_number 5
_symmetry_cell_setting 'monoclinic'
loop_
_space_group_symop_operation_xyz
x,y,z
-x,y,-z
1/2+x,1/2+y,z
1/2-x,1/2+y,-z
loop_
_atom_site_type_symbol
_atom_site_label
_atom_site_fract_x
_atom_site_fract_y
_atom_site_fract_z
Si Si1 0.309819 0.095380 0.625480
Si Si2 0.500000 0.194787 0.000000
Si Si3 0.776471 0.452286 0.186510
Si Si4 0.036137 0.571869 0.219249
Si Si5 0.324834 0.631594 0.163358
Si Si6 0.989550 0.898985 0.777826
Si Si7 0.648628 0.435748 0.008450
Si Si8 0.305882 0.424125 0.623317
O O1 0.500000 0.034146 0.500000
O O2 0.280586 0.099330 0.715626
O O3 0.290841 0.257991 0.611845
O O4 0.169182 0.987631 0.672281
O O5 0.621308 0.290384 0.981665
O O6 0.388921 0.092190 0.106957
O O7 0.875842 0.298666 0.124887
O O8 0.611351 0.446756 0.229668
O O9 0.718380 0.466231 0.290488
O O10 0.181668 0.564478 0.194536
O O11 0.971239 0.731143 0.240378
O O12 0.851395 0.491286 0.333371
O O13 0.146139 0.490229 0.103859
O O14 0.513279 0.553397 0.053964
O O15 0.882956 0.926982 0.899963
O O16 0.500000 0.485185 0.500000
#
# Coordination Sequence:
#
# PCOD8051081 Si02
#       8
#     4   2   4   4   4   4   4   4
#     4   9  20  40  63  86 116 155 201 252 295 355
#     4  12  24  36  60  92 126 154 208 254 288 364
#     4  10  24  39  60  91 122 159 199 251 300 358
#     4  11  22  38  60  85 117 165 194 240 306 355
#     4   9  20  41  59  86 123 159 194 240 312 364
#     4  10  24  37  60  89 123 156 204 243 303 359
#     4  11  23  38  58  90 124 161 196 249 300 365
#     4  10  23  43  63  86 122 160 203 249 302 358
#
# _framework density 20.236249999999998
#
# number of rings (size 3 to 8) (size 9 to 14) (size 15 to 20)
#    0.000    1.867    1.333    0.800    9.333    2.667 
#    0.000    0.000    0.000    0.000    0.000    0.000 
#    0.000    0.000    0.000    0.000    0.000    0.000 
#
# Total GULP energy -185881.959274 kJ/mol
# GULP energy per Si atom -12392.130618 kJ/mol
# Density = 2.019019 g / cm^3
# Si number density = 20.236250 Si / 1000 Ang^3
#
#
#
# Elastic Constant Matrix: (Units=GPa)
#
#
# Indices 1 2 3 4 5 6 
#
# 1 53.0785 37.2909 19.7445 0.0001 -9.7244 -0.0005
# 2 37.2909 115.9417 62.4480 0.0003 -19.3714 -0.0010
# 3 19.7445 62.4480 127.4003 -0.0001 -25.7676 -0.0022
# 4 0.0001 0.0003 -0.0001 46.5252 0.0000 -33.5952
# 5 -9.7244 -19.3714 -25.7676 0.0000 26.1020 0.0002
# 6 -0.0005 -0.0010 -0.0022 -33.5952 0.0002 85.4592
#
#
#
# Elastic Compliance Matrix: (Units=1/GPa)
#
#
# Indices 1 2 3 4 5 6 
#
# 1 0.024713 -0.007657 0.000795 0.000000 0.004309 0.000000
# 2 -0.007657 0.014398 -0.005356 0.000000 0.002545 0.000000
# 3 0.000795 -0.005356 0.012004 0.000000 0.008172 0.000000
# 4 0.000000 0.000000 0.000000 0.030013 0.000000 0.011799
# 5 0.004309 0.002545 0.008172 0.000000 0.049872 0.000000
# 6 0.000000 0.000000 0.000000 0.011799 0.000000 0.016340
#
#
# Mechanical properties :
#
#
# Convention : Reuss Voigt Hill
#
# Bulk Modulus (GPa) = 37.48253 59.48748 48.48500
# Shear Modulus (GPa) = 27.67484 43.41309 35.54397
#
# Velocity S-wave (km/s) = 3.70210 4.63678 4.19555
# Velocity P-wave (km/s) = 6.06933 7.62408 6.89069
#
# Compressibility (1/GPa) = 0.02667910
#
# Stress axis : x y z
#
# Youngs Moduli (GPa) = 40.46428 69.45550 83.30418
#
# Poissons Ratio (x) = 0.53179 -0.06619
# Poissons Ratio (y) = 0.30982 0.44617
# Poissons Ratio (z) = -0.03215 0.37200
#
# Static dielectric constant tensor:
#      x y z
#    x 3.702030 0.000000 0.061570 
#    y 0.000000 3.939350 0.000000 
#    z 0.061570 0.000000 3.576590 
# 
# 
# High freq. dielectric constant tensor:
#      x y z
#    x 1.795390 0.000000 0.000950 
#    y 0.000000 1.799080 0.000000 
#    z 0.000950 0.000000 1.785890 
# 
# From -- ./inp_files/68710.got.cif
#   From: 2010.03.12/outbox.cif.g09.slc.cpg/sg5_35_cif.got.tgz:68710.got - 2010.03.31 09:47:26.
