data_PCOD8051443
_publ_section_title
;
Structure prediction by ZEFSAII (Michael W. Deem and Ramdas Pophale) SiO2 
 PCOD8051443
Probable space group: C 2
;
_chemical_formula_sum "Si O2"
_cell_formula_units_Z 28
_cell_length_a 18.691259
_cell_length_b 9.038203
_cell_length_c 21.612738
_cell_angle_alpha 90.000000
_cell_angle_beta 159.798850
_cell_angle_gamma 90.000000
_cell_volume 1260.806502
_symmetry_space_group_name_H-M "C 2"
_symmetry_group_IT_number 5
_symmetry_cell_setting 'monoclinic'
loop_
_space_group_symop_operation_xyz
x,y,z
-x,y,-z
1/2+x,1/2+y,z
1/2-x,1/2+y,-z
loop_
_atom_site_type_symbol
_atom_site_label
_atom_site_fract_x
_atom_site_fract_y
_atom_site_fract_z
Si Si1 0.208646 0.000000 0.579801
Si Si2 0.775406 0.208827 0.933765
Si Si3 0.000000 0.117859 0.000000
Si Si4 0.000000 0.190972 0.500000
Si Si5 0.364954 0.190763 0.521254
Si Si6 0.900637 0.420942 0.318657
Si Si7 0.467011 0.674891 0.281243
Si Si8 0.317901 0.008732 0.037850
O O1 0.151411 0.826528 0.540384
O O2 0.179080 0.083295 0.620620
O O3 0.048994 0.066956 0.400886
O O4 0.442834 0.034842 0.751504
O O5 0.550612 0.217186 0.720105
O O6 0.800136 0.057728 0.994512
O O7 0.788677 0.338142 0.995513
O O8 0.955943 0.215614 0.026827
O O9 0.197382 0.014570 0.166402
O O10 0.099827 0.293403 0.632120
O O11 0.144562 0.189012 0.374755
O O12 0.404689 0.034755 0.518308
O O13 0.909591 0.339247 0.259302
O O14 0.260615 0.606097 0.083806
#
# Coordination Sequence:
#
# PCOD8051443 Si02
#       8
#     4   4   2   2   4   4   4   4
#     4  11  24  44  66 104 142 183 236 308 357 434
#     4  11  26  44  72 108 144 195 246 296 371 431
#     4  10  26  48  68 102 158 188 238 294 380 438
#     4  10  26  44  64 102 136 190 246 290 376 434
#     4  11  22  44  70  98 146 184 232 304 370 414
#     4  10  25  43  72  99 140 199 231 297 373 430
#     4  11  23  44  71 104 141 177 236 318 355 415
#     4  12  26  43  76 108 137 192 255 300 357 435
#
# _framework density 22.208006999999998
#
# number of rings (size 3 to 8) (size 9 to 14) (size 15 to 20)
#    0.000    1.143    2.857    1.714    8.000    5.143 
#    0.000    0.000    0.000    0.000    0.000    0.000 
#    0.000    0.000    0.000    0.000    0.000    0.000 
#
# Total GULP energy -173508.368830 kJ/mol
# GULP energy per Si atom -12393.454916 kJ/mol
# Density = 2.215746 g / cm^3
# Si number density = 22.208007 Si / 1000 Ang^3
#
#
#
# Elastic Constant Matrix: (Units=GPa)
#
#
# Indices 1 2 3 4 5 6 
#
# 1 122.0329 72.4291 21.1028 0.0031 6.4842 0.0004
# 2 72.4291 153.6397 28.1968 0.0065 0.9319 0.0165
# 3 21.1028 28.1968 84.4279 0.0141 -1.0280 0.0272
# 4 0.0031 0.0065 0.0141 29.0155 0.0048 -7.5382
# 5 6.4842 0.9319 -1.0280 0.0048 22.9939 0.0045
# 6 0.0004 0.0165 0.0272 -7.5382 0.0045 47.6314
#
#
#
# Elastic Compliance Matrix: (Units=1/GPa)
#
#
# Indices 1 2 3 4 5 6 
#
# 1 0.011701 -0.005277 -0.001201 0.000002 -0.003139 0.000003
# 2 -0.005277 0.009317 -0.001780 -0.000001 0.001031 -0.000003
# 3 -0.001201 -0.001780 0.012751 -0.000008 0.000981 -0.000008
# 4 0.000002 -0.000001 -0.000008 0.035942 -0.000009 0.005688
# 5 -0.003139 0.001031 0.000981 -0.000009 0.044377 -0.000007
# 6 0.000003 -0.000003 -0.000008 0.005688 -0.000007 0.021895
#
#
# Mechanical properties :
#
#
# Convention : Reuss Voigt Hill
#
# Bulk Modulus (GPa) = 57.95819 67.06199 62.51009
# Shear Modulus (GPa) = 31.59592 35.81961 33.70777
#
# Velocity S-wave (km/s) = 3.77600 4.02047 3.90015
# Velocity P-wave (km/s) = 6.72052 7.19826 6.96349
#
# Compressibility (1/GPa) = 0.01725382
#
# Stress axis : x y z
#
# Youngs Moduli (GPa) = 85.46499 107.33450 78.42544
#
# Poissons Ratio (x) = 0.56636 0.09416
# Poissons Ratio (y) = 0.45096 0.13960
# Poissons Ratio (z) = 0.10261 0.19107
#
# Static dielectric constant tensor:
#      x y z
#    x 4.371620 0.000020 -0.009280 
#    y 0.000020 4.473810 -0.000020 
#    z -0.009280 -0.000020 3.963010 
# 
# 
# High freq. dielectric constant tensor:
#      x y z
#    x 1.872240 0.000000 -0.003790 
#    y 0.000000 1.890520 0.000000 
#    z -0.003790 0.000000 1.868730 
# 
# From -- ./inp_files/69458.got.cif
#   From: 2010.03.12/outbox.cif.g09.slc.cpg/sg5_35_cif.got.tgz:69458.got - 2010.03.31 09:47:26.
