data_PCOD8051934
_publ_section_title
;
Structure prediction by ZEFSAII (Michael W. Deem and Ramdas Pophale) SiO2 
 PCOD8051934
Probable space group: C 2
;
_chemical_formula_sum "Si O2"
_cell_formula_units_Z 30
_cell_length_a 6.832797
_cell_length_b 17.236651
_cell_length_c 14.962970
_cell_angle_alpha 90.000000
_cell_angle_beta 56.203152
_cell_angle_gamma 90.000000
_cell_volume 1464.462017
_symmetry_space_group_name_H-M "C 2"
_symmetry_group_IT_number 5
_symmetry_cell_setting 'monoclinic'
loop_
_space_group_symop_operation_xyz
x,y,z
-x,y,-z
1/2+x,1/2+y,z
1/2-x,1/2+y,-z
loop_
_atom_site_type_symbol
_atom_site_label
_atom_site_fract_x
_atom_site_fract_y
_atom_site_fract_z
Si Si1 0.348904 0.106150 0.292410
Si Si2 0.010202 0.970425 0.891952
Si Si3 0.748956 0.120084 0.888023
Si Si4 0.694765 0.853295 0.881314
Si Si5 0.757294 0.293456 0.407193
Si Si6 0.458083 0.937812 0.254717
Si Si7 0.500000 0.703575 0.500000
Si Si8 0.717103 0.702565 0.773707
O O1 0.285966 0.129943 0.208169
O O2 0.188198 0.149492 0.404108
O O3 0.620708 0.129520 0.241963
O O4 0.303983 0.014127 0.315384
O O5 0.279207 0.967746 0.794010
O O6 0.904649 0.889704 0.884998
O O7 0.854175 0.036540 0.885131
O O8 0.000000 0.980765 0.000000
O O9 0.944614 0.183605 0.866790
O O10 0.500000 0.135244 0.000000
O O11 0.582448 0.912470 0.837576
O O12 0.800972 0.777555 0.807419
O O13 0.500000 0.826139 0.000000
O O14 0.500000 0.322340 0.500000
O O15 0.898183 0.367808 0.335673
O O16 0.751155 0.222815 0.338456
O O17 0.879312 0.261843 0.463396
#
# Coordination Sequence:
#
# PCOD8051934 Si02
#       8
#     4   4   4   4   4   4   2   4
#     4  12  25  47  72 103 134 183 236 290 346 417
#     4  12  23  42  69  98 142 187 225 280 348 414
#     4  12  26  43  71 104 142 184 235 284 347 420
#     4  11  24  42  64  99 139 183 223 275 332 412
#     4  11  25  48  68  98 138 181 226 294 356 409
#     4  11  25  43  70 101 134 179 236 279 341 419
#     4  12  26  46  74 100 138 182 232 294 358 412
#     4  11  26  44  68 100 140 179 228 289 351 410
#
# _framework density 20.485339
#
# number of rings (size 3 to 8) (size 9 to 14) (size 15 to 20)
#    0.000    0.533    6.667    1.200    4.667    0.000 
#    0.000    1.333    0.000    0.000    0.000    0.000 
#    0.000    0.000    0.000    0.000    0.000    0.000 
#
# Total GULP energy -186032.212675 kJ/mol
# GULP energy per Si atom -12402.147512 kJ/mol
# Density = 2.043871 g / cm^3
# Si number density = 20.485339 Si / 1000 Ang^3
#
#
#
# Elastic Constant Matrix: (Units=GPa)
#
#
# Indices 1 2 3 4 5 6 
#
# 1 96.8778 32.8252 49.0337 0.0000 -1.0725 0.0000
# 2 32.8252 97.7673 35.4476 0.0000 7.4338 0.0000
# 3 49.0337 35.4476 111.1866 0.0000 1.1998 0.0000
# 4 0.0000 0.0000 0.0000 24.0028 0.0000 23.9786
# 5 -1.0725 7.4338 1.1998 0.0000 43.3792 0.0000
# 6 0.0000 0.0000 0.0000 23.9786 0.0000 49.0506
#
#
#
# Elastic Compliance Matrix: (Units=1/GPa)
#
#
# Indices 1 2 3 4 5 6 
#
# 1 0.013962 -0.002856 -0.005257 0.000000 0.000980 0.000000
# 2 -0.002856 0.012305 -0.002641 0.000000 -0.002106 0.000000
# 3 -0.005257 -0.002641 0.012154 0.000000 -0.000014 0.000000
# 4 0.000000 0.000000 0.000000 0.081428 0.000000 -0.039806
# 5 0.000980 -0.002106 -0.000014 0.000000 0.023438 0.000000
# 6 0.000000 0.000000 0.000000 -0.039806 0.000000 0.039847
#
#
# Mechanical properties :
#
#
# Convention : Reuss Voigt Hill
#
# Bulk Modulus (GPa) = 59.12576 60.04940 59.58758
# Shear Modulus (GPa) = 23.77790 35.85487 29.81638
#
# Velocity S-wave (km/s) = 3.41064 4.18816 3.81924
# Velocity P-wave (km/s) = 6.66597 7.26392 6.97136
#
# Compressibility (1/GPa) = 0.01691310
#
# Stress axis : x y z
#
# Youngs Moduli (GPa) = 71.62437 81.26867 82.27498
#
# Poissons Ratio (x) = 0.23211 0.43254
# Poissons Ratio (y) = 0.20456 0.21726
# Poissons Ratio (z) = 0.37654 0.21461
#
# Static dielectric constant tensor:
#      x y z
#    x 3.785350 0.000000 -0.041750 
#    y 0.000000 3.687170 0.000000 
#    z -0.041750 0.000000 3.687590 
# 
# 
# High freq. dielectric constant tensor:
#      x y z
#    x 1.814010 0.000000 0.004350 
#    y 0.000000 1.808260 0.000000 
#    z 0.004350 0.000000 1.802240 
# 
# From -- ./inp_files/49311.got.cif
#   From: 2010.03.12/outbox.cif.g09.slc.cpg/sg5_25_cif.got.tgz:49311.got - 2010.03.31 09:47:26.
