data_PCOD8051406
_publ_section_title
;
Structure prediction by ZEFSAII (Michael W. Deem and Ramdas Pophale) SiO2 
 PCOD8051406
Probable space group: C 2
;
_chemical_formula_sum "Si O2"
_cell_formula_units_Z 24
_cell_length_a 22.202177
_cell_length_b 8.751400
_cell_length_c 4.800587
_cell_angle_alpha 90.000000
_cell_angle_beta 76.328704
_cell_angle_gamma 90.000000
_cell_volume 906.327554
_symmetry_space_group_name_H-M "C 2"
_symmetry_group_IT_number 5
_symmetry_cell_setting 'monoclinic'
loop_
_space_group_symop_operation_xyz
x,y,z
-x,y,-z
1/2+x,1/2+y,z
1/2-x,1/2+y,-z
loop_
_atom_site_type_symbol
_atom_site_label
_atom_site_fract_x
_atom_site_fract_y
_atom_site_fract_z
Si Si1 0.254059 0.202480 0.250088
Si Si2 0.582950 0.489376 0.645474
Si Si3 0.000000 0.740411 0.000000
Si Si4 0.414736 0.986369 0.937389
Si Si5 0.500000 0.733281 0.000000
Si Si6 0.670101 0.977991 0.472825
Si Si7 0.332020 0.465756 0.954865
O O1 0.145020 0.009581 0.761597
O O2 0.206680 0.318654 0.449068
O O3 0.220556 0.083781 0.081176
O O4 0.303006 0.296112 0.005010
O O5 0.606352 0.472907 0.303009
O O6 0.544578 0.337845 0.754361
O O7 0.538525 0.633301 0.736874
O O8 0.957129 0.635436 0.849218
O O9 0.455911 0.834803 0.847020
O O10 0.392176 0.971369 0.280019
O O11 0.353020 0.999965 0.818718
O O12 0.712887 0.116554 0.530289
#
# Coordination Sequence:
#
# PCOD8051406 Si02
#       7
#     4   4   2   4   2   4   4
#     4  12  29  50  78 114 154 202 253 310 376 450
#     4  11  26  46  73 108 147 193 248 307 373 444
#     4  10  26  44  72 104 144 192 246 304 372 442
#     4  11  26  46  73 108 147 193 248 307 373 444
#     4  10  24  48  76 108 148 196 248 312 376 446
#     4  12  28  49  75 110 151 198 251 309 374 447
#     4  12  28  49  75 110 151 198 251 309 374 447
#
# _framework density 26.480494
#
# number of rings (size 3 to 8) (size 9 to 14) (size 15 to 20)
#    0.000    0.667    0.000    5.000    0.000   25.333 
#    0.000    0.000    0.000    0.000    0.000    0.000 
#    0.000    0.000    0.000    0.000    0.000    0.000 
#
# Total GULP energy -148884.408594 kJ/mol
# GULP energy per Si atom -12407.034050 kJ/mol
# Density = 2.642022 g / cm^3
# Si number density = 26.480494 Si / 1000 Ang^3
#
#
#
# Elastic Constant Matrix: (Units=GPa)
#
#
# Indices 1 2 3 4 5 6 
#
# 1 142.1746 62.0229 7.9988 0.0000 3.0787 0.0000
# 2 62.0229 168.6381 5.2336 0.0000 13.1926 0.0000
# 3 7.9988 5.2336 50.4768 0.0000 5.9392 0.0000
# 4 0.0000 0.0000 0.0000 23.1130 0.0000 34.9506
# 5 3.0787 13.1926 5.9392 0.0000 31.0370 0.0000
# 6 0.0000 0.0000 0.0000 34.9506 0.0000 -145.3347
#
#
#
# Elastic Compliance Matrix: (Units=1/GPa)
#
#
# Indices 1 2 3 4 5 6 
#
# 1 0.008444 -0.003126 -0.001096 0.000000 0.000701 0.000000
# 2 -0.003126 0.007297 0.000069 0.000000 -0.002805 0.000000
# 3 -0.001096 0.000069 0.020428 0.000000 -0.003830 0.000000
# 4 0.000000 0.000000 0.000000 0.031728 0.000000 0.007630
# 5 0.000701 -0.002805 -0.003830 0.000000 0.034075 0.000000
# 6 0.000000 0.000000 0.000000 0.007630 0.000000 -0.005046
#
#
# Mechanical properties :
#
#
# Convention : Reuss Voigt Hill
#
# Bulk Modulus (GPa) = 35.89201 56.86667 46.37934
# Shear Modulus (GPa) = 43.65995 0.83202 22.24598
#
# Velocity S-wave (km/s) = 4.06490 0.56114 2.90157
# Velocity P-wave (km/s) = 5.96781 4.68416 5.36452
#
# Compressibility (1/GPa) = 0.02786136
#
# Stress axis : x y z
#
# Youngs Moduli (GPa) = 118.42748 137.04287 48.95169
#
# Poissons Ratio (x) = 0.42845 0.05367
# Poissons Ratio (y) = 0.37025 -0.00337
# Poissons Ratio (z) = 0.12985 -0.00944
#
# Static dielectric constant tensor:
#      x y z
#    x 4.992300 0.000000 -0.236240 
#    y 0.000000 5.008640 0.000000 
#    z -0.236240 0.000000 4.626420 
# 
# 
# High freq. dielectric constant tensor:
#      x y z
#    x 2.083780 0.000000 -0.013560 
#    y 0.000000 2.077850 0.000000 
#    z -0.013560 0.000000 2.056820 
# 
# From -- ./inp_files/10136.got.cif
#   From: 2010.03.12/outbox.cif.g09.slc.cpg/sg5_6_cif.got.tgz:10136.got - 2010.03.31 09:47:26.
