data_PCOD8051536
_publ_section_title
;
Structure prediction by ZEFSAII (Michael W. Deem and Ramdas Pophale) SiO2 
 PCOD8051536
Probable space group: C 2
;
_chemical_formula_sum "Si O2"
_cell_formula_units_Z 20
_cell_length_a 17.661828
_cell_length_b 4.971171
_cell_length_c 11.432850
_cell_angle_alpha 90.000000
_cell_angle_beta 127.370870
_cell_angle_gamma 90.000000
_cell_volume 797.746328
_symmetry_space_group_name_H-M "C 2"
_symmetry_group_IT_number 5
_symmetry_cell_setting 'monoclinic'
loop_
_space_group_symop_operation_xyz
x,y,z
-x,y,-z
1/2+x,1/2+y,z
1/2-x,1/2+y,-z
loop_
_atom_site_type_symbol
_atom_site_label
_atom_site_fract_x
_atom_site_fract_y
_atom_site_fract_z
Si Si1 0.213546 0.292460 0.527143
Si Si2 0.434451 0.084598 0.199074
Si Si3 0.426834 0.419387 0.522898
Si Si4 0.574515 0.597009 0.966659
Si Si5 0.779412 0.591443 0.242644
O O1 0.210673 0.580225 0.457133
O O2 0.109295 0.149306 0.420807
O O3 0.237710 0.337959 0.686624
O O4 0.522163 0.172630 0.363877
O O5 0.407834 0.320609 0.084877
O O6 0.341662 0.007527 0.188715
O O7 0.466668 0.820887 0.159481
O O8 0.500000 0.556155 0.500000
O O9 0.334086 0.319785 0.366489
O O10 0.500000 0.547810 0.000000
O O11 0.676158 0.701556 0.109383
#
# Coordination Sequence:
#
# PCOD8051536 Si02
#       5
#     4   4   4   4   4
#     4  12  27  44  73 113 155 196 248 315 378 439
#     4  11  28  49  76 106 151 199 247 311 370 454
#     4  10  26  48  78 113 147 198 257 312 370 454
#     4  12  29  48  74 111 153 194 252 310 383 441
#     4  11  27  49  79 108 150 203 255 302 380 454
#
# _framework density 25.070627999999999
#
# number of rings (size 3 to 8) (size 9 to 14) (size 15 to 20)
#    0.000    0.800    2.000    1.800   14.000    2.400 
#    0.000    0.000    0.000    0.000    0.000    0.000 
#    0.000    0.000    0.000    0.000    0.000    0.000 
#
# Total GULP energy -124014.201198 kJ/mol
# GULP energy per Si atom -12401.420120 kJ/mol
# Density = 2.501357 g / cm^3
# Si number density = 25.070628 Si / 1000 Ang^3
#
#
#
# Elastic Constant Matrix: (Units=GPa)
#
#
# Indices 1 2 3 4 5 6 
#
# 1 157.4563 57.4006 56.6164 0.0000 -31.1027 -0.0001
# 2 57.4006 117.7174 10.6074 0.0001 -30.3444 0.0002
# 3 56.6164 10.6074 90.4514 0.0001 -4.8175 0.0001
# 4 0.0000 0.0001 0.0001 24.6268 0.0000 -0.4357
# 5 -31.1027 -30.3444 -4.8175 0.0000 42.2275 0.0000
# 6 -0.0001 0.0002 0.0001 -0.4357 0.0000 27.6045
#
#
#
# Elastic Compliance Matrix: (Units=1/GPa)
#
#
# Indices 1 2 3 4 5 6 
#
# 1 0.010724 -0.003468 -0.006054 0.000000 0.004716 0.000000
# 2 -0.003468 0.011610 0.001124 0.000000 0.005917 0.000000
# 3 -0.006054 0.001124 0.014608 0.000000 -0.001985 0.000000
# 4 0.000000 0.000000 0.000000 0.040618 0.000000 0.000641
# 5 0.004716 0.005917 -0.001985 0.000000 0.031180 0.000000
# 6 0.000000 0.000000 0.000000 0.000641 0.000000 0.036236
#
#
# Mechanical properties :
#
#
# Convention : Reuss Voigt Hill
#
# Bulk Modulus (GPa) = 49.63977 68.31935 58.97956
# Shear Modulus (GPa) = 29.67605 34.95846 32.31725
#
# Velocity S-wave (km/s) = 3.44422 3.73822 3.59423
# Velocity P-wave (km/s) = 5.97159 6.77807 6.38757
#
# Compressibility (1/GPa) = 0.02014514
#
# Stress axis : x y z
#
# Youngs Moduli (GPa) = 93.25144 86.13455 68.45672
#
# Poissons Ratio (x) = 0.29870 0.41447
# Poissons Ratio (y) = 0.32338 -0.07696
# Poissons Ratio (z) = 0.56459 -0.09684
#
# Static dielectric constant tensor:
#      x y z
#    x 4.975520 0.000000 -0.262990 
#    y 0.000000 4.375920 0.000000 
#    z -0.262990 0.000000 4.411100 
# 
# 
# High freq. dielectric constant tensor:
#      x y z
#    x 2.025370 0.000000 -0.007380 
#    y 0.000000 1.999150 0.000000 
#    z -0.007380 0.000000 1.988290 
# 
# From -- ./inp_files/43829.got.cif
#   From: 2010.03.12/outbox.cif.g09.slc.cpg/sg5_22_cif.got.tgz:43829.got - 2010.03.31 09:47:26.
