data_PCOD8051683
_publ_section_title
;
Structure prediction by ZEFSAII (Michael W. Deem and Ramdas Pophale) SiO2 
 PCOD8051683
Probable space group: C 2
;
_chemical_formula_sum "Si O2"
_cell_formula_units_Z 32
_cell_length_a 10.953252
_cell_length_b 9.115675
_cell_length_c 20.526627
_cell_angle_alpha 90.000000
_cell_angle_beta 132.192131
_cell_angle_gamma 90.000000
_cell_volume 1518.473606
_symmetry_space_group_name_H-M "C 2"
_symmetry_group_IT_number 5
_symmetry_cell_setting 'monoclinic'
loop_
_space_group_symop_operation_xyz
x,y,z
-x,y,-z
1/2+x,1/2+y,z
1/2-x,1/2+y,-z
loop_
_atom_site_type_symbol
_atom_site_label
_atom_site_fract_x
_atom_site_fract_y
_atom_site_fract_z
Si Si1 0.358519 0.855610 0.739642
Si Si2 0.981467 0.650011 0.182914
Si Si3 0.385730 0.401107 0.856302
Si Si4 0.696105 0.741962 0.896888
Si Si5 0.687225 0.335433 0.546077
Si Si6 0.888557 0.518578 0.518542
Si Si7 0.623609 0.130498 0.714879
Si Si8 0.279176 0.512865 0.996044
O O1 0.514931 0.745370 0.800260
O O2 0.313509 0.882630 0.648011
O O3 0.209758 0.779944 0.723669
O O4 0.397034 0.012015 0.787483
O O5 0.979486 0.675633 0.259122
O O6 0.042422 0.800897 0.174955
O O7 0.798909 0.609186 0.090636
O O8 0.327292 0.291665 0.891198
O O9 0.241939 0.496751 0.774825
O O10 0.522354 0.506057 0.937930
O O11 0.753760 0.583398 0.944324
O O12 0.702469 0.850051 0.962598
O O13 0.500000 0.381711 0.500000
O O14 0.750813 0.410814 0.501109
O O15 0.702991 0.160120 0.544307
O O16 0.000000 0.444453 0.500000
O O17 0.008731 0.577051 0.616615
#
# Coordination Sequence:
#
# PCOD8051683 Si02
#       8
#     4   4   4   4   4   4   4   4
#     4  11  22  46  65  93 135 174 211 275 335 391
#     4  11  26  41  63 100 132 176 225 272 326 396
#     4  12  24  42  68  95 137 177 221 279 325 386
#     4  11  23  41  67  93 133 175 223 274 327 388
#     4  11  23  46  70  98 137 173 219 284 339 408
#     4  11  24  45  72 101 131 174 226 277 345 412
#     4  12  23  45  69  91 136 175 215 273 337 398
#     4  11  22  38  65  94 129 178 223 265 327 375
#
# _framework density 21.073792999999998
#
# number of rings (size 3 to 8) (size 9 to 14) (size 15 to 20)
#    0.000    0.750    8.750    0.375    0.000    2.500 
#    4.500    1.250    0.000    0.000    0.000    0.000 
#    0.000    0.000    0.000    0.000    0.000    0.000 
#
# Total GULP energy -198319.949341 kJ/mol
# GULP energy per Si atom -12394.996834 kJ/mol
# Density = 2.102583 g / cm^3
# Si number density = 21.073793 Si / 1000 Ang^3
#
#
#
# Elastic Constant Matrix: (Units=GPa)
#
#
# Indices 1 2 3 4 5 6 
#
# 1 115.2893 40.1999 17.4181 0.0000 -17.1985 0.0000
# 2 40.1999 62.5582 10.7649 0.0000 -13.3278 0.0000
# 3 17.4181 10.7649 98.3738 0.0000 -7.2799 0.0000
# 4 0.0000 0.0000 0.0000 26.0838 0.0000 -7.4800
# 5 -17.1985 -13.3278 -7.2799 0.0000 26.5201 0.0000
# 6 0.0000 0.0000 0.0000 -7.4800 0.0000 38.7303
#
#
#
# Elastic Compliance Matrix: (Units=1/GPa)
#
#
# Indices 1 2 3 4 5 6 
#
# 1 0.011693 -0.006470 -0.001063 0.000000 0.004039 0.000000
# 2 -0.006470 0.021652 -0.000744 0.000000 0.006481 0.000000
# 3 -0.001063 -0.000744 0.010571 0.000000 0.001838 0.000000
# 4 0.000000 0.000000 0.000000 0.040586 0.000000 0.007838
# 5 0.004039 0.006481 0.001838 0.000000 0.044088 0.000000
# 6 0.000000 0.000000 0.000000 0.007838 0.000000 0.027333
#
#
# Mechanical properties :
#
#
# Convention : Reuss Voigt Hill
#
# Bulk Modulus (GPa) = 36.54949 45.88744 41.21847
# Shear Modulus (GPa) = 27.53308 32.12274 29.82791
#
# Velocity S-wave (km/s) = 3.61849 3.90846 3.76627
# Velocity P-wave (km/s) = 5.90247 6.49538 6.20601
#
# Compressibility (1/GPa) = 0.02736016
#
# Stress axis : x y z
#
# Youngs Moduli (GPa) = 85.51929 46.18555 94.59793
#
# Poissons Ratio (x) = 0.29884 0.10060
# Poissons Ratio (y) = 0.55335 0.07039
# Poissons Ratio (z) = 0.09094 0.03436
#
# Static dielectric constant tensor:
#      x y z
#    x 3.878750 0.000000 -0.081830 
#    y 0.000000 3.942300 0.000000 
#    z -0.081830 0.000000 4.050450 
# 
# 
# High freq. dielectric constant tensor:
#      x y z
#    x 1.814470 0.000000 -0.000700 
#    y 0.000000 1.815980 0.000000 
#    z -0.000700 0.000000 1.844030 
# 
# From -- ./inp_files/65142.got.cif
#   From: 2010.03.12/outbox.cif.g09.slc.cpg/sg5_33_cif.got.tgz:65142.got - 2010.03.31 09:47:26.
