data_PCOD8051853
_publ_section_title
;
Structure prediction by ZEFSAII (Michael W. Deem and Ramdas Pophale) SiO2 
 PCOD8051853
Probable space group: C 2
;
_chemical_formula_sum "Si O2"
_cell_formula_units_Z 30
_cell_length_a 7.616021
_cell_length_b 12.144519
_cell_length_c 14.422208
_cell_angle_alpha 90.000000
_cell_angle_beta 87.080121
_cell_angle_gamma 90.000000
_cell_volume 1332.220200
_symmetry_space_group_name_H-M "C 2"
_symmetry_group_IT_number 5
_symmetry_cell_setting 'monoclinic'
loop_
_space_group_symop_operation_xyz
x,y,z
-x,y,-z
1/2+x,1/2+y,z
1/2-x,1/2+y,-z
loop_
_atom_site_type_symbol
_atom_site_label
_atom_site_fract_x
_atom_site_fract_y
_atom_site_fract_z
Si Si1 0.500000 0.900230 0.000000
Si Si2 0.790889 0.276066 0.155335
Si Si3 0.549747 0.792967 0.657565
Si Si4 0.665629 0.026743 0.160359
Si Si5 0.087254 0.066266 0.401428
Si Si6 0.067724 0.751310 0.399269
Si Si7 0.982386 0.528604 0.346484
Si Si8 0.469802 0.398039 0.252412
O O1 0.368906 0.820069 0.057783
O O2 0.607319 0.981092 0.063602
O O3 0.941695 0.281392 0.230980
O O4 0.742345 0.148392 0.143848
O O5 0.626368 0.356204 0.181742
O O6 0.457469 0.694520 0.607843
O O7 0.452555 0.905949 0.628718
O O8 0.750326 0.814124 0.620198
O O9 0.497062 0.036639 0.233889
O O10 0.804067 0.937429 0.197510
O O11 0.000000 0.023585 0.500000
O O12 0.296671 0.058866 0.396610
O O13 0.019052 0.001803 0.314473
O O14 0.111165 0.620967 0.386594
O O15 0.930450 0.794979 0.323865
O O16 0.000000 0.785097 0.500000
#
# Coordination Sequence:
#
# PCOD8051853 Si02
#       8
#     2   4   4   4   4   4   4   4
#     4  12  28  46  74 104 132 168 238 298 338 446
#     4  11  24  49  70 102 139 177 227 293 356 424
#     4  11  23  44  64  96 141 182 230 283 350 405
#     4  12  26  48  72 101 137 181 231 288 364 422
#     4  12  24  42  69 103 142 187 239 282 329 405
#     4  11  23  44  66 101 144 183 238 288 326 409
#     4  12  24  42  70  97 137 191 229 286 350 403
#     4  11  23  44  74  94 143 188 219 281 360 399
#
# _framework density 22.518799999999999
#
# number of rings (size 3 to 8) (size 9 to 14) (size 15 to 20)
#    0.000    0.533    8.000    1.200    1.867    3.200 
#    2.400    0.000    0.000    0.000    0.000    0.000 
#    0.000    0.000    0.000    0.000    0.000    0.000 
#
# Total GULP energy -185918.046393 kJ/mol
# GULP energy per Si atom -12394.536426 kJ/mol
# Density = 2.246755 g / cm^3
# Si number density = 22.518800 Si / 1000 Ang^3
#
#
#
# Elastic Constant Matrix: (Units=GPa)
#
#
# Indices 1 2 3 4 5 6 
#
# 1 51.3250 35.8767 41.5044 0.0000 -4.6927 0.0000
# 2 35.8767 180.7021 48.5925 0.0000 0.2845 0.0000
# 3 41.5044 48.5925 161.6416 0.0000 -25.0422 0.0000
# 4 0.0000 0.0000 0.0000 18.3897 0.0000 -5.2526
# 5 -4.6927 0.2845 -25.0422 0.0000 33.9036 0.0000
# 6 0.0000 0.0000 0.0000 -5.2526 0.0000 30.6672
#
#
#
# Elastic Compliance Matrix: (Units=1/GPa)
#
#
# Indices 1 2 3 4 5 6 
#
# 1 0.026768 -0.003744 -0.005837 0.000000 -0.000575 0.000000
# 2 -0.003744 0.006619 -0.001262 0.000000 -0.001506 0.000000
# 3 -0.005837 -0.001262 0.008967 0.000000 0.005826 0.000000
# 4 0.000000 0.000000 0.000000 0.057175 0.000000 0.009793
# 5 -0.000575 -0.001506 0.005826 0.000000 0.033732 0.000000
# 6 0.000000 0.000000 0.000000 0.009793 0.000000 0.034285
#
#
# Mechanical properties :
#
#
# Convention : Reuss Voigt Hill
#
# Bulk Modulus (GPa) = 48.38101 71.73509 60.05805
# Shear Modulus (GPa) = 25.49438 34.43844 29.96641
#
# Velocity S-wave (km/s) = 3.36838 3.91489 3.65187
# Velocity P-wave (km/s) = 6.05469 7.23602 6.67156
#
# Compressibility (1/GPa) = 0.02066927
#
# Stress axis : x y z
#
# Youngs Moduli (GPa) = 37.35775 151.08064 111.51889
#
# Poissons Ratio (x) = 0.56567 0.65090
# Poissons Ratio (y) = 0.13987 0.14070
# Poissons Ratio (z) = 0.21805 0.19062
#
# Static dielectric constant tensor:
#      x y z
#    x 3.911250 0.000000 -0.198240 
#    y 0.000000 4.473270 0.000000 
#    z -0.198240 0.000000 4.094170 
# 
# 
# High freq. dielectric constant tensor:
#      x y z
#    x 1.867230 0.000000 -0.015170 
#    y 0.000000 1.919010 0.000000 
#    z -0.015170 0.000000 1.886160 
# 
# From -- ./inp_files/50466.got.cif
#   From: 2010.03.12/outbox.cif.g09.slc.cpg/sg5_26_cif.got.tgz:50466.got - 2010.03.31 09:47:26.
