data_PCOD8051216
_publ_section_title
;
Structure prediction by ZEFSAII (Michael W. Deem and Ramdas Pophale) SiO2 
 PCOD8051216
Probable space group: C 2
;
_chemical_formula_sum "Si O2"
_cell_formula_units_Z 22
_cell_length_a 10.702181
_cell_length_b 21.037883
_cell_length_c 10.488179
_cell_angle_alpha 90.000000
_cell_angle_beta 27.593276
_cell_angle_gamma 90.000000
_cell_volume 1093.793899
_symmetry_space_group_name_H-M "C 2"
_symmetry_group_IT_number 5
_symmetry_cell_setting 'monoclinic'
loop_
_space_group_symop_operation_xyz
x,y,z
-x,y,-z
1/2+x,1/2+y,z
1/2-x,1/2+y,-z
loop_
_atom_site_type_symbol
_atom_site_label
_atom_site_fract_x
_atom_site_fract_y
_atom_site_fract_z
Si Si1 0.087303 0.722110 0.559189
Si Si2 0.778827 0.049546 0.806576
Si Si3 0.000000 0.281081 0.500000
Si Si4 0.369738 0.684619 0.832843
Si Si5 0.329052 0.351880 0.411715
Si Si6 0.615356 0.916499 0.037460
O O1 0.341268 0.680677 0.364591
O O2 0.181936 0.795356 0.475502
O O3 0.000000 0.700630 0.500000
O O4 0.851728 0.709316 0.870836
O O5 0.854650 0.110691 0.816980
O O6 0.000000 0.031544 0.500000
O O7 0.727362 0.988178 0.941911
O O8 0.500000 0.070706 0.000000
O O9 0.151445 0.233410 0.266231
O O10 0.221746 0.325447 0.371633
O O11 0.641078 0.373353 0.128519
O O12 0.132658 0.407738 0.639984
O O13 0.500000 0.899938 0.000000
#
# Coordination Sequence:
#
# PCOD8051216 Si02
#       6
#     4   4   2   4   4   4
#     4  11  23  39  62  92 127 166 205 261 323 377
#     4  11  22  39  65  93 125 161 218 273 308 369
#     4  10  24  40  64 100 126 172 206 264 332 376
#     4  11  23  39  65  93 128 164 214 266 319 381
#     4  11  23  38  62  89 130 158 207 257 310 392
#     4  11  22  39  63  90 121 167 212 258 315 364
#
# _framework density 20.113479000000002
#
# number of rings (size 3 to 8) (size 9 to 14) (size 15 to 20)
#    0.000    1.091    0.909    7.636    2.545    3.636 
#    0.000    0.000   12.000    0.000    0.000    0.000 
#    0.000    0.000    0.000    0.000    0.000    0.000 
#
# Total GULP energy -136333.913395 kJ/mol
# GULP energy per Si atom -12393.992127 kJ/mol
# Density = 2.006770 g / cm^3
# Si number density = 20.113479 Si / 1000 Ang^3
#
#
#
# Elastic Constant Matrix: (Units=GPa)
#
#
# Indices 1 2 3 4 5 6 
#
# 1 142.8762 54.7281 53.4511 0.0030 -10.8090 -0.0013
# 2 54.7281 122.8322 32.7799 0.0004 -6.2365 -0.0001
# 3 53.4511 32.7799 138.7065 0.0091 -2.4294 0.0004
# 4 0.0030 0.0004 0.0091 37.8956 -0.0015 -3.4479
# 5 -10.8090 -6.2365 -2.4294 -0.0015 46.5776 0.0006
# 6 -0.0013 -0.0001 0.0004 -3.4479 0.0006 30.8180
#
#
#
# Elastic Compliance Matrix: (Units=1/GPa)
#
#
# Indices 1 2 3 4 5 6 
#
# 1 0.009473 -0.003386 -0.002822 0.000000 0.001598 0.000000
# 2 -0.003386 0.009952 -0.001038 0.000000 0.000493 0.000000
# 3 -0.002822 -0.001038 0.008536 -0.000002 -0.000349 0.000000
# 4 0.000000 0.000000 -0.000002 0.026660 0.000001 0.002983
# 5 0.001598 0.000493 -0.000349 0.000001 0.021888 0.000000
# 6 0.000000 0.000000 0.000000 0.002983 0.000000 0.032782
#
#
# Mechanical properties :
#
#
# Convention : Reuss Voigt Hill
#
# Bulk Modulus (GPa) = 74.25290 76.25922 75.25606
# Shear Modulus (GPa) = 38.97903 40.62198 39.80050
#
# Velocity S-wave (km/s) = 4.40700 4.49892 4.45319
# Velocity P-wave (km/s) = 7.93049 8.06125 7.99614
#
# Compressibility (1/GPa) = 0.01346749
#
# Stress axis : x y z
#
# Youngs Moduli (GPa) = 105.56473 100.48123 117.14723
#
# Poissons Ratio (x) = 0.34027 0.33060
# Poissons Ratio (y) = 0.35748 0.12164
# Poissons Ratio (z) = 0.29792 0.10433
#
# Static dielectric constant tensor:
#      x y z
#    x 3.800820 -0.000010 -0.247470 
#    y -0.000010 3.691650 0.000000 
#    z -0.247470 0.000000 3.853420 
# 
# 
# High freq. dielectric constant tensor:
#      x y z
#    x 1.776780 0.000000 -0.020440 
#    y 0.000000 1.786040 0.000000 
#    z -0.020440 0.000000 1.803910 
# 
# From -- ./inp_files/40803.got.cif
#   From: 2010.03.12/outbox.cif.g09.slc.cpg/sg5_21_cif.got.tgz:40803.got - 2010.03.31 09:47:26.
