data_PCOD8051775
_publ_section_title
;
Structure prediction by ZEFSAII (Michael W. Deem and Ramdas Pophale) SiO2 
 PCOD8051775
Probable space group: C 2
;
_chemical_formula_sum "Si O2"
_cell_formula_units_Z 32
_cell_length_a 23.558932
_cell_length_b 14.863365
_cell_length_c 8.527176
_cell_angle_alpha 90.000000
_cell_angle_beta 30.228518
_cell_angle_gamma 90.000000
_cell_volume 1503.260920
_symmetry_space_group_name_H-M "C 2"
_symmetry_group_IT_number 5
_symmetry_cell_setting 'monoclinic'
loop_
_space_group_symop_operation_xyz
x,y,z
-x,y,-z
1/2+x,1/2+y,z
1/2-x,1/2+y,-z
loop_
_atom_site_type_symbol
_atom_site_label
_atom_site_fract_x
_atom_site_fract_y
_atom_site_fract_z
Si Si1 0.083743 0.718120 0.435015
Si Si2 0.920893 0.076804 0.401675
Si Si3 0.389144 0.072717 0.364651
Si Si4 0.325350 0.810007 0.130719
Si Si5 0.580350 0.378165 0.658946
Si Si6 0.835840 0.129120 0.270025
Si Si7 0.962145 0.377642 0.259632
Si Si8 0.170471 0.237750 0.217266
O O1 0.116331 0.637950 0.473953
O O2 0.032142 0.801813 0.657088
O O3 0.000000 0.684625 0.500000
O O4 0.196108 0.748798 0.077432
O O5 0.849650 0.108350 0.420138
O O6 0.869930 0.134673 0.665645
O O7 0.904142 0.970938 0.472383
O O8 0.054515 0.090529 0.077137
O O9 0.277455 0.082175 0.525861
O O10 0.395681 0.971274 0.413503
O O11 0.500000 0.097134 0.000000
O O12 0.202280 0.851033 0.430308
O O13 0.329827 0.735949 0.257734
O O14 0.418491 0.888005 0.933789
O O15 0.360755 0.763646 0.884192
O O16 0.500000 0.392032 0.000000
O O17 0.886556 0.301652 0.518854
O O18 0.000000 0.342653 0.000000
#
# Coordination Sequence:
#
# PCOD8051775 Si02
#       8
#     4   4   4   4   4   4   4   4
#     4  11  27  45  64 100 139 188 226 270 354 414
#     4  11  25  41  74 102 132 183 233 288 333 403
#     4  11  26  45  70 102 137 183 227 287 339 406
#     4  11  24  43  69  98 139 181 224 282 346 402
#     4  11  24  45  67 100 137 182 227 281 338 402
#     4  11  22  46  68 102 134 175 239 273 343 399
#     4  11  25  41  69 105 129 175 235 279 342 395
#     4  11  24  45  66  98 135 180 225 284 339 400
#
# _framework density 21.287057000000001
#
# number of rings (size 3 to 8) (size 9 to 14) (size 15 to 20)
#    0.000    1.000    5.000    1.500    5.250    5.000 
#    2.250    0.000    0.000    0.000    0.000    0.000 
#    0.000    0.000    0.000    0.000    0.000    0.000 
#
# Total GULP energy -198399.695679 kJ/mol
# GULP energy per Si atom -12399.980980 kJ/mol
# Density = 2.123861 g / cm^3
# Si number density = 21.287057 Si / 1000 Ang^3
#
#
#
# Elastic Constant Matrix: (Units=GPa)
#
#
# Indices 1 2 3 4 5 6 
#
# 1 109.3990 23.4549 57.5687 0.0000 -27.8307 0.0000
# 2 23.4549 120.3441 48.1157 0.0000 -4.9132 0.0000
# 3 57.5687 48.1157 97.0154 0.0000 -1.4831 0.0000
# 4 0.0000 0.0000 0.0000 26.5164 0.0000 -10.4539
# 5 -27.8307 -4.9132 -1.4831 0.0000 40.4152 0.0000
# 6 0.0000 0.0000 0.0000 -10.4539 0.0000 28.2629
#
#
#
# Elastic Compliance Matrix: (Units=1/GPa)
#
#
# Indices 1 2 3 4 5 6 
#
# 1 0.017665 0.001450 -0.011019 0.000000 0.011936 0.000000
# 2 0.001450 0.010530 -0.006052 0.000000 0.002057 0.000000
# 3 -0.011019 -0.006052 0.019732 0.000000 -0.007600 0.000000
# 4 0.000000 0.000000 0.000000 0.044151 0.000000 0.016331
# 5 0.011936 0.002057 -0.007600 0.000000 0.032934 0.000000
# 6 0.000000 0.000000 0.000000 0.016331 0.000000 0.041422
#
#
# Mechanical properties :
#
#
# Convention : Reuss Voigt Hill
#
# Bulk Modulus (GPa) = 59.93191 65.00412 62.46802
# Shear Modulus (GPa) = 24.60172 32.21350 28.40761
#
# Velocity S-wave (km/s) = 3.40327 3.89432 3.65705
# Velocity P-wave (km/s) = 6.60744 7.12911 6.87323
#
# Compressibility (1/GPa) = 0.01668560
#
# Stress axis : x y z
#
# Youngs Moduli (GPa) = 56.60874 94.96286 50.68012
#
# Poissons Ratio (x) = -0.13770 0.55845
# Poissons Ratio (y) = -0.08209 0.30670
# Poissons Ratio (z) = 0.62378 0.57469
#
# Static dielectric constant tensor:
#      x y z
#    x 4.024280 0.000000 -0.201060 
#    y 0.000000 3.974110 0.000000 
#    z -0.201060 0.000000 4.046940 
# 
# 
# High freq. dielectric constant tensor:
#      x y z
#    x 1.837420 0.000000 -0.009710 
#    y 0.000000 1.838090 0.000000 
#    z -0.009710 0.000000 1.843010 
# 
# From -- ./inp_files/31074.got.cif
#   From: 2010.03.12/outbox.cif.g09.slc.cpg/sg5_16_cif.got.tgz:31074.got - 2010.03.31 09:47:26.
