data_PCOD8051064
_publ_section_title
;
Structure prediction by ZEFSAII (Michael W. Deem and Ramdas Pophale) SiO2 
 PCOD8051064
Probable space group: C 2
;
_chemical_formula_sum "Si O2"
_cell_formula_units_Z 20
_cell_length_a 7.119012
_cell_length_b 15.104634
_cell_length_c 8.437657
_cell_angle_alpha 90.000000
_cell_angle_beta 95.220149
_cell_angle_gamma 90.000000
_cell_volume 903.538787
_symmetry_space_group_name_H-M "C 2"
_symmetry_group_IT_number 5
_symmetry_cell_setting 'monoclinic'
loop_
_space_group_symop_operation_xyz
x,y,z
-x,y,-z
1/2+x,1/2+y,z
1/2-x,1/2+y,-z
loop_
_atom_site_type_symbol
_atom_site_label
_atom_site_fract_x
_atom_site_fract_y
_atom_site_fract_z
Si Si1 0.787506 0.477240 0.969123
Si Si2 0.077187 0.262563 0.346266
Si Si3 0.212965 0.172616 0.065786
Si Si4 0.692766 0.318537 0.158110
Si Si5 0.611714 0.396549 0.656941
O O1 0.694786 0.470349 0.785778
O O2 0.791167 0.575967 0.036731
O O3 0.669837 0.414318 0.075075
O O4 0.000000 0.440923 0.000000
O O5 0.204398 0.194449 0.253036
O O6 0.209923 0.345018 0.402025
O O7 0.000000 0.215273 0.500000
O O8 0.898569 0.302642 0.242850
O O9 0.340347 0.243405 0.979305
O O10 0.000000 0.179130 0.000000
O O11 0.525807 0.321964 0.274528
O O12 0.500000 0.442184 0.500000
#
# Coordination Sequence:
#
# PCOD8051064 Si02
#       5
#     4   4   4   4   4
#     4  12  24  42  69 106 140 184 244 287 336 419
#     4  11  22  43  69 104 140 181 227 293 356 406
#     4  10  23  42  68 102 136 185 240 286 338 420
#     4  11  22  43  70 100 136 182 239 285 347 415
#     4  12  24  41  73 102 140 188 225 289 362 409
#
# _framework density 22.135187999999999
#
# number of rings (size 3 to 8) (size 9 to 14) (size 15 to 20)
#    0.000    0.800    6.000    2.400    2.800    0.000 
#    0.000    9.000    0.000    2.400    0.000    0.000 
#    0.000    0.000    0.000    0.000    0.000    0.000 
#
# Total GULP energy -123906.381226 kJ/mol
# GULP energy per Si atom -12390.638123 kJ/mol
# Density = 2.208481 g / cm^3
# Si number density = 22.135188 Si / 1000 Ang^3
#
#
#
# Elastic Constant Matrix: (Units=GPa)
#
#
# Indices 1 2 3 4 5 6 
#
# 1 105.6888 9.4636 40.0829 0.0000 6.0121 0.0000
# 2 9.4636 99.9149 33.6889 0.0000 -8.2330 0.0000
# 3 40.0829 33.6889 146.5454 0.0000 10.8854 0.0000
# 4 0.0000 0.0000 0.0000 19.0356 0.0000 0.1475
# 5 6.0121 -8.2330 10.8854 0.0000 40.8014 0.0000
# 6 0.0000 0.0000 0.0000 0.1475 0.0000 17.6368
#
#
#
# Elastic Compliance Matrix: (Units=1/GPa)
#
#
# Indices 1 2 3 4 5 6 
#
# 1 0.010584 -0.000126 -0.002804 0.000000 -0.000837 0.000000
# 2 -0.000126 0.011201 -0.002765 0.000000 0.003016 0.000000
# 3 -0.002804 -0.002765 0.008404 0.000000 -0.002387 0.000000
# 4 0.000000 0.000000 0.000000 0.052537 0.000000 -0.000439
# 5 -0.000837 0.003016 -0.002387 0.000000 0.025878 0.000000
# 6 0.000000 0.000000 0.000000 -0.000439 0.000000 0.056703
#
#
# Mechanical properties :
#
#
# Convention : Reuss Voigt Hill
#
# Bulk Modulus (GPa) = 53.19197 57.62443 55.40820
# Shear Modulus (GPa) = 27.32813 33.42234 30.37523
#
# Velocity S-wave (km/s) = 3.51750 3.88998 3.70842
# Velocity P-wave (km/s) = 6.37022 6.80187 6.58958
#
# Compressibility (1/GPa) = 0.01879983
#
# Stress axis : x y z
#
# Youngs Moduli (GPa) = 94.48249 89.27649 118.99764
#
# Poissons Ratio (x) = 0.01126 0.33364
# Poissons Ratio (y) = 0.01191 0.32898
# Poissons Ratio (z) = 0.26491 0.24681
#
# Static dielectric constant tensor:
#      x y z
#    x 4.262420 0.000000 -0.119050 
#    y 0.000000 3.969410 0.000000 
#    z -0.119050 0.000000 4.326760 
# 
# 
# High freq. dielectric constant tensor:
#      x y z
#    x 1.907390 0.000000 -0.001220 
#    y 0.000000 1.829270 0.000000 
#    z -0.001220 0.000000 1.869830 
# 
# From -- ./inp_files/14811.got.cif
#   From: 2010.03.12/outbox.cif.g09.slc.cpg/sg5_8_cif.got.tgz:14811.got - 2010.03.31 09:47:26.
