data_PCOD8051723
_publ_section_title
;
Structure prediction by ZEFSAII (Michael W. Deem and Ramdas Pophale) SiO2 
 PCOD8051723
Probable space group: C 2
;
_chemical_formula_sum "Si O2"
_cell_formula_units_Z 26
_cell_length_a 19.714023
_cell_length_b 11.505709
_cell_length_c 4.964000
_cell_angle_alpha 90.000000
_cell_angle_beta 84.362638
_cell_angle_gamma 90.000000
_cell_volume 1120.507791
_symmetry_space_group_name_H-M "C 2"
_symmetry_group_IT_number 5
_symmetry_cell_setting 'monoclinic'
loop_
_space_group_symop_operation_xyz
x,y,z
-x,y,-z
1/2+x,1/2+y,z
1/2-x,1/2+y,-z
loop_
_atom_site_type_symbol
_atom_site_label
_atom_site_fract_x
_atom_site_fract_y
_atom_site_fract_z
Si Si1 0.048062 0.207180 0.236299
Si Si2 0.500000 0.062133 0.500000
Si Si3 0.086765 0.646712 0.895527
Si Si4 0.340541 0.528430 0.668034
Si Si5 0.147747 0.756449 0.362839
Si Si6 0.746821 0.571018 0.795532
Si Si7 0.622478 0.940077 0.198893
O O1 0.087531 0.089096 0.294070
O O2 0.105892 0.305025 0.151224
O O3 0.000000 0.246445 0.500000
O O4 0.000000 0.185664 0.000000
O O5 0.512986 0.136712 0.771639
O O6 0.567359 0.985382 0.437329
O O7 0.134443 0.721514 0.677391
O O8 0.087677 0.707426 0.191460
O O9 0.115610 0.515195 0.925865
O O10 0.351216 0.392139 0.677565
O O11 0.317105 0.562683 0.378485
O O12 0.281229 0.565379 0.892726
O O13 0.218496 0.697283 0.245161
O O14 0.801033 0.465259 0.719265
#
# Coordination Sequence:
#
# PCOD8051723 Si02
#       7
#     4   2   4   4   4   4   4
#     4  12  28  50  74 111 153 199 251 299 377 456
#     4  12  20  42  66 112 142 176 242 300 386 408
#     4  11  22  42  67 103 138 184 230 303 366 424
#     4  12  28  49  72 104 148 201 243 300 380 449
#     4  11  25  46  68 102 145 179 251 297 359 447
#     4  11  25  45  74 106 141 193 252 307 373 431
#     4  11  25  42  76 109 149 184 249 315 366 426
#
# _framework density 23.203766999999999
#
# number of rings (size 3 to 8) (size 9 to 14) (size 15 to 20)
#    0.000    0.615    3.846    5.077    4.308    0.000 
#    4.154    0.000    0.000    0.000    0.000    0.000 
#    0.000    0.000    0.000    0.000    0.000    0.000 
#
# Total GULP energy -161162.096205 kJ/mol
# GULP energy per Si atom -12397.084323 kJ/mol
# Density = 2.315095 g / cm^3
# Si number density = 23.203767 Si / 1000 Ang^3
#
#
#
# Elastic Constant Matrix: (Units=GPa)
#
#
# Indices 1 2 3 4 5 6 
#
# 1 95.4469 34.3466 21.4821 0.0000 21.1474 0.0000
# 2 34.3466 164.8663 16.2580 0.0000 17.7142 0.0000
# 3 21.4821 16.2580 109.4351 0.0000 24.6997 0.0000
# 4 0.0000 0.0000 0.0000 19.2357 0.0000 1.4148
# 5 21.1474 17.7142 24.6997 0.0000 50.1236 0.0000
# 6 0.0000 0.0000 0.0000 1.4148 0.0000 22.0847
#
#
#
# Elastic Compliance Matrix: (Units=1/GPa)
#
#
# Indices 1 2 3 4 5 6 
#
# 1 0.012348 -0.002033 -0.001247 0.000000 -0.003877 0.000000
# 2 -0.002033 0.006663 -0.000285 0.000000 -0.001357 0.000000
# 3 -0.001247 -0.000285 0.010445 0.000000 -0.004520 0.000000
# 4 0.000000 0.000000 0.000000 0.052233 0.000000 -0.003346
# 5 -0.003877 -0.001357 -0.004520 0.000000 0.024293 0.000000
# 6 0.000000 0.000000 0.000000 -0.003346 0.000000 0.045495
#
#
# Mechanical properties :
#
#
# Convention : Reuss Voigt Hill
#
# Bulk Modulus (GPa) = 44.78816 57.10243 50.94530
# Shear Modulus (GPa) = 30.11171 38.13291 34.12231
#
# Velocity S-wave (km/s) = 3.60628 4.05828 3.83894
# Velocity P-wave (km/s) = 6.05676 6.82803 6.45393
#
# Compressibility (1/GPa) = 0.02232733
#
# Stress axis : x y z
#
# Youngs Moduli (GPa) = 80.98348 150.08490 95.73820
#
# Poissons Ratio (x) = 0.30512 0.11938
# Poissons Ratio (y) = 0.16464 0.02724
# Poissons Ratio (z) = 0.10098 0.04271
#
# Static dielectric constant tensor:
#      x y z
#    x 4.255290 0.000000 0.036700 
#    y 0.000000 4.038940 0.000000 
#    z 0.036700 0.000000 4.369790 
# 
# 
# High freq. dielectric constant tensor:
#      x y z
#    x 1.927370 0.000000 0.004180 
#    y 0.000000 1.896150 0.000000 
#    z 0.004180 0.000000 1.938380 
# 
# From -- ./inp_files/8302.got.cif
#   From: 2010.03.12/outbox.cif.g09.slc.cpg/sg5_5_cif.got.tgz:8302.got - 2010.03.31 09:47:26.
