data_PCOD8051437
_publ_section_title
;
Structure prediction by ZEFSAII (Michael W. Deem and Ramdas Pophale) SiO2 
 PCOD8051437
Probable space group: C 2
;
_chemical_formula_sum "Si O2"
_cell_formula_units_Z 32
_cell_length_a 9.055595
_cell_length_b 10.996639
_cell_length_c 15.235558
_cell_angle_alpha 90.000000
_cell_angle_beta 83.059783
_cell_angle_gamma 90.000000
_cell_volume 1506.057085
_symmetry_space_group_name_H-M "C 2"
_symmetry_group_IT_number 5
_symmetry_cell_setting 'monoclinic'
loop_
_space_group_symop_operation_xyz
x,y,z
-x,y,-z
1/2+x,1/2+y,z
1/2-x,1/2+y,-z
loop_
_atom_site_type_symbol
_atom_site_label
_atom_site_fract_x
_atom_site_fract_y
_atom_site_fract_z
Si Si1 0.275039 0.148420 0.787700
Si Si2 0.232882 0.076771 0.197807
Si Si3 0.797921 0.511424 0.435931
Si Si4 0.478184 0.996705 0.901660
Si Si5 0.402707 0.378661 0.682237
Si Si6 0.973736 0.218428 0.902472
Si Si7 0.866870 0.476416 0.630223
Si Si8 0.792371 0.748409 0.344433
O O1 0.367841 0.090131 0.861316
O O2 0.340846 0.273207 0.747873
O O3 0.111130 0.179648 0.832168
O O4 0.273807 0.056295 0.705639
O O5 0.362322 0.988080 0.156800
O O6 0.314211 0.177063 0.252360
O O7 0.166255 0.140842 0.118034
O O8 0.105407 0.001918 0.259301
O O9 0.691983 0.409058 0.399328
O O10 0.797877 0.493353 0.539010
O O11 0.750884 0.651477 0.423372
O O12 0.959679 0.505710 0.378657
O O13 0.421402 0.858483 0.900302
O O14 0.500000 0.041105 0.000000
O O15 0.567917 0.336799 0.642455
O O16 0.000000 0.180056 0.000000
O O17 0.850505 0.335027 0.656112
#
# Coordination Sequence:
#
# PCOD8051437 Si02
#       8
#     4   4   4   4   4   4   4   4
#     4  12  22  42  68  94 128 175 216 264 326 387
#     4  11  22  41  63  92 127 164 216 264 316 390
#     4  10  25  43  61  96 131 166 214 272 318 377
#     4  11  23  42  64  92 129 168 215 269 328 383
#     4  11  22  41  67  91 129 169 212 266 321 386
#     4  11  25  42  66  96 132 170 215 272 324 386
#     4  11  24  42  67  93 127 174 216 264 324 386
#     4  11  23  42  64  92 126 169 211 264 323 377
#
# _framework density 21.247534000000002
#
# number of rings (size 3 to 8) (size 9 to 14) (size 15 to 20)
#    0.000    1.000    3.750    3.000    3.500    0.500 
#    0.000    0.625    0.000    0.000    0.000    0.000 
#    0.000    0.000    0.000    0.000    0.000    0.000 
#
# Total GULP energy -198365.575374 kJ/mol
# GULP energy per Si atom -12397.848461 kJ/mol
# Density = 2.119917 g / cm^3
# Si number density = 21.247534 Si / 1000 Ang^3
#
#
#
# Elastic Constant Matrix: (Units=GPa)
#
#
# Indices 1 2 3 4 5 6 
#
# 1 35.3610 23.1332 10.8182 0.0000 10.9569 0.0000
# 2 23.1332 109.1399 36.5749 0.0000 14.2684 0.0000
# 3 10.8182 36.5749 119.1011 0.0000 17.7596 0.0000
# 4 0.0000 0.0000 0.0000 23.1325 0.0000 1.6896
# 5 10.9569 14.2684 17.7596 0.0000 38.8033 0.0000
# 6 0.0000 0.0000 0.0000 1.6896 0.0000 38.1816
#
#
#
# Elastic Compliance Matrix: (Units=1/GPa)
#
#
# Indices 1 2 3 4 5 6 
#
# 1 0.034778 -0.006368 -0.000095 0.000000 -0.007436 0.000000
# 2 -0.006368 0.011609 -0.002810 0.000000 -0.001185 0.000000
# 3 -0.000095 -0.002810 0.009777 0.000000 -0.003415 0.000000
# 4 0.000000 0.000000 0.000000 0.043369 0.000000 -0.001919
# 5 -0.007436 -0.001185 -0.003415 0.000000 0.029869 0.000000
# 6 0.000000 0.000000 0.000000 -0.001919 0.000000 0.026276
#
#
# Mechanical properties :
#
#
# Convention : Reuss Voigt Hill
#
# Bulk Modulus (GPa) = 26.58213 44.96163 35.77188
# Shear Modulus (GPa) = 26.77192 32.89520 29.83356
#
# Velocity S-wave (km/s) = 3.55350 3.93897 3.75119
# Velocity P-wave (km/s) = 5.41981 6.47257 5.96944
#
# Compressibility (1/GPa) = 0.03761926
#
# Stress axis : x y z
#
# Youngs Moduli (GPa) = 28.75341 86.14171 102.28174
#
# Poissons Ratio (x) = 0.54853 0.00969
# Poissons Ratio (y) = 0.18309 0.28740
# Poissons Ratio (z) = 0.00273 0.24205
#
# Static dielectric constant tensor:
#      x y z
#    x 3.830790 0.000000 0.037840 
#    y 0.000000 3.966570 0.000000 
#    z 0.037840 0.000000 3.869190 
# 
# 
# High freq. dielectric constant tensor:
#      x y z
#    x 1.824990 0.000000 0.004080 
#    y 0.000000 1.846140 0.000000 
#    z 0.004080 0.000000 1.842470 
# 
# From -- ./inp_files/50496.got.cif
#   From: 2010.03.12/outbox.cif.g09.slc.cpg/sg5_26_cif.got.tgz:50496.got - 2010.03.31 09:47:26.
