data_PCOD8051949
_publ_section_title
;
Structure prediction by ZEFSAII (Michael W. Deem and Ramdas Pophale) SiO2 
 PCOD8051949
Probable space group: C 2
;
_chemical_formula_sum "Si O2"
_cell_formula_units_Z 28
_cell_length_a 20.094550
_cell_length_b 5.350158
_cell_length_c 12.493221
_cell_angle_alpha 90.000000
_cell_angle_beta 118.699831
_cell_angle_gamma 90.000000
_cell_volume 1178.126663
_symmetry_space_group_name_H-M "C 2"
_symmetry_group_IT_number 5
_symmetry_cell_setting 'monoclinic'
loop_
_space_group_symop_operation_xyz
x,y,z
-x,y,-z
1/2+x,1/2+y,z
1/2-x,1/2+y,-z
loop_
_atom_site_type_symbol
_atom_site_label
_atom_site_fract_x
_atom_site_fract_y
_atom_site_fract_z
Si Si1 0.219788 0.121860 0.024820
Si Si2 0.018722 0.757121 0.137178
Si Si3 0.576500 0.601884 0.614506
Si Si4 0.178576 0.596838 0.311699
Si Si5 0.788428 0.770563 0.280341
Si Si6 0.946329 0.247106 0.170978
Si Si7 0.178548 0.389889 0.526178
O O1 0.133363 0.209165 0.951184
O O2 0.270437 0.359752 0.027379
O O3 0.252697 0.070459 0.169786
O O4 0.109508 0.753084 0.211712
O O5 0.994908 0.998407 0.186776
O O6 0.982888 0.499734 0.153154
O O7 0.000000 0.800558 0.000000
O O8 0.500000 0.494699 0.500000
O O9 0.632913 0.388448 0.702822
O O10 0.560606 0.777948 0.705361
O O11 0.618587 0.746477 0.552483
O O12 0.220501 0.468658 0.244086
O O13 0.146020 0.413899 0.380397
O O14 0.239289 0.766293 0.419681
O O15 0.808751 0.658694 0.410665
#
# Coordination Sequence:
#
# PCOD8051949 Si02
#       7
#     4   4   4   4   4   4   4
#     4  12  25  46  74 104 148 185 244 294 353 433
#     4  12  29  48  75 106 151 191 239 299 364 432
#     4  11  26  45  70 107 145 188 238 302 370 428
#     4  11  25  45  72 104 139 193 243 299 355 432
#     4  11  25  43  73 102 142 191 242 296 358 430
#     4  12  27  48  74 111 145 191 240 298 370 426
#     4  11  24  43  72 104 141 188 250 295 361 429
#
# _framework density 23.766545000000001
#
# number of rings (size 3 to 8) (size 9 to 14) (size 15 to 20)
#    0.000    0.571    2.857    3.857   10.000    0.571 
#    0.000    0.000    0.000    0.000    0.000    0.000 
#    0.000    0.000    0.000    0.000    0.000    0.000 
#
# Total GULP energy -173566.606017 kJ/mol
# GULP energy per Si atom -12397.614715 kJ/mol
# Density = 2.371245 g / cm^3
# Si number density = 23.766545 Si / 1000 Ang^3
#
#
#
# Elastic Constant Matrix: (Units=GPa)
#
#
# Indices 1 2 3 4 5 6 
#
# 1 118.9008 22.0961 35.6052 0.0000 10.3095 0.0000
# 2 22.0961 90.1443 -8.0505 0.0000 -2.6430 -0.0001
# 3 35.6052 -8.0505 112.5686 0.0000 7.3326 0.0000
# 4 0.0000 0.0000 0.0000 29.2157 0.0000 -1.3479
# 5 10.3095 -2.6430 7.3326 0.0000 33.4359 0.0000
# 6 0.0000 -0.0001 0.0000 -1.3479 0.0000 15.7484
#
#
#
# Elastic Compliance Matrix: (Units=1/GPa)
#
#
# Indices 1 2 3 4 5 6 
#
# 1 0.010139 -0.002852 -0.003239 0.000000 -0.002641 0.000000
# 2 -0.002852 0.011984 0.001664 0.000000 0.001462 0.000000
# 3 -0.003239 0.001664 0.010098 0.000000 -0.001084 0.000000
# 4 0.000000 0.000000 0.000000 0.034364 0.000000 0.002941
# 5 -0.002641 0.001462 -0.001084 0.000000 0.031076 0.000000
# 6 0.000000 0.000000 0.000000 0.002941 0.000000 0.063750
#
#
# Mechanical properties :
#
#
# Convention : Reuss Voigt Hill
#
# Bulk Modulus (GPa) = 42.79614 46.76838 44.78226
# Shear Modulus (GPa) = 28.08139 33.81086 30.94613
#
# Velocity S-wave (km/s) = 3.44110 3.77586 3.61236
# Velocity P-wave (km/s) = 5.81672 6.22338 6.02348
#
# Compressibility (1/GPa) = 0.02336659
#
# Stress axis : x y z
#
# Youngs Moduli (GPa) = 98.62583 83.44547 99.03379
#
# Poissons Ratio (x) = 0.23799 0.32077
# Poissons Ratio (y) = 0.28129 -0.16478
# Poissons Ratio (z) = 0.31944 -0.13885
#
# Static dielectric constant tensor:
#      x y z
#    x 4.469290 0.000000 -0.020420 
#    y 0.000000 4.193060 0.000000 
#    z -0.020420 0.000000 4.341250 
# 
# 
# High freq. dielectric constant tensor:
#      x y z
#    x 1.954610 0.000000 -0.000200 
#    y 0.000000 1.932430 0.000000 
#    z -0.000200 0.000000 1.957200 
# 
# From -- ./inp_files/45494.got.cif
#   From: 2010.03.12/outbox.cif.g09.slc.cpg/sg5_23_cif.got.tgz:45494.got - 2010.03.31 09:47:26.
