data_PCOD8051185
_publ_section_title
;
Structure prediction by ZEFSAII (Michael W. Deem and Ramdas Pophale) SiO2 
 PCOD8051185
Probable space group: C 2
;
_chemical_formula_sum "Si O2"
_cell_formula_units_Z 24
_cell_length_a 9.543245
_cell_length_b 11.291579
_cell_length_c 15.935230
_cell_angle_alpha 90.000000
_cell_angle_beta 36.918209
_cell_angle_gamma 90.000000
_cell_volume 1031.449969
_symmetry_space_group_name_H-M "C 2"
_symmetry_group_IT_number 5
_symmetry_cell_setting 'monoclinic'
loop_
_space_group_symop_operation_xyz
x,y,z
-x,y,-z
1/2+x,1/2+y,z
1/2-x,1/2+y,-z
loop_
_atom_site_type_symbol
_atom_site_label
_atom_site_fract_x
_atom_site_fract_y
_atom_site_fract_z
Si Si1 0.829322 0.399780 0.249093
Si Si2 0.065161 0.672432 0.808836
Si Si3 0.787164 0.544836 0.659156
Si Si4 0.388672 0.336854 0.364959
Si Si5 0.952359 0.198250 0.929145
Si Si6 0.039236 0.338567 0.322737
O O1 0.840317 0.540370 0.244608
O O2 0.565448 0.359136 0.356532
O O3 0.998323 0.340426 0.097398
O O4 0.911941 0.341311 0.295776
O O5 0.027275 0.730580 0.735233
O O6 0.242694 0.748328 0.780934
O O7 0.810964 0.670063 0.973597
O O8 0.629910 0.458340 0.677913
O O9 0.626462 0.645906 0.775310
O O10 0.000000 0.597063 0.500000
O O11 0.883752 0.471521 0.692113
O O12 0.140206 0.294992 0.519913
O O13 0.000000 0.148358 0.000000
#
# Coordination Sequence:
#
# PCOD8051185 Si02
#       6
#     4   4   4   4   4   4
#     4  12  27  45  72 111 146 195 250 297 373 436
#     4  11  26  48  72 104 153 197 241 308 367 436
#     4   9  22  47  77 107 147 194 246 306 367 436
#     4  10  23  48  75 108 152 190 248 304 364 436
#     4  12  26  47  73 109 151 196 246 309 365 438
#     4  10  24  46  75 112 145 195 247 303 367 437
#
# _framework density 23.268217
#
# number of rings (size 3 to 8) (size 9 to 14) (size 15 to 20)
#    0.000    1.333    1.667    3.000    7.000    4.667 
#    0.000    0.000    0.000    0.000    0.000    0.000 
#    0.000    0.000    0.000    0.000    0.000    0.000 
#
# Total GULP energy -148787.432819 kJ/mol
# GULP energy per Si atom -12398.952735 kJ/mol
# Density = 2.321526 g / cm^3
# Si number density = 23.268217 Si / 1000 Ang^3
#
#
#
# Elastic Constant Matrix: (Units=GPa)
#
#
# Indices 1 2 3 4 5 6 
#
# 1 149.2070 37.0985 40.2525 0.0000 -15.5732 0.0000
# 2 37.0985 110.1483 51.9292 -0.0007 -4.2150 0.0002
# 3 40.2525 51.9292 135.7142 -0.0023 -11.4680 -0.0001
# 4 0.0000 -0.0007 -0.0023 36.7430 -0.0005 -0.9796
# 5 -15.5732 -4.2150 -11.4680 -0.0005 34.8948 0.0004
# 6 0.0000 0.0002 -0.0001 -0.9796 0.0004 26.1966
#
#
#
# Elastic Compliance Matrix: (Units=1/GPa)
#
#
# Indices 1 2 3 4 5 6 
#
# 1 0.007833 -0.001888 -0.001363 0.000000 0.002820 0.000000
# 2 -0.001888 0.011532 -0.003915 0.000000 -0.000736 0.000000
# 3 -0.001363 -0.003915 0.009441 0.000001 0.002022 0.000000
# 4 0.000000 0.000000 0.000001 0.027243 0.000000 0.001019
# 5 0.002820 -0.000736 0.002022 0.000000 0.030492 0.000000
# 6 0.000000 0.000000 0.000000 0.001019 0.000000 0.038211
#
#
# Mechanical properties :
#
#
# Convention : Reuss Voigt Hill
#
# Bulk Modulus (GPa) = 69.08023 72.62554 70.85289
# Shear Modulus (GPa) = 34.74419 37.28619 36.01519
#
# Velocity S-wave (km/s) = 3.86839 4.00741 3.93851
# Velocity P-wave (km/s) = 7.05023 7.25896 7.15536
#
# Compressibility (1/GPa) = 0.01447592
#
# Stress axis : x y z
#
# Youngs Moduli (GPa) = 127.65702 86.71517 105.91675
#
# Poissons Ratio (x) = 0.16372 0.14433
# Poissons Ratio (y) = 0.24102 0.41464
# Poissons Ratio (z) = 0.17395 0.33947
#
# Static dielectric constant tensor:
#      x y z
#    x 4.314870 0.000000 -0.122310 
#    y 0.000000 4.126200 0.000000 
#    z -0.122310 0.000000 4.186970 
# 
# 
# High freq. dielectric constant tensor:
#      x y z
#    x 1.932380 0.000000 -0.010970 
#    y 0.000000 1.918020 0.000000 
#    z -0.010970 0.000000 1.919230 
# 
# From -- ./inp_files/65212.got.cif
#   From: 2010.03.12/outbox.cif.g09.slc.cpg/sg5_33_cif.got.tgz:65212.got - 2010.03.31 09:47:26.
