data_PCOD8051590
_publ_section_title
;
Structure prediction by ZEFSAII (Michael W. Deem and Ramdas Pophale) SiO2 
 PCOD8051590
Probable space group: C 2
;
_chemical_formula_sum "Si O2"
_cell_formula_units_Z 32
_cell_length_a 14.694065
_cell_length_b 10.601186
_cell_length_c 19.127123
_cell_angle_alpha 90.000000
_cell_angle_beta 150.821813
_cell_angle_gamma 90.000000
_cell_volume 1452.596512
_symmetry_space_group_name_H-M "C 2"
_symmetry_group_IT_number 5
_symmetry_cell_setting 'monoclinic'
loop_
_space_group_symop_operation_xyz
x,y,z
-x,y,-z
1/2+x,1/2+y,z
1/2-x,1/2+y,-z
loop_
_atom_site_type_symbol
_atom_site_label
_atom_site_fract_x
_atom_site_fract_y
_atom_site_fract_z
Si Si1 0.432915 0.513160 0.313354
Si Si2 0.662791 0.368178 0.569004
Si Si3 0.882852 0.695807 0.856409
Si Si4 0.936580 0.384267 0.380513
Si Si5 0.019073 0.482818 0.857388
Si Si6 0.204244 0.211294 0.470111
Si Si7 0.688542 0.819808 0.083633
Si Si8 0.084518 0.582057 0.755170
O O1 0.553493 0.489062 0.464095
O O2 0.242169 0.585558 0.196127
O O3 0.571925 0.594943 0.357760
O O4 0.376696 0.379751 0.242503
O O5 0.500000 0.288163 0.500000
O O6 0.813395 0.420098 0.725104
O O7 0.763918 0.287518 0.578737
O O8 0.757309 0.807393 0.740300
O O9 0.014022 0.625031 0.886847
O O10 0.000000 0.752223 0.000000
O O11 0.900468 0.505689 0.307348
O O12 0.000000 0.429868 0.500000
O O13 0.097169 0.296341 0.455348
O O14 0.082684 0.486764 0.819368
O O15 0.162350 0.387900 0.991333
O O16 0.395198 0.162535 0.631583
O O17 0.734560 0.671345 0.112241
O O18 0.500000 0.844519 0.000000
#
# Coordination Sequence:
#
# PCOD8051590 Si02
#       8
#     4   4   4   4   4   4   4   4
#     4  11  20  40  70 100 136 181 243 296 347 411
#     4  12  22  38  71 106 141 185 241 301 356 421
#     4  11  22  41  75 100 137 187 244 294 348 435
#     4  11  26  47  71 105 142 190 242 297 370 424
#     4  12  23  43  69 109 138 187 250 286 355 430
#     4  11  23  42  72 102 142 179 238 306 354 415
#     4  12  25  48  72 102 144 198 241 291 357 443
#     4  12  27  45  69 106 153 178 233 311 363 426
#
# _framework density 22.029517999999999
#
# number of rings (size 3 to 8) (size 9 to 14) (size 15 to 20)
#    0.000    0.500    7.500    0.750    1.750    3.000 
#    0.000    1.250    0.000    0.000    0.000    0.000 
#    0.000    0.000    0.000    0.000    0.000    0.000 
#
# Total GULP energy -198374.109119 kJ/mol
# GULP energy per Si atom -12398.381820 kJ/mol
# Density = 2.197938 g / cm^3
# Si number density = 22.029518 Si / 1000 Ang^3
#
#
#
# Elastic Constant Matrix: (Units=GPa)
#
#
# Indices 1 2 3 4 5 6 
#
# 1 101.1833 41.0015 37.7864 0.0005 -14.4326 -0.0004
# 2 41.0015 97.5730 51.2670 0.0011 -4.7359 -0.0005
# 3 37.7864 51.2670 119.0922 0.0050 -17.9555 0.0028
# 4 0.0005 0.0011 0.0050 34.9886 0.0015 8.9650
# 5 -14.4326 -4.7359 -17.9555 0.0015 33.5922 0.0000
# 6 -0.0004 -0.0005 0.0028 8.9650 0.0000 26.6900
#
#
#
# Elastic Compliance Matrix: (Units=1/GPa)
#
#
# Indices 1 2 3 4 5 6 
#
# 1 0.012817 -0.004359 -0.001580 0.000000 0.004048 0.000000
# 2 -0.004359 0.014778 -0.005380 0.000000 -0.002665 0.000001
# 3 -0.001580 -0.005380 0.011962 -0.000001 0.004956 -0.000001
# 4 0.000000 0.000000 -0.000001 0.031272 -0.000002 -0.010504
# 5 0.004048 -0.002665 0.004956 -0.000002 0.033781 0.000000
# 6 0.000000 0.000001 -0.000001 -0.010504 0.000000 0.040995
#
#
# Mechanical properties :
#
#
# Convention : Reuss Voigt Hill
#
# Bulk Modulus (GPa) = 59.11017 64.21758 61.66387
# Shear Modulus (GPa) = 28.75484 31.57373 30.16428
#
# Velocity S-wave (km/s) = 3.61679 3.78993 3.70437
# Velocity P-wave (km/s) = 6.65824 6.95453 6.80799
#
# Compressibility (1/GPa) = 0.01691756
#
# Stress axis : x y z
#
# Youngs Moduli (GPa) = 78.02246 67.66718 83.60127
#
# Poissons Ratio (x) = 0.29498 0.13207
# Poissons Ratio (y) = 0.34012 0.44981
# Poissons Ratio (z) = 0.12326 0.36408
#
# Static dielectric constant tensor:
#      x y z
#    x 3.936010 0.000000 0.050560 
#    y 0.000000 3.896170 -0.000010 
#    z 0.050560 -0.000010 4.042190 
# 
# 
# High freq. dielectric constant tensor:
#      x y z
#    x 1.857280 0.000000 0.002480 
#    y 0.000000 1.854800 0.000000 
#    z 0.002480 0.000000 1.875590 
# 
# From -- ./inp_files/61729.got.cif
#   From: 2010.03.12/outbox.cif.g09.slc.cpg/sg5_31_cif.got.tgz:61729.got - 2010.03.31 09:47:26.
