data_PCOD8051888
_publ_section_title
;
Structure prediction by ZEFSAII (Michael W. Deem and Ramdas Pophale) SiO2 
 PCOD8051888
Probable space group: C 2
;
_chemical_formula_sum "Si O2"
_cell_formula_units_Z 16
_cell_length_a 7.597648
_cell_length_b 20.431909
_cell_length_c 7.264363
_cell_angle_alpha 90.000000
_cell_angle_beta 37.591125
_cell_angle_gamma 90.000000
_cell_volume 687.909739
_symmetry_space_group_name_H-M "C 2"
_symmetry_group_IT_number 5
_symmetry_cell_setting 'monoclinic'
loop_
_space_group_symop_operation_xyz
x,y,z
-x,y,-z
1/2+x,1/2+y,z
1/2-x,1/2+y,-z
loop_
_atom_site_type_symbol
_atom_site_label
_atom_site_fract_x
_atom_site_fract_y
_atom_site_fract_z
Si Si1 0.000000 0.220520 0.000000
Si Si2 0.628933 0.319354 0.076529
Si Si3 0.296755 0.040889 0.337647
Si Si4 0.631081 0.895416 0.684968
Si Si5 0.000000 0.627692 0.500000
O O1 0.828440 0.263280 0.995790
O O2 0.778918 0.172517 0.282757
O O3 0.394150 0.345946 0.418934
O O4 0.500000 0.286978 0.000000
O O5 0.838197 0.377082 0.817412
O O6 0.465948 0.083250 0.347376
O O7 0.000000 0.070654 0.500000
O O8 0.247196 0.967565 0.458346
O O9 0.500000 0.031142 0.000000
O O10 0.500000 0.882360 0.000000
#
# Coordination Sequence:
#
# PCOD8051888 Si02
#       5
#     2   4   4   4   2
#     4  12  28  48  70 100 152 190 240 290 346 422
#     4  12  26  43  72 107 144 192 237 294 360 426
#     4  11  25  46  73 110 143 185 235 302 361 420
#     4  11  23  45  73 108 153 178 229 305 370 426
#     4  12  28  48  76 100 142 202 242 284 350 440
#
# _framework density 23.258866999999999
#
# number of rings (size 3 to 8) (size 9 to 14) (size 15 to 20)
#    0.000    0.500    1.250    7.500    3.500    3.000 
#    0.000    0.000    0.000    0.000    0.000    0.000 
#    0.000    0.000    0.000    0.000    0.000    0.000 
#
# Total GULP energy -99107.872184 kJ/mol
# GULP energy per Si atom -12388.484023 kJ/mol
# Density = 2.320593 g / cm^3
# Si number density = 23.258867 Si / 1000 Ang^3
#
#
#
# Elastic Constant Matrix: (Units=GPa)
#
#
# Indices 1 2 3 4 5 6 
#
# 1 154.7967 70.2411 32.5198 0.0000 -12.6532 0.0000
# 2 70.2411 123.1420 44.5563 0.0000 2.1043 0.0000
# 3 32.5198 44.5563 132.0508 0.0000 -23.5999 0.0000
# 4 0.0000 0.0000 0.0000 56.1700 0.0000 -6.5913
# 5 -12.6532 2.1043 -23.5999 0.0000 35.1003 0.0000
# 6 0.0000 0.0000 0.0000 -6.5913 0.0000 25.0401
#
#
#
# Elastic Compliance Matrix: (Units=1/GPa)
#
#
# Indices 1 2 3 4 5 6 
#
# 1 0.009158 -0.005373 0.000233 0.000000 0.003780 0.000000
# 2 -0.005373 0.012692 -0.003911 0.000000 -0.005328 0.000000
# 3 0.000233 -0.003911 0.010107 0.000000 0.007114 0.000000
# 4 0.000000 0.000000 0.000000 0.018371 0.000000 0.004836
# 5 0.003780 -0.005328 0.007114 0.000000 0.034955 0.000000
# 6 0.000000 0.000000 0.000000 0.004836 0.000000 0.041209
#
#
# Mechanical properties :
#
#
# Convention : Reuss Voigt Hill
#
# Bulk Modulus (GPa) = 72.18012 78.29156 75.23584
# Shear Modulus (GPa) = 33.50964 40.77355 37.14160
#
# Velocity S-wave (km/s) = 3.79981 4.19147 4.00043
# Velocity P-wave (km/s) = 7.09592 7.56033 7.33180
#
# Compressibility (1/GPa) = 0.01385423
#
# Stress axis : x y z
#
# Youngs Moduli (GPa) = 109.19321 78.79186 98.94570
#
# Poissons Ratio (x) = 0.42333 -0.02307
# Poissons Ratio (y) = 0.58667 0.38701
# Poissons Ratio (z) = -0.02546 0.30818
#
# Static dielectric constant tensor:
#      x y z
#    x 4.429430 0.000000 -0.434510 
#    y 0.000000 4.392910 0.000000 
#    z -0.434510 0.000000 4.464770 
# 
# 
# High freq. dielectric constant tensor:
#      x y z
#    x 1.931750 0.000000 -0.018100 
#    y 0.000000 1.912660 0.000000 
#    z -0.018100 0.000000 1.938220 
# 
# From -- ./inp_files/15986.got.cif
#   From: 2010.03.12/outbox.cif.g09.slc.cpg/sg5_8_cif.got.tgz:15986.got - 2010.03.31 09:47:26.
