data_PCOD8051673
_publ_section_title
;
Structure prediction by ZEFSAII (Michael W. Deem and Ramdas Pophale) SiO2 
 PCOD8051673
Probable space group: C 2
;
_chemical_formula_sum "Si O2"
_cell_formula_units_Z 24
_cell_length_a 13.976273
_cell_length_b 11.187943
_cell_length_c 19.079681
_cell_angle_alpha 90.000000
_cell_angle_beta 158.738616
_cell_angle_gamma 90.000000
_cell_volume 1081.853185
_symmetry_space_group_name_H-M "C 2"
_symmetry_group_IT_number 5
_symmetry_cell_setting 'monoclinic'
loop_
_space_group_symop_operation_xyz
x,y,z
-x,y,-z
1/2+x,1/2+y,z
1/2-x,1/2+y,-z
loop_
_atom_site_type_symbol
_atom_site_label
_atom_site_fract_x
_atom_site_fract_y
_atom_site_fract_z
Si Si1 0.293321 0.936930 0.190354
Si Si2 0.506592 0.109871 0.228432
Si Si3 0.139034 0.568707 0.024431
Si Si4 0.123667 0.204659 0.408798
Si Si5 0.594383 0.158067 0.636116
Si Si6 0.918966 0.290956 0.020187
O O1 0.496681 0.830147 0.344938
O O2 0.359560 0.990808 0.158039
O O3 0.308392 0.043933 0.255124
O O4 0.000000 0.883100 0.000000
O O5 0.787351 0.130980 0.460047
O O6 0.530688 0.103052 0.160524
O O7 0.335722 0.227267 0.124305
O O8 0.429608 0.626307 0.226708
O O9 0.159879 0.427358 0.037558
O O10 0.000000 0.615402 0.000000
O O11 0.380637 0.229849 0.536663
O O12 0.500000 0.099636 0.500000
O O13 0.813838 0.253927 0.757071
O O14 0.000000 0.237638 0.000000
#
# Coordination Sequence:
#
# PCOD8051673 Si02
#       6
#     4   4   4   4   4   4
#     4  11  23  46  70 103 141 179 228 293 343 413
#     4  11  24  45  74 103 137 187 231 289 345 408
#     4  11  28  47  70 101 147 183 230 286 355 408
#     4  11  26  45  71 107 140 178 237 283 351 413
#     4  11  23  43  70 105 131 183 241 279 338 418
#     4  11  21  47  70 100 137 179 229 291 337 414
#
# _framework density 22.184155000000001
#
# number of rings (size 3 to 8) (size 9 to 14) (size 15 to 20)
#    0.000    1.000    5.000    1.500    9.333    0.667 
#    6.000    0.000    0.000    0.000    0.000    0.000 
#    0.000    0.000    0.000    0.000    0.000    0.000 
#
# Total GULP energy -148702.960000 kJ/mol
# GULP energy per Si atom -12391.913333 kJ/mol
# Density = 2.213366 g / cm^3
# Si number density = 22.184155 Si / 1000 Ang^3
#
#
#
# Elastic Constant Matrix: (Units=GPa)
#
#
# Indices 1 2 3 4 5 6 
#
# 1 102.1744 17.9957 23.4282 0.0254 -32.0774 0.0398
# 2 17.9957 106.9672 40.7668 0.0494 9.2277 0.0338
# 3 23.4282 40.7668 105.2499 0.1191 -10.2658 0.0954
# 4 0.0254 0.0494 0.1191 25.6510 0.0096 14.8618
# 5 -32.0774 9.2277 -10.2658 0.0096 40.4449 -0.0037
# 6 0.0398 0.0338 0.0954 14.8618 -0.0037 9.1499
#
#
#
# Elastic Compliance Matrix: (Units=1/GPa)
#
#
# Indices 1 2 3 4 5 6 
#
# 1 0.014216 -0.003096 -0.000817 0.000217 0.011774 -0.000390
# 2 -0.003096 0.012201 -0.004663 -0.000080 -0.006423 0.000144
# 3 -0.000817 -0.004663 0.011823 0.000207 0.003417 -0.000437
# 4 0.000217 -0.000080 0.000207 0.661681 -0.000012 -1.074751
# 5 0.011774 -0.006423 0.003417 -0.000012 0.036396 -0.000028
# 6 -0.000390 0.000144 -0.000437 -1.074751 -0.000028 1.854984
#
#
# Mechanical properties :
#
#
# Convention : Reuss Voigt Hill
#
# Bulk Modulus (GPa) = 47.42069 53.19697 50.30883
# Shear Modulus (GPa) = 1.91169 30.52919 16.22044
#
# Velocity S-wave (km/s) = 0.92931 3.71370 2.70695
# Velocity P-wave (km/s) = 4.75119 6.51311 5.70063
#
# Compressibility (1/GPa) = 0.02108784
#
# Stress axis : x y z
#
# Youngs Moduli (GPa) = 70.34150 81.96191 84.58365
#
# Poissons Ratio (x) = 0.25376 0.06908
# Poissons Ratio (y) = 0.21779 0.39442
# Poissons Ratio (z) = 0.05745 0.38220
#
# Static dielectric constant tensor:
#      x y z
#    x 4.225820 0.000030 -0.058510 
#    y 0.000030 3.820090 -0.000260 
#    z -0.058510 -0.000260 4.481310 
# 
# 
# High freq. dielectric constant tensor:
#      x y z
#    x 1.869220 0.000000 -0.004980 
#    y 0.000000 1.870040 -0.000010 
#    z -0.004980 -0.000010 1.880150 
# 
# From -- ./inp_files/66113.got.cif
#   From: 2010.03.12/outbox.cif.g09.slc.cpg/sg5_34_cif.got.tgz:66113.got - 2010.03.31 09:47:26.
