data_PCOD8051011
_publ_section_title
;
Structure prediction by ZEFSAII (Michael W. Deem and Ramdas Pophale) SiO2 
 PCOD8051011
Probable space group: C 2
;
_chemical_formula_sum "Si O2"
_cell_formula_units_Z 24
_cell_length_a 8.603326
_cell_length_b 9.233887
_cell_length_c 29.159665
_cell_angle_alpha 90.000000
_cell_angle_beta 27.739760
_cell_angle_gamma 90.000000
_cell_volume 1078.232509
_symmetry_space_group_name_H-M "C 2"
_symmetry_group_IT_number 5
_symmetry_cell_setting 'monoclinic'
loop_
_space_group_symop_operation_xyz
x,y,z
-x,y,-z
1/2+x,1/2+y,z
1/2-x,1/2+y,-z
loop_
_atom_site_type_symbol
_atom_site_label
_atom_site_fract_x
_atom_site_fract_y
_atom_site_fract_z
Si Si1 0.678911 0.636710 0.383022
Si Si2 0.526555 0.100639 0.881946
Si Si3 0.470647 0.019677 0.794307
Si Si4 0.259866 0.405422 0.971162
Si Si5 0.237692 0.217990 0.705376
Si Si6 0.586219 0.332075 0.528918
O O1 0.431434 0.503596 0.458269
O O2 0.464470 0.783594 0.441357
O O3 0.844588 0.623761 0.289816
O O4 0.958927 0.637211 0.349120
O O5 0.450524 0.100888 0.847879
O O6 0.323608 0.234122 0.957023
O O7 0.919852 0.112723 0.788956
O O8 0.389556 0.953879 0.940725
O O9 0.666212 0.868612 0.750214
O O10 0.103596 0.987972 0.870240
O O11 0.000000 0.450653 0.000000
O O12 0.322861 0.250857 0.630281
O O13 0.500000 0.285784 0.500000
#
# Coordination Sequence:
#
# PCOD8051011 Si02
#       6
#     4   4   4   4   4   4
#     4  11  24  43  66  94 128 167 212 262 316 375
#     4  11  24  43  66  94 128 167 212 262 316 375
#     4  10  23  41  64  94 128 169 213 259 314 374
#     4  11  23  40  64  94 129 166 211 261 314 373
#     4  10  23  41  64  94 128 169 213 259 314 374
#     4  11  23  40  64  94 129 166 211 261 314 373
#
# _framework density 22.258648999999998
#
# number of rings (size 3 to 8) (size 9 to 14) (size 15 to 20)
#    0.000    1.333    0.000    5.000    0.000   10.667 
#    0.000    0.000    0.000    0.000    0.000    0.000 
#    0.000    0.000    0.000    0.000    0.000    0.000 
#
# Total GULP energy -148898.749068 kJ/mol
# GULP energy per Si atom -12408.229089 kJ/mol
# Density = 2.220799 g / cm^3
# Si number density = 22.258649 Si / 1000 Ang^3
#
#
#
# Elastic Constant Matrix: (Units=GPa)
#
#
# Indices 1 2 3 4 5 6 
#
# 1 131.9742 58.1380 64.1274 0.0859 -1.7461 0.0012
# 2 58.1380 95.2224 62.8836 -0.0904 -0.4416 0.0564
# 3 64.1274 62.8836 120.6322 0.5337 0.8405 0.1340
# 4 0.0859 -0.0904 0.5337 44.1896 0.0526 -0.5993
# 5 -1.7461 -0.4416 0.8405 0.0526 52.2218 0.0091
# 6 0.0012 0.0564 0.1340 -0.5993 0.0091 28.5141
#
#
#
# Elastic Compliance Matrix: (Units=1/GPa)
#
#
# Indices 1 2 3 4 5 6 
#
# 1 0.011358 -0.004489 -0.003701 0.000013 0.000401 0.000026
# 2 -0.004489 0.017793 -0.006890 0.000128 0.000111 0.000000
# 3 -0.003701 -0.006890 0.013853 -0.000174 -0.000405 -0.000055
# 4 0.000013 0.000128 -0.000174 0.022639 -0.000019 0.000476
# 5 0.000401 0.000111 -0.000405 -0.000019 0.019170 -0.000005
# 6 0.000026 0.000000 -0.000055 0.000476 -0.000005 0.035081
#
#
# Mechanical properties :
#
#
# Convention : Reuss Voigt Hill
#
# Bulk Modulus (GPa) = 77.85901 79.79189 78.82545
# Shear Modulus (GPa) = 32.39696 35.83042 34.11369
#
# Velocity S-wave (km/s) = 3.81921 4.01650 3.91910
# Velocity P-wave (km/s) = 7.38266 7.57859 7.48127
#
# Compressibility (1/GPa) = 0.01284373
#
# Stress axis : x y z
#
# Youngs Moduli (GPa) = 88.04106 56.20036 72.18868
#
# Poissons Ratio (x) = 0.25228 0.26716
# Poissons Ratio (y) = 0.39521 0.49742
# Poissons Ratio (z) = 0.32583 0.38725
#
# Static dielectric constant tensor:
#      x y z
#    x 3.835110 -0.000420 -0.010050 
#    y -0.000420 3.872940 -0.000180 
#    z -0.010050 -0.000180 4.224740 
# 
# 
# High freq. dielectric constant tensor:
#      x y z
#    x 1.875810 -0.000010 -0.000520 
#    y -0.000010 1.865880 0.000000 
#    z -0.000520 0.000000 1.895580 
# 
# From -- ./inp_files/49915.got.cif
#   From: 2010.03.12/outbox.cif.g09.slc.cpg/sg5_25_cif.got.tgz:49915.got - 2010.03.31 09:47:26.
