data_PCOD8051029
_publ_section_title
;
Structure prediction by ZEFSAII (Michael W. Deem and Ramdas Pophale) SiO2 
 PCOD8051029
Probable space group: C 2
;
_chemical_formula_sum "Si O2"
_cell_formula_units_Z 32
_cell_length_a 8.515588
_cell_length_b 11.027654
_cell_length_c 21.157742
_cell_angle_alpha 90.000000
_cell_angle_beta 45.299375
_cell_angle_gamma 90.000000
_cell_volume 1412.243223
_symmetry_space_group_name_H-M "C 2"
_symmetry_group_IT_number 5
_symmetry_cell_setting 'monoclinic'
loop_
_space_group_symop_operation_xyz
x,y,z
-x,y,-z
1/2+x,1/2+y,z
1/2-x,1/2+y,-z
loop_
_atom_site_type_symbol
_atom_site_label
_atom_site_fract_x
_atom_site_fract_y
_atom_site_fract_z
Si Si1 0.248214 0.395660 0.051408
Si Si2 0.369457 0.002052 0.370385
Si Si3 0.423177 0.721096 0.585894
Si Si4 0.874788 0.139186 0.971358
Si Si5 0.870724 0.077284 0.222427
Si Si6 0.770626 0.555222 0.536039
Si Si7 0.616812 0.834464 0.749773
Si Si8 0.544992 0.394400 0.703669
O O1 0.202215 0.524393 0.026989
O O2 0.089065 0.398836 0.157410
O O3 0.500000 0.407927 0.000000
O O4 0.231905 0.268810 0.017684
O O5 0.186506 0.094800 0.400716
O O6 0.610708 0.057486 0.296719
O O7 0.318686 0.974454 0.458723
O O8 0.342223 0.888020 0.331301
O O9 0.500000 0.790520 0.500000
O O10 0.639532 0.682946 0.563915
O O11 0.239373 0.802648 0.672307
O O12 0.000000 0.168584 0.000000
O O13 0.053919 0.095006 0.870126
O O14 0.933384 0.193796 0.247135
O O15 0.005266 0.969062 0.218402
O O16 0.631102 0.475713 0.622836
O O17 0.000000 0.598879 0.500000
O O18 0.823047 0.833868 0.740693
#
# Coordination Sequence:
#
# PCOD8051029 Si02
#       8
#     4   4   4   4   4   4   4   4
#     4  10  23  45  71 105 141 176 231 281 348 433
#     4  11  21  44  67  96 138 180 228 282 345 393
#     4  10  23  41  69  93 134 182 230 289 332 399
#     4  10  23  45  72 100 139 180 226 285 354 420
#     4  11  25  44  66 104 136 174 232 284 343 422
#     4  11  23  44  67  98 138 186 240 281 345 408
#     4  11  25  45  69 100 143 177 225 291 347 410
#     4  12  24  45  66  99 139 177 235 285 340 412
#
# _framework density 22.658985999999999
#
# number of rings (size 3 to 8) (size 9 to 14) (size 15 to 20)
#    0.000    1.250    3.750    1.875    0.000    5.500 
#    4.500    1.250    0.000    0.000    0.000    0.000 
#    0.000    0.000    0.000    0.000    0.000    0.000 
#
# Total GULP energy -198281.781925 kJ/mol
# GULP energy per Si atom -12392.611370 kJ/mol
# Density = 2.260741 g / cm^3
# Si number density = 22.658986 Si / 1000 Ang^3
#
#
#
# Elastic Constant Matrix: (Units=GPa)
#
#
# Indices 1 2 3 4 5 6 
#
# 1 89.3487 23.3761 31.6243 0.0000 6.9989 0.0000
# 2 23.3761 94.4470 19.5154 0.0003 15.2579 -0.0001
# 3 31.6243 19.5154 78.2111 -0.0002 11.7853 0.0003
# 4 0.0000 0.0003 -0.0002 29.1281 0.0000 5.8673
# 5 6.9989 15.2579 11.7853 0.0000 39.3996 -0.0001
# 6 0.0000 -0.0001 0.0003 5.8673 -0.0001 21.6099
#
#
#
# Elastic Compliance Matrix: (Units=1/GPa)
#
#
# Indices 1 2 3 4 5 6 
#
# 1 0.013535 -0.002334 -0.004884 0.000000 -0.000039 0.000000
# 2 -0.002334 0.012092 -0.001498 0.000000 -0.003820 0.000000
# 3 -0.004884 -0.001498 0.015621 0.000000 -0.003225 0.000000
# 4 0.000000 0.000000 0.000000 0.036317 0.000000 -0.009861
# 5 -0.000039 -0.003820 -0.003225 0.000000 0.027832 0.000000
# 6 0.000000 0.000000 0.000000 -0.009861 0.000000 0.048952
#
#
# Mechanical properties :
#
#
# Convention : Reuss Voigt Hill
#
# Bulk Modulus (GPa) = 41.99085 45.67092 43.83089
# Shear Modulus (GPa) = 27.82105 30.52693 29.17399
#
# Velocity S-wave (km/s) = 3.50782 3.67445 3.59210
# Velocity P-wave (km/s) = 5.91424 6.18075 6.04896
#
# Compressibility (1/GPa) = 0.02381471
#
# Stress axis : x y z
#
# Youngs Moduli (GPa) = 73.88433 82.69691 64.01839
#
# Poissons Ratio (x) = 0.19304 0.31268
# Poissons Ratio (y) = 0.17247 0.09589
# Poissons Ratio (z) = 0.36087 0.12386
#
# Static dielectric constant tensor:
#      x y z
#    x 4.244770 0.000000 -0.046380 
#    y 0.000000 4.396970 0.000000 
#    z -0.046380 0.000000 4.277730 
# 
# 
# High freq. dielectric constant tensor:
#      x y z
#    x 1.890520 0.000000 -0.001060 
#    y 0.000000 1.905570 0.000000 
#    z -0.001060 0.000000 1.894050 
# 
# From -- ./inp_files/64543.got.cif
#   From: 2010.03.12/outbox.cif.g09.slc.cpg/sg5_33_cif.got.tgz:64543.got - 2010.03.31 09:47:26.
