data_PCOD8051879
_publ_section_title
;
Structure prediction by ZEFSAII (Michael W. Deem and Ramdas Pophale) SiO2 
 PCOD8051879
Probable space group: C 2
;
_chemical_formula_sum "Si O2"
_cell_formula_units_Z 24
_cell_length_a 11.280538
_cell_length_b 11.013151
_cell_length_c 17.766157
_cell_angle_alpha 90.000000
_cell_angle_beta 28.202394
_cell_angle_gamma 90.000000
_cell_volume 1043.079028
_symmetry_space_group_name_H-M "C 2"
_symmetry_group_IT_number 5
_symmetry_cell_setting 'monoclinic'
loop_
_space_group_symop_operation_xyz
x,y,z
-x,y,-z
1/2+x,1/2+y,z
1/2-x,1/2+y,-z
loop_
_atom_site_type_symbol
_atom_site_label
_atom_site_fract_x
_atom_site_fract_y
_atom_site_fract_z
Si Si1 0.994967 0.612500 0.340923
Si Si2 0.740360 0.952392 0.316024
Si Si3 0.169061 0.833748 0.338248
Si Si4 0.926076 0.171324 0.826435
Si Si5 0.414610 0.579609 0.674261
Si Si6 0.009726 0.702956 0.817306
O O1 0.708287 0.575720 0.495174
O O2 0.096707 0.662566 0.204459
O O3 0.152996 0.494704 0.280961
O O4 0.026278 0.718325 0.384334
O O5 0.500000 0.912299 0.500000
O O6 0.947683 0.846779 0.197572
O O7 0.872841 0.063613 0.282821
O O8 0.440707 0.796199 0.220512
O O9 0.000000 0.886913 0.500000
O O10 0.190169 0.940282 0.263545
O O11 0.840453 0.164325 0.787386
O O12 0.686248 0.151561 0.012720
O O13 0.278761 0.641331 0.679555
#
# Coordination Sequence:
#
# PCOD8051879 Si02
#       6
#     4   4   4   4   4   4
#     4  11  23  45  73 104 139 186 248 292 351 439
#     4  11  23  48  78  97 141 200 237 294 359 430
#     4  11  23  44  77 101 138 193 239 298 355 423
#     4  11  25  49  68 105 147 183 238 300 365 426
#     4  12  24  44  71 101 141 189 238 289 358 437
#     4  12  28  42  69 110 146 179 240 301 368 421
#
# _framework density 23.008803
#
# number of rings (size 3 to 8) (size 9 to 14) (size 15 to 20)
#    0.000    0.667    3.333    5.000    4.667    4.000 
#    6.000    0.000    0.000    0.000    0.000    0.000 
#    0.000    0.000    0.000    0.000    0.000    0.000 
#
# Total GULP energy -148796.274014 kJ/mol
# GULP energy per Si atom -12399.689501 kJ/mol
# Density = 2.295643 g / cm^3
# Si number density = 23.008803 Si / 1000 Ang^3
#
#
#
# Elastic Constant Matrix: (Units=GPa)
#
#
# Indices 1 2 3 4 5 6 
#
# 1 120.1247 42.0533 21.7704 0.0342 7.5079 -0.0403
# 2 42.0533 101.0057 13.8596 0.0148 2.7245 -0.0176
# 3 21.7704 13.8596 72.4417 0.0155 14.0025 -0.0458
# 4 0.0342 0.0148 0.0155 20.0896 -0.0220 2.0308
# 5 7.5079 2.7245 14.0025 -0.0220 29.0131 0.0454
# 6 -0.0403 -0.0176 -0.0458 2.0308 0.0454 36.1263
#
#
#
# Elastic Compliance Matrix: (Units=1/GPa)
#
#
# Indices 1 2 3 4 5 6 
#
# 1 0.010144 -0.003907 -0.002056 -0.000015 -0.001266 0.000009
# 2 -0.003907 0.011672 -0.001150 0.000000 0.000470 -0.000001
# 3 -0.002056 -0.001150 0.016012 -0.000019 -0.007088 0.000027
# 4 -0.000015 0.000000 -0.000019 0.050062 0.000055 -0.002814
# 5 -0.001266 0.000470 -0.007088 0.000055 0.038172 -0.000061
# 6 0.000009 -0.000001 0.000027 -0.002814 -0.000061 0.027839
#
#
# Mechanical properties :
#
#
# Convention : Reuss Voigt Hill
#
# Bulk Modulus (GPa) = 42.36919 49.88205 46.12562
# Shear Modulus (GPa) = 28.40988 31.43839 29.92414
#
# Velocity S-wave (km/s) = 3.51770 3.70045 3.61023
# Velocity P-wave (km/s) = 5.91213 6.32332 6.12118
#
# Compressibility (1/GPa) = 0.02360206
#
# Stress axis : x y z
#
# Youngs Moduli (GPa) = 98.57727 85.67306 62.45222
#
# Poissons Ratio (x) = 0.33474 0.12843
# Poissons Ratio (y) = 0.38516 0.07181
# Poissons Ratio (z) = 0.20271 0.09850
#
# Static dielectric constant tensor:
#      x y z
#    x 4.634760 -0.000040 -0.054000 
#    y -0.000040 4.185590 -0.000030 
#    z -0.054000 -0.000030 3.721670 
# 
# 
# High freq. dielectric constant tensor:
#      x y z
#    x 1.928740 0.000000 -0.004330 
#    y 0.000000 1.908370 0.000000 
#    z -0.004330 0.000000 1.886300 
# 
# From -- ./inp_files/39094.got.cif
#   From: 2010.03.12/outbox.cif.g09.slc.cpg/sg5_20_cif.got.tgz:39094.got - 2010.03.31 09:47:26.
