data_PCOD8051034
_publ_section_title
;
Structure prediction by ZEFSAII (Michael W. Deem and Ramdas Pophale) SiO2 
 PCOD8051034
Probable space group: C 2
;
_chemical_formula_sum "Si O2"
_cell_formula_units_Z 28
_cell_length_a 9.903705
_cell_length_b 7.942707
_cell_length_c 27.480624
_cell_angle_alpha 90.000000
_cell_angle_beta 33.708603
_cell_angle_gamma 90.000000
_cell_volume 1199.670054
_symmetry_space_group_name_H-M "C 2"
_symmetry_group_IT_number 5
_symmetry_cell_setting 'monoclinic'
loop_
_space_group_symop_operation_xyz
x,y,z
-x,y,-z
1/2+x,1/2+y,z
1/2-x,1/2+y,-z
loop_
_atom_site_type_symbol
_atom_site_label
_atom_site_fract_x
_atom_site_fract_y
_atom_site_fract_z
Si Si1 0.961044 0.595790 0.290332
Si Si2 0.312219 0.480319 0.016667
Si Si3 0.848692 0.829709 0.905463
Si Si4 0.058718 0.101155 0.597398
Si Si5 0.379484 0.736506 0.744271
Si Si6 0.732419 0.233808 0.558924
Si Si7 0.773863 0.404847 0.161447
O O1 0.707725 0.638211 0.342072
O O2 0.925848 0.609716 0.359515
O O3 0.040183 0.406482 0.251877
O O4 0.156946 0.730252 0.213354
O O5 0.312298 0.680072 0.024100
O O6 0.040859 0.408382 0.105491
O O7 0.500000 0.398795 0.000000
O O8 0.404075 0.454567 0.933840
O O9 0.704266 0.914994 0.903986
O O10 0.104838 0.763240 0.807012
O O11 0.260468 0.158236 0.497751
O O12 0.074353 0.208151 0.642394
O O13 0.089355 0.907239 0.600536
O O14 0.383423 0.569606 0.776660
O O15 0.000000 0.262907 0.500000
#
# Coordination Sequence:
#
# PCOD8051034 Si02
#       7
#     4   4   4   4   4   4   4
#     4  11  24  44  70 103 143 185 237 295 351 420
#     4  11  26  46  72 102 141 187 235 299 359 432
#     4  11  26  47  70 104 143 184 238 298 360 429
#     4  11  22  44  66 105 143 186 243 291 354 418
#     4  11  25  41  71 106 138 189 237 288 364 424
#     4  10  23  41  69  98 145 189 236 296 348 420
#     4  11  24  49  72 104 146 186 236 303 355 428
#
# _framework density 23.339751
#
# number of rings (size 3 to 8) (size 9 to 14) (size 15 to 20)
#    0.000    1.143    2.857    2.143    4.000    4.571 
#    0.000    0.000    0.000    0.000    0.000    0.000 
#    0.000    0.000    0.000    0.000    0.000    0.000 
#
# Total GULP energy -173593.533588 kJ/mol
# GULP energy per Si atom -12399.538113 kJ/mol
# Density = 2.328663 g / cm^3
# Si number density = 23.339751 Si / 1000 Ang^3
#
#
#
# Elastic Constant Matrix: (Units=GPa)
#
#
# Indices 1 2 3 4 5 6 
#
# 1 118.1852 37.5082 45.5707 -0.0008 20.9562 -0.0007
# 2 37.5082 145.5678 40.4871 -0.0005 19.7795 0.0004
# 3 45.5707 40.4871 94.2184 0.0018 29.9666 -0.0030
# 4 -0.0008 -0.0005 0.0018 43.9457 -0.0014 0.7218
# 5 20.9562 19.7795 29.9666 -0.0014 37.1913 -0.0003
# 6 -0.0007 0.0004 -0.0030 0.7218 -0.0003 30.6254
#
#
#
# Elastic Compliance Matrix: (Units=1/GPa)
#
#
# Indices 1 2 3 4 5 6 
#
# 1 0.010807 -0.001394 -0.003936 0.000000 -0.002177 0.000000
# 2 -0.001394 0.008088 -0.002263 0.000000 -0.001693 0.000000
# 3 -0.003936 -0.002263 0.016675 -0.000001 -0.010014 0.000001
# 4 0.000000 0.000000 -0.000001 0.022764 0.000002 -0.000537
# 5 -0.002177 -0.001693 -0.010014 0.000002 0.037084 -0.000001
# 6 0.000000 0.000000 0.000001 -0.000537 -0.000001 0.032665
#
#
# Mechanical properties :
#
#
# Convention : Reuss Voigt Hill
#
# Bulk Modulus (GPa) = 49.05656 67.23373 58.14515
# Shear Modulus (GPa) = 33.31903 37.97950 35.64926
#
# Velocity S-wave (km/s) = 3.78241 4.03829 3.91244
# Velocity P-wave (km/s) = 6.33558 7.11427 6.73619
#
# Compressibility (1/GPa) = 0.02038463
#
# Stress axis : x y z
#
# Youngs Moduli (GPa) = 92.52956 123.63535 59.97090
#
# Poissons Ratio (x) = 0.17238 0.23603
# Poissons Ratio (y) = 0.12901 0.13571
# Poissons Ratio (z) = 0.36417 0.27978
#
# Static dielectric constant tensor:
#      x y z
#    x 4.208480 0.000000 0.261480 
#    y 0.000000 4.078800 0.000000 
#    z 0.261480 0.000000 4.423360 
# 
# 
# High freq. dielectric constant tensor:
#      x y z
#    x 1.912650 0.000000 0.007320 
#    y 0.000000 1.921600 0.000000 
#    z 0.007320 0.000000 1.937820 
# 
# From -- ./inp_files/70137.got.cif
#   From: 2010.03.12/outbox.cif.g09.slc.cpg/sg5_36_cif.got.tgz:70137.got - 2010.03.31 09:47:26.
