data_PCOD8051458
_publ_section_title
;
Structure prediction by ZEFSAII (Michael W. Deem and Ramdas Pophale) SiO2 
 PCOD8051458
Probable space group: C 2
;
_chemical_formula_sum "Si O2"
_cell_formula_units_Z 22
_cell_length_a 13.940615
_cell_length_b 5.177296
_cell_length_c 11.007753
_cell_angle_alpha 90.000000
_cell_angle_beta 79.360048
_cell_angle_gamma 90.000000
_cell_volume 780.821523
_symmetry_space_group_name_H-M "C 2"
_symmetry_group_IT_number 5
_symmetry_cell_setting 'monoclinic'
loop_
_space_group_symop_operation_xyz
x,y,z
-x,y,-z
1/2+x,1/2+y,z
1/2-x,1/2+y,-z
loop_
_atom_site_type_symbol
_atom_site_label
_atom_site_fract_x
_atom_site_fract_y
_atom_site_fract_z
Si Si1 0.413541 0.788060 0.358589
Si Si2 0.160169 0.118407 0.966101
Si Si3 0.162739 0.780562 0.747152
Si Si4 0.872596 0.766004 0.839611
Si Si5 0.000000 0.517472 0.000000
Si Si6 0.125874 0.388325 0.360290
O O1 0.365035 0.514426 0.338214
O O2 0.529988 0.736735 0.335419
O O3 0.374403 0.903189 0.494908
O O4 0.386713 0.008634 0.269109
O O5 0.131629 0.863014 0.891696
O O6 0.275080 0.146328 0.922216
O O7 0.136031 0.067008 0.116291
O O8 0.093352 0.348660 0.935037
O O9 0.279302 0.736065 0.708238
O O10 0.876328 0.683869 0.696737
O O11 0.970308 0.670159 0.884635
#
# Coordination Sequence:
#
# PCOD8051458 Si02
#       6
#     4   4   4   4   2   4
#     4  11  25  48  72 106 135 185 237 283 351 414
#     4  11  25  42  68 101 137 182 230 280 342 419
#     4  11  26  45  73 101 142 183 231 289 346 412
#     4  11  24  46  65 101 139 180 228 284 345 412
#     4  12  24  42  68  94 138 182 220 280 340 408
#     4  10  25  45  71 103 142 181 233 294 342 413
#
# _framework density 28.175453000000001
#
# number of rings (size 3 to 8) (size 9 to 14) (size 15 to 20)
#    0.000    1.091    1.818    2.727    7.636    4.364 
#    3.273    0.000    0.000    0.000    0.000    0.000 
#    0.000    0.000    0.000    0.000    0.000    0.000 
#
# Total GULP energy -136314.244579 kJ/mol
# GULP energy per Si atom -12392.204053 kJ/mol
# Density = 2.811132 g / cm^3
# Si number density = 28.175453 Si / 1000 Ang^3
#
#
#
# Elastic Constant Matrix: (Units=GPa)
#
#
# Indices 1 2 3 4 5 6 
#
# 1 148.5838 20.9650 9.4550 0.0000 4.8045 0.0000
# 2 20.9650 75.5686 -0.7716 0.0000 12.4969 0.0000
# 3 9.4550 -0.7716 123.2180 0.0000 3.6737 0.0000
# 4 0.0000 0.0000 0.0000 44.8017 0.0000 6.1003
# 5 4.8045 12.4969 3.6737 0.0000 36.7350 0.0000
# 6 0.0000 0.0000 0.0000 6.1003 0.0000 36.9847
#
#
#
# Elastic Compliance Matrix: (Units=1/GPa)
#
#
# Indices 1 2 3 4 5 6 
#
# 1 0.007043 -0.001925 -0.000546 0.000000 -0.000212 0.000000
# 2 -0.001925 0.014554 0.000380 0.000000 -0.004738 0.000000
# 3 -0.000546 0.000380 0.008186 0.000000 -0.000877 0.000000
# 4 0.000000 0.000000 0.000000 0.022833 0.000000 -0.003766
# 5 -0.000212 -0.004738 -0.000877 0.000000 0.028949 0.000000
# 6 0.000000 0.000000 0.000000 -0.003766 0.000000 0.027659
#
#
# Mechanical properties :
#
#
# Convention : Reuss Voigt Hill
#
# Bulk Modulus (GPa) = 39.05894 45.18525 42.12209
# Shear Modulus (GPa) = 41.00339 44.88575 42.94457
#
# Velocity S-wave (km/s) = 3.81896 3.99567 3.90832
# Velocity P-wave (km/s) = 5.77398 6.11221 5.94550
#
# Compressibility (1/GPa) = 0.02560233
#
# Stress axis : x y z
#
# Youngs Moduli (GPa) = 141.97735 68.70833 122.15790
#
# Poissons Ratio (x) = 0.13224 0.06672
# Poissons Ratio (y) = 0.27325 -0.04643
# Poissons Ratio (z) = 0.07755 -0.02611
#
# Static dielectric constant tensor:
#      x y z
#    x 5.608650 0.000000 0.169390 
#    y 0.000000 5.006810 0.000000 
#    z 0.169390 0.000000 5.213580 
# 
# 
# High freq. dielectric constant tensor:
#      x y z
#    x 2.177520 0.000000 -0.000190 
#    y 0.000000 2.125030 0.000000 
#    z -0.000190 0.000000 2.146020 
# 
# From -- ./inp_files/41080.got.cif
#   From: 2010.03.12/outbox.cif.g09.slc.cpg/sg5_21_cif.got.tgz:41080.got - 2010.03.31 09:47:26.
