data_PCOD8051831
_publ_section_title
;
Structure prediction by ZEFSAII (Michael W. Deem and Ramdas Pophale) SiO2 
 PCOD8051831
Probable space group: C 2
;
_chemical_formula_sum "Si O2"
_cell_formula_units_Z 30
_cell_length_a 26.469718
_cell_length_b 9.093813
_cell_length_c 11.533724
_cell_angle_alpha 90.000000
_cell_angle_beta 150.010562
_cell_angle_gamma 90.000000
_cell_volume 1387.701947
_symmetry_space_group_name_H-M "C 2"
_symmetry_group_IT_number 5
_symmetry_cell_setting 'monoclinic'
loop_
_space_group_symop_operation_xyz
x,y,z
-x,y,-z
1/2+x,1/2+y,z
1/2-x,1/2+y,-z
loop_
_atom_site_type_symbol
_atom_site_label
_atom_site_fract_x
_atom_site_fract_y
_atom_site_fract_z
Si Si1 0.596824 0.759240 0.019294
Si Si2 0.747968 0.292616 0.212693
Si Si3 0.222840 0.518545 0.315174
Si Si4 0.899248 0.829876 0.627404
Si Si5 0.965758 0.223939 0.553368
Si Si6 0.000000 0.034852 0.000000
Si Si7 0.725251 0.068556 0.582817
Si Si8 0.960376 0.889442 0.299239
O O1 0.624705 0.913310 0.137562
O O2 0.696069 0.664183 0.184223
O O3 0.527308 0.809565 0.774164
O O4 0.535917 0.643474 0.973087
O O5 0.844302 0.236727 0.329027
O O6 0.789430 0.411934 0.386379
O O7 0.699648 0.163302 0.194307
O O8 0.660244 0.358818 0.954683
O O9 0.300551 0.422170 0.390914
O O10 0.262569 0.558082 0.523304
O O11 0.878433 0.661079 0.621516
O O12 0.984726 0.815830 0.700495
O O13 0.923094 0.921601 0.790122
O O14 0.000000 0.296147 0.500000
O O15 0.008476 0.058864 0.641998
O O16 0.000000 0.820815 0.500000
#
# Coordination Sequence:
#
# PCOD8051831 Si02
#       8
#     4   4   4   4   4   2   4   4
#     4  11  23  42  68 100 142 182 233 284 356 423
#     4  12  24  48  72 102 140 184 238 294 356 426
#     4  11  24  40  67 107 142 185 230 285 356 432
#     4  11  23  42  68 100 142 182 233 284 356 423
#     4  11  25  48  72 101 137 189 237 295 357 418
#     4  12  20  40  64  92 144 190 218 294 348 406
#     4  11  24  40  67 107 142 185 230 285 356 432
#     4  11  25  48  72 101 137 189 237 295 357 418
#
# _framework density 21.618475
#
# number of rings (size 3 to 8) (size 9 to 14) (size 15 to 20)
#    0.000    0.800    5.333    1.600    3.733    3.200 
#    0.000    1.333    0.000    0.000    0.000    0.000 
#    0.000    0.000    0.000    0.000    0.000    0.000 
#
# Total GULP energy -185832.632864 kJ/mol
# GULP energy per Si atom -12388.842191 kJ/mol
# Density = 2.156927 g / cm^3
# Si number density = 21.618475 Si / 1000 Ang^3
#
#
#
# Elastic Constant Matrix: (Units=GPa)
#
#
# Indices 1 2 3 4 5 6 
#
# 1 99.9421 21.7350 51.2152 0.0000 -3.0882 0.0000
# 2 21.7350 114.5233 39.7608 0.0000 4.5390 0.0000
# 3 51.2152 39.7608 125.6619 0.0000 -2.5609 0.0000
# 4 0.0000 0.0000 0.0000 30.2402 0.0000 -0.9703
# 5 -3.0882 4.5390 -2.5609 0.0000 32.3438 0.0000
# 6 0.0000 0.0000 0.0000 -0.9703 0.0000 38.6974
#
#
#
# Elastic Compliance Matrix: (Units=1/GPa)
#
#
# Indices 1 2 3 4 5 6 
#
# 1 0.012723 -0.000739 -0.004933 0.000000 0.000928 0.000000
# 2 -0.000739 0.009938 -0.002878 0.000000 -0.001693 0.000000
# 3 -0.004933 -0.002878 0.010895 0.000000 0.000796 0.000000
# 4 0.000000 0.000000 0.000000 0.033095 0.000000 0.000830
# 5 0.000928 -0.001693 0.000796 0.000000 0.031307 0.000000
# 6 0.000000 0.000000 0.000000 0.000830 0.000000 0.025862
#
#
# Mechanical properties :
#
#
# Convention : Reuss Voigt Hill
#
# Bulk Modulus (GPa) = 60.76335 62.83881 61.80108
# Shear Modulus (GPa) = 34.15167 35.41738 34.78453
#
# Velocity S-wave (km/s) = 3.97891 4.05197 4.01561
# Velocity P-wave (km/s) = 7.01977 7.14294 7.08162
#
# Compressibility (1/GPa) = 0.01645729
#
# Stress axis : x y z
#
# Youngs Moduli (GPa) = 78.59843 100.62013 91.78453
#
# Poissons Ratio (x) = 0.07434 0.45275
# Poissons Ratio (y) = 0.05807 0.26415
# Poissons Ratio (z) = 0.38770 0.28958
#
# Static dielectric constant tensor:
#      x y z
#    x 2.658640 0.000000 -0.406030 
#    y 0.000000 3.896590 0.000000 
#    z -0.406030 0.000000 4.120820 
# 
# 
# High freq. dielectric constant tensor:
#      x y z
#    x 1.835030 0.000000 0.007910 
#    y 0.000000 1.849910 0.000000 
#    z 0.007910 0.000000 1.850720 
# 
# From -- ./inp_files/48362.got.cif
#   From: 2010.03.12/outbox.cif.g09.slc.cpg/sg5_25_cif.got.tgz:48362.got - 2010.03.31 09:47:26.
