data_PCOD8051563
_publ_section_title
;
Structure prediction by ZEFSAII (Michael W. Deem and Ramdas Pophale) SiO2 
 PCOD8051563
Probable space group: C 2
;
_chemical_formula_sum "Si O2"
_cell_formula_units_Z 32
_cell_length_a 28.238908
_cell_length_b 14.259184
_cell_length_c 9.994513
_cell_angle_alpha 90.000000
_cell_angle_beta 152.661387
_cell_angle_gamma 90.000000
_cell_volume 1848.211961
_symmetry_space_group_name_H-M "C 2"
_symmetry_group_IT_number 5
_symmetry_cell_setting 'monoclinic'
loop_
_space_group_symop_operation_xyz
x,y,z
-x,y,-z
1/2+x,1/2+y,z
1/2-x,1/2+y,-z
loop_
_atom_site_type_symbol
_atom_site_label
_atom_site_fract_x
_atom_site_fract_y
_atom_site_fract_z
Si Si1 0.761624 0.579010 0.671432
Si Si2 0.633820 0.935224 0.439830
Si Si3 0.578613 0.935224 0.991847
Si Si4 0.403969 0.435274 0.655938
Si Si5 0.738437 0.791485 0.328718
Si Si6 0.788756 0.083470 0.765944
Si Si7 0.711187 0.287025 0.233918
Si Si8 0.041225 0.935276 0.751885
O O1 0.667603 0.526990 0.508674
O O2 0.727933 0.582885 0.433705
O O3 0.783718 0.678571 0.797968
O O4 0.870736 0.525078 0.952431
O O5 0.545425 0.935204 0.332315
O O6 0.700779 0.841407 0.627910
O O7 0.700763 0.029049 0.627899
O O8 0.595731 0.935239 0.192774
O O9 0.629300 0.845377 0.047686
O O10 0.332428 0.343537 0.491388
O O11 0.444175 0.435284 0.606398
O O12 0.500000 0.435283 0.000000
O O13 0.716376 0.691921 0.202255
O O14 0.772154 0.787612 0.566502
O O15 0.895706 0.031171 0.064291
O O16 0.604265 0.339360 0.935608
O O17 0.000000 0.935294 0.500000
#
# Coordination Sequence:
#
# PCOD8051563 Si02
#       8
#     4   4   4   4   4   4   4   4
#     4   9  17  29  51  76 104 125 169 227 254 302
#     4   8  14  25  40  63 102 129 154 197 253 310
#     4   8  14  25  40  68  98 124 153 203 263 294
#     4  11  18  34  53  79 103 137 179 216 261 306
#     4   9  17  29  51  76 104 125 169 227 254 302
#     4   9  17  31  48  76 102 132 170 214 262 299
#     4   9  17  31  48  76 102 132 170 214 262 299
#     4  11  22  36  53  75 111 145 173 213 262 319
#
# _framework density 17.314031
#
# number of rings (size 3 to 8) (size 9 to 14) (size 15 to 20)
#    0.000    2.750    2.500    1.500    0.000    2.000 
#    4.500    1.250    0.000    0.000    0.000    8.750 
#    0.000    0.000    0.000    0.000    0.000    0.000 
#
# Total GULP energy -198255.352220 kJ/mol
# GULP energy per Si atom -12390.959514 kJ/mol
# Density = 1.727462 g / cm^3
# Si number density = 17.314031 Si / 1000 Ang^3
#
#
#
# Elastic Constant Matrix: (Units=GPa)
#
#
# Indices 1 2 3 4 5 6 
#
# 1 113.3727 62.1797 48.8463 0.0000 37.8112 0.0000
# 2 62.1797 185.2199 51.0991 0.0000 29.6807 0.0000
# 3 48.8463 51.0991 48.4344 0.0000 22.5847 0.0000
# 4 0.0000 0.0000 0.0000 29.8000 0.0000 -10.7383
# 5 37.8112 29.6807 22.5847 0.0000 37.1232 0.0000
# 6 0.0000 0.0000 0.0000 -10.7383 0.0000 24.7336
#
#
#
# Elastic Compliance Matrix: (Units=1/GPa)
#
#
# Indices 1 2 3 4 5 6 
#
# 1 0.018117 -0.001022 -0.012521 0.000000 -0.010018 0.000000
# 2 -0.001022 0.007749 -0.006618 0.000000 -0.001128 0.000000
# 3 -0.012521 -0.006618 0.044453 0.000000 -0.008999 0.000000
# 4 0.000000 0.000000 0.000000 0.039781 0.000000 0.017271
# 5 -0.010018 -0.001128 -0.008999 0.000000 0.043517 0.000000
# 6 0.000000 0.000000 0.000000 0.017271 0.000000 0.047929
#
#
# Mechanical properties :
#
#
# Convention : Reuss Voigt Hill
#
# Bulk Modulus (GPa) = 33.33897 74.58634 53.96265
# Shear Modulus (GPa) = 19.85171 30.65816 25.25494
#
# Velocity S-wave (km/s) = 3.38977 4.21255 3.82336
# Velocity P-wave (km/s) = 5.88371 8.17513 7.12218
#
# Compressibility (1/GPa) = 0.02999493
#
# Stress axis : x y z
#
# Youngs Moduli (GPa) = 55.19691 129.05303 22.49578
#
# Poissons Ratio (x) = 0.13193 0.28167
# Poissons Ratio (y) = 0.05643 0.14888
# Poissons Ratio (z) = 0.69113 0.85411
#
# Static dielectric constant tensor:
#      x y z
#    x 3.171150 0.000000 0.448410 
#    y 0.000000 3.720880 0.000000 
#    z 0.448410 0.000000 3.007900 
# 
# 
# High freq. dielectric constant tensor:
#      x y z
#    x 1.652290 0.000000 0.038740 
#    y 0.000000 1.676380 0.000000 
#    z 0.038740 0.000000 1.633510 
# 
# From -- ./inp_files/29825.got.cif
#   From: 2010.03.12/outbox.cif.g09.slc.cpg/sg5_15_cif.got.tgz:29825.got - 2010.03.31 09:47:26.
