data_PCOD8051592
_publ_section_title
;
Structure prediction by ZEFSAII (Michael W. Deem and Ramdas Pophale) SiO2 
 PCOD8051592
Probable space group: C 2
;
_chemical_formula_sum "Si O2"
_cell_formula_units_Z 20
_cell_length_a 27.168380
_cell_length_b 7.692001
_cell_length_c 21.914710
_cell_angle_alpha 90.000000
_cell_angle_beta 169.266765
_cell_angle_gamma 90.000000
_cell_volume 852.911050
_symmetry_space_group_name_H-M "C 2"
_symmetry_group_IT_number 5
_symmetry_cell_setting 'monoclinic'
loop_
_space_group_symop_operation_xyz
x,y,z
-x,y,-z
1/2+x,1/2+y,z
1/2-x,1/2+y,-z
loop_
_atom_site_type_symbol
_atom_site_label
_atom_site_fract_x
_atom_site_fract_y
_atom_site_fract_z
Si Si1 0.745636 0.041300 0.732790
Si Si2 0.507083 0.188427 0.330315
Si Si3 0.963817 0.342813 0.696535
Si Si4 0.053508 0.691683 0.995993
Si Si5 0.520990 0.831960 0.907861
O O1 0.507727 0.095937 0.398171
O O2 0.000000 0.035175 0.000000
O O3 0.775966 0.181512 0.823643
O O4 0.725585 0.847288 0.737764
O O5 0.746651 0.325546 0.612676
O O6 0.550806 0.049382 0.329932
O O7 0.227539 0.281027 0.982938
O O8 0.715606 0.253252 0.363283
O O9 0.965108 0.301084 0.769192
O O10 0.154713 0.519912 0.083683
O O11 0.000000 0.635799 0.000000
#
# Coordination Sequence:
#
# PCOD8051592 Si02
#       5
#     4   4   4   4   4
#     4   9  19  42  66  91 134 180 208 262 341 392
#     4  11  23  44  65  99 140 171 217 279 330 391
#     4  12  24  41  68 100 132 173 223 274 329 386
#     4  11  20  40  70  96 128 182 219 260 340 401
#     4  11  23  41  71  96 131 173 224 271 329 391
#
# _framework density 23.449104999999999
#
# number of rings (size 3 to 8) (size 9 to 14) (size 15 to 20)
#    0.000    1.200    6.000    4.200    0.000    0.800 
#    3.600    0.000    0.000    3.600    0.000    0.000 
#    0.000    0.000    0.000    0.000    0.000    0.000 
#
# Total GULP energy -123988.436192 kJ/mol
# GULP energy per Si atom -12398.843619 kJ/mol
# Density = 2.339573 g / cm^3
# Si number density = 23.449105 Si / 1000 Ang^3
#
#
#
# Elastic Constant Matrix: (Units=GPa)
#
#
# Indices 1 2 3 4 5 6 
#
# 1 108.2103 26.2267 17.0165 -0.0369 -26.0492 -0.0384
# 2 26.2267 136.0209 8.3450 -0.0523 -9.3196 -0.0784
# 3 17.0165 8.3450 34.2324 -0.0776 -14.3705 -0.1129
# 4 -0.0369 -0.0523 -0.0776 14.2964 -0.0338 -23.2362
# 5 -26.0492 -9.3196 -14.3705 -0.0338 32.4686 -0.0555
# 6 -0.0384 -0.0784 -0.1129 -23.2362 -0.0555 24.9831
#
#
#
# Elastic Compliance Matrix: (Units=1/GPa)
#
#
# Indices 1 2 3 4 5 6 
#
# 1 0.011931 -0.001611 -0.002106 -0.000134 0.008178 -0.000102
# 2 -0.001611 0.007753 -0.000857 -0.000102 0.000553 -0.000075
# 3 -0.002106 -0.000857 0.036415 -0.001039 0.014179 -0.000776
# 4 -0.000134 -0.000102 -0.001039 -0.136664 -0.000956 -0.127116
# 5 0.008178 0.000553 0.014179 -0.000956 0.043792 -0.000713
# 6 -0.000102 -0.000075 -0.000776 -0.127116 -0.000713 -0.078206
#
#
# Mechanical properties :
#
#
# Convention : Reuss Voigt Hill
#
# Bulk Modulus (GPa) = 21.29897 42.40444 31.85170
# Shear Modulus (GPa) = -55.44506 29.47465 -12.98521
#
# Velocity S-wave (km/s) = -4.86787 3.54921 -2.35577
# Velocity P-wave (km/s) = 4.74259 5.90921 2.49265
#
# Compressibility (1/GPa) = 0.04695062
#
# Stress axis : x y z
#
# Youngs Moduli (GPa) = 83.81231 128.98438 27.46098
#
# Poissons Ratio (x) = 0.20781 0.05783
# Poissons Ratio (y) = 0.13504 0.02354
# Poissons Ratio (z) = 0.17650 0.11059
#
# Static dielectric constant tensor:
#      x y z
#    x 4.106850 0.000070 -0.448910 
#    y 0.000070 4.663960 -0.000040 
#    z -0.448910 -0.000040 4.157960 
# 
# 
# High freq. dielectric constant tensor:
#      x y z
#    x 1.923600 0.000000 -0.025430 
#    y 0.000000 1.940110 0.000000 
#    z -0.025430 0.000000 1.913170 
# 
# From -- ./inp_files/70020.got.cif
#   From: 2010.03.12/outbox.cif.g09.slc.cpg/sg5_36_cif.got.tgz:70020.got - 2010.03.31 09:47:26.
