data_PCOD8051624
_publ_section_title
;
Structure prediction by ZEFSAII (Michael W. Deem and Ramdas Pophale) SiO2 
 PCOD8051624
Probable space group: C 2
;
_chemical_formula_sum "Si O2"
_cell_formula_units_Z 24
_cell_length_a 15.170070
_cell_length_b 12.543124
_cell_length_c 13.805063
_cell_angle_alpha 90.000000
_cell_angle_beta 27.444694
_cell_angle_gamma 90.000000
_cell_volume 1210.684672
_symmetry_space_group_name_H-M "C 2"
_symmetry_group_IT_number 5
_symmetry_cell_setting 'monoclinic'
loop_
_space_group_symop_operation_xyz
x,y,z
-x,y,-z
1/2+x,1/2+y,z
1/2-x,1/2+y,-z
loop_
_atom_site_type_symbol
_atom_site_label
_atom_site_fract_x
_atom_site_fract_y
_atom_site_fract_z
Si Si1 0.981551 0.652710 0.188699
Si Si2 0.304817 0.474312 0.536880
Si Si3 0.401437 0.652714 0.803989
Si Si4 0.000000 0.474433 0.500000
Si Si5 0.148955 0.652712 0.222952
Si Si6 0.304815 0.831110 0.536883
Si Si7 0.500000 0.330991 0.500000
O O1 0.873982 0.547189 0.256488
O O2 0.873969 0.758224 0.256495
O O3 0.976372 0.652713 0.312072
O O4 0.201763 0.652712 0.937259
O O5 0.484987 0.546660 0.332387
O O6 0.250015 0.402710 0.499983
O O7 0.357406 0.402636 0.576835
O O8 0.515006 0.758771 0.667626
O O9 0.351404 0.652711 0.967996
O O10 0.135107 0.547043 0.301054
O O11 0.142595 0.402787 0.423163
O O12 0.135109 0.758381 0.301054
#
# Coordination Sequence:
#
# PCOD8051624 Si02
#       7
#     4   4   4   2   4   4   2
#     4   9  20  40  63  83 125 165 194 244 313 355
#     4  11  21  39  65  89 124 165 199 249 315 354
#     4   9  22  41  64  87 124 166 200 250 302 374
#     4  11  22  37  66  96 120 157 212 255 292 366
#     4   9  20  41  63  85 126 159 201 256 293 349
#     4  11  21  39  65  89 124 165 199 249 315 354
#     4  11  22  37  66  96 120 157 212 255 292 366
#
# _framework density 19.823494
#
# number of rings (size 3 to 8) (size 9 to 14) (size 15 to 20)
#    1.000    1.000    3.333    0.000    0.000    8.000 
#    0.000   10.000    0.000    0.000    0.000    0.000 
#    0.000    0.000    0.000    0.000    0.000    0.000 
#
# Total GULP energy -148771.708804 kJ/mol
# GULP energy per Si atom -12397.642400 kJ/mol
# Density = 1.977837 g / cm^3
# Si number density = 19.823494 Si / 1000 Ang^3
#
#
#
# Elastic Constant Matrix: (Units=GPa)
#
#
# Indices 1 2 3 4 5 6 
#
# 1 127.2693 69.3282 26.3819 -0.0075 -13.3993 0.0042
# 2 69.3282 149.4706 50.9076 -0.0157 -18.6528 0.0086
# 3 26.3819 50.9076 115.7799 -0.0233 -20.7994 0.0131
# 4 -0.0075 -0.0157 -0.0233 12.9274 0.0083 4.6663
# 5 -13.3993 -18.6528 -20.7994 0.0083 33.3054 -0.0044
# 6 0.0042 0.0086 0.0131 4.6663 -0.0044 38.5055
#
#
#
# Elastic Compliance Matrix: (Units=1/GPa)
#
#
# Indices 1 2 3 4 5 6 
#
# 1 0.010595 -0.004694 -0.000064 -0.000001 0.001594 0.000000
# 2 -0.004694 0.010142 -0.003051 0.000003 0.001886 -0.000001
# 3 -0.000064 -0.003051 0.010905 0.000014 0.005076 -0.000004
# 4 -0.000001 0.000003 0.000014 0.080893 -0.000011 -0.009803
# 5 0.001594 0.001886 0.005076 -0.000011 0.034893 0.000003
# 6 0.000000 -0.000001 -0.000004 -0.009803 0.000003 0.027158
#
#
# Mechanical properties :
#
#
# Convention : Reuss Voigt Hill
#
# Bulk Modulus (GPa) = 62.40371 76.19504 69.29937
# Shear Modulus (GPa) = 25.56951 33.34114 29.45533
#
# Velocity S-wave (km/s) = 3.59536 4.10555 3.85889
# Velocity P-wave (km/s) = 6.98452 7.80988 7.40870
#
# Compressibility (1/GPa) = 0.01602469
#
# Stress axis : x y z
#
# Youngs Moduli (GPa) = 94.38211 98.60218 91.70101
#
# Poissons Ratio (x) = 0.46280 0.00589
# Poissons Ratio (y) = 0.44299 0.27977
# Poissons Ratio (z) = 0.00606 0.30083
#
# Static dielectric constant tensor:
#      x y z
#    x -14.054880 0.000080 -2.615660 
#    y 0.000080 3.753010 0.000020 
#    z -2.615660 0.000020 2.997130 
# 
# 
# High freq. dielectric constant tensor:
#      x y z
#    x 1.771590 0.000000 -0.006750 
#    y 0.000000 1.790410 0.000000 
#    z -0.006750 0.000000 1.755910 
# 
# From -- ./inp_files/54543.got.cif
#   From: 2010.03.12/outbox.cif.g09.slc.cpg/sg5_28_cif.got.tgz:54543.got - 2010.03.31 09:47:26.
