data_PCOD8051008
_publ_section_title
;
Structure prediction by ZEFSAII (Michael W. Deem and Ramdas Pophale) SiO2 
 PCOD8051008
Probable space group: C 2
;
_chemical_formula_sum "Si O2"
_cell_formula_units_Z 28
_cell_length_a 23.342666
_cell_length_b 9.196714
_cell_length_c 9.173628
_cell_angle_alpha 90.000000
_cell_angle_beta 41.851296
_cell_angle_gamma 90.000000
_cell_volume 1313.953662
_symmetry_space_group_name_H-M "C 2"
_symmetry_group_IT_number 5
_symmetry_cell_setting 'monoclinic'
loop_
_space_group_symop_operation_xyz
x,y,z
-x,y,-z
1/2+x,1/2+y,z
1/2-x,1/2+y,-z
loop_
_atom_site_type_symbol
_atom_site_label
_atom_site_fract_x
_atom_site_fract_y
_atom_site_fract_z
Si Si1 0.508646 0.087830 0.154908
Si Si2 0.298930 0.076905 0.232010
Si Si3 0.119845 0.351945 0.515413
Si Si4 0.073687 0.782039 0.473638
Si Si5 0.652046 0.587052 0.280817
Si Si6 0.781343 0.276863 0.407957
Si Si7 0.258099 0.103973 0.798587
O O1 0.465093 0.236725 0.295285
O O2 0.462902 0.952349 0.318595
O O3 0.500000 0.082842 0.000000
O O4 0.606849 0.066928 0.013361
O O5 0.238881 0.086059 0.207680
O O6 0.296707 0.216430 0.344062
O O7 0.266528 0.942057 0.389976
O O8 0.102513 0.234825 0.420188
O O9 0.135058 0.271335 0.643414
O O10 0.204633 0.447326 0.317305
O O11 0.165510 0.702774 0.277376
O O12 0.000000 0.731653 0.500000
O O13 0.088558 0.954096 0.436532
O O14 0.680318 0.584284 0.059424
O O15 0.788875 0.178968 0.249685
#
# Coordination Sequence:
#
# PCOD8051008 Si02
#       7
#     4   4   4   4   4   4   4
#     4  11  22  43  67  91 126 169 206 255 325 383
#     4  11  22  40  68  93 125 165 212 260 317 373
#     4  10  23  41  63  98 130 159 211 270 311 376
#     4  11  24  44  61  93 130 163 210 260 316 381
#     4  11  24  42  64  93 126 166 214 265 308 372
#     4  11  20  40  65  99 121 162 214 265 300 381
#     4  11  21  41  68  92 124 174 214 252 316 381
#
# _framework density 21.309730999999999
#
# number of rings (size 3 to 8) (size 9 to 14) (size 15 to 20)
#    0.000    1.143    4.286    2.571    0.000    1.143 
#    2.571    1.429    0.000    0.000    0.000    0.000 
#    0.000    0.000    0.000    0.000    0.000    0.000 
#
# Total GULP energy -173554.560313 kJ/mol
# GULP energy per Si atom -12396.754308 kJ/mol
# Density = 2.126123 g / cm^3
# Si number density = 21.309731 Si / 1000 Ang^3
#
#
#
# Elastic Constant Matrix: (Units=GPa)
#
#
# Indices 1 2 3 4 5 6 
#
# 1 59.3246 22.0165 41.0381 0.0000 3.0372 0.0000
# 2 22.0165 128.9790 69.2643 0.0000 -7.3956 0.0000
# 3 41.0381 69.2643 138.6621 0.0000 -0.6546 0.0000
# 4 0.0000 0.0000 0.0000 23.0724 0.0000 4.6609
# 5 3.0372 -7.3956 -0.6546 0.0000 24.0457 0.0000
# 6 0.0000 0.0000 0.0000 4.6609 0.0000 27.8986
#
#
#
# Elastic Compliance Matrix: (Units=1/GPa)
#
#
# Indices 1 2 3 4 5 6 
#
# 1 0.021423 -0.000573 -0.006069 0.000000 -0.003047 0.000000
# 2 -0.000573 0.010849 -0.005235 0.000000 0.003267 0.000000
# 3 -0.006069 -0.005235 0.011620 0.000000 -0.000527 0.000000
# 4 0.000000 0.000000 0.000000 0.044856 0.000000 -0.007494
# 5 -0.003047 0.003267 -0.000527 0.000000 0.042963 0.000000
# 6 0.000000 0.000000 0.000000 -0.007494 0.000000 0.037096
#
#
# Mechanical properties :
#
#
# Convention : Reuss Voigt Hill
#
# Bulk Modulus (GPa) = 49.65053 65.73372 57.69213
# Shear Modulus (GPa) = 25.09133 27.97979 26.53556
#
# Velocity S-wave (km/s) = 3.43513 3.62747 3.53261
# Velocity P-wave (km/s) = 6.25169 6.96122 6.61597
#
# Compressibility (1/GPa) = 0.02014077
#
# Stress axis : x y z
#
# Youngs Moduli (GPa) = 46.67893 92.17179 86.05782
#
# Poissons Ratio (x) = 0.05278 0.52225
# Poissons Ratio (y) = 0.02673 0.45047
# Poissons Ratio (z) = 0.28328 0.48248
#
# Static dielectric constant tensor:
#      x y z
#    x 3.880250 0.000000 0.084300 
#    y 0.000000 4.059060 0.000000 
#    z 0.084300 0.000000 3.946180 
# 
# 
# High freq. dielectric constant tensor:
#      x y z
#    x 1.831730 0.000000 0.015860 
#    y 0.000000 1.840410 0.000000 
#    z 0.015860 0.000000 1.829030 
# 
# From -- ./inp_files/31732.got.cif
#   From: 2010.03.12/outbox.cif.g09.slc.cpg/sg5_16_cif.got.tgz:31732.got - 2010.03.31 09:47:26.
