data_PCOD8051345
_publ_section_title
;
Structure prediction by ZEFSAII (Michael W. Deem and Ramdas Pophale) SiO2 
 PCOD8051345
Probable space group: C 2
;
_chemical_formula_sum "Si O2"
_cell_formula_units_Z 26
_cell_length_a 8.795138
_cell_length_b 15.457928
_cell_length_c 13.609779
_cell_angle_alpha 90.000000
_cell_angle_beta 142.808107
_cell_angle_gamma 90.000000
_cell_volume 1118.488567
_symmetry_space_group_name_H-M "C 2"
_symmetry_group_IT_number 5
_symmetry_cell_setting 'monoclinic'
loop_
_space_group_symop_operation_xyz
x,y,z
-x,y,-z
1/2+x,1/2+y,z
1/2-x,1/2+y,-z
loop_
_atom_site_type_symbol
_atom_site_label
_atom_site_fract_x
_atom_site_fract_y
_atom_site_fract_z
Si Si1 0.187350 0.324380 0.733686
Si Si2 0.757317 0.652467 0.189619
Si Si3 0.137942 0.811113 0.387294
Si Si4 0.000000 0.684458 0.000000
Si Si5 0.111049 0.974420 0.658102
Si Si6 0.435840 0.569676 0.168649
Si Si7 0.345117 0.979875 0.131194
O O1 0.306833 0.353313 0.691166
O O2 0.209938 0.399611 0.825801
O O3 0.902359 0.290743 0.575357
O O4 0.339384 0.240474 0.842824
O O5 0.674228 0.628047 0.258819
O O6 0.888468 0.566911 0.214793
O O7 0.962164 0.727336 0.291991
O O8 0.500000 0.678725 0.000000
O O9 0.000151 0.880079 0.383676
O O10 0.181728 0.625872 0.027496
O O11 0.409762 0.962948 0.808576
O O12 0.000000 0.013486 0.500000
O O13 0.022729 0.037300 0.699902
O O14 0.392145 0.491880 0.065849
#
# Coordination Sequence:
#
# PCOD8051345 Si02
#       7
#     4   4   4   2   4   4   4
#     4  11  26  46  76 104 151 190 247 305 370 437
#     4  10  24  45  77 109 145 187 251 304 363 439
#     4  11  26  48  71 111 146 193 243 305 373 434
#     4  12  26  46  74 106 142 190 250 298 364 432
#     4  12  25  45  71 104 149 186 244 301 369 437
#     4  11  25  48  73 108 144 192 249 302 366 439
#     4  11  23  47  71 106 141 191 243 300 360 436
#
# _framework density 23.245656
#
# number of rings (size 3 to 8) (size 9 to 14) (size 15 to 20)
#    0.000    0.923    3.077    2.769    7.538    2.462 
#    0.000    1.538    0.000    0.000    0.000    0.000 
#    0.000    0.000    0.000    0.000    0.000    0.000 
#
# Total GULP energy -161213.878715 kJ/mol
# GULP energy per Si atom -12401.067593 kJ/mol
# Density = 2.319275 g / cm^3
# Si number density = 23.245656 Si / 1000 Ang^3
#
#
#
# Elastic Constant Matrix: (Units=GPa)
#
#
# Indices 1 2 3 4 5 6 
#
# 1 150.1474 55.3053 44.6408 0.0026 -5.6616 0.0007
# 2 55.3053 107.7178 61.6621 0.0018 -7.8753 0.0005
# 3 44.6408 61.6621 104.5577 0.0037 -6.8635 0.0003
# 4 0.0026 0.0018 0.0037 23.4512 0.0022 1.0846
# 5 -5.6616 -7.8753 -6.8635 0.0022 46.5636 0.0002
# 6 0.0007 0.0005 0.0003 1.0846 0.0002 44.4089
#
#
#
# Elastic Compliance Matrix: (Units=1/GPa)
#
#
# Indices 1 2 3 4 5 6 
#
# 1 0.008383 -0.003393 -0.001564 0.000000 0.000215 0.000000
# 2 -0.003393 0.015451 -0.007592 0.000000 0.001082 0.000000
# 3 -0.001564 -0.007592 0.014755 -0.000002 0.000701 0.000000
# 4 0.000000 0.000000 -0.000002 0.042690 -0.000002 -0.001043
# 5 0.000215 0.001082 0.000701 -0.000002 0.021788 0.000000
# 6 0.000000 0.000000 0.000000 -0.001043 0.000000 0.022543
#
#
# Mechanical properties :
#
#
# Convention : Reuss Voigt Hill
#
# Bulk Modulus (GPa) = 74.12668 76.18215 75.15441
# Shear Modulus (GPa) = 32.21511 36.27238 34.24375
#
# Velocity S-wave (km/s) = 3.72675 3.95447 3.84229
# Velocity P-wave (km/s) = 7.10463 7.32763 7.21699
#
# Compressibility (1/GPa) = 0.01349042
#
# Stress axis : x y z
#
# Youngs Moduli (GPa) = 119.28868 64.72123 67.77197
#
# Poissons Ratio (x) = 0.21961 0.10599
# Poissons Ratio (y) = 0.40476 0.51455
# Poissons Ratio (z) = 0.18656 0.49139
#
# Static dielectric constant tensor:
#      x y z
#    x 4.575990 0.000000 0.035970 
#    y 0.000000 4.060380 0.000000 
#    z 0.035970 0.000000 4.097040 
# 
# 
# High freq. dielectric constant tensor:
#      x y z
#    x 1.948820 0.000000 0.003880 
#    y 0.000000 1.911580 0.000000 
#    z 0.003880 0.000000 1.912310 
# 
# From -- ./inp_files/51124.got.cif
#   From: 2010.03.12/outbox.cif.g09.slc.cpg/sg5_26_cif.got.tgz:51124.got - 2010.03.31 09:47:26.
