data_PCOD8051907
_publ_section_title
;
Structure prediction by ZEFSAII (Michael W. Deem and Ramdas Pophale) SiO2 
 PCOD8051907
Probable space group: C 2
;
_chemical_formula_sum "Si O2"
_cell_formula_units_Z 28
_cell_length_a 20.342832
_cell_length_b 8.958062
_cell_length_c 8.249524
_cell_angle_alpha 90.000000
_cell_angle_beta 51.299823
_cell_angle_gamma 90.000000
_cell_volume 1173.241656
_symmetry_space_group_name_H-M "C 2"
_symmetry_group_IT_number 5
_symmetry_cell_setting 'monoclinic'
loop_
_space_group_symop_operation_xyz
x,y,z
-x,y,-z
1/2+x,1/2+y,z
1/2-x,1/2+y,-z
loop_
_atom_site_type_symbol
_atom_site_label
_atom_site_fract_x
_atom_site_fract_y
_atom_site_fract_z
Si Si1 0.394516 0.027430 0.404189
Si Si2 0.118851 0.849505 0.075677
Si Si3 0.000000 0.697977 0.500000
Si Si4 0.286440 0.143506 0.306107
Si Si5 0.204838 0.364393 0.893116
Si Si6 0.000000 0.983124 0.000000
Si Si7 0.379831 0.736641 0.263719
Si Si8 0.232239 0.555130 0.135111
O O1 0.466069 0.097211 0.405521
O O2 0.370120 0.131691 0.289281
O O3 0.306571 0.004076 0.635256
O O4 0.427726 0.867956 0.287126
O O5 0.076783 0.793614 0.308380
O O6 0.186150 0.733956 0.895973
O O7 0.171157 0.000373 0.033701
O O8 0.044088 0.880281 0.064784
O O9 0.212772 0.220809 0.519223
O O10 0.253306 0.978514 0.302333
O O11 0.129641 0.280019 0.913121
O O12 0.268020 0.238090 0.870548
O O13 0.174627 0.474344 0.085695
O O14 0.067564 0.086042 0.802180
#
# Coordination Sequence:
#
# PCOD8051907 Si02
#       8
#     4   4   2   4   4   2   4   4
#     4  11  24  44  75 103 148 187 244 295 368 429
#     4  12  26  48  74 105 148 195 241 302 363 437
#     4  12  28  48  68 114 146 188 236 310 382 424
#     4  11  23  46  77 104 138 197 257 294 348 442
#     4  11  24  41  71 109 144 182 247 303 358 419
#     4  12  26  46  72 110 154 188 242 302 372 426
#     4  11  25  45  73 109 145 194 244 304 358 435
#     4  12  23  45  72 110 142 194 243 297 355 440
#
# _framework density 23.865500999999998
#
# number of rings (size 3 to 8) (size 9 to 14) (size 15 to 20)
#    0.000    0.571    4.286    3.429    2.000    5.714 
#    0.000    0.000    0.000    0.000    0.000    0.000 
#    0.000    0.000    0.000    0.000    0.000    0.000 
#
# Total GULP energy -173542.660053 kJ/mol
# GULP energy per Si atom -12395.904290 kJ/mol
# Density = 2.381118 g / cm^3
# Si number density = 23.865501 Si / 1000 Ang^3
#
#
#
# Elastic Constant Matrix: (Units=GPa)
#
#
# Indices 1 2 3 4 5 6 
#
# 1 92.2751 43.8277 27.7036 0.0000 6.4418 0.0000
# 2 43.8277 118.0980 32.6052 0.0000 7.5069 0.0000
# 3 27.7036 32.6052 87.6404 0.0000 4.1958 0.0000
# 4 0.0000 0.0000 0.0000 33.9821 0.0000 11.0162
# 5 6.4418 7.5069 4.1958 0.0000 37.6235 0.0000
# 6 0.0000 0.0000 0.0000 11.0162 0.0000 46.8163
#
#
#
# Elastic Compliance Matrix: (Units=1/GPa)
#
#
# Indices 1 2 3 4 5 6 
#
# 1 0.013768 -0.004288 -0.002699 0.000000 -0.001201 0.000000
# 2 -0.004288 0.010857 -0.002629 0.000000 -0.001139 0.000000
# 3 -0.002699 -0.002629 0.013265 0.000000 -0.000493 0.000000
# 4 0.000000 0.000000 0.000000 0.031857 0.000000 -0.007496
# 5 -0.001201 -0.001139 -0.000493 0.000000 0.027067 0.000000
# 6 0.000000 0.000000 0.000000 -0.007496 0.000000 0.023124
#
#
# Mechanical properties :
#
#
# Convention : Reuss Voigt Hill
#
# Bulk Modulus (GPa) = 53.59828 56.25407 54.92617
# Shear Modulus (GPa) = 34.39000 36.60951 35.49975
#
# Velocity S-wave (km/s) = 3.80016 3.92087 3.86099
# Velocity P-wave (km/s) = 6.46237 6.64230 6.55295
#
# Compressibility (1/GPa) = 0.01865732
#
# Stress axis : x y z
#
# Youngs Moduli (GPa) = 72.63192 92.10533 75.38448
#
# Poissons Ratio (x) = 0.39494 0.20350
# Poissons Ratio (y) = 0.31144 0.19821
# Poissons Ratio (z) = 0.19606 0.24217
#
# Static dielectric constant tensor:
#      x y z
#    x 4.265570 0.000000 0.312860 
#    y 0.000000 4.419120 0.000000 
#    z 0.312860 0.000000 4.120710 
# 
# 
# High freq. dielectric constant tensor:
#      x y z
#    x 1.952610 0.000000 0.024990 
#    y 0.000000 1.959750 0.000000 
#    z 0.024990 0.000000 1.926500 
# 
# From -- ./inp_files/29132.got.cif
#   From: 2010.03.12/outbox.cif.g09.slc.cpg/sg5_15_cif.got.tgz:29132.got - 2010.03.31 09:47:26.
