data_PCOD8051892
_publ_section_title
;
Structure prediction by ZEFSAII (Michael W. Deem and Ramdas Pophale) SiO2 
 PCOD8051892
Probable space group: C 2
;
_chemical_formula_sum "Si O2"
_cell_formula_units_Z 26
_cell_length_a 12.990123
_cell_length_b 10.095752
_cell_length_c 20.759561
_cell_angle_alpha 90.000000
_cell_angle_beta 156.875361
_cell_angle_gamma 90.000000
_cell_volume 1069.220043
_symmetry_space_group_name_H-M "C 2"
_symmetry_group_IT_number 5
_symmetry_cell_setting 'monoclinic'
loop_
_space_group_symop_operation_xyz
x,y,z
-x,y,-z
1/2+x,1/2+y,z
1/2-x,1/2+y,-z
loop_
_atom_site_type_symbol
_atom_site_label
_atom_site_fract_x
_atom_site_fract_y
_atom_site_fract_z
Si Si1 0.066498 0.187370 0.238125
Si Si2 0.500000 0.379776 0.500000
Si Si3 0.690048 0.488375 0.409435
Si Si4 0.751388 0.549621 0.228587
Si Si5 0.031121 0.794478 0.895296
Si Si6 0.966577 0.115514 0.398234
Si Si7 0.500919 0.222286 0.265001
O O1 0.255620 0.291438 0.383503
O O2 0.161524 0.176211 0.218662
O O3 0.111429 0.041037 0.293389
O O4 0.767581 0.234102 0.073220
O O5 0.386775 0.469896 0.376911
O O6 0.597253 0.602086 0.403914
O O7 0.550542 0.347018 0.340807
O O8 0.001356 0.474279 0.597515
O O9 0.518685 0.439810 0.101493
O O10 0.817070 0.610431 0.194437
O O11 0.774082 0.708365 0.754880
O O12 0.120003 0.779895 0.871052
O O13 0.204046 0.166732 0.582450
#
# Coordination Sequence:
#
# PCOD8051892 Si02
#       7
#     4   2   4   4   4   4   4
#     4  12  27  44  73 108 151 200 244 319 389 443
#     4  12  24  44  68 102 148 194 256 304 372 462
#     4  11  23  45  76 106 142 200 252 309 379 462
#     4  11  24  46  78 109 150 193 261 312 374 462
#     4  12  26  47  74 111 153 194 247 321 382 445
#     4  11  25  42  71 106 146 192 255 307 374 456
#     4  11  23  46  79 107 141 204 250 304 383 455
#
# _framework density 24.316790999999998
#
# number of rings (size 3 to 8) (size 9 to 14) (size 15 to 20)
#    0.000    0.615    6.154    0.923    4.308    1.231 
#    0.000    4.615    0.000    0.000    0.000    0.000 
#    0.000    0.000    0.000    0.000    0.000    0.000 
#
# Total GULP energy -161126.758277 kJ/mol
# GULP energy per Si atom -12394.366021 kJ/mol
# Density = 2.426144 g / cm^3
# Si number density = 24.316791 Si / 1000 Ang^3
#
#
#
# Elastic Constant Matrix: (Units=GPa)
#
#
# Indices 1 2 3 4 5 6 
#
# 1 63.6176 32.7907 21.6523 -0.0040 10.8385 0.0008
# 2 32.7907 125.1684 28.6384 0.0142 1.1058 0.0120
# 3 21.6523 28.6384 74.2283 0.0834 5.9999 0.0132
# 4 -0.0040 0.0142 0.0834 37.8779 -0.0032 8.7398
# 5 10.8385 1.1058 5.9999 -0.0032 19.0601 0.0008
# 6 0.0008 0.0120 0.0132 8.7398 0.0008 45.9366
#
#
#
# Elastic Compliance Matrix: (Units=1/GPa)
#
#
# Indices 1 2 3 4 5 6 
#
# 1 0.021114 -0.004634 -0.003512 0.000011 -0.010632 0.000000
# 2 -0.004634 0.009786 -0.002659 0.000002 0.002904 -0.000002
# 3 -0.003512 -0.002659 0.015749 -0.000035 -0.002806 0.000003
# 4 0.000011 0.000002 -0.000035 0.027613 0.000010 -0.005254
# 5 -0.010632 0.002904 -0.002806 0.000010 0.059227 -0.000003
# 6 0.000000 -0.000002 0.000003 -0.005254 -0.000003 0.022769
#
#
# Mechanical properties :
#
#
# Convention : Reuss Voigt Hill
#
# Bulk Modulus (GPa) = 39.93549 47.68633 43.81091
# Shear Modulus (GPa) = 26.85113 32.57044 29.71079
#
# Velocity S-wave (km/s) = 3.32659 3.66378 3.49925
# Velocity P-wave (km/s) = 5.58691 6.12787 5.86363
#
# Compressibility (1/GPa) = 0.02504038
#
# Stress axis : x y z
#
# Youngs Moduli (GPa) = 47.36205 102.18884 63.49644
#
# Poissons Ratio (x) = 0.47353 0.22298
# Poissons Ratio (y) = 0.21947 0.16881
# Poissons Ratio (z) = 0.16632 0.27168
#
# Static dielectric constant tensor:
#      x y z
#    x 4.339650 0.000040 0.013320 
#    y 0.000040 4.280490 -0.000030 
#    z 0.013320 -0.000030 4.108550 
# 
# 
# High freq. dielectric constant tensor:
#      x y z
#    x 1.967030 0.000000 0.004750 
#    y 0.000000 1.972560 0.000000 
#    z 0.004750 0.000000 1.948310 
# 
# From -- ./inp_files/68848.got.cif
#   From: 2010.03.12/outbox.cif.g09.slc.cpg/sg5_35_cif.got.tgz:68848.got - 2010.03.31 09:47:26.
