data_PCOD8051654
_publ_section_title
;
Structure prediction by ZEFSAII (Michael W. Deem and Ramdas Pophale) SiO2 
 PCOD8051654
Probable space group: C 2
;
_chemical_formula_sum "Si O2"
_cell_formula_units_Z 26
_cell_length_a 20.740983
_cell_length_b 8.041409
_cell_length_c 9.138626
_cell_angle_alpha 90.000000
_cell_angle_beta 50.421392
_cell_angle_gamma 90.000000
_cell_volume 1174.780120
_symmetry_space_group_name_H-M "C 2"
_symmetry_group_IT_number 5
_symmetry_cell_setting 'monoclinic'
loop_
_space_group_symop_operation_xyz
x,y,z
-x,y,-z
1/2+x,1/2+y,z
1/2-x,1/2+y,-z
loop_
_atom_site_type_symbol
_atom_site_label
_atom_site_fract_x
_atom_site_fract_y
_atom_site_fract_z
Si Si1 0.122428 0.491230 0.532880
Si Si2 0.408764 0.867434 0.125625
Si Si3 0.834175 0.592105 0.010237
Si Si4 0.995347 0.756942 0.180534
Si Si5 0.500000 0.812475 0.500000
Si Si6 0.068241 0.092666 0.141519
Si Si7 0.253831 0.435213 0.126224
O O1 0.121257 0.350465 0.662841
O O2 0.067524 0.429292 0.477685
O O3 0.216280 0.509153 0.332482
O O4 0.090459 0.669215 0.640961
O O5 0.337824 0.976998 0.148958
O O6 0.500000 0.962384 0.000000
O O7 0.426475 0.694880 0.017829
O O8 0.765685 0.736958 0.127471
O O9 0.927553 0.662472 0.852513
O O10 0.810708 0.471906 0.910929
O O11 0.998188 0.948911 0.228443
O O12 0.000000 0.758562 0.000000
O O13 0.546230 0.703522 0.311689
O O14 0.158606 0.016151 0.039058
#
# Coordination Sequence:
#
# PCOD8051654 Si02
#       7
#     4   4   4   4   2   4   4
#     4  12  23  41  71 101 134 187 240 283 363 413
#     4  12  21  43  71  98 134 188 226 299 345 412
#     4  11  21  43  65  93 141 183 230 280 357 409
#     4  11  22  42  72 101 132 185 240 289 342 417
#     4  12  24  42  70 102 132 194 236 278 356 422
#     4  11  26  45  69 103 146 179 239 295 352 422
#     4  11  26  41  66 102 141 186 228 301 352 417
#
# _framework density 22.131803000000001
#
# number of rings (size 3 to 8) (size 9 to 14) (size 15 to 20)
#    0.000    0.615    4.615    4.154    0.000    4.308 
#    0.000    1.538    0.000    0.000    0.000    0.000 
#    0.000    0.000    0.000    0.000    0.000    0.000 
#
# Total GULP energy -161170.471983 kJ/mol
# GULP energy per Si atom -12397.728614 kJ/mol
# Density = 2.208143 g / cm^3
# Si number density = 22.131803 Si / 1000 Ang^3
#
#
#
# Elastic Constant Matrix: (Units=GPa)
#
#
# Indices 1 2 3 4 5 6 
#
# 1 94.1494 35.3763 29.3797 0.0000 19.9838 0.0000
# 2 35.3763 107.1213 23.3806 0.0000 5.8034 0.0000
# 3 29.3797 23.3806 100.3241 0.0000 3.0791 0.0000
# 4 0.0000 0.0000 0.0000 22.0094 0.0000 6.5745
# 5 19.9838 5.8034 3.0791 0.0000 31.0268 0.0000
# 6 0.0000 0.0000 0.0000 6.5745 0.0000 32.7894
#
#
#
# Elastic Compliance Matrix: (Units=1/GPa)
#
#
# Indices 1 2 3 4 5 6 
#
# 1 0.014841 -0.003737 -0.003213 0.000000 -0.008541 0.000000
# 2 -0.003737 0.010858 -0.001452 0.000000 0.000520 0.000000
# 3 -0.003213 -0.001452 0.011209 0.000000 0.001229 0.000000
# 4 0.000000 0.000000 0.000000 0.048330 0.000000 -0.009690
# 5 -0.008541 0.000520 0.001229 0.000000 0.037512 0.000000
# 6 0.000000 0.000000 0.000000 -0.009690 0.000000 0.032441
#
#
# Mechanical properties :
#
#
# Convention : Reuss Voigt Hill
#
# Bulk Modulus (GPa) = 49.74141 53.09642 51.41891
# Shear Modulus (GPa) = 27.98029 31.39568 29.68798
#
# Velocity S-wave (km/s) = 3.55950 3.77049 3.66651
# Velocity P-wave (km/s) = 6.27831 6.55733 6.41934
#
# Compressibility (1/GPa) = 0.02010398
#
# Stress axis : x y z
#
# Youngs Moduli (GPa) = 67.37993 92.09668 89.21133
#
# Poissons Ratio (x) = 0.34419 0.28665
# Poissons Ratio (y) = 0.25181 0.12954
# Poissons Ratio (z) = 0.21650 0.13373
#
# Static dielectric constant tensor:
#      x y z
#    x 4.157240 0.000000 0.057640 
#    y 0.000000 4.243790 0.000000 
#    z 0.057640 0.000000 3.940030 
# 
# 
# High freq. dielectric constant tensor:
#      x y z
#    x 1.881070 0.000000 0.013300 
#    y 0.000000 1.874240 0.000000 
#    z 0.013300 0.000000 1.856600 
# 
# From -- ./inp_files/28901.got.cif
#   From: 2010.03.12/outbox.cif.g09.slc.cpg/sg5_15_cif.got.tgz:28901.got - 2010.03.31 09:47:26.
