data_PCOD8051783
_publ_section_title
;
Structure prediction by ZEFSAII (Michael W. Deem and Ramdas Pophale) SiO2 
 PCOD8051783
Probable space group: C 2
;
_chemical_formula_sum "Si O2"
_cell_formula_units_Z 32
_cell_length_a 9.580443
_cell_length_b 10.815162
_cell_length_c 14.817623
_cell_angle_alpha 90.000000
_cell_angle_beta 111.933067
_cell_angle_gamma 90.000000
_cell_volume 1424.189099
_symmetry_space_group_name_H-M "C 2"
_symmetry_group_IT_number 5
_symmetry_cell_setting 'monoclinic'
loop_
_space_group_symop_operation_xyz
x,y,z
-x,y,-z
1/2+x,1/2+y,z
1/2-x,1/2+y,-z
loop_
_atom_site_type_symbol
_atom_site_label
_atom_site_fract_x
_atom_site_fract_y
_atom_site_fract_z
Si Si1 0.336815 0.190040 0.455510
Si Si2 0.941469 0.985491 0.839205
Si Si3 0.557009 0.733592 0.921429
Si Si4 0.845043 0.214371 0.416574
Si Si5 0.150719 0.464917 0.670097
Si Si6 0.179965 0.043201 0.751219
Si Si7 0.361965 0.233180 0.915256
Si Si8 0.388008 0.851785 0.716130
O O1 0.500000 0.259305 0.500000
O O2 0.277989 0.165251 0.542456
O O3 0.211290 0.267831 0.373397
O O4 0.371131 0.060014 0.416197
O O5 0.770328 0.019743 0.770433
O O6 0.936963 0.853516 0.887585
O O7 0.013601 0.088730 0.922225
O O8 0.042839 0.985305 0.773556
O O9 0.733881 0.765155 0.958531
O O10 0.487681 0.770320 0.807814
O O11 0.500000 0.800586 0.000000
O O12 0.781750 0.336297 0.351702
O O13 0.883152 0.106667 0.354493
O O14 0.000000 0.253745 0.500000
O O15 0.992717 0.440989 0.681783
O O16 0.285663 0.141949 0.826272
O O17 0.281852 0.927873 0.754499
O O18 0.500000 0.165502 0.000000
#
# Coordination Sequence:
#
# PCOD8051783 Si02
#       8
#     4   4   4   4   4   4   4   4
#     4  12  28  44  71 108 143 191 245 294 355 427
#     4  11  22  46  76 102 138 190 235 292 360 423
#     4  11  25  47  73 108 141 183 239 295 358 428
#     4  12  24  45  72 103 143 189 242 297 354 422
#     4  12  23  47  75  97 145 191 235 296 358 421
#     4  11  27  43  69 106 146 185 238 294 358 424
#     4  11  25  48  74 104 144 187 237 294 360 428
#     4  12  26  47  69 104 145 191 234 295 362 424
#
# _framework density 22.468927000000001
#
# number of rings (size 3 to 8) (size 9 to 14) (size 15 to 20)
#    0.000    0.500    5.000    3.000    5.250    3.000 
#    2.250    0.000    0.000    0.000    0.000    0.000 
#    0.000    0.000    0.000    0.000    0.000    0.000 
#
# Total GULP energy -198390.112863 kJ/mol
# GULP energy per Si atom -12399.382054 kJ/mol
# Density = 2.241779 g / cm^3
# Si number density = 22.468927 Si / 1000 Ang^3
#
#
#
# Elastic Constant Matrix: (Units=GPa)
#
#
# Indices 1 2 3 4 5 6 
#
# 1 157.9404 37.0328 59.2654 0.0000 -10.4412 0.0000
# 2 37.0328 71.3929 6.1545 0.0000 -6.2580 0.0000
# 3 59.2654 6.1545 91.2155 0.0000 -4.6832 0.0000
# 4 0.0000 0.0000 0.0000 0.8544 0.0000 -8.1186
# 5 -10.4412 -6.2580 -4.6832 0.0000 50.3432 0.0000
# 6 0.0000 0.0000 0.0000 -8.1186 0.0000 41.4279
#
#
#
# Elastic Compliance Matrix: (Units=1/GPa)
#
#
# Indices 1 2 3 4 5 6 
#
# 1 0.009650 -0.004416 -0.005926 0.000000 0.000901 0.000000
# 2 -0.004416 0.016251 0.001838 0.000000 0.001275 0.000000
# 3 -0.005926 0.001838 0.014708 0.000000 0.000368 0.000000
# 4 0.000000 0.000000 0.000000 -1.357531 0.000000 -0.266034
# 5 0.000901 0.001275 0.000368 0.000000 0.020243 0.000000
# 6 0.000000 0.000000 0.000000 -0.266034 0.000000 -0.027996
#
#
# Mechanical properties :
#
#
# Convention : Reuss Voigt Hill
#
# Bulk Modulus (GPa) = 42.36917 58.38378 50.37648
# Shear Modulus (GPa) = -3.84674 33.06485 14.60905
#
# Velocity S-wave (km/s) = -1.30986 3.84028 2.55265
# Velocity P-wave (km/s) = 4.07554 6.76050 5.58186
#
# Compressibility (1/GPa) = 0.02360207
#
# Stress axis : x y z
#
# Youngs Moduli (GPa) = 103.62677 61.53513 67.99022
#
# Poissons Ratio (x) = 0.27173 0.40289
# Poissons Ratio (y) = 0.45760 -0.12497
# Poissons Ratio (z) = 0.61406 -0.11311
#
# Static dielectric constant tensor:
#      x y z
#    x 4.569420 0.000000 -0.128400 
#    y 0.000000 3.877680 0.000000 
#    z -0.128400 0.000000 4.332070 
# 
# 
# High freq. dielectric constant tensor:
#      x y z
#    x 1.901380 0.000000 -0.002220 
#    y 0.000000 1.872120 0.000000 
#    z -0.002220 0.000000 1.899590 
# 
# From -- ./inp_files/50525.got.cif
#   From: 2010.03.12/outbox.cif.g09.slc.cpg/sg5_26_cif.got.tgz:50525.got - 2010.03.31 09:47:26.
