data_PCOD8051414
_publ_section_title
;
Structure prediction by ZEFSAII (Michael W. Deem and Ramdas Pophale) SiO2 
 PCOD8051414
Probable space group: C 2
;
_chemical_formula_sum "Si O2"
_cell_formula_units_Z 22
_cell_length_a 5.129088
_cell_length_b 22.240098
_cell_length_c 8.490852
_cell_angle_alpha 90.000000
_cell_angle_beta 79.426595
_cell_angle_gamma 90.000000
_cell_volume 952.117942
_symmetry_space_group_name_H-M "C 2"
_symmetry_group_IT_number 5
_symmetry_cell_setting 'monoclinic'
loop_
_space_group_symop_operation_xyz
x,y,z
-x,y,-z
1/2+x,1/2+y,z
1/2-x,1/2+y,-z
loop_
_atom_site_type_symbol
_atom_site_label
_atom_site_fract_x
_atom_site_fract_y
_atom_site_fract_z
Si Si1 0.500000 0.535580 0.500000
Si Si2 0.405458 0.134884 0.352489
Si Si3 0.685904 0.956994 0.327795
Si Si4 0.791035 0.559091 0.895068
Si Si5 0.210810 0.350613 0.104211
Si Si6 0.289081 0.714811 0.894800
O O1 0.750199 0.575444 0.424651
O O2 0.452683 0.491246 0.355376
O O3 0.500000 0.170581 0.500000
O O4 0.678608 0.111460 0.240145
O O5 0.216547 0.175862 0.264616
O O6 0.500000 0.958384 0.500000
O O7 0.715266 0.888795 0.265418
O O8 0.601846 0.995427 0.183669
O O9 0.500000 0.555616 0.000000
O O10 0.000000 0.581556 0.000000
O O11 0.128500 0.282715 0.160019
O O12 0.500000 0.354157 0.000000
O O13 0.000000 0.375614 0.000000
O O14 0.500000 0.688593 0.000000
O O15 0.000000 0.714880 0.000000
#
# Coordination Sequence:
#
# PCOD8051414 Si02
#       6
#     2   4   4   4   4   4
#     4  12  24  44  66  98 158 174 234 282 360 430
#     4  12  26  45  70 104 150 192 234 302 355 426
#     4  12  25  43  67 102 142 186 225 299 350 424
#     4  12  25  42  68 100 138 187 240 278 352 425
#     4  10  24  49  74 101 136 182 241 295 347 419
#     4  10  25  49  74 103 139 187 245 296 352 423
#
# _framework density 23.106380999999999
#
# number of rings (size 3 to 8) (size 9 to 14) (size 15 to 20)
#    0.000    0.727    3.636    2.727    5.091    2.909 
#    3.273    0.000    0.000    0.000    0.000    0.000 
#    0.000    0.000    0.000    0.000    0.000    0.000 
#
# Total GULP energy -136341.700165 kJ/mol
# GULP energy per Si atom -12394.700015 kJ/mol
# Density = 2.305379 g / cm^3
# Si number density = 23.106381 Si / 1000 Ang^3
#
#
#
# Elastic Constant Matrix: (Units=GPa)
#
#
# Indices 1 2 3 4 5 6 
#
# 1 131.1210 29.4178 65.5935 0.0000 13.4116 0.0000
# 2 29.4178 114.5476 72.1598 0.0000 23.9585 0.0000
# 3 65.5935 72.1598 157.2119 0.0000 15.6425 0.0000
# 4 0.0000 0.0000 0.0000 76.8812 0.0000 -10.8207
# 5 13.4116 23.9585 15.6425 0.0000 49.8005 0.0000
# 6 0.0000 0.0000 0.0000 -10.8207 0.0000 47.5472
#
#
#
# Elastic Compliance Matrix: (Units=1/GPa)
#
#
# Indices 1 2 3 4 5 6 
#
# 1 0.009742 0.000397 -0.004095 0.000000 -0.001529 0.000000
# 2 0.000397 0.013245 -0.005781 0.000000 -0.004663 0.000000
# 3 -0.004095 -0.005781 0.010670 0.000000 0.000533 0.000000
# 4 0.000000 0.000000 0.000000 0.013437 0.000000 0.003058
# 5 -0.001529 -0.004663 0.000533 0.000000 0.022568 0.000000
# 6 0.000000 0.000000 0.000000 0.003058 0.000000 0.021728
#
#
# Mechanical properties :
#
#
# Convention : Reuss Voigt Hill
#
# Bulk Modulus (GPa) = 68.02908 81.91363 74.97136
# Shear Modulus (GPa) = 43.38441 50.55973 46.97207
#
# Velocity S-wave (km/s) = 4.33782 4.68282 4.51362
# Velocity P-wave (km/s) = 7.38881 8.04773 7.72530
#
# Compressibility (1/GPa) = 0.01469960
#
# Stress axis : x y z
#
# Youngs Moduli (GPa) = 102.64503 75.49852 93.71994
#
# Poissons Ratio (x) = -0.03001 0.38379
# Poissons Ratio (y) = -0.04080 0.54183
# Poissons Ratio (z) = 0.42034 0.43649
#
# Static dielectric constant tensor:
#      x y z
#    x 4.234680 0.000000 0.294050 
#    y 0.000000 4.378890 0.000000 
#    z 0.294050 0.000000 4.367190 
# 
# 
# High freq. dielectric constant tensor:
#      x y z
#    x 1.918440 0.000000 0.009140 
#    y 0.000000 1.905970 0.000000 
#    z 0.009140 0.000000 1.919290 
# 
# From -- ./inp_files/12699.got.cif
#   From: 2010.03.12/outbox.cif.g09.slc.cpg/sg5_7_cif.got.tgz:12699.got - 2010.03.31 09:47:26.
