data_PCOD8051589
_publ_section_title
;
Structure prediction by ZEFSAII (Michael W. Deem and Ramdas Pophale) SiO2 
 PCOD8051589
Probable space group: C 2
;
_chemical_formula_sum "Si O2"
_cell_formula_units_Z 30
_cell_length_a 11.867608
_cell_length_b 15.264336
_cell_length_c 9.158867
_cell_angle_alpha 90.000000
_cell_angle_beta 66.739812
_cell_angle_gamma 90.000000
_cell_volume 1524.286166
_symmetry_space_group_name_H-M "C 2"
_symmetry_group_IT_number 5
_symmetry_cell_setting 'monoclinic'
loop_
_space_group_symop_operation_xyz
x,y,z
-x,y,-z
1/2+x,1/2+y,z
1/2-x,1/2+y,-z
loop_
_atom_site_type_symbol
_atom_site_label
_atom_site_fract_x
_atom_site_fract_y
_atom_site_fract_z
Si Si1 0.621364 0.236200 0.193777
Si Si2 0.205702 0.272131 0.645059
Si Si3 0.911741 0.862823 0.361339
Si Si4 0.500000 0.516645 0.500000
Si Si5 0.227810 0.134340 0.391242
Si Si6 0.524644 0.870557 0.316845
Si Si7 0.485814 0.070454 0.338843
Si Si8 0.215304 0.793092 0.840284
O O1 0.747057 0.239816 0.221634
O O2 0.518017 0.291626 0.331075
O O3 0.570660 0.137235 0.203061
O O4 0.642175 0.279024 0.026268
O O5 0.300087 0.339771 0.524593
O O6 0.184684 0.187156 0.555903
O O7 0.078423 0.323834 0.728574
O O8 0.862983 0.860436 0.219751
O O9 0.963234 0.958201 0.377975
O O10 0.615112 0.575697 0.393208
O O11 0.343130 0.073589 0.369926
O O12 0.270305 0.199462 0.243167
O O13 0.500000 0.849978 0.500000
O O14 0.652532 0.833026 0.196758
O O15 0.531282 0.973351 0.282471
O O16 0.500000 0.096787 0.500000
#
# Coordination Sequence:
#
# PCOD8051589 Si02
#       8
#     4   4   4   2   4   4   4   4
#     4  12  22  42  63  93 128 167 212 255 311 395
#     4  11  20  40  69  91 126 167 214 256 312 381
#     4  11  21  39  66  91 116 168 215 257 310 369
#     4  12  24  38  68  98 126 156 228 274 310 370
#     4  11  22  39  64  95 125 165 213 261 321 370
#     4  11  22  40  65  96 125 159 215 266 311 370
#     4  11  22  38  66  95 119 161 219 267 303 370
#     4  11  25  42  66  89 130 174 203 255 332 381
#
# _framework density 19.681342000000001
#
# number of rings (size 3 to 8) (size 9 to 14) (size 15 to 20)
#    0.000    0.800    8.000    2.000    1.867    0.533 
#    2.400    1.333    2.933    0.000    0.000    0.000 
#    0.000    0.000    0.000    0.000    0.000    0.000 
#
# Total GULP energy -186062.346213 kJ/mol
# GULP energy per Si atom -12404.156414 kJ/mol
# Density = 1.963655 g / cm^3
# Si number density = 19.681342 Si / 1000 Ang^3
#
#
#
# Elastic Constant Matrix: (Units=GPa)
#
#
# Indices 1 2 3 4 5 6 
#
# 1 147.3299 46.0048 31.8776 0.0000 2.4642 0.0000
# 2 46.0048 62.3913 22.2723 0.0000 2.9746 0.0000
# 3 31.8776 22.2723 65.4030 0.0000 7.1428 0.0000
# 4 0.0000 0.0000 0.0000 16.6711 0.0000 2.1087
# 5 2.4642 2.9746 7.1428 0.0000 23.2449 0.0000
# 6 0.0000 0.0000 0.0000 2.1087 0.0000 49.4170
#
#
#
# Elastic Compliance Matrix: (Units=1/GPa)
#
#
# Indices 1 2 3 4 5 6 
#
# 1 0.009160 -0.005880 -0.002523 0.000000 0.000557 0.000000
# 2 -0.005880 0.022025 -0.004547 0.000000 -0.000798 0.000000
# 3 -0.002523 -0.004547 0.018600 0.000000 -0.004866 0.000000
# 4 0.000000 0.000000 0.000000 0.060310 0.000000 -0.002574
# 5 0.000557 -0.000798 -0.004866 0.000000 0.044559 0.000000
# 6 0.000000 0.000000 0.000000 -0.002574 0.000000 0.020346
#
#
# Mechanical properties :
#
#
# Convention : Reuss Voigt Hill
#
# Bulk Modulus (GPa) = 41.86954 52.82597 47.34776
# Shear Modulus (GPa) = 23.93937 29.53123 26.73530
#
# Velocity S-wave (km/s) = 3.49140 3.87779 3.68966
# Velocity P-wave (km/s) = 6.12969 6.85190 6.50083
#
# Compressibility (1/GPa) = 0.02388371
#
# Stress axis : x y z
#
# Youngs Moduli (GPa) = 109.16740 45.40288 53.76486
#
# Poissons Ratio (x) = 0.26698 0.13565
# Poissons Ratio (y) = 0.64193 0.24448
# Poissons Ratio (z) = 0.27544 0.20646
#
# Static dielectric constant tensor:
#      x y z
#    x 3.906070 0.000000 0.121110 
#    y 0.000000 3.549100 0.000000 
#    z 0.121110 0.000000 3.211540 
# 
# 
# High freq. dielectric constant tensor:
#      x y z
#    x 1.792140 0.000000 0.003980 
#    y 0.000000 1.764900 0.000000 
#    z 0.003980 0.000000 1.730750 
# 
# From -- ./inp_files/20616.got.cif
#   From: 2010.03.12/outbox.cif.g09.slc.cpg/sg5_11_cif.got.tgz:20616.got - 2010.03.31 09:47:26.
