data_PCOD8051241
_publ_section_title
;
Structure prediction by ZEFSAII (Michael W. Deem and Ramdas Pophale) SiO2 
 PCOD8051241
Probable space group: C 2
;
_chemical_formula_sum "Si O2"
_cell_formula_units_Z 26
_cell_length_a 13.551755
_cell_length_b 16.565529
_cell_length_c 10.838417
_cell_angle_alpha 90.000000
_cell_angle_beta 148.041488
_cell_angle_gamma 90.000000
_cell_volume 1287.872132
_symmetry_space_group_name_H-M "C 2"
_symmetry_group_IT_number 5
_symmetry_cell_setting 'monoclinic'
loop_
_space_group_symop_operation_xyz
x,y,z
-x,y,-z
1/2+x,1/2+y,z
1/2-x,1/2+y,-z
loop_
_atom_site_type_symbol
_atom_site_label
_atom_site_fract_x
_atom_site_fract_y
_atom_site_fract_z
Si Si1 0.500000 0.208251 0.000000
Si Si2 0.153363 0.458557 0.485738
Si Si3 0.564987 0.648742 0.928144
Si Si4 0.747388 0.482730 0.132848
Si Si5 0.967451 0.844527 0.773721
Si Si6 0.302616 0.119527 0.594328
Si Si7 0.063369 0.719501 0.702591
O O1 0.450890 0.270134 0.058132
O O2 0.662108 0.148318 0.225627
O O3 0.228649 0.491922 0.695293
O O4 0.250729 0.371343 0.562432
O O5 0.206968 0.522513 0.434352
O O6 0.930834 0.449351 0.258363
O O7 0.389064 0.660755 0.652327
O O8 0.500000 0.648833 0.000000
O O9 0.680493 0.568816 0.013782
O O10 0.710910 0.720213 0.054338
O O11 0.583366 0.422682 0.926381
O O12 0.991923 0.809806 0.661609
O O13 0.475240 0.150606 0.695937
O O14 0.000000 0.695861 0.500000
#
# Coordination Sequence:
#
# PCOD8051241 Si02
#       7
#     2   4   4   4   4   4   4
#     4  10  24  42  60  96 136 176 198 272 338 394
#     4  11  20  36  65  93 121 168 214 275 310 388
#     4  12  20  36  68  99 122 164 221 277 321 378
#     4  11  20  35  64 100 121 153 230 268 319 377
#     4  11  22  41  62  90 133 169 216 270 335 374
#     4  11  22  40  66  90 134 166 218 266 334 385
#     4  11  23  40  61  94 130 169 215 275 329 393
#
# _framework density 20.188338999999999
#
# number of rings (size 3 to 8) (size 9 to 14) (size 15 to 20)
#    0.000    0.923    7.692    0.000    0.000    2.462 
#    0.000    3.846    0.000    0.000    0.000    0.000 
#    0.000    0.000    0.000    0.000    0.000    0.000 
#
# Total GULP energy -161102.325900 kJ/mol
# GULP energy per Si atom -12392.486608 kJ/mol
# Density = 2.014239 g / cm^3
# Si number density = 20.188339 Si / 1000 Ang^3
#
#
#
# Elastic Constant Matrix: (Units=GPa)
#
#
# Indices 1 2 3 4 5 6 
#
# 1 72.4531 38.9499 47.2570 0.0000 18.5275 0.0000
# 2 38.9499 80.4361 28.2571 0.0000 -0.1969 0.0000
# 3 47.2570 28.2571 116.6476 0.0000 13.6667 0.0000
# 4 0.0000 0.0000 0.0000 30.1323 0.0000 -5.4921
# 5 18.5275 -0.1969 13.6667 0.0000 34.3568 0.0000
# 6 0.0000 0.0000 0.0000 -5.4921 0.0000 35.1453
#
#
#
# Elastic Compliance Matrix: (Units=1/GPa)
#
#
# Indices 1 2 3 4 5 6 
#
# 1 0.027208 -0.010737 -0.007023 0.000000 -0.011941 0.000000
# 2 -0.010737 0.017896 -0.000709 0.000000 0.006175 0.000000
# 3 -0.007023 -0.000709 0.011691 0.000000 -0.000868 0.000000
# 4 0.000000 0.000000 0.000000 0.034160 0.000000 0.005338
# 5 -0.011941 0.006175 -0.000868 0.000000 0.035926 0.000000
# 6 0.000000 0.000000 0.000000 0.005338 0.000000 0.029287
#
#
# Mechanical properties :
#
#
# Convention : Reuss Voigt Hill
#
# Bulk Modulus (GPa) = 50.35799 55.38499 52.87149
# Shear Modulus (GPa) = 25.03441 30.26505 27.64973
#
# Velocity S-wave (km/s) = 3.52524 3.87607 3.70481
# Velocity P-wave (km/s) = 6.44733 6.89388 6.67434
#
# Compressibility (1/GPa) = 0.01985782
#
# Stress axis : x y z
#
# Youngs Moduli (GPa) = 36.75353 55.87953 85.53420
#
# Poissons Ratio (x) = 0.60000 0.60069
# Poissons Ratio (y) = 0.39463 0.06061
# Poissons Ratio (z) = 0.25811 0.03959
#
# Static dielectric constant tensor:
#      x y z
#    x 3.841480 0.000000 -0.018670 
#    y 0.000000 3.738900 0.000000 
#    z -0.018670 0.000000 3.972580 
# 
# 
# High freq. dielectric constant tensor:
#      x y z
#    x 1.765570 0.000000 0.013940 
#    y 0.000000 1.780810 0.000000 
#    z 0.013940 0.000000 1.791730 
# 
# From -- ./inp_files/43260.got.cif
#   From: 2010.03.12/outbox.cif.g09.slc.cpg/sg5_22_cif.got.tgz:43260.got - 2010.03.31 09:47:26.
