data_PCOD8051347
_publ_section_title
;
Structure prediction by ZEFSAII (Michael W. Deem and Ramdas Pophale) SiO2 
 PCOD8051347
Probable space group: C 2
;
_chemical_formula_sum "Si O2"
_cell_formula_units_Z 20
_cell_length_a 12.299707
_cell_length_b 10.180225
_cell_length_c 12.938129
_cell_angle_alpha 90.000000
_cell_angle_beta 34.022103
_cell_angle_gamma 90.000000
_cell_volume 906.428501
_symmetry_space_group_name_H-M "C 2"
_symmetry_group_IT_number 5
_symmetry_cell_setting 'monoclinic'
loop_
_space_group_symop_operation_xyz
x,y,z
-x,y,-z
1/2+x,1/2+y,z
1/2-x,1/2+y,-z
loop_
_atom_site_type_symbol
_atom_site_label
_atom_site_fract_x
_atom_site_fract_y
_atom_site_fract_z
Si Si1 0.386704 0.935480 0.790394
Si Si2 0.208323 0.047927 0.598956
Si Si3 0.717239 0.670218 0.814514
Si Si4 0.665001 0.415157 0.163005
Si Si5 0.563504 0.668832 0.335023
O O1 0.337208 0.810204 0.757548
O O2 0.605675 0.982457 0.600346
O O3 0.240490 0.051739 0.876808
O O4 0.343031 0.893675 0.943003
O O5 0.732344 0.115221 0.339082
O O6 0.127605 0.163616 0.588490
O O7 0.040489 0.934388 0.737333
O O8 0.852874 0.792331 0.743301
O O9 0.500000 0.722183 0.000000
O O10 0.709282 0.549150 0.191915
O O11 0.500000 0.647273 0.500000
#
# Coordination Sequence:
#
# PCOD8051347 Si02
#       5
#     4   4   4   4   4
#     4  12  23  46  73 102 146 191 240 305 365 430
#     4  10  25  44  71 105 144 183 248 296 359 432
#     4  12  23  46  76 105 145 199 240 295 374 435
#     4  10  25  45  71 104 143 185 250 297 353 446
#     4  10  24  46  66 104 144 180 246 301 358 430
#
# _framework density 22.064620999999999
#
# number of rings (size 3 to 8) (size 9 to 14) (size 15 to 20)
#    1.200    0.000    2.000    4.200    2.800    4.800 
#    3.600    1.000    0.000    0.000    0.000    0.000 
#    0.000    0.000    0.000    0.000    0.000    0.000 
#
# Total GULP energy -123941.734570 kJ/mol
# GULP energy per Si atom -12394.173457 kJ/mol
# Density = 2.201440 g / cm^3
# Si number density = 22.064621 Si / 1000 Ang^3
#
#
#
# Elastic Constant Matrix: (Units=GPa)
#
#
# Indices 1 2 3 4 5 6 
#
# 1 101.2435 55.2645 42.7290 0.0000 11.4666 0.0000
# 2 55.2645 110.0738 17.1703 0.0001 -0.9101 0.0000
# 3 42.7290 17.1703 111.5146 -0.0002 20.9462 -0.0001
# 4 0.0000 0.0001 -0.0002 25.7531 0.0000 10.0909
# 5 11.4666 -0.9101 20.9462 0.0000 30.8561 0.0001
# 6 0.0000 0.0000 -0.0001 10.0909 0.0001 42.6082
#
#
#
# Elastic Compliance Matrix: (Units=1/GPa)
#
#
# Indices 1 2 3 4 5 6 
#
# 1 0.016194 -0.007462 -0.004452 0.000000 -0.003216 0.000000
# 2 -0.007462 0.012803 0.000340 0.000000 0.002920 0.000000
# 3 -0.004452 0.000340 0.011815 0.000000 -0.006356 0.000000
# 4 0.000000 0.000000 0.000000 0.042802 0.000000 -0.010137
# 5 -0.003216 0.002920 -0.006356 0.000000 0.038004 0.000000
# 6 0.000000 0.000000 0.000000 -0.010137 0.000000 0.025870
#
#
# Mechanical properties :
#
#
# Convention : Reuss Voigt Hill
#
# Bulk Modulus (GPa) = 56.61971 61.46217 59.04094
# Shear Modulus (GPa) = 28.32461 33.68802 31.00632
#
# Velocity S-wave (km/s) = 3.58678 3.91165 3.75273
# Velocity P-wave (km/s) = 6.54751 6.95107 6.75231
#
# Compressibility (1/GPa) = 0.01766169
#
# Stress axis : x y z
#
# Youngs Moduli (GPa) = 61.75231 78.10873 84.63953
#
# Poissons Ratio (x) = 0.58289 0.37680
# Poissons Ratio (y) = 0.46083 -0.02874
# Poissons Ratio (z) = 0.27491 -0.02653
#
# Static dielectric constant tensor:
#      x y z
#    x 3.951650 0.000000 -0.029460 
#    y 0.000000 4.048400 0.000000 
#    z -0.029460 0.000000 3.778030 
# 
# 
# High freq. dielectric constant tensor:
#      x y z
#    x 1.859100 0.000000 0.014770 
#    y 0.000000 1.877740 0.000000 
#    z 0.014770 0.000000 1.859610 
# 
# From -- ./inp_files/52678.got.cif
#   From: 2010.03.12/outbox.cif.g09.slc.cpg/sg5_27_cif.got.tgz:52678.got - 2010.03.31 09:47:26.
