data_PCOD8051561
_publ_section_title
;
Structure prediction by ZEFSAII (Michael W. Deem and Ramdas Pophale) SiO2 
 PCOD8051561
Probable space group: C 2
;
_chemical_formula_sum "Si O2"
_cell_formula_units_Z 20
_cell_length_a 20.498825
_cell_length_b 5.385601
_cell_length_c 15.096963
_cell_angle_alpha 90.000000
_cell_angle_beta 27.780331
_cell_angle_gamma 90.000000
_cell_volume 776.812036
_symmetry_space_group_name_H-M "C 2"
_symmetry_group_IT_number 5
_symmetry_cell_setting 'monoclinic'
loop_
_space_group_symop_operation_xyz
x,y,z
-x,y,-z
1/2+x,1/2+y,z
1/2-x,1/2+y,-z
loop_
_atom_site_type_symbol
_atom_site_label
_atom_site_fract_x
_atom_site_fract_y
_atom_site_fract_z
Si Si1 0.698615 0.375000 0.333949
Si Si2 0.507297 0.148291 0.799504
Si Si3 0.000000 0.461045 0.000000
Si Si4 0.192305 0.154457 0.168385
Si Si5 0.554962 0.635933 0.654156
Si Si6 0.000000 0.523037 0.500000
O O1 0.686889 0.425393 0.243006
O O2 0.654996 0.613540 0.446958
O O3 0.578833 0.165960 0.487472
O O4 0.858323 0.293796 0.165604
O O5 0.593818 0.396258 0.668768
O O6 0.503345 0.138443 0.910509
O O7 0.579756 0.895910 0.675094
O O8 0.352018 0.191005 0.947673
O O9 0.106862 0.111209 0.180921
O O10 0.124493 0.381483 0.302381
#
# Coordination Sequence:
#
# PCOD8051561 Si02
#       6
#     4   4   2   4   4   2
#     4  11  24  44  77 105 155 201 248 313 379 460
#     4  11  28  44  73 103 152 194 247 317 373 446
#     4  10  28  54  64 112 150 212 254 308 390 464
#     4  11  23  42  69 114 147 192 245 314 382 447
#     4  12  23  45  72 112 142 193 250 316 370 442
#     4  12  20  42  80 110 150 202 258 302 378 454
#
# _framework density 25.746255999999999
#
# number of rings (size 3 to 8) (size 9 to 14) (size 15 to 20)
#    0.000    0.800    4.000    2.400    5.600    2.400 
#    3.600    0.000    0.000    0.000    0.000    0.000 
#    0.000    0.000    0.000    0.000    0.000    0.000 
#
# Total GULP energy -123923.095053 kJ/mol
# GULP energy per Si atom -12392.309505 kJ/mol
# Density = 2.568766 g / cm^3
# Si number density = 25.746256 Si / 1000 Ang^3
#
#
#
# Elastic Constant Matrix: (Units=GPa)
#
#
# Indices 1 2 3 4 5 6 
#
# 1 106.9592 26.0634 22.4893 0.0023 -11.1916 0.0222
# 2 26.0634 137.0624 35.2835 -0.0384 5.6840 0.0269
# 3 22.4893 35.2835 79.1072 -0.0508 -17.1226 -0.0108
# 4 0.0023 -0.0384 -0.0508 29.6783 0.0160 10.2924
# 5 -11.1916 5.6840 -17.1226 0.0160 63.0801 0.0038
# 6 0.0222 0.0269 -0.0108 10.2924 0.0038 11.6599
#
#
#
# Elastic Compliance Matrix: (Units=1/GPa)
#
#
# Indices 1 2 3 4 5 6 
#
# 1 0.010276 -0.001515 -0.001935 -0.000001 0.001434 -0.000018
# 2 -0.001515 0.008674 -0.003894 0.000018 -0.002107 -0.000036
# 3 -0.001935 -0.003894 0.015862 0.000016 0.004313 0.000012
# 4 -0.000001 0.000018 0.000016 0.048560 -0.000007 -0.042865
# 5 0.001434 -0.002107 0.004313 -0.000007 0.017468 0.000007
# 6 -0.000018 -0.000036 0.000012 -0.042865 0.000007 0.123602
#
#
# Mechanical properties :
#
#
# Convention : Reuss Voigt Hill
#
# Bulk Modulus (GPa) = 49.69594 54.53347 52.11471
# Shear Modulus (GPa) = 20.33865 36.83650 28.58758
#
# Velocity S-wave (km/s) = 2.81368 3.78663 3.33582
# Velocity P-wave (km/s) = 5.46807 6.35179 5.92643
#
# Compressibility (1/GPa) = 0.02012237
#
# Stress axis : x y z
#
# Youngs Moduli (GPa) = 97.31850 115.28757 63.04545
#
# Poissons Ratio (x) = 0.17470 0.12198
# Poissons Ratio (y) = 0.14747 0.24551
# Poissons Ratio (z) = 0.18830 0.44894
#
# Static dielectric constant tensor:
#      x y z
#    x 4.850580 -0.000030 -0.062070 
#    y -0.000030 4.454680 0.000070 
#    z -0.062070 0.000070 4.611490 
# 
# 
# High freq. dielectric constant tensor:
#      x y z
#    x 2.031270 0.000000 0.004680 
#    y 0.000000 2.005860 0.000010 
#    z 0.004680 0.000010 2.033140 
# 
# From -- ./inp_files/43576.got.cif
#   From: 2010.03.12/outbox.cif.g09.slc.cpg/sg5_22_cif.got.tgz:43576.got - 2010.03.31 09:47:26.
