data_PCOD8051273
_publ_section_title
;
Structure prediction by ZEFSAII (Michael W. Deem and Ramdas Pophale) SiO2 
 PCOD8051273
Probable space group: C 2
;
_chemical_formula_sum "Si O2"
_cell_formula_units_Z 28
_cell_length_a 8.846643
_cell_length_b 11.849057
_cell_length_c 13.590866
_cell_angle_alpha 90.000000
_cell_angle_beta 56.489436
_cell_angle_gamma 90.000000
_cell_volume 1187.853826
_symmetry_space_group_name_H-M "C 2"
_symmetry_group_IT_number 5
_symmetry_cell_setting 'monoclinic'
loop_
_space_group_symop_operation_xyz
x,y,z
-x,y,-z
1/2+x,1/2+y,z
1/2-x,1/2+y,-z
loop_
_atom_site_type_symbol
_atom_site_label
_atom_site_fract_x
_atom_site_fract_y
_atom_site_fract_z
Si Si1 0.602856 0.457590 0.197413
Si Si2 0.209592 0.185181 0.078660
Si Si3 0.042082 0.729001 0.831702
Si Si4 0.821487 0.696693 0.620975
Si Si5 0.464926 0.046698 0.322394
Si Si6 0.420768 0.865055 0.184182
Si Si7 0.890005 0.060091 0.444907
O O1 0.595393 0.570052 0.133044
O O2 0.501669 0.358778 0.175736
O O3 0.820550 0.436731 0.134698
O O4 0.506766 0.473195 0.338037
O O5 0.290125 0.225552 0.154055
O O6 0.072431 0.281081 0.088136
O O7 0.365081 0.168968 0.941964
O O8 0.096922 0.658853 0.715456
O O9 0.753197 0.797267 0.712730
O O10 0.659087 0.668299 0.604271
O O11 0.000000 0.739250 0.500000
O O12 0.866535 0.583729 0.669359
O O13 0.299001 0.004703 0.450685
O O14 0.516054 0.945550 0.230687
O O15 0.000000 0.101961 0.500000
#
# Coordination Sequence:
#
# PCOD8051273 Si02
#       7
#     4   4   4   4   4   4   4
#     4  12  25  47  74 100 145 187 235 297 358 425
#     4  11  27  47  70 108 134 191 245 292 361 423
#     4  11  26  48  72 101 148 184 238 304 352 418
#     4  10  24  43  64 102 148 182 239 286 350 427
#     4  11  24  43  68 103 141 184 232 292 353 420
#     4  12  24  42  73  98 138 186 237 288 353 421
#     4  11  22  43  72 102 142 190 230 290 357 424
#
# _framework density 23.571923000000002
#
# number of rings (size 3 to 8) (size 9 to 14) (size 15 to 20)
#    0.000    0.857    5.714    0.000    6.000    0.571 
#    0.000    2.143    0.000    0.000    0.000    0.000 
#    0.000    0.000    0.000    0.000    0.000    0.000 
#
# Total GULP energy -173633.806505 kJ/mol
# GULP energy per Si atom -12402.414750 kJ/mol
# Density = 2.351827 g / cm^3
# Si number density = 23.571923 Si / 1000 Ang^3
#
#
#
# Elastic Constant Matrix: (Units=GPa)
#
#
# Indices 1 2 3 4 5 6 
#
# 1 84.4107 20.3621 7.3963 0.0000 0.3935 0.0000
# 2 20.3621 98.0361 20.4387 0.0000 -9.3067 0.0000
# 3 7.3963 20.4387 55.5585 0.0000 -5.8432 0.0000
# 4 0.0000 0.0000 0.0000 25.6242 0.0000 -3.5148
# 5 0.3935 -9.3067 -5.8432 0.0000 29.4888 0.0000
# 6 0.0000 0.0000 0.0000 -3.5148 0.0000 36.2968
#
#
#
# Elastic Compliance Matrix: (Units=1/GPa)
#
#
# Indices 1 2 3 4 5 6 
#
# 1 0.012538 -0.002534 -0.000857 0.000000 -0.001137 0.000000
# 2 -0.002534 0.011780 -0.003679 0.000000 0.003023 0.000000
# 3 -0.000857 -0.003679 0.019757 0.000000 0.002765 0.000000
# 4 0.000000 0.000000 0.000000 0.039551 0.000000 0.003830
# 5 -0.001137 0.003023 0.002765 0.000000 0.035428 0.000000
# 6 0.000000 0.000000 0.000000 0.003830 0.000000 0.027922
#
#
# Mechanical properties :
#
#
# Convention : Reuss Voigt Hill
#
# Bulk Modulus (GPa) = 33.40190 37.15549 35.27870
# Shear Modulus (GPa) = 29.22375 30.93584 30.07980
#
# Velocity S-wave (km/s) = 3.52486 3.62664 3.57611
# Velocity P-wave (km/s) = 5.54681 5.77352 5.66130
#
# Compressibility (1/GPa) = 0.02993842
#
# Stress axis : x y z
#
# Youngs Moduli (GPa) = 79.75525 84.88674 50.61444
#
# Poissons Ratio (x) = 0.21506 0.04336
# Poissons Ratio (y) = 0.20206 0.18619
# Poissons Ratio (z) = 0.06833 0.31226
#
# Static dielectric constant tensor:
#      x y z
#    x 4.233840 0.000000 0.022780 
#    y 0.000000 4.016620 0.000000 
#    z 0.022780 0.000000 4.274070 
# 
# 
# High freq. dielectric constant tensor:
#      x y z
#    x 1.934290 0.000000 -0.001500 
#    y 0.000000 1.922140 0.000000 
#    z -0.001500 0.000000 1.936250 
# 
# From -- ./inp_files/50407.got.cif
#   From: 2010.03.12/outbox.cif.g09.slc.cpg/sg5_26_cif.got.tgz:50407.got - 2010.03.31 09:47:26.
