data_PCOD8051802
_publ_section_title
;
Structure prediction by ZEFSAII (Michael W. Deem and Ramdas Pophale) SiO2 
 PCOD8051802
Probable space group: C 2
;
_chemical_formula_sum "Si O2"
_cell_formula_units_Z 32
_cell_length_a 22.956163
_cell_length_b 14.899151
_cell_length_c 8.591641
_cell_angle_alpha 90.000000
_cell_angle_beta 149.714020
_cell_angle_gamma 90.000000
_cell_volume 1481.971948
_symmetry_space_group_name_H-M "C 2"
_symmetry_group_IT_number 5
_symmetry_cell_setting 'monoclinic'
loop_
_space_group_symop_operation_xyz
x,y,z
-x,y,-z
1/2+x,1/2+y,z
1/2-x,1/2+y,-z
loop_
_atom_site_type_symbol
_atom_site_label
_atom_site_fract_x
_atom_site_fract_y
_atom_site_fract_z
Si Si1 0.289940 0.432680 0.892517
Si Si2 0.602115 0.053502 0.347837
Si Si3 0.710952 0.552332 0.798903
Si Si4 0.204307 0.172930 0.325919
Si Si5 0.797271 0.239437 0.330630
Si Si6 0.968971 0.009255 0.092309
Si Si7 0.033957 0.291497 0.760345
Si Si8 0.058075 0.487882 0.792813
O O1 0.187108 0.467760 0.546047
O O2 0.269584 0.328440 0.885942
O O3 0.286865 0.499842 0.033359
O O4 0.411054 0.440241 0.080286
O O5 0.672059 0.142013 0.459989
O O6 0.528738 0.064081 0.338596
O O7 0.500000 0.025758 0.000000
O O8 0.738469 0.659104 0.871109
O O9 0.585287 0.544931 0.436522
O O10 0.808493 0.515672 0.906906
O O11 0.231303 0.218167 0.554836
O O12 0.117929 0.089832 0.148566
O O13 0.151437 0.238797 0.073926
O O14 0.933820 0.251787 0.636514
O O15 0.000000 0.960726 0.000000
O O16 0.054544 0.392167 0.870320
O O17 0.000000 0.279745 0.500000
O O18 0.000000 0.462191 0.500000
#
# Coordination Sequence:
#
# PCOD8051802 Si02
#       8
#     4   4   4   4   4   4   4   4
#     4  11  26  45  72 108 139 191 240 294 363 421
#     4  11  24  42  66  98 140 185 233 289 356 420
#     4  12  24  46  73 100 150 182 236 298 349 435
#     4  11  24  43  68 107 139 184 242 293 353 420
#     4  12  24  45  71 104 143 184 243 294 354 428
#     4  11  23  44  71 106 141 184 235 291 366 414
#     4  11  23  38  70 109 139 178 243 299 347 424
#     4  11  23  44  65 105 142 185 235 289 357 415
#
# _framework density 21.592849999999999
#
# number of rings (size 3 to 8) (size 9 to 14) (size 15 to 20)
#    0.000    0.750    5.000    2.250    7.000    0.000 
#    0.000    5.625    0.000    0.000    0.000    0.000 
#    0.000    0.000    0.000    0.000    0.000    0.000 
#
# Total GULP energy -198258.032939 kJ/mol
# GULP energy per Si atom -12391.127059 kJ/mol
# Density = 2.154370 g / cm^3
# Si number density = 21.592850 Si / 1000 Ang^3
#
#
#
# Elastic Constant Matrix: (Units=GPa)
#
#
# Indices 1 2 3 4 5 6 
#
# 1 151.9155 69.7874 46.0060 0.0000 19.5856 0.0000
# 2 69.7874 144.8553 51.8166 0.0000 -4.4611 0.0000
# 3 46.0060 51.8166 87.7770 0.0000 7.0118 0.0000
# 4 0.0000 0.0000 0.0000 31.6306 0.0000 2.1354
# 5 19.5856 -4.4611 7.0118 0.0000 39.3240 0.0000
# 6 0.0000 0.0000 0.0000 2.1354 0.0000 36.3024
#
#
#
# Elastic Compliance Matrix: (Units=1/GPa)
#
#
# Indices 1 2 3 4 5 6 
#
# 1 0.009774 -0.004015 -0.002361 0.000000 -0.004903 0.000000
# 2 -0.004015 0.010550 -0.004442 0.000000 0.003989 0.000000
# 3 -0.002361 -0.004442 0.015418 0.000000 -0.002077 0.000000
# 4 0.000000 0.000000 0.000000 0.031741 0.000000 -0.001867
# 5 -0.004903 0.003989 -0.002077 0.000000 0.028694 0.000000
# 6 0.000000 0.000000 0.000000 -0.001867 0.000000 0.027656
#
#
# Mechanical properties :
#
#
# Convention : Reuss Voigt Hill
#
# Bulk Modulus (GPa) = 70.89336 79.97419 75.43377
# Shear Modulus (GPa) = 33.29526 35.91393 34.60460
#
# Velocity S-wave (km/s) = 3.93104 4.08270 4.00759
# Velocity P-wave (km/s) = 7.31486 7.70340 7.51164
#
# Compressibility (1/GPa) = 0.01410569
#
# Stress axis : x y z
#
# Youngs Moduli (GPa) = 102.30923 94.78958 64.85981
#
# Poissons Ratio (x) = 0.38062 0.15313
# Poissons Ratio (y) = 0.41082 0.28809
# Poissons Ratio (z) = 0.24154 0.42103
#
# Static dielectric constant tensor:
#      x y z
#    x 4.039230 0.000000 0.153880 
#    y 0.000000 3.863640 0.000000 
#    z 0.153880 0.000000 3.922250 
# 
# 
# High freq. dielectric constant tensor:
#      x y z
#    x 1.861020 0.000000 0.007490 
#    y 0.000000 1.831960 0.000000 
#    z 0.007490 0.000000 1.846620 
# 
# From -- ./inp_files/31091.got.cif
#   From: 2010.03.12/outbox.cif.g09.slc.cpg/sg5_16_cif.got.tgz:31091.got - 2010.03.31 09:47:26.
