data_PCOD8051260
_publ_section_title
;
Structure prediction by ZEFSAII (Michael W. Deem and Ramdas Pophale) SiO2 
 PCOD8051260
Probable space group: C 2
;
_chemical_formula_sum "Si O2"
_cell_formula_units_Z 26
_cell_length_a 13.339066
_cell_length_b 6.924496
_cell_length_c 14.227730
_cell_angle_alpha 90.000000
_cell_angle_beta 75.030968
_cell_angle_gamma 90.000000
_cell_volume 1269.567545
_symmetry_space_group_name_H-M "C 2"
_symmetry_group_IT_number 5
_symmetry_cell_setting 'monoclinic'
loop_
_space_group_symop_operation_xyz
x,y,z
-x,y,-z
1/2+x,1/2+y,z
1/2-x,1/2+y,-z
loop_
_atom_site_type_symbol
_atom_site_label
_atom_site_fract_x
_atom_site_fract_y
_atom_site_fract_z
Si Si1 0.454476 0.377100 0.719851
Si Si2 0.346468 0.206634 0.270625
Si Si3 0.000000 0.378550 0.000000
Si Si4 0.339452 0.209983 0.062758
Si Si5 0.650778 0.513715 0.586562
Si Si6 0.880546 0.064031 0.924587
Si Si7 0.779476 0.867160 0.624035
O O1 0.527187 0.206549 0.745610
O O2 0.528132 0.523736 0.642242
O O3 0.398181 0.497696 0.814279
O O4 0.367352 0.284759 0.673180
O O5 0.319719 0.286744 0.173225
O O6 0.296259 0.348338 0.360982
O O7 0.297987 0.998025 0.296655
O O8 0.091697 0.516945 0.942304
O O9 0.961566 0.235701 0.926681
O O10 0.234057 0.151769 0.035698
O O11 0.394805 0.380819 0.990857
O O12 0.708358 0.708326 0.595673
O O13 0.662155 0.476553 0.473663
#
# Coordination Sequence:
#
# PCOD8051260 Si02
#       7
#     4   4   2   4   4   4   4
#     4  10  24  43  65  98 132 169 221 269 324 401
#     4  10  24  43  65  98 130 170 222 267 330 395
#     4  12  26  44  72  90 140 180 220 286 334 390
#     4  12  25  46  68  99 137 177 228 279 336 405
#     4  10  24  42  68  97 130 172 219 269 329 397
#     4  12  25  45  69 100 136 180 227 279 338 397
#     4  12  21  46  68  93 138 170 215 281 329 385
#
# _framework density 20.479416000000001
#
# number of rings (size 3 to 8) (size 9 to 14) (size 15 to 20)
#    0.923    0.000    4.615    2.769    2.154    1.231 
#    5.538    0.000    0.000    0.000    0.000    0.000 
#    0.000    0.000    0.000    0.000    0.000    0.000 
#
# Total GULP energy -161140.081532 kJ/mol
# GULP energy per Si atom -12395.390887 kJ/mol
# Density = 2.043280 g / cm^3
# Si number density = 20.479416 Si / 1000 Ang^3
#
#
#
# Elastic Constant Matrix: (Units=GPa)
#
#
# Indices 1 2 3 4 5 6 
#
# 1 91.7155 30.4116 20.3051 0.0000 1.8778 0.0000
# 2 30.4116 70.5061 18.7728 0.0000 1.7811 0.0000
# 3 20.3051 18.7728 78.3693 0.0000 10.6432 0.0000
# 4 0.0000 0.0000 0.0000 21.0813 0.0000 -0.0978
# 5 1.8778 1.7811 10.6432 0.0000 28.2513 0.0000
# 6 0.0000 0.0000 0.0000 -0.0978 0.0000 41.5176
#
#
#
# Elastic Compliance Matrix: (Units=1/GPa)
#
#
# Indices 1 2 3 4 5 6 
#
# 1 0.013063 -0.005052 -0.002213 0.000000 0.000284 0.000000
# 2 -0.005052 0.017109 -0.002833 0.000000 0.000325 0.000000
# 3 -0.002213 -0.002833 0.014721 0.000000 -0.005220 0.000000
# 4 0.000000 0.000000 0.000000 0.047436 0.000000 0.000112
# 5 0.000284 0.000325 -0.005220 0.000000 0.037324 0.000000
# 6 0.000000 0.000000 0.000000 0.000112 0.000000 0.024086
#
#
# Mechanical properties :
#
#
# Convention : Reuss Voigt Hill
#
# Bulk Modulus (GPa) = 40.49322 42.17443 41.33382
# Shear Modulus (GPa) = 27.44730 29.57680 28.51205
#
# Velocity S-wave (km/s) = 3.66490 3.80441 3.73531
# Velocity P-wave (km/s) = 6.14200 6.31952 6.23139
#
# Compressibility (1/GPa) = 0.02469549
#
# Stress axis : x y z
#
# Youngs Moduli (GPa) = 76.55408 58.45011 67.92992
#
# Poissons Ratio (x) = 0.29531 0.15031
# Poissons Ratio (y) = 0.38678 0.19246
# Poissons Ratio (z) = 0.16940 0.16560
#
# Static dielectric constant tensor:
#      x y z
#    x 3.743990 0.000000 -0.235300 
#    y 0.000000 3.569290 0.000000 
#    z -0.235300 0.000000 5.888580 
# 
# 
# High freq. dielectric constant tensor:
#      x y z
#    x 1.806350 0.000000 0.003920 
#    y 0.000000 1.779370 0.000000 
#    z 0.003920 0.000000 1.812100 
# 
# From -- ./inp_files/53803.got.cif
#   From: 2010.03.12/outbox.cif.g09.slc.cpg/sg5_27_cif.got.tgz:53803.got - 2010.03.31 09:47:26.
