data_PCOD8051451
_publ_section_title
;
Structure prediction by ZEFSAII (Michael W. Deem and Ramdas Pophale) SiO2 
 PCOD8051451
Probable space group: C 2
;
_chemical_formula_sum "Si O2"
_cell_formula_units_Z 18
_cell_length_a 16.399644
_cell_length_b 11.258368
_cell_length_c 14.067537
_cell_angle_alpha 90.000000
_cell_angle_beta 163.108117
_cell_angle_gamma 90.000000
_cell_volume 754.698834
_symmetry_space_group_name_H-M "C 2"
_symmetry_group_IT_number 5
_symmetry_cell_setting 'monoclinic'
loop_
_space_group_symop_operation_xyz
x,y,z
-x,y,-z
1/2+x,1/2+y,z
1/2-x,1/2+y,-z
loop_
_atom_site_type_symbol
_atom_site_label
_atom_site_fract_x
_atom_site_fract_y
_atom_site_fract_z
Si Si1 0.270397 0.310320 0.173981
Si Si2 0.681099 0.983320 0.612972
Si Si3 0.754718 0.226234 0.355011
Si Si4 0.500000 0.536714 0.500000
Si Si5 0.163307 0.706318 0.470580
O O1 0.500000 0.245397 0.500000
O O2 0.250322 0.449492 0.183491
O O3 0.404838 0.288996 0.219017
O O4 0.961840 0.256774 0.840214
O O5 0.500000 0.023424 0.500000
O O6 0.623968 0.072418 0.462701
O O7 0.584101 0.852587 0.468278
O O8 0.000000 0.985228 0.000000
O O9 0.941431 0.117120 0.526872
O O10 0.643977 0.201027 0.336287
O O11 0.500000 0.235874 0.000000
#
# Coordination Sequence:
#
# PCOD8051451 Si02
#       5
#     4   4   4   2   4
#     4  10  25  44  76 101 140 181 243 296 346 414
#     4  11  24  46  70 102 147 183 232 297 357 421
#     4  11  28  47  69 107 150 194 234 295 363 430
#     4  10  26  48  72  98 154 188 238 300 354 426
#     4  12  25  45  75 107 136 191 247 285 358 422
#
# _framework density 23.850574999999999
#
# number of rings (size 3 to 8) (size 9 to 14) (size 15 to 20)
#    0.667    0.444    1.111    4.000    9.333    0.000 
#    0.000    0.000    0.000    0.000    0.000    0.000 
#    0.000    0.000    0.000    0.000    0.000    0.000 
#
# Total GULP energy -111567.041502 kJ/mol
# GULP energy per Si atom -12396.337945 kJ/mol
# Density = 2.379629 g / cm^3
# Si number density = 23.850575 Si / 1000 Ang^3
#
#
#
# Elastic Constant Matrix: (Units=GPa)
#
#
# Indices 1 2 3 4 5 6 
#
# 1 166.1348 75.2306 6.6671 0.0133 -14.4378 0.0032
# 2 75.2306 188.3216 28.5326 0.0111 -7.3296 0.0342
# 3 6.6671 28.5326 55.5688 -0.0067 9.5288 0.0039
# 4 0.0133 0.0111 -0.0067 19.4554 0.0187 7.1090
# 5 -14.4378 -7.3296 9.5288 0.0187 45.4715 0.0341
# 6 0.0032 0.0342 0.0039 7.1090 0.0341 41.2920
#
#
#
# Elastic Compliance Matrix: (Units=1/GPa)
#
#
# Indices 1 2 3 4 5 6 
#
# 1 0.007515 -0.002978 0.000312 -0.000006 0.001841 0.000001
# 2 -0.002978 0.007053 -0.003420 -0.000002 0.000908 -0.000006
# 3 0.000312 -0.003420 0.020530 0.000012 -0.004754 0.000003
# 4 -0.000006 -0.000002 0.000012 0.054850 -0.000020 -0.009443
# 5 0.001841 0.000908 -0.004754 -0.000020 0.023719 -0.000017
# 6 0.000001 -0.000006 0.000003 -0.009443 -0.000017 0.025844
#
#
# Mechanical properties :
#
#
# Convention : Reuss Voigt Hill
#
# Bulk Modulus (GPa) = 43.61916 70.09842 56.85879
# Shear Modulus (GPa) = 31.38248 41.21676 36.29962
#
# Velocity S-wave (km/s) = 3.63132 4.16158 3.90546
# Velocity P-wave (km/s) = 5.99252 7.24887 6.65043
#
# Compressibility (1/GPa) = 0.02292571
#
# Stress axis : x y z
#
# Youngs Moduli (GPa) = 133.06619 141.78180 48.71011
#
# Poissons Ratio (x) = 0.42218 -0.01518
# Poissons Ratio (y) = 0.39623 0.16659
# Poissons Ratio (z) = -0.04147 0.48489
#
# Static dielectric constant tensor:
#      x y z
#    x 4.431180 -0.000090 0.087040 
#    y -0.000090 4.897890 -0.000290 
#    z 0.087040 -0.000290 3.985600 
# 
# 
# High freq. dielectric constant tensor:
#      x y z
#    x 1.955760 -0.000010 0.003140 
#    y -0.000010 1.962430 -0.000010 
#    z 0.003140 -0.000010 1.924870 
# 
# From -- ./inp_files/55872.got.cif
#   From: 2010.03.12/outbox.cif.g09.slc.cpg/sg5_28_cif.got.tgz:55872.got - 2010.03.31 09:47:26.
