data_PCOD8051276
_publ_section_title
;
Structure prediction by ZEFSAII (Michael W. Deem and Ramdas Pophale) SiO2 
 PCOD8051276
Probable space group: C 2
;
_chemical_formula_sum "Si O2"
_cell_formula_units_Z 22
_cell_length_a 14.377706
_cell_length_b 13.389305
_cell_length_c 10.171531
_cell_angle_alpha 90.000000
_cell_angle_beta 32.324991
_cell_angle_gamma 90.000000
_cell_volume 1047.034966
_symmetry_space_group_name_H-M "C 2"
_symmetry_group_IT_number 5
_symmetry_cell_setting 'monoclinic'
loop_
_space_group_symop_operation_xyz
x,y,z
-x,y,-z
1/2+x,1/2+y,z
1/2-x,1/2+y,-z
loop_
_atom_site_type_symbol
_atom_site_label
_atom_site_fract_x
_atom_site_fract_y
_atom_site_fract_z
Si Si1 0.299745 0.926770 0.437155
Si Si2 0.181416 0.117906 0.706267
Si Si3 0.276995 0.205960 0.104131
Si Si4 0.551855 0.283910 0.580167
Si Si5 0.919324 0.239966 0.415324
Si Si6 0.500000 0.055561 0.000000
O O1 0.143427 0.863166 0.564423
O O2 0.446743 0.849015 0.315707
O O3 0.236643 0.001669 0.628933
O O4 0.367583 0.986632 0.233304
O O5 0.332096 0.185182 0.593254
O O6 0.169012 0.160145 0.574109
O O7 0.000000 0.129601 0.000000
O O8 0.221199 0.266081 0.302041
O O9 0.092244 0.182559 0.255768
O O10 0.380226 0.263426 0.869274
O O11 0.392800 0.113969 0.015714
O O12 0.500000 0.329398 0.500000
#
# Coordination Sequence:
#
# PCOD8051276 Si02
#       6
#     4   4   4   4   4   2
#     4  11  25  41  67  97 127 167 219 261 320 375
#     4  11  23  43  66  94 134 167 213 263 322 374
#     4  11  22  46  66  87 134 171 214 256 325 376
#     4  11  25  43  65  95 130 174 208 267 319 378
#     4  10  24  43  65  97 129 174 205 270 316 380
#     4  12  22  44  70  92 124 170 220 266 310 386
#
# _framework density 21.011716
#
# number of rings (size 3 to 8) (size 9 to 14) (size 15 to 20)
#    0.000    1.091    3.636    2.182   10.182    1.455 
#    3.273    0.000    0.000    0.000    0.000    0.000 
#    0.000    0.000    0.000    0.000    0.000    0.000 
#
# Total GULP energy -136287.141803 kJ/mol
# GULP energy per Si atom -12389.740164 kJ/mol
# Density = 2.096389 g / cm^3
# Si number density = 21.011716 Si / 1000 Ang^3
#
#
#
# Elastic Constant Matrix: (Units=GPa)
#
#
# Indices 1 2 3 4 5 6 
#
# 1 83.8375 11.7831 11.3406 -0.0002 -1.0577 0.0005
# 2 11.7831 83.2320 8.7417 -0.0002 -9.0643 0.0005
# 3 11.3406 8.7417 117.6516 -0.0004 11.3859 0.0007
# 4 -0.0002 -0.0002 -0.0004 24.8344 0.0003 11.7294
# 5 -1.0577 -9.0643 11.3859 0.0003 34.1180 -0.0011
# 6 0.0005 0.0005 0.0007 11.7294 -0.0011 -50.4416
#
#
#
# Elastic Compliance Matrix: (Units=1/GPa)
#
#
# Indices 1 2 3 4 5 6 
#
# 1 0.012304 -0.001591 -0.001099 0.000000 0.000326 0.000000
# 2 -0.001591 0.012767 -0.001156 0.000000 0.003728 0.000000
# 3 -0.001099 -0.001156 0.009016 0.000000 -0.003350 0.000000
# 4 0.000000 0.000000 0.000000 0.036282 0.000000 0.008437
# 5 0.000326 0.003728 -0.003350 0.000000 0.031429 -0.000001
# 6 0.000000 0.000000 0.000000 0.008437 -0.000001 -0.017863
#
#
# Mechanical properties :
#
#
# Convention : Reuss Voigt Hill
#
# Bulk Modulus (GPa) = 37.88670 38.71688 38.30179
# Shear Modulus (GPa) = 49.78802 18.55923 34.17362
#
# Velocity S-wave (km/s) = 4.87307 2.97523 4.03725
# Velocity P-wave (km/s) = 7.05215 5.50172 6.32462
#
# Compressibility (1/GPa) = 0.02639448
#
# Stress axis : x y z
#
# Youngs Moduli (GPa) = 81.27267 78.32501 110.91718
#
# Poissons Ratio (x) = 0.12461 0.12193
# Poissons Ratio (y) = 0.12930 0.12823
# Poissons Ratio (z) = 0.08934 0.09055
#
# Static dielectric constant tensor:
#      x y z
#    x 4.149430 0.000000 0.068000 
#    y 0.000000 3.825670 0.000000 
#    z 0.068000 0.000000 3.906470 
# 
# 
# High freq. dielectric constant tensor:
#      x y z
#    x 1.831070 0.000000 0.006880 
#    y 0.000000 1.805900 0.000000 
#    z 0.006880 0.000000 1.838850 
# 
# From -- ./inp_files/42646.got.cif
#   From: 2010.03.12/outbox.cif.g09.slc.cpg/sg5_22_cif.got.tgz:42646.got - 2010.03.31 09:47:26.
