data_PCOD8051181
_publ_section_title
;
Structure prediction by ZEFSAII (Michael W. Deem and Ramdas Pophale) SiO2 
 PCOD8051181
Probable space group: C 2
;
_chemical_formula_sum "Si O2"
_cell_formula_units_Z 22
_cell_length_a 19.707787
_cell_length_b 5.127686
_cell_length_c 8.515292
_cell_angle_alpha 90.000000
_cell_angle_beta 76.517363
_cell_angle_gamma 90.000000
_cell_volume 836.800477
_symmetry_space_group_name_H-M "C 2"
_symmetry_group_IT_number 5
_symmetry_cell_setting 'monoclinic'
loop_
_space_group_symop_operation_xyz
x,y,z
-x,y,-z
1/2+x,1/2+y,z
1/2-x,1/2+y,-z
loop_
_atom_site_type_symbol
_atom_site_label
_atom_site_fract_x
_atom_site_fract_y
_atom_site_fract_z
Si Si1 0.794522 0.933480 0.953999
Si Si2 0.000000 0.727953 0.500000
Si Si3 0.295158 0.894784 0.446960
Si Si4 0.386914 0.774756 0.114806
Si Si5 0.880686 0.058427 0.626157
Si Si6 0.024273 0.353337 0.206083
O O1 0.818090 0.926586 0.758068
O O2 0.768831 0.643127 0.007208
O O3 0.852946 0.019291 0.050295
O O4 0.073192 0.869583 0.506682
O O5 0.009387 0.580359 0.333263
O O6 0.267454 0.180128 0.511685
O O7 0.327789 0.911711 0.254189
O O8 0.353781 0.803964 0.539626
O O9 0.454296 0.708558 0.183712
O O10 0.421317 0.957041 0.958637
O O11 0.937781 0.126537 0.723677
#
# Coordination Sequence:
#
# PCOD8051181 Si02
#       6
#     4   2   4   4   4   4
#     4  11  25  47  75 107 148 193 240 296 364 433
#     4  12  24  44  76 102 142 198 236 308 366 426
#     4  12  27  46  75 110 149 193 240 296 362 437
#     4  10  23  47  72 107 147 183 250 294 364 425
#     4  11  26  45  72 105 147 189 247 296 370 429
#     4  10  24  47  74 103 144 188 243 309 362 425
#
# _framework density 26.290616
#
# number of rings (size 3 to 8) (size 9 to 14) (size 15 to 20)
#    0.000    1.091    0.000    4.909   10.182    0.000 
#    6.545    1.818    0.000    0.000    0.000    0.000 
#    0.000    0.000    0.000    0.000    0.000    0.000 
#
# Total GULP energy -136273.990194 kJ/mol
# GULP energy per Si atom -12388.544563 kJ/mol
# Density = 2.623078 g / cm^3
# Si number density = 26.290616 Si / 1000 Ang^3
#
#
#
# Elastic Constant Matrix: (Units=GPa)
#
#
# Indices 1 2 3 4 5 6 
#
# 1 130.9163 -4.8894 32.2473 0.0000 -6.3757 0.0000
# 2 -4.8894 24.8902 23.6221 0.0000 -12.6025 0.0000
# 3 32.2473 23.6221 180.4222 0.0000 -37.7645 0.0000
# 4 0.0000 0.0000 0.0000 -116.0878 0.0000 120.4371
# 5 -6.3757 -12.6025 -37.7645 0.0000 56.4939 0.0000
# 6 0.0000 0.0000 0.0000 120.4371 0.0000 -117.2311
#
#
#
# Elastic Compliance Matrix: (Units=1/GPa)
#
#
# Indices 1 2 3 4 5 6 
#
# 1 0.008253 0.003628 -0.001844 0.000000 0.000508 0.000000
# 2 0.003628 0.050161 -0.005567 0.000000 0.007878 0.000000
# 3 -0.001844 -0.005567 0.007322 0.000000 0.003445 0.000000
# 4 0.000000 0.000000 0.000000 0.130840 0.000000 0.134418
# 5 0.000508 0.007878 0.003445 0.000000 0.021818 0.000000
# 6 0.000000 0.000000 0.000000 0.134418 0.000000 0.129564
#
#
# Mechanical properties :
#
#
# Convention : Reuss Voigt Hill
#
# Bulk Modulus (GPa) = 17.19060 48.68765 32.93912
# Shear Modulus (GPa) = 13.33639 -16.34843 -1.50602
#
# Velocity S-wave (km/s) = 2.25470 -2.49637 -0.75768
# Velocity P-wave (km/s) = 3.65118 3.20158 3.43375
#
# Compressibility (1/GPa) = 0.05817134
#
# Stress axis : x y z
#
# Youngs Moduli (GPa) = 121.16995 19.93568 136.57579
#
# Poissons Ratio (x) = -0.07233 0.25181
# Poissons Ratio (y) = -0.43964 0.76032
# Poissons Ratio (z) = 0.22340 0.11098
#
# Static dielectric constant tensor:
#      x y z
#    x 6.786770 0.000000 -1.190450 
#    y 0.000000 4.128880 0.000000 
#    z -1.190450 0.000000 6.020260 
# 
# 
# High freq. dielectric constant tensor:
#      x y z
#    x 2.084710 0.000000 -0.008630 
#    y 0.000000 2.010840 0.000000 
#    z -0.008630 0.000000 2.084980 
# 
# From -- ./inp_files/28294.got.cif
#   From: 2010.03.12/outbox.cif.g09.slc.cpg/sg5_15_cif.got.tgz:28294.got - 2010.03.31 09:47:26.
