data_PCOD8051207
_publ_section_title
;
Structure prediction by ZEFSAII (Michael W. Deem and Ramdas Pophale) SiO2 
 PCOD8051207
Probable space group: C 2
;
_chemical_formula_sum "Si O2"
_cell_formula_units_Z 14
_cell_length_a 8.995229
_cell_length_b 11.315414
_cell_length_c 5.666907
_cell_angle_alpha 90.000000
_cell_angle_beta 73.053780
_cell_angle_gamma 90.000000
_cell_volume 551.759086
_symmetry_space_group_name_H-M "C 2"
_symmetry_group_IT_number 5
_symmetry_cell_setting 'monoclinic'
loop_
_space_group_symop_operation_xyz
x,y,z
-x,y,-z
1/2+x,1/2+y,z
1/2-x,1/2+y,-z
loop_
_atom_site_type_symbol
_atom_site_label
_atom_site_fract_x
_atom_site_fract_y
_atom_site_fract_z
Si Si1 0.875644 0.274500 0.739424
Si Si2 0.353312 0.413523 0.422010
Si Si3 0.000000 0.092803 0.000000
Si Si4 0.457210 0.015641 0.266221
O O1 0.710099 0.296852 0.686891
O O2 0.000000 0.219799 0.500000
O O3 0.865707 0.177465 0.949749
O O4 0.932002 0.401278 0.803405
O O5 0.500000 0.366886 0.500000
O O6 0.222482 0.472764 0.650923
O O7 0.405656 0.514832 0.222961
O O8 0.500000 0.079204 0.500000
O O9 0.500000 0.086029 0.000000
#
# Coordination Sequence:
#
# PCOD8051207 Si02
#       4
#     4   4   2   4
#     4   9  21  42  68  96 145 191 225 291 362 425
#     4  10  24  38  71 112 135 182 246 293 355 430
#     4  12  22  40  74 112 130 186 244 294 352 434
#     4   9  19  39  69  95 137 197 226 279 370 423
#
# _framework density 25.373393
#
# number of rings (size 3 to 8) (size 9 to 14) (size 15 to 20)
#    0.000    2.857    1.429    0.857    8.000    0.000 
#    0.000    0.000    0.000  142.286    0.000    0.000 
#    0.000    0.000    0.000    0.000    0.000    0.000 
#
# Total GULP energy -86719.512983 kJ/mol
# GULP energy per Si atom -12388.501855 kJ/mol
# Density = 2.531564 g / cm^3
# Si number density = 25.373393 Si / 1000 Ang^3
#
#
#
# Elastic Constant Matrix: (Units=GPa)
#
#
# Indices 1 2 3 4 5 6 
#
# 1 211.8510 39.1355 64.0061 0.0000 30.0513 0.0000
# 2 39.1355 58.8082 40.7539 0.0000 17.1500 0.0000
# 3 64.0061 40.7539 173.3807 0.0000 26.0884 0.0000
# 4 0.0000 0.0000 0.0000 -4.6081 0.0000 -0.9850
# 5 30.0513 17.1500 26.0884 0.0000 36.0389 0.0000
# 6 0.0000 0.0000 0.0000 -0.9850 0.0000 24.9597
#
#
#
# Elastic Compliance Matrix: (Units=1/GPa)
#
#
# Indices 1 2 3 4 5 6 
#
# 1 0.005924 -0.002227 -0.001212 0.000000 -0.003003 0.000000
# 2 -0.002227 0.022840 -0.003581 0.000000 -0.006420 0.000000
# 3 -0.001212 -0.003581 0.007461 0.000000 -0.002687 0.000000
# 4 0.000000 0.000000 0.000000 -0.215195 0.000000 -0.008493
# 5 -0.003003 -0.006420 -0.002687 0.000000 0.035252 0.000000
# 6 0.000000 0.000000 0.000000 -0.008493 0.000000 0.039729
#
#
# Mechanical properties :
#
#
# Convention : Reuss Voigt Hill
#
# Bulk Modulus (GPa) = 45.07219 81.31456 63.19337
# Shear Modulus (GPa) = -60.56450 31.28772 -14.63839
#
# Velocity S-wave (km/s) = -4.89092 3.51535 -2.40452
# Velocity P-wave (km/s) = 3.75402 6.97092 4.15337
#
# Compressibility (1/GPa) = 0.02218663
#
# Stress axis : x y z
#
# Youngs Moduli (GPa) = 168.81502 43.78304 134.03376
#
# Poissons Ratio (x) = 0.09749 0.16239
# Poissons Ratio (y) = 0.37591 0.47991
# Poissons Ratio (z) = 0.20453 0.15677
#
# Static dielectric constant tensor:
#      x y z
#    x 5.559080 0.000000 0.581540 
#    y 0.000000 4.041540 0.000000 
#    z 0.581540 0.000000 5.050570 
# 
# 
# High freq. dielectric constant tensor:
#      x y z
#    x 2.014440 0.000000 0.012910 
#    y 0.000000 1.968950 0.000000 
#    z 0.012910 0.000000 2.022210 
# 
# From -- ./inp_files/1553.got.cif
#   From: 2010.03.12/outbox.cif.g09.slc.cpg/sg5_1_cif.got.tgz:1553.got - 2010.03.31 09:47:26.
