data_PCOD8051928
_publ_section_title
;
Structure prediction by ZEFSAII (Michael W. Deem and Ramdas Pophale) SiO2 
 PCOD8051928
Probable space group: C 2
;
_chemical_formula_sum "Si O2"
_cell_formula_units_Z 30
_cell_length_a 16.006501
_cell_length_b 16.729889
_cell_length_c 12.316276
_cell_angle_alpha 90.000000
_cell_angle_beta 25.716716
_cell_angle_gamma 90.000000
_cell_volume 1431.134668
_symmetry_space_group_name_H-M "C 2"
_symmetry_group_IT_number 5
_symmetry_cell_setting 'monoclinic'
loop_
_space_group_symop_operation_xyz
x,y,z
-x,y,-z
1/2+x,1/2+y,z
1/2-x,1/2+y,-z
loop_
_atom_site_type_symbol
_atom_site_label
_atom_site_fract_x
_atom_site_fract_y
_atom_site_fract_z
Si Si1 0.136872 0.048780 0.738658
Si Si2 0.519685 0.160333 0.600473
Si Si3 0.825537 0.963409 0.768285
Si Si4 0.082051 0.824079 0.195824
Si Si5 0.530902 0.775747 0.338777
Si Si6 0.208106 0.389007 0.539980
Si Si7 0.500000 0.930883 0.000000
Si Si8 0.886600 0.110822 0.838137
O O1 0.279352 0.122940 0.594742
O O2 0.984050 0.077870 0.830890
O O3 0.274466 0.977794 0.531753
O O4 0.000000 0.023014 0.000000
O O5 0.500000 0.134721 0.500000
O O6 0.521517 0.257180 0.607605
O O7 0.338579 0.125993 0.878030
O O8 0.786539 0.892623 0.899393
O O9 0.000000 0.923250 0.500000
O O10 0.900202 0.044826 0.730095
O O11 0.651004 0.983795 0.890852
O O12 0.926820 0.861163 0.296798
O O13 0.240160 0.781710 0.938302
O O14 0.500000 0.793265 0.500000
O O15 0.404906 0.834633 0.412753
O O16 0.486975 0.685387 0.352434
O O17 0.109980 0.381897 0.775431
#
# Coordination Sequence:
#
# PCOD8051928 Si02
#       8
#     4   4   4   4   4   4   2   4
#     4  12  25  44  70 104 142 186 232 289 347 422
#     4  11  24  41  65  98 136 179 227 288 347 404
#     4  12  22  42  70  98 135 174 226 289 346 406
#     4  11  24  44  67 102 136 175 235 281 350 415
#     4  11  27  46  69 101 140 186 231 287 349 423
#     4  12  26  42  71 104 139 187 234 287 351 409
#     4  12  24  42  68 108 136 176 242 294 338 412
#     4  11  24  46  67  98 138 181 234 280 354 410
#
# _framework density 20.962388000000001
#
# number of rings (size 3 to 8) (size 9 to 14) (size 15 to 20)
#    0.000    0.533    5.333    2.400    1.867    0.533 
#    2.400    2.667    0.000    0.000    0.000    0.000 
#    0.000    0.000    0.000    0.000    0.000    0.000 
#
# Total GULP energy -185890.737556 kJ/mol
# GULP energy per Si atom -12392.715837 kJ/mol
# Density = 2.091468 g / cm^3
# Si number density = 20.962388 Si / 1000 Ang^3
#
#
#
# Elastic Constant Matrix: (Units=GPa)
#
#
# Indices 1 2 3 4 5 6 
#
# 1 157.7167 52.3056 50.3816 -0.0064 -7.3529 0.0133
# 2 52.3056 124.3908 33.1735 0.0141 -0.2071 0.0042
# 3 50.3816 33.1735 82.8295 0.0693 -0.2817 0.0001
# 4 -0.0064 0.0141 0.0693 18.4818 -0.0226 -13.3335
# 5 -7.3529 -0.2071 -0.2817 -0.0226 41.0481 -0.0017
# 6 0.0133 0.0042 0.0001 -13.3335 -0.0017 17.5890
#
#
#
# Elastic Compliance Matrix: (Units=1/GPa)
#
#
# Indices 1 2 3 4 5 6 
#
# 1 0.008581 -0.002480 -0.004221 0.000041 0.001496 0.000025
# 2 -0.002480 0.009717 -0.002385 0.000000 -0.000412 -0.000001
# 3 -0.004221 -0.002385 0.015594 -0.000124 -0.000661 -0.000091
# 4 0.000041 0.000000 -0.000124 0.119416 0.000076 0.090524
# 5 0.001496 -0.000412 -0.000661 0.000076 0.024623 0.000059
# 6 0.000025 -0.000001 -0.000091 0.090524 0.000059 0.125476
#
#
# Mechanical properties :
#
#
# Convention : Reuss Voigt Hill
#
# Bulk Modulus (GPa) = 63.61320 70.73983 67.17651
# Shear Modulus (GPa) = 15.29899 30.69553 22.99726
#
# Velocity S-wave (km/s) = 2.70447 3.83079 3.31580
# Velocity P-wave (km/s) = 6.33754 7.30657 6.83924
#
# Compressibility (1/GPa) = 0.01572001
#
# Stress axis : x y z
#
# Youngs Moduli (GPa) = 116.53437 102.90893 64.12925
#
# Poissons Ratio (x) = 0.25522 0.27070
# Poissons Ratio (y) = 0.28902 0.15293
# Poissons Ratio (z) = 0.49192 0.24541
#
# Static dielectric constant tensor:
#      x y z
#    x 3.862880 -0.000080 -0.005650 
#    y -0.000080 3.844340 0.000060 
#    z -0.005650 0.000060 3.957460 
# 
# 
# High freq. dielectric constant tensor:
#      x y z
#    x 1.830470 0.000000 -0.005510 
#    y 0.000000 1.820670 0.000000 
#    z -0.005510 0.000000 1.832920 
# 
# From -- ./inp_files/43295.got.cif
#   From: 2010.03.12/outbox.cif.g09.slc.cpg/sg5_22_cif.got.tgz:43295.got - 2010.03.31 09:47:26.
