data_PCOD8051840
_publ_section_title
;
Structure prediction by ZEFSAII (Michael W. Deem and Ramdas Pophale) SiO2 
 PCOD8051840
Probable space group: C 2
;
_chemical_formula_sum "Si O2"
_cell_formula_units_Z 30
_cell_length_a 13.042810
_cell_length_b 13.100085
_cell_length_c 8.476406
_cell_angle_alpha 90.000000
_cell_angle_beta 116.573109
_cell_angle_gamma 90.000000
_cell_volume 1295.303327
_symmetry_space_group_name_H-M "C 2"
_symmetry_group_IT_number 5
_symmetry_cell_setting 'monoclinic'
loop_
_space_group_symop_operation_xyz
x,y,z
-x,y,-z
1/2+x,1/2+y,z
1/2-x,1/2+y,-z
loop_
_atom_site_type_symbol
_atom_site_label
_atom_site_fract_x
_atom_site_fract_y
_atom_site_fract_z
Si Si1 0.967746 0.716600 0.146019
Si Si2 0.375291 0.746331 0.490751
Si Si3 0.875080 0.243000 0.863426
Si Si4 0.245731 0.579842 0.954119
Si Si5 0.500000 0.339345 0.500000
Si Si6 0.819278 0.590798 0.640523
Si Si7 0.221975 0.927475 0.759631
Si Si8 0.634691 0.969928 0.610235
O O1 0.841656 0.666655 0.041450
O O2 0.984621 0.779902 0.321332
O O3 0.057400 0.626613 0.221916
O O4 0.000000 0.774620 0.000000
O O5 0.500000 0.725578 0.500000
O O6 0.377877 0.734496 0.678664
O O7 0.283331 0.663012 0.367420
O O8 0.323688 0.856701 0.409091
O O9 0.845584 0.134178 0.922259
O O10 0.777934 0.322153 0.858864
O O11 0.000000 0.280796 0.000000
O O12 0.173471 0.493819 0.812631
O O13 0.309794 0.510654 0.128529
O O14 0.612453 0.408527 0.571133
O O15 0.816134 0.478788 0.713987
O O16 0.812874 0.566740 0.449822
O O17 0.500000 0.972274 0.500000
#
# Coordination Sequence:
#
# PCOD8051840 Si02
#       8
#     4   4   4   4   2   4   4   4
#     4  12  25  46  82 112 153 205 267 326 390 476
#     4  11  27  45  69 108 148 200 250 315 389 470
#     4  12  28  48  73 107 154 199 250 321 391 464
#     4  12  26  49  74 115 154 203 263 324 393 473
#     4  12  28  56  76 112 164 206 260 332 400 460
#     4  12  24  44  73 108 147 197 255 315 387 461
#     4  12  29  47  78 109 155 202 256 327 390 466
#     4  11  23  42  76 108 146 204 257 319 390 473
#
# _framework density 23.160598
#
# number of rings (size 3 to 8) (size 9 to 14) (size 15 to 20)
#    0.000    0.267    6.667    1.600    8.400    1.067 
#    0.000    0.000    0.000    0.000    0.000    0.000 
#    0.000    0.000    0.000    0.000    0.000    0.000 
#
# Total GULP energy -185862.642832 kJ/mol
# GULP energy per Si atom -12390.842855 kJ/mol
# Density = 2.310788 g / cm^3
# Si number density = 23.160598 Si / 1000 Ang^3
#
#
#
# Elastic Constant Matrix: (Units=GPa)
#
#
# Indices 1 2 3 4 5 6 
#
# 1 86.0213 44.5965 20.0645 0.0000 -3.7619 0.0000
# 2 44.5965 94.9143 36.2195 0.0000 -0.9386 0.0000
# 3 20.0645 36.2195 102.0139 0.0000 -13.7423 0.0000
# 4 0.0000 0.0000 0.0000 17.0748 0.0000 -20.4361
# 5 -3.7619 -0.9386 -13.7423 0.0000 51.3318 0.0000
# 6 0.0000 0.0000 0.0000 -20.4361 0.0000 26.7430
#
#
#
# Elastic Compliance Matrix: (Units=1/GPa)
#
#
# Indices 1 2 3 4 5 6 
#
# 1 0.015433 -0.007091 -0.000397 0.000000 0.000895 0.000000
# 2 -0.007091 0.015492 -0.004292 0.000000 -0.001385 0.000000
# 3 -0.000397 -0.004292 0.011816 0.000000 0.003056 0.000000
# 4 0.000000 0.000000 0.000000 0.685763 0.000000 0.524036
# 5 0.000895 -0.001385 0.003056 0.000000 0.020339 0.000000
# 6 0.000000 0.000000 0.000000 0.524036 0.000000 0.437844
#
#
# Mechanical properties :
#
#
# Convention : Reuss Voigt Hill
#
# Bulk Modulus (GPa) = 52.13696 53.85672 52.99684
# Shear Modulus (GPa) = 4.10968 31.16785 17.63876
#
# Velocity S-wave (km/s) = 1.33352 3.67240 2.76268
# Velocity P-wave (km/s) = 4.99309 6.42542 5.75400
#
# Compressibility (1/GPa) = 0.01918025
#
# Stress axis : x y z
#
# Youngs Moduli (GPa) = 64.79618 64.55035 84.62876
#
# Poissons Ratio (x) = 0.45772 0.03362
# Poissons Ratio (y) = 0.45946 0.36325
# Poissons Ratio (z) = 0.02574 0.27707
#
# Static dielectric constant tensor:
#      x y z
#    x 10.347390 0.000000 5.321180 
#    y 0.000000 4.285150 0.000000 
#    z 5.321180 0.000000 9.531470 
# 
# 
# High freq. dielectric constant tensor:
#      x y z
#    x 1.919300 0.000000 -0.008580 
#    y 0.000000 1.913640 0.000000 
#    z -0.008580 0.000000 1.923870 
# 
# From -- ./inp_files/23974.got.cif
#   From: 2010.03.12/outbox.cif.g09.slc.cpg/sg5_12_cif.got.tgz:23974.got - 2010.03.31 09:47:26.
