data_PCOD8051919
_publ_section_title
;
Structure prediction by ZEFSAII (Michael W. Deem and Ramdas Pophale) SiO2 
 PCOD8051919
Probable space group: C 2
;
_chemical_formula_sum "Si O2"
_cell_formula_units_Z 24
_cell_length_a 20.208624
_cell_length_b 8.131814
_cell_length_c 20.432249
_cell_angle_alpha 90.000000
_cell_angle_beta 161.129454
_cell_angle_gamma 90.000000
_cell_volume 1085.980496
_symmetry_space_group_name_H-M "C 2"
_symmetry_group_IT_number 5
_symmetry_cell_setting 'monoclinic'
loop_
_space_group_symop_operation_xyz
x,y,z
-x,y,-z
1/2+x,1/2+y,z
1/2-x,1/2+y,-z
loop_
_atom_site_type_symbol
_atom_site_label
_atom_site_fract_x
_atom_site_fract_y
_atom_site_fract_z
Si Si1 0.183043 0.975630 0.251748
Si Si2 0.500000 0.707526 0.500000
Si Si3 0.812628 0.811050 0.964425
Si Si4 0.013765 0.814303 0.288031
Si Si5 0.894622 0.467544 0.582227
Si Si6 0.288057 0.492651 0.190769
Si Si7 0.000000 0.251893 0.000000
O O1 0.311010 0.824951 0.341759
O O2 0.277167 0.032046 0.408515
O O3 0.170102 0.137608 0.194786
O O4 0.949997 0.916477 0.043363
O O5 0.424571 0.587429 0.371976
O O6 0.844886 0.619810 0.977045
O O7 0.575301 0.847358 0.728704
O O8 0.866556 0.855578 0.089528
O O9 0.007787 0.619110 0.288721
O O10 0.244983 0.869700 0.490343
O O11 0.941577 0.897526 0.286925
O O12 0.125987 0.365177 0.068450
#
# Coordination Sequence:
#
# PCOD8051919 Si02
#       7
#     4   2   4   4   4   4   2
#     4  11  26  46  73 100 142 195 238 288 367 435
#     4  12  26  46  76 100 152 198 236 290 362 446
#     4  11  23  49  71 102 141 188 240 303 366 424
#     4  11  26  41  74 102 140 184 243 306 358 427
#     4  11  24  45  70 102 139 188 242 301 365 425
#     4  12  26  45  71 109 144 186 242 299 360 427
#     4  12  28  44  72 110 148 188 244 302 352 438
#
# _framework density 22.099844999999998
#
# number of rings (size 3 to 8) (size 9 to 14) (size 15 to 20)
#    0.000    0.667    1.667    5.000    7.000    5.333 
#    0.000    0.000    0.000    0.000    0.000    0.000 
#    0.000    0.000    0.000    0.000    0.000    0.000 
#
# Total GULP energy -148854.420416 kJ/mol
# GULP energy per Si atom -12404.535035 kJ/mol
# Density = 2.204954 g / cm^3
# Si number density = 22.099845 Si / 1000 Ang^3
#
#
#
# Elastic Constant Matrix: (Units=GPa)
#
#
# Indices 1 2 3 4 5 6 
#
# 1 133.0331 57.1344 52.4857 0.0014 16.7046 0.0003
# 2 57.1344 129.3365 42.6316 0.0020 2.9512 0.0013
# 3 52.4857 42.6316 104.8767 0.0032 17.0451 0.0041
# 4 0.0014 0.0020 0.0032 41.7512 0.0021 -5.3452
# 5 16.7046 2.9512 17.0451 0.0021 31.6414 0.0020
# 6 0.0003 0.0013 0.0041 -5.3452 0.0020 46.1402
#
#
#
# Elastic Compliance Matrix: (Units=1/GPa)
#
#
# Indices 1 2 3 4 5 6 
#
# 1 0.010844 -0.003592 -0.003387 0.000000 -0.003565 0.000001
# 2 -0.003592 0.010162 -0.002726 0.000000 0.002417 0.000000
# 3 -0.003387 -0.002726 0.013158 -0.000001 -0.005046 -0.000001
# 4 0.000000 0.000000 -0.000001 0.024312 -0.000002 0.002816
# 5 -0.003565 0.002417 -0.005046 -0.000002 0.035979 -0.000001
# 6 0.000001 0.000000 -0.000001 0.002816 -0.000001 0.021999
#
#
# Mechanical properties :
#
#
# Convention : Reuss Voigt Hill
#
# Bulk Modulus (GPa) = 67.78109 74.63886 71.20998
# Shear Modulus (GPa) = 35.51570 38.23952 36.87761
#
# Velocity S-wave (km/s) = 4.01316 4.16421 4.08938
# Velocity P-wave (km/s) = 7.22571 7.54769 7.38846
#
# Compressibility (1/GPa) = 0.01475338
#
# Stress axis : x y z
#
# Youngs Moduli (GPa) = 92.21896 98.40540 75.99853
#
# Poissons Ratio (x) = 0.35352 0.25741
# Poissons Ratio (y) = 0.33129 0.20716
# Poissons Ratio (z) = 0.31235 0.26823
#
# Static dielectric constant tensor:
#      x y z
#    x 4.119660 0.000000 0.048890 
#    y 0.000000 4.034830 -0.000010 
#    z 0.048890 -0.000010 3.891110 
# 
# 
# High freq. dielectric constant tensor:
#      x y z
#    x 1.886690 0.000000 -0.000340 
#    y 0.000000 1.879740 0.000000 
#    z -0.000340 0.000000 1.872650 
# 
# From -- ./inp_files/67076.got.cif
#   From: 2010.03.12/outbox.cif.g09.slc.cpg/sg5_34_cif.got.tgz:67076.got - 2010.03.31 09:47:26.
