data_PCOD8051472
_publ_section_title
;
Structure prediction by ZEFSAII (Michael W. Deem and Ramdas Pophale) SiO2 
 PCOD8051472
Probable space group: C 2
;
_chemical_formula_sum "Si O2"
_cell_formula_units_Z 24
_cell_length_a 9.088688
_cell_length_b 11.294708
_cell_length_c 11.472015
_cell_angle_alpha 90.000000
_cell_angle_beta 109.610773
_cell_angle_gamma 90.000000
_cell_volume 1109.338825
_symmetry_space_group_name_H-M "C 2"
_symmetry_group_IT_number 5
_symmetry_cell_setting 'monoclinic'
loop_
_space_group_symop_operation_xyz
x,y,z
-x,y,-z
1/2+x,1/2+y,z
1/2-x,1/2+y,-z
loop_
_atom_site_type_symbol
_atom_site_label
_atom_site_fract_x
_atom_site_fract_y
_atom_site_fract_z
Si Si1 0.690368 0.261630 0.678390
Si Si2 0.330458 0.220740 0.594800
Si Si3 0.632469 0.990089 0.267700
Si Si4 0.162097 0.085243 0.107382
Si Si5 0.807693 0.361082 0.235989
Si Si6 0.837818 0.659095 0.936232
O O1 0.512128 0.245820 0.668503
O O2 0.719425 0.232821 0.551208
O O3 0.729184 0.397313 0.711807
O O4 0.808268 0.181507 0.784289
O O5 0.224026 0.310431 0.642623
O O6 0.306497 0.083527 0.620499
O O7 0.475667 0.923626 0.270353
O O8 0.615758 0.055220 0.140619
O O9 0.173865 0.956170 0.168959
O O10 0.292749 0.096856 0.043905
O O11 0.000000 0.106560 0.000000
O O12 0.794450 0.249474 0.144277
O O13 0.000000 0.730622 0.000000
#
# Coordination Sequence:
#
# PCOD8051472 Si02
#       6
#     4   4   4   4   4   4
#     4  11  25  45  71 101 139 185 231 287 347 412
#     4  10  25  47  70 102 137 181 237 289 347 403
#     4  11  24  45  70  99 139 180 232 288 348 405
#     4  12  25  40  69 105 141 181 231 280 346 422
#     4  11  23  44  70  99 139 183 227 293 342 408
#     4  11  23  43  64 101 141 183 227 282 347 412
#
# _framework density 21.634508
#
# number of rings (size 3 to 8) (size 9 to 14) (size 15 to 20)
#    0.000    1.000    3.333    2.500    7.000    1.333 
#    0.000    0.000    0.000    0.000    0.000    0.000 
#    0.000    0.000    0.000    0.000    0.000    0.000 
#
# Total GULP energy -148789.762296 kJ/mol
# GULP energy per Si atom -12399.146858 kJ/mol
# Density = 2.158527 g / cm^3
# Si number density = 21.634508 Si / 1000 Ang^3
#
#
#
# Elastic Constant Matrix: (Units=GPa)
#
#
# Indices 1 2 3 4 5 6 
#
# 1 62.0121 37.5408 24.1698 0.0000 -4.1359 0.0000
# 2 37.5408 138.8872 43.3262 0.0000 -7.6952 0.0000
# 3 24.1698 43.3262 109.2640 0.0000 -9.4323 0.0000
# 4 0.0000 0.0000 0.0000 16.1813 0.0000 -2.6052
# 5 -4.1359 -7.6952 -9.4323 0.0000 37.4235 0.0000
# 6 0.0000 0.0000 0.0000 -2.6052 0.0000 43.9981
#
#
#
# Elastic Compliance Matrix: (Units=1/GPa)
#
#
# Indices 1 2 3 4 5 6 
#
# 1 0.019917 -0.004555 -0.002546 0.000000 0.000623 0.000000
# 2 -0.004555 0.009287 -0.002610 0.000000 0.000748 0.000000
# 3 -0.002546 -0.002610 0.010917 0.000000 0.001934 0.000000
# 4 0.000000 0.000000 0.000000 0.062395 0.000000 0.003695
# 5 0.000623 0.000748 0.001934 0.000000 0.027431 0.000000
# 6 0.000000 0.000000 0.000000 0.003695 0.000000 0.022947
#
#
# Mechanical properties :
#
#
# Convention : Reuss Voigt Hill
#
# Bulk Modulus (GPa) = 48.31103 57.80410 53.05756
# Shear Modulus (GPa) = 27.89926 33.19567 30.54746
#
# Velocity S-wave (km/s) = 3.59496 3.92137 3.76171
# Velocity P-wave (km/s) = 6.29370 6.87600 6.59128
#
# Compressibility (1/GPa) = 0.02069921
#
# Stress axis : x y z
#
# Youngs Moduli (GPa) = 50.20810 107.67709 91.59753
#
# Poissons Ratio (x) = 0.49045 0.23320
# Poissons Ratio (y) = 0.22869 0.23911
# Poissons Ratio (z) = 0.12782 0.28108
#
# Static dielectric constant tensor:
#      x y z
#    x 4.048030 0.000000 -0.002080 
#    y 0.000000 4.020960 0.000000 
#    z -0.002080 0.000000 3.965530 
# 
# 
# High freq. dielectric constant tensor:
#      x y z
#    x 1.849180 0.000000 -0.005070 
#    y 0.000000 1.858480 0.000000 
#    z -0.005070 0.000000 1.860270 
# 
# From -- ./inp_files/35475.got.cif
#   From: 2010.03.12/outbox.cif.g09.slc.cpg/sg5_18_cif.got.tgz:35475.got - 2010.03.31 09:47:26.
