data_PCOD8051878
_publ_section_title
;
Structure prediction by ZEFSAII (Michael W. Deem and Ramdas Pophale) SiO2 
 PCOD8051878
Probable space group: C 2
;
_chemical_formula_sum "Si O2"
_cell_formula_units_Z 26
_cell_length_a 8.175035
_cell_length_b 19.395470
_cell_length_c 8.787637
_cell_angle_alpha 90.000000
_cell_angle_beta 127.249567
_cell_angle_gamma 90.000000
_cell_volume 1109.120401
_symmetry_space_group_name_H-M "C 2"
_symmetry_group_IT_number 5
_symmetry_cell_setting 'monoclinic'
loop_
_space_group_symop_operation_xyz
x,y,z
-x,y,-z
1/2+x,1/2+y,z
1/2-x,1/2+y,-z
loop_
_atom_site_type_symbol
_atom_site_label
_atom_site_fract_x
_atom_site_fract_y
_atom_site_fract_z
Si Si1 0.051324 0.612050 0.359257
Si Si2 0.933205 0.013133 0.622446
Si Si3 0.320411 0.251426 0.666440
Si Si4 0.526039 0.748228 0.766620
Si Si5 0.051756 0.883746 0.851412
Si Si6 0.343194 0.603812 0.035176
Si Si7 0.500000 0.857115 0.000000
O O1 0.000000 0.639668 0.500000
O O2 0.225204 0.555396 0.480818
O O3 0.080894 0.676338 0.259995
O O4 0.866623 0.578208 0.160729
O O5 0.000000 0.982401 0.500000
O O6 0.113357 0.064250 0.782767
O O7 0.907580 0.946785 0.715610
O O8 0.204787 0.274189 0.754832
O O9 0.484510 0.312295 0.729187
O O10 0.173006 0.231241 0.443164
O O11 0.616684 0.685056 0.915737
O O12 0.450303 0.809976 0.828357
O O13 0.291112 0.898821 0.933824
O O14 0.000000 0.876761 0.000000
O O15 0.500000 0.575085 0.000000
#
# Coordination Sequence:
#
# PCOD8051878 Si02
#       7
#     4   4   4   4   4   4   2
#     4  12  26  46  82 112 152 213 264 326 399 462
#     4  12  29  51  72 112 154 204 262 323 397 473
#     4  11  25  46  74 112 155 199 262 331 387 468
#     4  11  23  44  76 112 152 197 256 330 395 459
#     4  12  29  52  76 112 162 212 264 330 396 478
#     4  12  23  45  74 110 152 199 260 326 387 471
#     4  12  26  46  78 114 146 208 266 312 408 458
#
# _framework density 23.441998999999999
#
# number of rings (size 3 to 8) (size 9 to 14) (size 15 to 20)
#    0.000    0.308    5.385    2.308    4.308    3.077 
#    2.769    0.000    0.000    0.000    0.000    0.000 
#    0.000    0.000    0.000    0.000    0.000    0.000 
#
# Total GULP energy -161057.815121 kJ/mol
# GULP energy per Si atom -12389.062702 kJ/mol
# Density = 2.338864 g / cm^3
# Si number density = 23.441999 Si / 1000 Ang^3
#
#
#
# Elastic Constant Matrix: (Units=GPa)
#
#
# Indices 1 2 3 4 5 6 
#
# 1 113.1222 30.0355 49.0433 0.0000 9.7656 0.0000
# 2 30.0355 129.2188 49.9193 0.0000 20.3411 0.0000
# 3 49.0433 49.9193 147.0340 0.0000 15.9234 0.0000
# 4 0.0000 0.0000 0.0000 39.9797 0.0000 -5.0915
# 5 9.7656 20.3411 15.9234 0.0000 40.8042 0.0000
# 6 0.0000 0.0000 0.0000 -5.0915 0.0000 21.3738
#
#
#
# Elastic Compliance Matrix: (Units=1/GPa)
#
#
# Indices 1 2 3 4 5 6 
#
# 1 0.010529 -0.001154 -0.003038 0.000000 -0.000759 0.000000
# 2 -0.001154 0.009511 -0.002465 0.000000 -0.003503 0.000000
# 3 -0.003038 -0.002465 0.008812 0.000000 -0.001483 0.000000
# 4 0.000000 0.000000 0.000000 0.025795 0.000000 0.006145
# 5 -0.000759 -0.003503 -0.001483 0.000000 0.027014 0.000000
# 6 0.000000 0.000000 0.000000 0.006145 0.000000 0.048250
#
#
# Mechanical properties :
#
#
# Convention : Reuss Voigt Hill
#
# Bulk Modulus (GPa) = 64.35834 71.93014 68.14424
# Shear Modulus (GPa) = 33.69192 37.79000 35.74096
#
# Velocity S-wave (km/s) = 3.79522 4.01941 3.90892
# Velocity P-wave (km/s) = 6.83511 7.23130 7.03600
#
# Compressibility (1/GPa) = 0.01553800
#
# Stress axis : x y z
#
# Youngs Moduli (GPa) = 94.97527 105.14524 113.48439
#
# Poissons Ratio (x) = 0.12137 0.34475
# Poissons Ratio (y) = 0.10963 0.27969
# Poissons Ratio (z) = 0.28852 0.25914
#
# Static dielectric constant tensor:
#      x y z
#    x 4.793610 0.000000 -0.036420 
#    y 0.000000 3.939420 0.000000 
#    z -0.036420 0.000000 4.625630 
# 
# 
# High freq. dielectric constant tensor:
#      x y z
#    x 1.929880 0.000000 -0.004480 
#    y 0.000000 1.913390 0.000000 
#    z -0.004480 0.000000 1.946640 
# 
# From -- ./inp_files/17055.got.cif
#   From: 2010.03.12/outbox.cif.g09.slc.cpg/sg5_9_cif.got.tgz:17055.got - 2010.03.31 09:47:26.
