data_PCOD8051199
_publ_section_title
;
Structure prediction by ZEFSAII (Michael W. Deem and Ramdas Pophale) SiO2 
 PCOD8051199
Probable space group: C 2
;
_chemical_formula_sum "Si O2"
_cell_formula_units_Z 30
_cell_length_a 8.685569
_cell_length_b 12.200058
_cell_length_c 13.558212
_cell_angle_alpha 90.000000
_cell_angle_beta 109.286807
_cell_angle_gamma 90.000000
_cell_volume 1356.057198
_symmetry_space_group_name_H-M "C 2"
_symmetry_group_IT_number 5
_symmetry_cell_setting 'monoclinic'
loop_
_space_group_symop_operation_xyz
x,y,z
-x,y,-z
1/2+x,1/2+y,z
1/2-x,1/2+y,-z
loop_
_atom_site_type_symbol
_atom_site_label
_atom_site_fract_x
_atom_site_fract_y
_atom_site_fract_z
Si Si1 0.735128 0.020820 0.742879
Si Si2 0.641533 0.380563 0.397754
Si Si3 0.929658 0.654653 0.689120
Si Si4 0.779506 0.935004 0.958636
Si Si5 0.445573 0.617832 0.124370
Si Si6 0.856320 0.998259 0.411895
Si Si7 0.000000 0.311208 0.000000
Si Si8 0.112915 0.711079 0.105678
O O1 0.592690 0.102358 0.677387
O O2 0.914363 0.075003 0.773766
O O3 0.744644 0.919011 0.669525
O O4 0.687650 0.989859 0.845731
O O5 0.633338 0.249240 0.396229
O O6 0.453447 0.426286 0.350037
O O7 0.720021 0.418122 0.518991
O O8 0.785897 0.565840 0.668909
O O9 0.970737 0.705740 0.805290
O O10 0.655873 0.888802 0.014878
O O11 0.879038 0.836278 0.929108
O O12 0.898725 0.024389 0.034049
O O13 0.286415 0.651533 0.151448
O O14 0.523858 0.729015 0.096381
O O15 0.000000 0.069042 0.500000
O O16 0.000000 0.648755 0.000000
#
# Coordination Sequence:
#
# PCOD8051199 Si02
#       8
#     4   4   4   4   4   4   2   4
#     4  12  23  40  64 101 130 173 225 276 341 396
#     4   9  23  46  67  96 134 165 222 279 350 391
#     4  12  24  44  72 102 135 174 227 277 338 411
#     4  11  23  41  62  89 141 183 229 277 318 388
#     4  11  23  42  59  89 143 181 226 280 316 389
#     4   8  23  51  68  97 132 170 221 279 349 397
#     4  10  24  38  58  92 116 192 238 258 332 378
#     4  11  24  40  66  99 139 188 227 266 335 402
#
# _framework density 22.122959999999999
#
# number of rings (size 3 to 8) (size 9 to 14) (size 15 to 20)
#    0.800    0.533    2.667    2.400    4.667    2.667 
#    7.200    0.000    0.000    0.000    0.000    0.000 
#    0.000    0.000    0.000    0.000    0.000    0.000 
#
# Total GULP energy -185839.680936 kJ/mol
# GULP energy per Si atom -12389.312062 kJ/mol
# Density = 2.207261 g / cm^3
# Si number density = 22.122960 Si / 1000 Ang^3
#
#
#
# Elastic Constant Matrix: (Units=GPa)
#
#
# Indices 1 2 3 4 5 6 
#
# 1 87.6065 44.2423 16.6880 0.0000 0.1897 0.0000
# 2 44.2423 106.4000 16.8708 0.0000 1.9340 0.0000
# 3 16.6880 16.8708 57.8849 0.0000 -3.8563 0.0000
# 4 0.0000 0.0000 0.0000 18.6688 0.0000 1.1007
# 5 0.1897 1.9340 -3.8563 0.0000 26.6961 0.0000
# 6 0.0000 0.0000 0.0000 1.1007 0.0000 32.4192
#
#
#
# Elastic Compliance Matrix: (Units=1/GPa)
#
#
# Indices 1 2 3 4 5 6 
#
# 1 0.014812 -0.005745 -0.002600 0.000000 -0.000065 0.000000
# 2 -0.005745 0.012117 -0.001950 0.000000 -0.001119 0.000000
# 3 -0.002600 -0.001950 0.018785 0.000000 0.002873 0.000000
# 4 0.000000 0.000000 0.000000 0.053673 0.000000 -0.001822
# 5 -0.000065 -0.001119 0.002873 0.000000 0.037955 0.000000
# 6 0.000000 0.000000 0.000000 -0.001822 0.000000 0.030908
#
#
# Mechanical properties :
#
#
# Convention : Reuss Voigt Hill
#
# Bulk Modulus (GPa) = 39.80351 45.27709 42.54030
# Shear Modulus (GPa) = 25.35322 27.16284 26.25803
#
# Velocity S-wave (km/s) = 3.38896 3.50782 3.44890
# Velocity P-wave (km/s) = 5.77446 6.07593 5.92711
#
# Compressibility (1/GPa) = 0.02512342
#
# Stress axis : x y z
#
# Youngs Moduli (GPa) = 67.51480 82.52889 53.23431
#
# Poissons Ratio (x) = 0.47416 0.13840
# Poissons Ratio (y) = 0.38790 0.10379
# Poissons Ratio (z) = 0.17553 0.16091
#
# Static dielectric constant tensor:
#      x y z
#    x 3.904810 0.000000 -0.091530 
#    y 0.000000 3.927930 0.000000 
#    z -0.091530 0.000000 3.622840 
# 
# 
# High freq. dielectric constant tensor:
#      x y z
#    x 1.873480 0.000000 -0.013920 
#    y 0.000000 1.865340 0.000000 
#    z -0.013920 0.000000 1.844320 
# 
# From -- ./inp_files/50342.got.cif
#   From: 2010.03.12/outbox.cif.g09.slc.cpg/sg5_26_cif.got.tgz:50342.got - 2010.03.31 09:47:26.
