data_PCOD8051822
_publ_section_title
;
Structure prediction by ZEFSAII (Michael W. Deem and Ramdas Pophale) SiO2 
 PCOD8051822
Probable space group: C 2
;
_chemical_formula_sum "Si O2"
_cell_formula_units_Z 32
_cell_length_a 18.868955
_cell_length_b 11.754036
_cell_length_c 10.659226
_cell_angle_alpha 90.000000
_cell_angle_beta 143.137373
_cell_angle_gamma 90.000000
_cell_volume 1418.202660
_symmetry_space_group_name_H-M "C 2"
_symmetry_group_IT_number 5
_symmetry_cell_setting 'monoclinic'
loop_
_space_group_symop_operation_xyz
x,y,z
-x,y,-z
1/2+x,1/2+y,z
1/2-x,1/2+y,-z
loop_
_atom_site_type_symbol
_atom_site_label
_atom_site_fract_x
_atom_site_fract_y
_atom_site_fract_z
Si Si1 0.281374 0.514540 0.374239
Si Si2 0.861834 0.296252 0.806909
Si Si3 0.888008 0.058927 0.274980
Si Si4 0.545805 0.404188 0.190961
Si Si5 0.761215 0.265579 0.409535
Si Si6 0.731894 0.165547 0.847205
Si Si7 0.862060 0.419564 0.339114
Si Si8 0.137952 0.839701 0.886911
O O1 0.175918 0.428546 0.256486
O O2 0.308887 0.496816 0.267249
O O3 0.391870 0.491505 0.624396
O O4 0.242579 0.645646 0.316036
O O5 0.826311 0.233461 0.629960
O O6 0.800193 0.234630 0.837078
O O7 0.000000 0.289495 0.000000
O O8 0.000000 0.122571 0.500000
O O9 0.931561 0.951880 0.257104
O O10 0.821647 0.144112 0.089097
O O11 0.440392 0.323098 0.098691
O O12 0.500000 0.471544 0.000000
O O13 0.365178 0.312420 0.735650
O O14 0.837748 0.355863 0.436037
O O15 0.629348 0.240620 0.769874
O O16 0.673674 0.053187 0.704264
O O17 0.000000 0.406870 0.500000
O O18 0.776628 0.362617 0.113866
#
# Coordination Sequence:
#
# PCOD8051822 Si02
#       8
#     4   4   4   4   4   4   4   4
#     4  11  25  46  72 103 144 187 238 295 357 421
#     4  11  28  47  70 106 149 189 238 296 368 429
#     4  11  23  41  71 102 135 182 241 292 342 429
#     4  11  24  46  72 105 144 183 244 291 354 438
#     4  11  27  46  72 106 142 191 238 295 359 431
#     4  11  27  47  72 104 145 188 242 296 362 425
#     4  11  27  48  73 106 145 190 244 297 361 427
#     4  11  23  47  70 103 141 187 243 289 360 419
#
# _framework density 22.563770999999999
#
# number of rings (size 3 to 8) (size 9 to 14) (size 15 to 20)
#    0.000    1.000    3.750    0.750    7.000    4.500 
#    0.000    0.000    0.000    0.000    0.000    0.000 
#    0.000    0.000    0.000    0.000    0.000    0.000 
#
# Total GULP energy -198229.540133 kJ/mol
# GULP energy per Si atom -12389.346258 kJ/mol
# Density = 2.251241 g / cm^3
# Si number density = 22.563771 Si / 1000 Ang^3
#
#
#
# Elastic Constant Matrix: (Units=GPa)
#
#
# Indices 1 2 3 4 5 6 
#
# 1 158.3083 61.4726 51.0673 0.0000 4.7746 0.0000
# 2 61.4726 105.7021 26.5459 0.0000 9.9108 0.0000
# 3 51.0673 26.5459 100.7381 0.0000 -7.9579 0.0000
# 4 0.0000 0.0000 0.0000 34.9239 0.0000 -12.2250
# 5 4.7746 9.9108 -7.9579 0.0000 44.9336 0.0000
# 6 0.0000 0.0000 0.0000 -12.2250 0.0000 25.6981
#
#
#
# Elastic Compliance Matrix: (Units=1/GPa)
#
#
# Indices 1 2 3 4 5 6 
#
# 1 0.009186 -0.004391 -0.003550 0.000000 -0.000636 0.000000
# 2 -0.004391 0.012576 -0.001288 0.000000 -0.002535 0.000000
# 3 -0.003550 -0.001288 0.012290 0.000000 0.002838 0.000000
# 4 0.000000 0.000000 0.000000 0.034355 0.000000 0.016343
# 5 -0.000636 -0.002535 0.002838 0.000000 0.023384 0.000000
# 6 0.000000 0.000000 0.000000 0.016343 0.000000 0.046688
#
#
# Mechanical properties :
#
#
# Convention : Reuss Voigt Hill
#
# Bulk Modulus (GPa) = 64.13016 71.43559 67.78287
# Shear Modulus (GPa) = 30.83849 36.15529 33.49689
#
# Velocity S-wave (km/s) = 3.70094 4.00729 3.85716
# Velocity P-wave (km/s) = 6.83711 7.28967 7.06701
#
# Compressibility (1/GPa) = 0.01559329
#
# Stress axis : x y z
#
# Youngs Moduli (GPa) = 108.85803 79.51954 81.36768
#
# Poissons Ratio (x) = 0.34919 0.28885
# Poissons Ratio (y) = 0.47802 0.10481
# Poissons Ratio (z) = 0.38644 0.10242
#
# Static dielectric constant tensor:
#      x y z
#    x 4.072610 0.000000 0.040430 
#    y 0.000000 3.944500 0.000000 
#    z 0.040430 0.000000 3.674920 
# 
# 
# High freq. dielectric constant tensor:
#      x y z
#    x 1.907860 0.000000 -0.013040 
#    y 0.000000 1.883480 0.000000 
#    z -0.013040 0.000000 1.892260 
# 
# From -- ./inp_files/47506.got.cif
#   From: 2010.03.12/outbox.cif.g09.slc.cpg/sg5_24_cif.got.tgz:47506.got - 2010.03.31 09:47:26.
