data_PCOD8051053
_publ_section_title
;
Structure prediction by ZEFSAII (Michael W. Deem and Ramdas Pophale) SiO2 
 PCOD8051053
Probable space group: C 2
;
_chemical_formula_sum "Si O2"
_cell_formula_units_Z 32
_cell_length_a 14.517370
_cell_length_b 9.281876
_cell_length_c 11.576772
_cell_angle_alpha 90.000000
_cell_angle_beta 96.573257
_cell_angle_gamma 90.000000
_cell_volume 1549.697182
_symmetry_space_group_name_H-M "C 2"
_symmetry_group_IT_number 5
_symmetry_cell_setting 'monoclinic'
loop_
_space_group_symop_operation_xyz
x,y,z
-x,y,-z
1/2+x,1/2+y,z
1/2-x,1/2+y,-z
loop_
_atom_site_type_symbol
_atom_site_label
_atom_site_fract_x
_atom_site_fract_y
_atom_site_fract_z
Si Si1 0.816232 0.006890 0.112903
Si Si2 0.395137 0.483959 0.457900
Si Si3 0.090055 0.920268 0.080512
Si Si4 0.060987 0.506774 0.822408
Si Si5 0.560168 0.699477 0.725993
Si Si6 0.362414 0.590110 0.693599
Si Si7 0.326446 0.248131 0.275392
Si Si8 0.115580 0.587596 0.082516
O O1 0.904507 0.100712 0.164011
O O2 0.721117 0.080132 0.140378
O O3 0.821601 0.846104 0.162148
O O4 0.821562 0.986015 0.975458
O O5 0.500000 0.439546 0.500000
O O6 0.391651 0.631138 0.381285
O O7 0.339855 0.514473 0.568111
O O8 0.348798 0.346814 0.389359
O O9 0.082642 0.749959 0.073772
O O10 0.101788 0.967451 0.213782
O O11 0.000000 0.980815 0.000000
O O12 0.090034 0.362316 0.758032
O O13 0.092659 0.633263 0.739935
O O14 0.950396 0.509142 0.832657
O O15 0.109837 0.514814 0.955026
O O16 0.448942 0.699057 0.694568
O O17 0.272016 0.671677 0.723273
#
# Coordination Sequence:
#
# PCOD8051053 Si02
#       8
#     4   4   4   4   4   4   4   4
#     4  11  23  40  62  95 133 172 217 260 332 392
#     4   9  23  46  68  91 129 175 226 277 328 395
#     4  12  22  41  66  99 134 177 217 269 331 403
#     4  11  23  40  62  96 135 173 214 276 328 381
#     4  10  23  42  66  93 131 172 217 271 327 388
#     4  11  24  43  70  95 133 175 224 272 336 389
#     4  11  23  44  67  95 131 174 223 273 326 399
#     4  11  24  37  61  97 143 164 221 271 323 401
#
# _framework density 20.649194999999999
#
# number of rings (size 3 to 8) (size 9 to 14) (size 15 to 20)
#    0.000    1.250    3.750    1.500    7.000    3.000 
#    2.250    3.125    0.000    0.000    0.000    0.000 
#    0.000    0.000    0.000    0.000    0.000    0.000 
#
# Total GULP energy -198347.649659 kJ/mol
# GULP energy per Si atom -12396.728104 kJ/mol
# Density = 2.060220 g / cm^3
# Si number density = 20.649195 Si / 1000 Ang^3
#
#
#
# Elastic Constant Matrix: (Units=GPa)
#
#
# Indices 1 2 3 4 5 6 
#
# 1 77.5250 47.2427 17.9120 0.0000 -1.0666 0.0000
# 2 47.2427 112.5157 69.8635 0.0000 -7.8585 0.0000
# 3 17.9120 69.8635 120.4245 0.0000 -3.6718 0.0000
# 4 0.0000 0.0000 0.0000 24.9600 0.0000 2.9978
# 5 -1.0666 -7.8585 -3.6718 0.0000 23.1091 0.0000
# 6 0.0000 0.0000 0.0000 2.9978 0.0000 28.8166
#
#
#
# Elastic Compliance Matrix: (Units=1/GPa)
#
#
# Indices 1 2 3 4 5 6 
#
# 1 0.017941 -0.009337 0.002690 0.000000 -0.001920 0.000000
# 2 -0.009337 0.019032 -0.009515 0.000000 0.004529 0.000000
# 3 0.002690 -0.009515 0.013394 0.000000 -0.000983 0.000000
# 4 0.000000 0.000000 0.000000 0.040571 0.000000 -0.004221
# 5 -0.001920 0.004529 -0.000983 0.000000 0.044568 0.000000
# 6 0.000000 0.000000 0.000000 -0.004221 0.000000 0.035141
#
#
# Mechanical properties :
#
#
# Convention : Reuss Voigt Hill
#
# Bulk Modulus (GPa) = 55.42256 64.50017 59.96137
# Shear Modulus (GPa) = 23.92499 27.07361 25.49930
#
# Velocity S-wave (km/s) = 3.40757 3.62487 3.51790
# Velocity P-wave (km/s) = 6.51002 6.98739 6.75292
#
# Compressibility (1/GPa) = 0.01804319
#
# Stress axis : x y z
#
# Youngs Moduli (GPa) = 55.73747 52.54209 74.66205
#
# Poissons Ratio (x) = 0.49061 -0.20083
# Poissons Ratio (y) = 0.52044 0.71038
# Poissons Ratio (z) = -0.14993 0.49991
#
# Static dielectric constant tensor:
#      x y z
#    x 3.778350 0.000000 -0.079970 
#    y 0.000000 3.586940 0.000000 
#    z -0.079970 0.000000 3.827620 
# 
# 
# High freq. dielectric constant tensor:
#      x y z
#    x 1.812360 0.000000 -0.006940 
#    y 0.000000 1.802250 0.000000 
#    z -0.006940 0.000000 1.802690 
# 
# From -- ./inp_files/41955.got.cif
#   From: 2010.03.12/outbox.cif.g09.slc.cpg/sg5_21_cif.got.tgz:41955.got - 2010.03.31 09:47:26.
