data_PCOD8051650
_publ_section_title
;
Structure prediction by ZEFSAII (Michael W. Deem and Ramdas Pophale) SiO2 
 PCOD8051650
Probable space group: C 2
;
_chemical_formula_sum "Si O2"
_cell_formula_units_Z 26
_cell_length_a 14.814564
_cell_length_b 12.810732
_cell_length_c 12.380927
_cell_angle_alpha 90.000000
_cell_angle_beta 29.685193
_cell_angle_gamma 90.000000
_cell_volume 1163.661287
_symmetry_space_group_name_H-M "C 2"
_symmetry_group_IT_number 5
_symmetry_cell_setting 'monoclinic'
loop_
_space_group_symop_operation_xyz
x,y,z
-x,y,-z
1/2+x,1/2+y,z
1/2-x,1/2+y,-z
loop_
_atom_site_type_symbol
_atom_site_label
_atom_site_fract_x
_atom_site_fract_y
_atom_site_fract_z
Si Si1 0.448939 0.146750 0.667922
Si Si2 0.000000 0.314661 0.500000
Si Si3 0.962910 0.923368 0.162360
Si Si4 0.302418 0.628848 0.412403
Si Si5 0.673764 0.206626 0.756304
Si Si6 0.856551 0.432972 0.846562
Si Si7 0.093648 0.279253 0.019552
O O1 0.500000 0.095039 0.500000
O O2 0.637133 0.188975 0.523625
O O3 0.380307 0.057856 0.822120
O O4 0.301919 0.237855 0.798247
O O5 0.823418 0.240449 0.688275
O O6 0.992132 0.383777 0.616312
O O7 0.874961 0.809909 0.261342
O O8 0.824165 0.008736 0.354271
O O9 0.000000 0.956474 0.000000
O O10 0.146744 0.912823 0.038671
O O11 0.259851 0.623735 0.584456
O O12 0.486784 0.690717 0.196659
O O13 0.500000 0.159447 0.000000
O O14 0.906310 0.386962 0.912844
O O15 0.000000 0.297529 0.000000
#
# Coordination Sequence:
#
# PCOD8051650 Si02
#       7
#     4   2   4   4   4   4   4
#     4  12  24  42  72 103 131 185 249 289 341 421
#     4  12  20  38  68  98 126 176 222 290 350 390
#     4  11  21  42  70 104 136 175 239 294 339 417
#     4  12  24  40  70  99 138 182 227 293 351 412
#     4  11  24  41  67  97 135 171 228 286 352 412
#     4  12  23  41  73 103 141 179 239 297 351 417
#     4  12  26  46  69 107 147 185 235 294 359 425
#
# _framework density 22.34327
#
# number of rings (size 3 to 8) (size 9 to 14) (size 15 to 20)
#    0.000    0.308    8.462    3.231    0.000    0.000 
#    0.000    0.769    0.000    0.000    0.000    0.000 
#    0.000    0.000    0.000    0.000    0.000    0.000 
#
# Total GULP energy -161185.247146 kJ/mol
# GULP energy per Si atom -12398.865165 kJ/mol
# Density = 2.229242 g / cm^3
# Si number density = 22.343270 Si / 1000 Ang^3
#
#
#
# Elastic Constant Matrix: (Units=GPa)
#
#
# Indices 1 2 3 4 5 6 
#
# 1 87.4969 18.0305 26.5920 0.0003 5.4569 -0.0005
# 2 18.0305 64.2545 19.5272 0.0003 21.6385 -0.0005
# 3 26.5920 19.5272 95.4423 0.0003 7.7627 -0.0004
# 4 0.0003 0.0003 0.0003 26.5589 -0.0001 10.9852
# 5 5.4569 21.6385 7.7627 -0.0001 49.7162 0.0002
# 6 -0.0005 -0.0005 -0.0004 10.9852 0.0002 21.4066
#
#
#
# Elastic Compliance Matrix: (Units=1/GPa)
#
#
# Indices 1 2 3 4 5 6 
#
# 1 0.012913 -0.002789 -0.003050 0.000000 0.000272 0.000000
# 2 -0.002789 0.019807 -0.002633 0.000000 -0.007904 0.000001
# 3 -0.003050 -0.002633 0.011896 0.000000 -0.000377 0.000000
# 4 0.000000 0.000000 0.000000 0.047797 0.000001 -0.024528
# 5 0.000272 -0.007904 -0.000377 0.000001 0.023583 -0.000001
# 6 0.000000 0.000001 0.000000 -0.024528 -0.000001 0.059302
#
#
# Mechanical properties :
#
#
# Convention : Reuss Voigt Hill
#
# Bulk Modulus (GPa) = 36.13295 41.72145 38.92720
# Shear Modulus (GPa) = 24.81801 31.73928 28.27864
#
# Velocity S-wave (km/s) = 3.33642 3.77308 3.56145
# Velocity P-wave (km/s) = 5.57217 6.13962 5.86277
#
# Compressibility (1/GPa) = 0.02767557
#
# Stress axis : x y z
#
# Youngs Moduli (GPa) = 77.43859 50.48603 84.05839
#
# Poissons Ratio (x) = 0.14079 0.25634
# Poissons Ratio (y) = 0.21595 0.22130
# Poissons Ratio (z) = 0.23615 0.13292
#
# Static dielectric constant tensor:
#      x y z
#    x 4.074030 0.000000 -0.211080 
#    y 0.000000 3.643770 0.000000 
#    z -0.211080 0.000000 4.250280 
# 
# 
# High freq. dielectric constant tensor:
#      x y z
#    x 1.883060 0.000000 -0.018540 
#    y 0.000000 1.846040 0.000000 
#    z -0.018540 0.000000 1.892510 
# 
# From -- ./inp_files/43044.got.cif
#   From: 2010.03.12/outbox.cif.g09.slc.cpg/sg5_22_cif.got.tgz:43044.got - 2010.03.31 09:47:26.
