data_PCOD8051676
_publ_section_title
;
Structure prediction by ZEFSAII (Michael W. Deem and Ramdas Pophale) SiO2 
 PCOD8051676
Probable space group: C 2
;
_chemical_formula_sum "Si O2"
_cell_formula_units_Z 32
_cell_length_a 9.938036
_cell_length_b 18.572413
_cell_length_c 16.144492
_cell_angle_alpha 90.000000
_cell_angle_beta 36.796910
_cell_angle_gamma 90.000000
_cell_volume 1784.867180
_symmetry_space_group_name_H-M "C 2"
_symmetry_group_IT_number 5
_symmetry_cell_setting 'monoclinic'
loop_
_space_group_symop_operation_xyz
x,y,z
-x,y,-z
1/2+x,1/2+y,z
1/2-x,1/2+y,-z
loop_
_atom_site_type_symbol
_atom_site_label
_atom_site_fract_x
_atom_site_fract_y
_atom_site_fract_z
Si Si1 0.163004 0.943780 0.723546
Si Si2 0.746366 0.738391 0.410723
Si Si3 0.534611 0.296264 0.854665
Si Si4 0.393347 0.107948 0.428688
Si Si5 0.267982 0.315142 0.574306
Si Si6 0.141408 0.108099 0.725319
Si Si7 0.351111 0.743567 0.847669
Si Si8 0.665067 0.947893 0.535518
O O1 0.033810 0.883727 0.843008
O O2 0.417320 0.932943 0.625345
O O3 0.159113 0.931388 0.625992
O O4 0.067571 0.025324 0.782528
O O5 0.500000 0.752545 0.500000
O O6 0.925663 0.764490 0.255366
O O7 0.793188 0.655114 0.404367
O O8 0.765420 0.781187 0.485610
O O9 0.713805 0.260406 0.830467
O O10 0.287754 0.273626 0.006198
O O11 0.258912 0.119933 0.579524
O O12 0.659938 0.125722 0.306698
O O13 0.336020 0.027890 0.428604
O O14 0.500000 0.294453 0.500000
O O15 0.230573 0.400105 0.582167
O O16 0.083113 0.285757 0.728279
O O17 0.920119 0.159848 0.833544
#
# Coordination Sequence:
#
# PCOD8051676 Si02
#       8
#     4   4   4   4   4   4   4   4
#     4   9  16  33  61  83 110 153 199 235 284 362
#     4  12  20  35  59  84 112 152 206 241 286 353
#     4  11  22  36  60  88 116 158 204 250 285 353
#     4   9  18  31  57  87 115 148 191 246 294 350
#     4  12  22  35  58  85 119 152 193 249 302 343
#     4   9  17  34  56  85 118 153 188 239 305 355
#     4  11  22  37  56  89 121 153 202 249 301 346
#     4   9  17  32  56  88 113 143 195 245 295 343
#
# _framework density 17.928504
#
# number of rings (size 3 to 8) (size 9 to 14) (size 15 to 20)
#    0.000    1.750    5.000    2.250    0.000    0.500 
#    0.000    3.750    0.000    3.000    0.000    0.000 
#    0.000    0.000    0.000    0.000    0.000    0.000 
#
# Total GULP energy -198222.485177 kJ/mol
# GULP energy per Si atom -12388.905324 kJ/mol
# Density = 1.788770 g / cm^3
# Si number density = 17.928504 Si / 1000 Ang^3
#
#
#
# Elastic Constant Matrix: (Units=GPa)
#
#
# Indices 1 2 3 4 5 6 
#
# 1 78.8797 49.5609 38.6496 0.0199 -5.3283 -0.0323
# 2 49.5609 139.4714 63.5268 0.0058 -2.4133 -0.0061
# 3 38.6496 63.5268 113.8892 0.0347 -4.3551 -0.0199
# 4 0.0199 0.0058 0.0347 24.4473 -0.0249 -2.1634
# 5 -5.3283 -2.4133 -4.3551 -0.0249 19.2834 0.0207
# 6 -0.0323 -0.0061 -0.0199 -2.1634 0.0207 35.2403
#
#
#
# Elastic Compliance Matrix: (Units=1/GPa)
#
#
# Indices 1 2 3 4 5 6 
#
# 1 0.017407 -0.004686 -0.003159 -0.000004 0.003510 0.000011
# 2 -0.004686 0.010873 -0.004511 0.000006 -0.000953 -0.000004
# 3 -0.003159 -0.004511 0.012421 -0.000012 0.001368 0.000002
# 4 -0.000004 0.000006 -0.000012 0.041128 0.000047 0.002525
# 5 0.003510 -0.000953 0.001368 0.000047 0.053018 -0.000024
# 6 0.000011 -0.000004 0.000002 0.002525 -0.000024 0.028532
#
#
# Mechanical properties :
#
#
# Convention : Reuss Voigt Hill
#
# Bulk Modulus (GPa) = 62.54445 70.63499 66.58972
# Shear Modulus (GPa) = 25.85035 27.82771 26.83903
#
# Velocity S-wave (km/s) = 3.80130 3.94401 3.87331
# Velocity P-wave (km/s) = 7.36395 7.76041 7.56478
#
# Compressibility (1/GPa) = 0.01598863
#
# Stress axis : x y z
#
# Youngs Moduli (GPa) = 57.44916 91.96788 80.50656
#
# Poissons Ratio (x) = 0.43093 0.25434
# Poissons Ratio (y) = 0.26919 0.36320
# Poissons Ratio (z) = 0.18150 0.41490
#
# Static dielectric constant tensor:
#      x y z
#    x 3.070760 -0.000220 -0.038970 
#    y -0.000220 3.932860 -0.000120 
#    z -0.038970 -0.000120 3.229950 
# 
# 
# High freq. dielectric constant tensor:
#      x y z
#    x 1.675110 0.000000 0.001370 
#    y 0.000000 1.712190 0.000000 
#    z 0.001370 0.000000 1.666640 
# 
# From -- ./inp_files/46672.got.cif
#   From: 2010.03.12/outbox.cif.g09.slc.cpg/sg5_24_cif.got.tgz:46672.got - 2010.03.31 09:47:26.
