data_PCOD8051838
_publ_section_title
;
Structure prediction by ZEFSAII (Michael W. Deem and Ramdas Pophale) SiO2 
 PCOD8051838
Probable space group: C 2
;
_chemical_formula_sum "Si O2"
_cell_formula_units_Z 22
_cell_length_a 14.154257
_cell_length_b 13.366261
_cell_length_c 11.067653
_cell_angle_alpha 90.000000
_cell_angle_beta 151.434140
_cell_angle_gamma 90.000000
_cell_volume 1001.229466
_symmetry_space_group_name_H-M "C 2"
_symmetry_group_IT_number 5
_symmetry_cell_setting 'monoclinic'
loop_
_space_group_symop_operation_xyz
x,y,z
-x,y,-z
1/2+x,1/2+y,z
1/2-x,1/2+y,-z
loop_
_atom_site_type_symbol
_atom_site_label
_atom_site_fract_x
_atom_site_fract_y
_atom_site_fract_z
Si Si1 0.527160 0.508420 0.239012
Si Si2 0.142104 0.611054 0.274659
Si Si3 0.771367 0.330298 0.495219
Si Si4 0.619659 0.962628 0.895680
Si Si5 0.226665 0.825438 0.728539
Si Si6 0.000000 0.156382 0.000000
O O1 0.658536 0.541023 0.505627
O O2 0.592223 0.402322 0.256229
O O3 0.296518 0.496258 0.007475
O O4 0.584662 0.589582 0.202879
O O5 0.220309 0.721919 0.388662
O O6 0.008767 0.563380 0.231206
O O7 0.000000 0.610619 0.000000
O O8 0.783874 0.339006 0.653780
O O9 0.981190 0.374811 0.681154
O O10 0.702311 0.921443 0.115886
O O11 0.337166 0.722882 0.887808
O O12 0.000000 0.807031 0.500000
#
# Coordination Sequence:
#
# PCOD8051838 Si02
#       6
#     4   4   4   4   4   2
#     4  11  25  43  69 101 138 184 230 287 355 410
#     4  11  25  42  67 100 144 180 227 292 350 418
#     4  11  23  43  64 101 139 178 233 288 349 411
#     4  11  23  42  71  99 134 183 237 286 344 414
#     4  12  22  40  73 100 130 184 233 288 333 414
#     4  12  26  44  70 102 142 172 238 294 342 410
#
# _framework density 21.972985999999999
#
# number of rings (size 3 to 8) (size 9 to 14) (size 15 to 20)
#    0.000    0.727    5.455    2.182    3.818    1.455 
#    0.000    0.000    0.000    0.000    0.000    0.000 
#    0.000    0.000    0.000    0.000    0.000    0.000 
#
# Total GULP energy -136277.807308 kJ/mol
# GULP energy per Si atom -12388.891573 kJ/mol
# Density = 2.192297 g / cm^3
# Si number density = 21.972986 Si / 1000 Ang^3
#
#
#
# Elastic Constant Matrix: (Units=GPa)
#
#
# Indices 1 2 3 4 5 6 
#
# 1 55.7352 21.1910 35.9745 0.0000 25.5455 0.0000
# 2 21.1910 141.1714 55.4701 0.0000 19.5797 0.0000
# 3 35.9745 55.4701 118.7835 0.0000 33.9725 0.0000
# 4 0.0000 0.0000 0.0000 46.2766 0.0000 -1.9896
# 5 25.5455 19.5797 33.9725 0.0000 49.5685 0.0000
# 6 0.0000 0.0000 0.0000 -1.9896 0.0000 27.1592
#
#
#
# Elastic Compliance Matrix: (Units=1/GPa)
#
#
# Indices 1 2 3 4 5 6 
#
# 1 0.025692 -0.000664 -0.004676 0.000000 -0.009774 0.000000
# 2 -0.000664 0.008719 -0.003711 0.000000 -0.000559 0.000000
# 3 -0.004676 -0.003711 0.013009 0.000000 -0.005041 0.000000
# 4 0.000000 0.000000 0.000000 0.021677 0.000000 0.001588
# 5 -0.009774 -0.000559 -0.005041 0.000000 0.028887 0.000000
# 6 0.000000 0.000000 0.000000 0.001588 0.000000 0.036936
#
#
# Mechanical properties :
#
#
# Convention : Reuss Voigt Hill
#
# Bulk Modulus (GPa) = 34.10687 60.10679 47.10683
# Shear Modulus (GPa) = 30.71370 38.13783 34.42577
#
# Velocity S-wave (km/s) = 3.74276 4.17066 3.96249
# Velocity P-wave (km/s) = 5.85095 7.11384 6.51308
#
# Compressibility (1/GPa) = 0.02931960
#
# Stress axis : x y z
#
# Youngs Moduli (GPa) = 38.92262 114.69531 76.86844
#
# Poissons Ratio (x) = 0.07614 0.35941
# Poissons Ratio (y) = 0.02584 0.28524
# Poissons Ratio (z) = 0.18199 0.42560
#
# Static dielectric constant tensor:
#      x y z
#    x 3.605030 0.000000 0.275870 
#    y 0.000000 4.583820 0.000000 
#    z 0.275870 0.000000 4.405790 
# 
# 
# High freq. dielectric constant tensor:
#      x y z
#    x 1.817680 0.000000 0.016250 
#    y 0.000000 1.886980 0.000000 
#    z 0.016250 0.000000 1.886360 
# 
# From -- ./inp_files/42725.got.cif
#   From: 2010.03.12/outbox.cif.g09.slc.cpg/sg5_22_cif.got.tgz:42725.got - 2010.03.31 09:47:26.
