data_PCOD8051809
_publ_section_title
;
Structure prediction by ZEFSAII (Michael W. Deem and Ramdas Pophale) SiO2 
 PCOD8051809
Probable space group: C 2
;
_chemical_formula_sum "Si O2"
_cell_formula_units_Z 28
_cell_length_a 11.592744
_cell_length_b 8.866920
_cell_length_c 12.748670
_cell_angle_alpha 90.000000
_cell_angle_beta 71.573890
_cell_angle_gamma 90.000000
_cell_volume 1243.275847
_symmetry_space_group_name_H-M "C 2"
_symmetry_group_IT_number 5
_symmetry_cell_setting 'monoclinic'
loop_
_space_group_symop_operation_xyz
x,y,z
-x,y,-z
1/2+x,1/2+y,z
1/2-x,1/2+y,-z
loop_
_atom_site_type_symbol
_atom_site_label
_atom_site_fract_x
_atom_site_fract_y
_atom_site_fract_z
Si Si1 0.585240 0.669810 0.383898
Si Si2 0.091847 0.591035 0.879785
Si Si3 0.416567 0.379099 0.243956
Si Si4 0.777227 0.635964 0.688750
Si Si5 0.512431 0.959166 0.689652
Si Si6 0.681735 0.194638 0.559933
Si Si7 0.176874 0.925926 0.202788
O O1 0.500000 0.609639 0.500000
O O2 0.509112 0.783416 0.330172
O O3 0.702289 0.745795 0.403992
O O4 0.628297 0.522681 0.312961
O O5 0.135575 0.751127 0.819224
O O6 0.214842 0.512935 0.888785
O O7 0.028131 0.486307 0.809439
O O8 0.000000 0.615832 0.000000
O O9 0.341997 0.533449 0.260695
O O10 0.418084 0.313079 0.364289
O O11 0.557117 0.401140 0.165859
O O12 0.897236 0.543931 0.676761
O O13 0.786354 0.709367 0.570668
O O14 0.763972 0.770964 0.774518
O O15 0.632871 0.023979 0.596185
#
# Coordination Sequence:
#
# PCOD8051809 Si02
#       7
#     4   4   4   4   4   4   4
#     4  12  25  39  68 105 147 195 226 270 350 428
#     4  11  26  54  73  95 137 182 244 317 366 401
#     4  11  25  47  67 102 140 190 234 290 348 426
#     4  12  24  41  69 104 149 182 231 281 342 428
#     4  11  23  45  67  98 142 183 236 294 341 416
#     4  11  23  39  65 100 147 190 227 267 345 422
#     4  12  26  44  68 106 139 186 235 291 347 426
#
# _framework density 22.521149000000001
#
# number of rings (size 3 to 8) (size 9 to 14) (size 15 to 20)
#    0.000    0.571    7.143    2.143    8.000    0.000 
#    5.143    0.714    0.000    0.000    0.000    0.000 
#    0.000    0.000    0.000    0.000    0.000    0.000 
#
# Total GULP energy -173542.424520 kJ/mol
# GULP energy per Si atom -12395.887466 kJ/mol
# Density = 2.246989 g / cm^3
# Si number density = 22.521149 Si / 1000 Ang^3
#
#
#
# Elastic Constant Matrix: (Units=GPa)
#
#
# Indices 1 2 3 4 5 6 
#
# 1 95.2785 29.7121 11.7019 0.0000 -15.0174 0.0000
# 2 29.7121 93.9453 9.9994 0.0000 -18.9032 0.0000
# 3 11.7019 9.9994 70.1259 0.0000 -24.3948 0.0000
# 4 0.0000 0.0000 0.0000 13.8169 0.0000 -8.7514
# 5 -15.0174 -18.9032 -24.3948 0.0000 28.6213 0.0000
# 6 0.0000 0.0000 0.0000 -8.7514 0.0000 49.7452
#
#
#
# Elastic Compliance Matrix: (Units=1/GPa)
#
#
# Indices 1 2 3 4 5 6 
#
# 1 0.012109 -0.002949 -0.000096 0.000000 0.004324 0.000000
# 2 -0.002949 0.013110 0.001559 0.000000 0.008439 0.000000
# 3 -0.000096 0.001559 0.020461 0.000000 0.018419 0.000000
# 4 0.000000 0.000000 0.000000 0.081451 0.000000 0.014329
# 5 0.004324 0.008439 0.018419 0.000000 0.058480 0.000000
# 6 0.000000 0.000000 0.000000 0.014329 0.000000 0.022623
#
#
# Mechanical properties :
#
#
# Convention : Reuss Voigt Hill
#
# Bulk Modulus (GPa) = 23.41603 40.24184 31.82893
# Shear Modulus (GPa) = 22.17858 32.29909 27.23883
#
# Velocity S-wave (km/s) = 3.14154 3.79115 3.48153
# Velocity P-wave (km/s) = 4.85582 6.08860 5.50681
#
# Compressibility (1/GPa) = 0.04270580
#
# Stress axis : x y z
#
# Youngs Moduli (GPa) = 82.58630 76.28052 48.87298
#
# Poissons Ratio (x) = 0.22498 0.00469
# Poissons Ratio (y) = 0.24358 -0.07617
# Poissons Ratio (z) = 0.00792 -0.11889
#
# Static dielectric constant tensor:
#      x y z
#    x 4.720780 0.000000 -0.277290 
#    y 0.000000 4.209140 0.000000 
#    z -0.277290 0.000000 3.637690 
# 
# 
# High freq. dielectric constant tensor:
#      x y z
#    x 1.902790 0.000000 -0.023950 
#    y 0.000000 1.896280 0.000000 
#    z -0.023950 0.000000 1.845690 
# 
# From -- ./inp_files/52204.got.cif
#   From: 2010.03.12/outbox.cif.g09.slc.cpg/sg5_27_cif.got.tgz:52204.got - 2010.03.31 09:47:26.
