data_PCOD8051376
_publ_section_title
;
Structure prediction by ZEFSAII (Michael W. Deem and Ramdas Pophale) SiO2 
 PCOD8051376
Probable space group: C 2
;
_chemical_formula_sum "Si O2"
_cell_formula_units_Z 28
_cell_length_a 8.233961
_cell_length_b 15.785275
_cell_length_c 10.673814
_cell_angle_alpha 90.000000
_cell_angle_beta 117.580056
_cell_angle_gamma 90.000000
_cell_volume 1229.682765
_symmetry_space_group_name_H-M "C 2"
_symmetry_group_IT_number 5
_symmetry_cell_setting 'monoclinic'
loop_
_space_group_symop_operation_xyz
x,y,z
-x,y,-z
1/2+x,1/2+y,z
1/2-x,1/2+y,-z
loop_
_atom_site_type_symbol
_atom_site_label
_atom_site_fract_x
_atom_site_fract_y
_atom_site_fract_z
Si Si1 0.810269 0.101940 0.740929
Si Si2 0.873506 0.750203 0.837300
Si Si3 0.805777 0.787026 0.217519
Si Si4 0.312986 0.874318 0.055453
Si Si5 0.875353 0.104057 0.338425
Si Si6 0.841058 0.433171 0.692826
Si Si7 0.000000 0.989419 0.000000
Si Si8 0.500000 0.995487 0.500000
O O1 0.738097 0.192406 0.757303
O O2 0.002873 0.108417 0.741004
O O3 0.659696 0.056991 0.602668
O O4 0.850621 0.044851 0.874949
O O5 0.720657 0.815822 0.832860
O O6 0.787688 0.669541 0.739179
O O7 0.992102 0.793701 0.769563
O O8 0.000000 0.721523 0.000000
O O9 0.781888 0.848663 0.329639
O O10 0.659922 0.816859 0.058831
O O11 0.490030 0.931835 0.147947
O O12 0.130076 0.929820 0.961287
O O13 0.000000 0.130470 0.500000
O O14 0.787172 0.012588 0.325822
O O15 0.919189 0.435550 0.579733
#
# Coordination Sequence:
#
# PCOD8051376 Si02
#       8
#     4   4   4   4   4   4   2   2
#     4  12  28  47  76 106 153 194 254 303 383 444
#     4  10  24  46  76 108 151 188 253 308 373 441
#     4  11  25  47  74 114 144 195 248 312 369 444
#     4  11  23  49  75 113 148 192 251 315 375 436
#     4  12  27  49  72 109 150 200 248 308 374 459
#     4  12  26  47  76 104 155 192 251 309 373 458
#     4  12  24  44  78 108 146 194 246 320 358 446
#     4  12  26  54  70 108 146 210 244 300 386 454
#
# _framework density 22.770101
#
# number of rings (size 3 to 8) (size 9 to 14) (size 15 to 20)
#    0.000    0.571    5.000    3.000    6.000    1.143 
#    6.429    0.000    0.000    0.000    0.000    0.000 
#    0.000    0.000    0.000    0.000    0.000    0.000 
#
# Total GULP energy -173599.204710 kJ/mol
# GULP energy per Si atom -12399.943194 kJ/mol
# Density = 2.271828 g / cm^3
# Si number density = 22.770101 Si / 1000 Ang^3
#
#
#
# Elastic Constant Matrix: (Units=GPa)
#
#
# Indices 1 2 3 4 5 6 
#
# 1 93.4007 29.9817 29.4381 0.0000 -17.2164 0.0000
# 2 29.9817 124.1086 45.9808 0.0000 -8.4835 0.0000
# 3 29.4381 45.9808 100.5344 0.0000 6.9581 0.0000
# 4 0.0000 0.0000 0.0000 39.0360 0.0000 -10.4142
# 5 -17.2164 -8.4835 6.9581 0.0000 46.7967 0.0000
# 6 0.0000 0.0000 0.0000 -10.4142 0.0000 60.9577
#
#
#
# Elastic Compliance Matrix: (Units=1/GPa)
#
#
# Indices 1 2 3 4 5 6 
#
# 1 0.013260 -0.001545 -0.003531 0.000000 0.005123 0.000000
# 2 -0.001545 0.010166 -0.004330 0.000000 0.001918 0.000000
# 3 -0.003531 -0.004330 0.013242 0.000000 -0.004053 0.000000
# 4 0.000000 0.000000 0.000000 0.026841 0.000000 0.004586
# 5 0.005123 0.001918 -0.004053 0.000000 0.024204 0.000000
# 6 0.000000 0.000000 0.000000 0.004586 0.000000 0.017188
#
#
# Mechanical properties :
#
#
# Convention : Reuss Voigt Hill
#
# Bulk Modulus (GPa) = 56.00324 58.76054 57.38189
# Shear Modulus (GPa) = 38.56143 43.53428 41.04785
#
# Velocity S-wave (km/s) = 4.11969 4.37728 4.25044
# Velocity P-wave (km/s) = 6.87587 7.17004 7.02450
#
# Compressibility (1/GPa) = 0.01785611
#
# Stress axis : x y z
#
# Youngs Moduli (GPa) = 75.41718 98.36696 75.52012
#
# Poissons Ratio (x) = 0.15197 0.26663
# Poissons Ratio (y) = 0.11652 0.32700
# Poissons Ratio (z) = 0.26627 0.42592
#
# Static dielectric constant tensor:
#      x y z
#    x 4.426010 0.000000 -0.109090 
#    y 0.000000 4.127690 0.000000 
#    z -0.109090 0.000000 4.019120 
# 
# 
# High freq. dielectric constant tensor:
#      x y z
#    x 1.926550 0.000000 -0.000030 
#    y 0.000000 1.900160 0.000000 
#    z -0.000030 0.000000 1.885910 
# 
# From -- ./inp_files/36526.got.cif
#   From: 2010.03.12/outbox.cif.g09.slc.cpg/sg5_19_cif.got.tgz:36526.got - 2010.03.31 09:47:26.
