data_PCOD8051510
_publ_section_title
;
Structure prediction by ZEFSAII (Michael W. Deem and Ramdas Pophale) SiO2 
 PCOD8051510
Probable space group: C 2
;
_chemical_formula_sum "Si O2"
_cell_formula_units_Z 30
_cell_length_a 23.217237
_cell_length_b 10.007181
_cell_length_c 6.269922
_cell_angle_alpha 90.000000
_cell_angle_beta 95.419534
_cell_angle_gamma 90.000000
_cell_volume 1450.236068
_symmetry_space_group_name_H-M "C 2"
_symmetry_group_IT_number 5
_symmetry_cell_setting 'monoclinic'
loop_
_space_group_symop_operation_xyz
x,y,z
-x,y,-z
1/2+x,1/2+y,z
1/2-x,1/2+y,-z
loop_
_atom_site_type_symbol
_atom_site_label
_atom_site_fract_x
_atom_site_fract_y
_atom_site_fract_z
Si Si1 0.182377 0.761030 0.601428
Si Si2 0.500000 0.315966 0.500000
Si Si3 0.854800 0.444519 0.826239
Si Si4 0.796476 0.328976 0.426733
Si Si5 0.595692 0.415814 0.833594
Si Si6 0.409036 0.209494 0.781951
Si Si7 0.768935 0.549258 0.108879
Si Si8 0.153153 0.180094 0.926519
O O1 0.250272 0.776457 0.580220
O O2 0.154510 0.882927 0.724110
O O3 0.149576 0.737262 0.368923
O O4 0.180318 0.634897 0.759552
O O5 0.541612 0.410233 0.654055
O O6 0.463761 0.220765 0.644494
O O7 0.845467 0.409117 0.574825
O O8 0.905472 0.556295 0.864873
O O9 0.794108 0.506735 0.888733
O O10 0.871891 0.313193 0.968930
O O11 0.760049 0.417035 0.246670
O O12 0.829127 0.210898 0.311639
O O13 0.603012 0.567629 0.917585
O O14 0.584917 0.314764 0.024539
O O15 0.708835 0.626465 0.072200
#
# Coordination Sequence:
#
# PCOD8051510 Si02
#       8
#     4   2   4   4   4   4   4   4
#     4  11  21  33  60  93 132 175 214 247 304 377
#     4  10  26  44  74  92 110 160 228 286 342 374
#     4  11  22  38  61  92 133 174 209 261 319 381
#     4  11  23  36  56  92 141 180 210 246 306 388
#     4  11  24  44  66  95 125 167 221 279 323 381
#     4  11  22  43  69  93 121 162 218 282 324 385
#     4  11  21  35  54  96 136 180 215 244 299 389
#     4  11  25  36  61  95 139 176 213 254 319 386
#
# _framework density 20.686288999999999
#
# number of rings (size 3 to 8) (size 9 to 14) (size 15 to 20)
#    0.000    1.067    4.000    2.800    3.733    2.133 
#    0.000    0.000    0.000   12.000    0.000    0.000 
#    0.000    0.000    0.000    0.000    0.000    0.000 
#
# Total GULP energy -186000.609923 kJ/mol
# GULP energy per Si atom -12400.040662 kJ/mol
# Density = 2.063921 g / cm^3
# Si number density = 20.686289 Si / 1000 Ang^3
#
#
#
# Elastic Constant Matrix: (Units=GPa)
#
#
# Indices 1 2 3 4 5 6 
#
# 1 85.0784 56.3189 41.7856 0.0000 -3.0522 0.0000
# 2 56.3189 145.1510 53.8357 0.0000 -5.6287 0.0000
# 3 41.7856 53.8357 115.1073 0.0000 -0.2587 0.0000
# 4 0.0000 0.0000 0.0000 32.3703 0.0000 -0.4672
# 5 -3.0522 -5.6287 -0.2587 0.0000 28.2401 0.0000
# 6 0.0000 0.0000 0.0000 -0.4672 0.0000 19.2378
#
#
#
# Elastic Compliance Matrix: (Units=1/GPa)
#
#
# Indices 1 2 3 4 5 6 
#
# 1 0.017071 -0.005197 -0.003764 0.000000 0.000775 0.000000
# 2 -0.005197 0.009993 -0.002784 0.000000 0.001405 0.000000
# 3 -0.003764 -0.002784 0.011354 0.000000 -0.000858 0.000000
# 4 0.000000 0.000000 0.000000 0.030903 0.000000 0.000750
# 5 0.000775 0.001405 -0.000858 0.000000 0.035766 0.000000
# 6 0.000000 0.000000 0.000000 0.000750 0.000000 0.051999
#
#
# Mechanical properties :
#
#
# Convention : Reuss Voigt Hill
#
# Bulk Modulus (GPa) = 66.99348 72.13523 69.56435
# Shear Modulus (GPa) = 26.94634 28.86274 27.90454
#
# Velocity S-wave (km/s) = 3.61310 3.73937 3.67677
# Velocity P-wave (km/s) = 7.06128 7.32056 7.19209
#
# Compressibility (1/GPa) = 0.01492683
#
# Stress axis : x y z
#
# Youngs Moduli (GPa) = 58.57885 100.07081 88.07330
#
# Poissons Ratio (x) = 0.52010 0.33155
# Poissons Ratio (y) = 0.30445 0.24518
# Poissons Ratio (z) = 0.22052 0.27858
#
# Static dielectric constant tensor:
#      x y z
#    x 3.364590 0.000000 -0.056400 
#    y 0.000000 3.845230 0.000000 
#    z -0.056400 0.000000 3.891390 
# 
# 
# High freq. dielectric constant tensor:
#      x y z
#    x 1.765850 0.000000 -0.002320 
#    y 0.000000 1.811650 0.000000 
#    z -0.002320 0.000000 1.830590 
# 
# From -- ./inp_files/9594.got.cif
#   From: 2010.03.12/outbox.cif.g09.slc.cpg/sg5_5_cif.got.tgz:9594.got - 2010.03.31 09:47:26.
