data_PCOD8051049
_publ_section_title
;
Structure prediction by ZEFSAII (Michael W. Deem and Ramdas Pophale) SiO2 
 PCOD8051049
Probable space group: C 2
;
_chemical_formula_sum "Si O2"
_cell_formula_units_Z 26
_cell_length_a 11.205613
_cell_length_b 8.547551
_cell_length_c 14.131203
_cell_angle_alpha 90.000000
_cell_angle_beta 60.022608
_cell_angle_gamma 90.000000
_cell_volume 1172.427456
_symmetry_space_group_name_H-M "C 2"
_symmetry_group_IT_number 5
_symmetry_cell_setting 'monoclinic'
loop_
_space_group_symop_operation_xyz
x,y,z
-x,y,-z
1/2+x,1/2+y,z
1/2-x,1/2+y,-z
loop_
_atom_site_type_symbol
_atom_site_label
_atom_site_fract_x
_atom_site_fract_y
_atom_site_fract_z
Si Si1 0.384775 0.428110 0.212731
Si Si2 0.726223 0.530208 0.429273
Si Si3 0.344858 0.880898 0.559878
Si Si4 0.000000 0.793014 0.500000
Si Si5 0.000560 0.659167 0.290324
Si Si6 0.726987 0.962897 0.103617
Si Si7 0.428982 0.682352 0.929140
O O1 0.228708 0.426437 0.313831
O O2 0.483771 0.311317 0.230534
O O3 0.351490 0.383783 0.115808
O O4 0.459590 0.597612 0.183583
O O5 0.650487 0.696943 0.463046
O O6 0.749085 0.473451 0.526086
O O7 0.629433 0.401420 0.419285
O O8 0.871934 0.543875 0.316284
O O9 0.500000 0.945968 0.500000
O O10 0.018811 0.693773 0.589175
O O11 0.142941 0.579439 0.206403
O O12 0.624053 0.838404 0.099697
O O13 0.799669 0.064999 0.993395
O O14 0.500000 0.729143 0.000000
#
# Coordination Sequence:
#
# PCOD8051049 Si02
#       7
#     4   4   4   2   4   4   4
#     4  10  23  42  64  99 132 170 224 273 327 395
#     4  11  23  39  61  90 130 181 223 267 315 382
#     4  11  23  38  62  91 131 178 224 264 321 380
#     4  12  24  42  62  92 144 180 226 272 314 394
#     4  11  26  41  64  98 134 181 222 271 328 390
#     4  11  24  44  73  97 129 174 213 283 343 397
#     4  10  24  45  71 100 129 164 221 280 341 407
#
# _framework density 22.176213000000001
#
# number of rings (size 3 to 8) (size 9 to 14) (size 15 to 20)
#    0.000    1.231    3.846    1.846    3.231    8.615 
#    0.000    0.000    0.000    0.000    0.000    0.000 
#    0.000    0.000    0.000    0.000    0.000    0.000 
#
# Total GULP energy -161096.167869 kJ/mol
# GULP energy per Si atom -12392.012913 kJ/mol
# Density = 2.212574 g / cm^3
# Si number density = 22.176213 Si / 1000 Ang^3
#
#
#
# Elastic Constant Matrix: (Units=GPa)
#
#
# Indices 1 2 3 4 5 6 
#
# 1 104.9737 47.9305 30.8171 0.0000 -3.9875 0.0000
# 2 47.9305 102.9830 47.6800 0.0000 -0.4913 0.0000
# 3 30.8171 47.6800 79.5911 0.0000 -10.5436 0.0000
# 4 0.0000 0.0000 0.0000 -18.0404 0.0000 10.8115
# 5 -3.9875 -0.4913 -10.5436 0.0000 36.9188 0.0000
# 6 0.0000 0.0000 0.0000 10.8115 0.0000 34.9609
#
#
#
# Elastic Compliance Matrix: (Units=1/GPa)
#
#
# Indices 1 2 3 4 5 6 
#
# 1 0.012310 -0.004935 -0.001707 0.000000 0.000776 0.000000
# 2 -0.004935 0.015591 -0.007766 0.000000 -0.002543 0.000000
# 3 -0.001707 -0.007766 0.018541 0.000000 0.005007 0.000000
# 4 0.000000 0.000000 0.000000 -0.046764 0.000000 0.014462
# 5 0.000776 -0.002543 0.005007 0.000000 0.028567 0.000000
# 6 0.000000 0.000000 0.000000 0.014462 0.000000 0.024131
#
#
# Mechanical properties :
#
#
# Convention : Reuss Voigt Hill
#
# Bulk Modulus (GPa) = 56.73663 60.04478 58.39071
# Shear Modulus (GPa) = 57.42735 21.50922 39.46829
#
# Velocity S-wave (km/s) = 5.09432 3.11774 4.22329
# Velocity P-wave (km/s) = 7.76163 6.33209 7.08302
#
# Compressibility (1/GPa) = 0.01762530
#
# Stress axis : x y z
#
# Youngs Moduli (GPa) = 81.23267 64.14057 53.93555
#
# Poissons Ratio (x) = 0.31656 0.09207
# Poissons Ratio (y) = 0.40092 0.41885
# Poissons Ratio (z) = 0.13866 0.49810
#
# Static dielectric constant tensor:
#      x y z
#    x 4.311750 0.000000 -0.249220 
#    y 0.000000 3.963020 0.000000 
#    z -0.249220 0.000000 4.044910 
# 
# 
# High freq. dielectric constant tensor:
#      x y z
#    x 1.890460 0.000000 -0.008540 
#    y 0.000000 1.870000 0.000000 
#    z -0.008540 0.000000 1.862800 
# 
# From -- ./inp_files/52197.got.cif
#   From: 2010.03.12/outbox.cif.g09.slc.cpg/sg5_27_cif.got.tgz:52197.got - 2010.03.31 09:47:26.
