data_PCOD8051020
_publ_section_title
;
Structure prediction by ZEFSAII (Michael W. Deem and Ramdas Pophale) SiO2 
 PCOD8051020
Probable space group: C 2
;
_chemical_formula_sum "Si O2"
_cell_formula_units_Z 24
_cell_length_a 25.449766
_cell_length_b 7.042533
_cell_length_c 6.935389
_cell_angle_alpha 90.000000
_cell_angle_beta 62.732967
_cell_angle_gamma 90.000000
_cell_volume 1104.910562
_symmetry_space_group_name_H-M "C 2"
_symmetry_group_IT_number 5
_symmetry_cell_setting 'monoclinic'
loop_
_space_group_symop_operation_xyz
x,y,z
-x,y,-z
1/2+x,1/2+y,z
1/2-x,1/2+y,-z
loop_
_atom_site_type_symbol
_atom_site_label
_atom_site_fract_x
_atom_site_fract_y
_atom_site_fract_z
Si Si1 0.000000 0.402460 0.000000
Si Si2 0.927353 0.272840 0.476747
Si Si3 0.500000 0.435285 0.500000
Si Si4 0.302557 0.093930 0.968371
Si Si5 0.247160 0.788345 0.280764
Si Si6 0.064341 0.600660 0.220361
Si Si7 0.203028 0.177473 0.398226
O O1 0.961156 0.282599 0.216043
O O2 0.048026 0.520162 0.039308
O O3 0.945640 0.446436 0.588547
O O4 0.856774 0.279797 0.569486
O O5 0.945655 0.068356 0.528409
O O6 0.525135 0.290935 0.298176
O O7 0.284845 0.111387 0.770839
O O8 0.368199 0.167640 0.893667
O O9 0.258401 0.231299 0.166305
O O10 0.296364 0.877084 0.051468
O O11 0.282129 0.731674 0.409825
O O12 0.196582 0.947365 0.406386
#
# Coordination Sequence:
#
# PCOD8051020 Si02
#       7
#     2   4   2   4   4   4   4
#     4  12  24  48  70 104 132 204 228 278 368 404
#     4  12  25  50  70 101 150 184 236 297 352 417
#     4  12  24  50  68 104 136 186 238 298 340 406
#     4  10  24  43  70 101 132 189 220 287 362 410
#     4  10  23  41  66 105 138 171 234 274 363 413
#     4  12  25  48  74  98 148 183 240 299 349 420
#     4  10  25  43  69 103 136 178 229 292 345 421
#
# _framework density 21.721215999999998
#
# number of rings (size 3 to 8) (size 9 to 14) (size 15 to 20)
#    1.000    0.000    3.333    3.000    4.667    0.667 
#    6.000    0.000    0.000    0.000    0.000    0.000 
#    0.000    0.000    0.000    0.000    0.000    0.000 
#
# Total GULP energy -148674.557687 kJ/mol
# GULP energy per Si atom -12389.546474 kJ/mol
# Density = 2.167178 g / cm^3
# Si number density = 21.721216 Si / 1000 Ang^3
#
#
#
# Elastic Constant Matrix: (Units=GPa)
#
#
# Indices 1 2 3 4 5 6 
#
# 1 144.3420 25.6773 40.4235 0.0000 7.8227 0.0000
# 2 25.6773 92.3489 31.5487 0.0000 5.9191 0.0000
# 3 40.4235 31.5487 89.1005 0.0000 13.6990 0.0000
# 4 0.0000 0.0000 0.0000 27.3255 0.0000 5.3734
# 5 7.8227 5.9191 13.6990 0.0000 48.3734 0.0000
# 6 0.0000 0.0000 0.0000 5.3734 0.0000 35.7772
#
#
#
# Elastic Compliance Matrix: (Units=1/GPa)
#
#
# Indices 1 2 3 4 5 6 
#
# 1 0.008041 -0.001122 -0.003212 0.000000 -0.000253 0.000000
# 2 -0.001122 0.012479 -0.003871 0.000000 -0.000249 0.000000
# 3 -0.003212 -0.003871 0.014531 0.000000 -0.003122 0.000000
# 4 0.000000 0.000000 0.000000 0.037710 0.000000 -0.005664
# 5 -0.000253 -0.000249 -0.003122 0.000000 0.021628 0.000000
# 6 0.000000 0.000000 0.000000 -0.005664 0.000000 0.028801
#
#
# Mechanical properties :
#
#
# Convention : Reuss Voigt Hill
#
# Bulk Modulus (GPa) = 53.64577 57.89895 55.77236
# Shear Modulus (GPa) = 34.29035 37.50467 35.89751
#
# Velocity S-wave (km/s) = 3.97754 4.15979 4.06969
# Velocity P-wave (km/s) = 6.77093 7.05586 6.91486
#
# Compressibility (1/GPa) = 0.01864080
#
# Stress axis : x y z
#
# Youngs Moduli (GPa) = 124.36566 80.13470 68.81822
#
# Poissons Ratio (x) = 0.08993 0.22102
# Poissons Ratio (y) = 0.13957 0.26640
# Poissons Ratio (z) = 0.39942 0.31021
#
# Static dielectric constant tensor:
#      x y z
#    x 3.870720 0.000000 -0.021080 
#    y 0.000000 3.787420 0.000000 
#    z -0.021080 0.000000 3.880790 
# 
# 
# High freq. dielectric constant tensor:
#      x y z
#    x 1.860490 0.000000 0.003700 
#    y 0.000000 1.846670 0.000000 
#    z 0.003700 0.000000 1.853660 
# 
# From -- ./inp_files/10709.got.cif
#   From: 2010.03.12/outbox.cif.g09.slc.cpg/sg5_6_cif.got.tgz:10709.got - 2010.03.31 09:47:26.
