data_PCOD8051424
_publ_section_title
;
Structure prediction by ZEFSAII (Michael W. Deem and Ramdas Pophale) SiO2 
 PCOD8051424
Probable space group: C 2
;
_chemical_formula_sum "Si O2"
_cell_formula_units_Z 20
_cell_length_a 15.338177
_cell_length_b 8.311142
_cell_length_c 9.608525
_cell_angle_alpha 90.000000
_cell_angle_beta 35.947540
_cell_angle_gamma 90.000000
_cell_volume 719.054860
_symmetry_space_group_name_H-M "C 2"
_symmetry_group_IT_number 5
_symmetry_cell_setting 'monoclinic'
loop_
_space_group_symop_operation_xyz
x,y,z
-x,y,-z
1/2+x,1/2+y,z
1/2-x,1/2+y,-z
loop_
_atom_site_type_symbol
_atom_site_label
_atom_site_fract_x
_atom_site_fract_y
_atom_site_fract_z
Si Si1 0.432680 0.891950 0.822551
Si Si2 0.500000 0.463174 0.500000
Si Si3 0.500000 0.357859 0.000000
Si Si4 0.790417 0.596171 0.230730
Si Si5 0.194344 0.679842 0.187327
Si Si6 0.270618 0.031048 0.565307
O O1 0.610932 0.881252 0.573571
O O2 0.374434 0.020286 0.785866
O O3 0.377379 0.946501 0.048535
O O4 0.354642 0.716207 0.905030
O O5 0.614565 0.583377 0.429392
O O6 0.594786 0.338093 0.281879
O O7 0.398458 0.469903 0.229782
O O8 0.379383 0.256261 0.062540
O O9 0.817780 0.613453 0.360682
O O10 0.211460 0.656864 0.331804
#
# Coordination Sequence:
#
# PCOD8051424 Si02
#       6
#     4   2   2   4   4   4
#     4  11  25  49  82 119 164 214 268 334 410 477
#     4  10  24  50  82 114 164 210 264 336 398 478
#     4  12  30  46  82 118 162 208 276 310 420 468
#     4  11  27  49  82 114 160 214 266 329 400 477
#     4  11  26  49  83 120 164 215 268 331 413 478
#     4  12  27  50  77 116 161 214 270 337 383 494
#
# _framework density 27.814288000000001
#
# number of rings (size 3 to 8) (size 9 to 14) (size 15 to 20)
#    0.000    0.800    4.000    0.000   11.200    6.400 
#    0.000    0.000    0.000    0.000    0.000    0.000 
#    0.000    0.000    0.000    0.000    0.000    0.000 
#
# Total GULP energy -123885.389232 kJ/mol
# GULP energy per Si atom -12388.538923 kJ/mol
# Density = 2.775098 g / cm^3
# Si number density = 27.814288 Si / 1000 Ang^3
#
#
#
# Elastic Constant Matrix: (Units=GPa)
#
#
# Indices 1 2 3 4 5 6 
#
# 1 126.4409 39.9749 64.4194 0.0000 -4.1361 0.0000
# 2 39.9749 50.7153 22.7244 0.0000 -14.1426 0.0000
# 3 64.4194 22.7244 185.2987 0.0000 -44.9110 0.0000
# 4 0.0000 0.0000 0.0000 51.1414 0.0000 -13.3481
# 5 -4.1361 -14.1426 -44.9110 0.0000 54.8304 0.0000
# 6 0.0000 0.0000 0.0000 -13.3481 0.0000 33.1780
#
#
#
# Elastic Compliance Matrix: (Units=1/GPa)
#
#
# Indices 1 2 3 4 5 6 
#
# 1 0.013235 -0.009828 -0.004702 0.000000 -0.005388 0.000000
# 2 -0.009828 0.028928 0.001869 0.000000 0.008251 0.000000
# 3 -0.004702 0.001869 0.008525 0.000000 0.007110 0.000000
# 4 0.000000 0.000000 0.000000 0.021848 0.000000 0.008790
# 5 -0.005388 0.008251 0.007110 0.000000 0.025784 0.000000
# 6 0.000000 0.000000 0.000000 0.008790 0.000000 0.033677
#
#
# Mechanical properties :
#
#
# Convention : Reuss Voigt Hill
#
# Bulk Modulus (GPa) = 39.42155 68.52137 53.97146
# Shear Modulus (GPa) = 30.16142 43.51902 36.84022
#
# Velocity S-wave (km/s) = 3.29657 3.95983 3.64333
# Velocity P-wave (km/s) = 5.35666 6.75247 6.09465
#
# Compressibility (1/GPa) = 0.02536683
#
# Stress axis : x y z
#
# Youngs Moduli (GPa) = 75.55585 34.56858 117.29559
#
# Poissons Ratio (x) = 0.33974 0.55150
# Poissons Ratio (y) = 0.74256 -0.21921
# Poissons Ratio (z) = 0.35525 -0.06460
#
# Static dielectric constant tensor:
#      x y z
#    x 4.826360 0.000000 -0.308960 
#    y 0.000000 4.756270 0.000000 
#    z -0.308960 0.000000 5.586110 
# 
# 
# High freq. dielectric constant tensor:
#      x y z
#    x 2.097330 0.000000 -0.015440 
#    y 0.000000 2.107300 0.000000 
#    z -0.015440 0.000000 2.157520 
# 
# From -- ./inp_files/44295.got.cif
#   From: 2010.03.12/outbox.cif.g09.slc.cpg/sg5_23_cif.got.tgz:44295.got - 2010.03.31 09:47:26.
