data_PCOD8051877
_publ_section_title
;
Structure prediction by ZEFSAII (Michael W. Deem and Ramdas Pophale) SiO2 
 PCOD8051877
Probable space group: C 2
;
_chemical_formula_sum "Si O2"
_cell_formula_units_Z 24
_cell_length_a 13.634817
_cell_length_b 8.814663
_cell_length_c 8.332895
_cell_angle_alpha 90.000000
_cell_angle_beta 91.570260
_cell_angle_gamma 90.000000
_cell_volume 1001.123869
_symmetry_space_group_name_H-M "C 2"
_symmetry_group_IT_number 5
_symmetry_cell_setting 'monoclinic'
loop_
_space_group_symop_operation_xyz
x,y,z
-x,y,-z
1/2+x,1/2+y,z
1/2-x,1/2+y,-z
loop_
_atom_site_type_symbol
_atom_site_label
_atom_site_fract_x
_atom_site_fract_y
_atom_site_fract_z
Si Si1 0.904285 0.668520 0.208731
Si Si2 0.902800 0.801593 0.850074
Si Si3 0.213937 0.154855 0.802195
Si Si4 0.094599 0.151786 0.095351
Si Si5 0.778067 0.340165 0.679832
Si Si6 0.401824 0.865943 0.392196
O O1 0.819534 0.737901 0.318048
O O2 0.903926 0.489523 0.248838
O O3 0.012375 0.731350 0.259834
O O4 0.894035 0.712210 0.020417
O O5 0.798265 0.776822 0.760964
O O6 0.928202 0.977864 0.864232
O O7 0.117259 0.201659 0.694218
O O8 0.253353 0.987674 0.779615
O O9 0.190367 0.161313 0.988839
O O10 0.124499 0.252538 0.249825
O O11 0.000000 0.221230 0.000000
O O12 0.807384 0.391809 0.502817
O O13 0.500000 0.864953 0.500000
#
# Coordination Sequence:
#
# PCOD8051877 Si02
#       6
#     4   4   4   4   4   4
#     4  11  23  46  74 104 151 192 254 307 370 446
#     4  11  23  44  76 112 142 192 255 316 371 430
#     4  12  24  44  71 107 144 194 256 314 369 442
#     4  12  22  42  70 108 145 190 251 315 369 439
#     4  12  25  45  71 108 150 197 249 307 383 449
#     4  12  28  48  67 108 154 207 247 301 383 459
#
# _framework density 23.973057000000001
#
# number of rings (size 3 to 8) (size 9 to 14) (size 15 to 20)
#    0.000    0.333    5.000    4.000    2.333    0.000 
#    0.000    0.833    0.000    0.000    0.000    0.000 
#    0.000    0.000    0.000    0.000    0.000    0.000 
#
# Total GULP energy -148749.773156 kJ/mol
# GULP energy per Si atom -12395.814430 kJ/mol
# Density = 2.391849 g / cm^3
# Si number density = 23.973057 Si / 1000 Ang^3
#
#
#
# Elastic Constant Matrix: (Units=GPa)
#
#
# Indices 1 2 3 4 5 6 
#
# 1 109.0157 48.0389 17.4213 0.0000 -8.5455 0.0000
# 2 48.0389 127.2398 44.7698 0.0000 8.1992 0.0000
# 3 17.4213 44.7698 66.9454 0.0000 -3.4102 0.0000
# 4 0.0000 0.0000 0.0000 32.3353 0.0000 -0.3230
# 5 -8.5455 8.1992 -3.4102 0.0000 32.3145 0.0000
# 6 0.0000 0.0000 0.0000 -0.3230 0.0000 32.8368
#
#
#
# Elastic Compliance Matrix: (Units=1/GPa)
#
#
# Indices 1 2 3 4 5 6 
#
# 1 0.011554 -0.004785 0.000413 0.000000 0.004313 0.000000
# 2 -0.004785 0.012634 -0.007471 0.000000 -0.005260 0.000000
# 3 0.000413 -0.007471 0.020036 0.000000 0.004119 0.000000
# 4 0.000000 0.000000 0.000000 0.030929 0.000000 0.000304
# 5 0.004313 -0.005260 0.004119 0.000000 0.033856 0.000000
# 6 0.000000 0.000000 0.000000 0.000304 0.000000 0.030457
#
#
# Mechanical properties :
#
#
# Convention : Reuss Voigt Hill
#
# Bulk Modulus (GPa) = 48.69312 58.18456 53.43884
# Shear Modulus (GPa) = 29.41214 32.36203 30.88708
#
# Velocity S-wave (km/s) = 3.50649 3.67813 3.59333
# Velocity P-wave (km/s) = 6.06215 6.50859 6.28933
#
# Compressibility (1/GPa) = 0.02053678
#
# Stress axis : x y z
#
# Youngs Moduli (GPa) = 86.55153 79.15359 49.90942
#
# Poissons Ratio (x) = 0.37879 -0.02063
# Poissons Ratio (y) = 0.41419 0.37289
# Poissons Ratio (z) = -0.03578 0.59139
#
# Static dielectric constant tensor:
#      x y z
#    x 4.919680 0.000000 -0.123730 
#    y 0.000000 4.151780 0.000000 
#    z -0.123730 0.000000 4.095100 
# 
# 
# High freq. dielectric constant tensor:
#      x y z
#    x 1.981100 0.000000 -0.007380 
#    y 0.000000 1.945710 0.000000 
#    z -0.007380 0.000000 1.931750 
# 
# From -- ./inp_files/22891.got.cif
#   From: 2010.03.12/outbox.cif.g09.slc.cpg/sg5_12_cif.got.tgz:22891.got - 2010.03.31 09:47:26.
