data_PCOD8051152
_publ_section_title
;
Structure prediction by ZEFSAII (Michael W. Deem and Ramdas Pophale) SiO2 
 PCOD8051152
Probable space group: C 2
;
_chemical_formula_sum "Si O2"
_cell_formula_units_Z 18
_cell_length_a 7.820977
_cell_length_b 18.741516
_cell_length_c 5.484740
_cell_angle_alpha 90.000000
_cell_angle_beta 119.911439
_cell_angle_gamma 90.000000
_cell_volume 696.849955
_symmetry_space_group_name_H-M "C 2"
_symmetry_group_IT_number 5
_symmetry_cell_setting 'monoclinic'
loop_
_space_group_symop_operation_xyz
x,y,z
-x,y,-z
1/2+x,1/2+y,z
1/2-x,1/2+y,-z
loop_
_atom_site_type_symbol
_atom_site_label
_atom_site_fract_x
_atom_site_fract_y
_atom_site_fract_z
Si Si1 0.209579 0.147600 0.774312
Si Si2 0.500000 0.563926 0.000000
Si Si3 0.764561 0.872501 0.323495
Si Si4 0.281327 0.309326 0.837306
Si Si5 0.824089 0.519283 0.560625
O O1 0.306500 0.224221 0.865444
O O2 0.351137 0.094526 0.720290
O O3 0.000000 0.156170 0.500000
O O4 0.173817 0.113215 0.013411
O O5 0.609952 0.515119 0.275816
O O6 0.677391 0.834257 0.509080
O O7 0.000000 0.863398 0.500000
O O8 0.689275 0.954126 0.259141
O O9 0.674865 0.837371 0.010433
O O10 0.500000 0.342703 0.000000
O O11 0.000000 0.507266 0.500000
#
# Coordination Sequence:
#
# PCOD8051152 Si02
#       5
#     4   2   4   4   4
#     4  10  24  44  68 102 140 188 236 296 360 426
#     4  10  24  44  72  96 146 182 236 308 350 424
#     4  10  23  45  69 103 143 190 233 294 361 425
#     4  10  24  42  73  99 143 188 233 293 358 427
#     4  11  26  44  73 107 139 188 244 298 361 433
#
# _framework density 25.830527
#
# number of rings (size 3 to 8) (size 9 to 14) (size 15 to 20)
#    0.000    1.778    0.000    2.000   17.111    1.778 
#    0.000    0.000    0.000    0.000    0.000    0.000 
#    0.000    0.000    0.000    0.000    0.000    0.000 
#
# Total GULP energy -111606.248620 kJ/mol
# GULP energy per Si atom -12400.694291 kJ/mol
# Density = 2.577174 g / cm^3
# Si number density = 25.830527 Si / 1000 Ang^3
#
#
#
# Elastic Constant Matrix: (Units=GPa)
#
#
# Indices 1 2 3 4 5 6 
#
# 1 91.3552 33.4668 34.9810 0.0000 -38.3821 0.0000
# 2 33.4668 187.0577 57.9581 0.0000 -35.0012 0.0000
# 3 34.9810 57.9581 142.8147 0.0000 -43.8453 0.0000
# 4 0.0000 0.0000 0.0000 38.2096 0.0000 -7.6139
# 5 -38.3821 -35.0012 -43.8453 0.0000 41.2120 0.0000
# 6 0.0000 0.0000 0.0000 -7.6139 0.0000 21.4747
#
#
#
# Elastic Compliance Matrix: (Units=1/GPa)
#
#
# Indices 1 2 3 4 5 6 
#
# 1 0.018108 -0.000252 0.001157 0.000000 0.017881 0.000000
# 2 -0.000252 0.006545 -0.001426 0.000000 0.003807 0.000000
# 3 0.001157 -0.001426 0.010776 0.000000 0.011331 0.000000
# 4 0.000000 0.000000 0.000000 0.028161 0.000000 0.009984
# 5 0.017881 0.003807 0.011331 0.000000 0.056206 0.000000
# 6 0.000000 0.000000 0.000000 0.009984 0.000000 0.050106
#
#
# Mechanical properties :
#
#
# Convention : Reuss Voigt Hill
#
# Bulk Modulus (GPa) = 29.08080 74.89327 51.98703
# Shear Modulus (GPa) = 27.41101 39.83404 33.62253
#
# Velocity S-wave (km/s) = 3.26112 3.93126 3.61176
# Velocity P-wave (km/s) = 5.04605 7.04723 6.12887
#
# Compressibility (1/GPa) = 0.03438695
#
# Stress axis : x y z
#
# Youngs Moduli (GPa) = 55.22273 152.78472 92.79850
#
# Poissons Ratio (x) = 0.03856 -0.10733
# Poissons Ratio (y) = 0.01394 0.13229
# Poissons Ratio (z) = -0.06387 0.21781
#
# Static dielectric constant tensor:
#      x y z
#    x 4.653330 0.000000 -0.419070 
#    y 0.000000 4.482390 0.000000 
#    z -0.419070 0.000000 4.810590 
# 
# 
# High freq. dielectric constant tensor:
#      x y z
#    x 2.043270 0.000000 -0.006920 
#    y 0.000000 2.023500 0.000000 
#    z -0.006920 0.000000 2.039750 
# 
# From -- ./inp_files/2112.got.cif
#   From: 2010.03.12/outbox.cif.g09.slc.cpg/sg5_2_cif.got.tgz:2112.got - 2010.03.31 09:47:26.
