data_PCOD8051299
_publ_section_title
;
Structure prediction by ZEFSAII (Michael W. Deem and Ramdas Pophale) SiO2 
 PCOD8051299
Probable space group: C 2
;
_chemical_formula_sum "Si O2"
_cell_formula_units_Z 22
_cell_length_a 9.454892
_cell_length_b 16.641107
_cell_length_c 8.343871
_cell_angle_alpha 90.000000
_cell_angle_beta 53.020125
_cell_angle_gamma 90.000000
_cell_volume 1048.744972
_symmetry_space_group_name_H-M "C 2"
_symmetry_group_IT_number 5
_symmetry_cell_setting 'monoclinic'
loop_
_space_group_symop_operation_xyz
x,y,z
-x,y,-z
1/2+x,1/2+y,z
1/2-x,1/2+y,-z
loop_
_atom_site_type_symbol
_atom_site_label
_atom_site_fract_x
_atom_site_fract_y
_atom_site_fract_z
Si Si1 0.737916 0.556750 0.446481
Si Si2 0.421288 0.517181 0.883839
Si Si3 0.000000 0.632061 0.500000
Si Si4 0.801065 0.232781 0.120244
Si Si5 0.703543 0.147293 0.900953
Si Si6 0.196621 0.416527 0.825947
O O1 0.572309 0.559141 0.675783
O O2 0.918739 0.576631 0.416301
O O3 0.700662 0.623257 0.331297
O O4 0.749633 0.466055 0.369284
O O5 0.259659 0.581405 0.998845
O O6 0.340106 0.435801 0.866023
O O7 0.500000 0.493826 0.000000
O O8 0.842634 0.685977 0.677738
O O9 0.800950 0.321259 0.197399
O O10 0.752926 0.230639 0.960038
O O11 0.000000 0.195750 0.000000
O O12 0.500000 0.143763 0.000000
O O13 0.000000 0.447215 0.000000
#
# Coordination Sequence:
#
# PCOD8051299 Si02
#       6
#     4   4   2   4   4   4
#     4  11  23  39  70  97 131 181 226 278 330 413
#     4  11  23  38  66  98 133 175 235 277 329 411
#     4  12  24  40  72 102 130 180 234 282 334 402
#     4  11  25  44  67  98 141 176 227 288 343 398
#     4  11  20  39  63  93 130 169 221 278 332 392
#     4  10  24  44  65  94 140 182 218 283 346 393
#
# _framework density 20.977454999999999
#
# number of rings (size 3 to 8) (size 9 to 14) (size 15 to 20)
#    0.000    1.091    1.818    7.091    5.091    0.727 
#    0.000    0.000    0.000    0.000    0.000    0.000 
#    0.000    0.000    0.000    0.000    0.000    0.000 
#
# Total GULP energy -136298.723130 kJ/mol
# GULP energy per Si atom -12390.793012 kJ/mol
# Density = 2.092971 g / cm^3
# Si number density = 20.977455 Si / 1000 Ang^3
#
#
#
# Elastic Constant Matrix: (Units=GPa)
#
#
# Indices 1 2 3 4 5 6 
#
# 1 190.6400 49.7589 58.2381 0.0000 1.5793 0.0000
# 2 49.7589 80.1115 39.4627 0.0000 2.8003 0.0000
# 3 58.2381 39.4627 116.2416 0.0000 -3.9602 0.0000
# 4 0.0000 0.0000 0.0000 16.3176 0.0000 -9.2144
# 5 1.5793 2.8003 -3.9602 0.0000 44.1765 0.0000
# 6 0.0000 0.0000 0.0000 -9.2144 0.0000 29.2381
#
#
#
# Elastic Compliance Matrix: (Units=1/GPa)
#
#
# Indices 1 2 3 4 5 6 
#
# 1 0.006761 -0.003023 -0.002370 0.000000 -0.000263 0.000000
# 2 -0.003023 0.016429 -0.004107 0.000000 -0.001302 0.000000
# 3 -0.002370 -0.004107 0.011231 0.000000 0.001352 0.000000
# 4 0.000000 0.000000 0.000000 0.074551 0.000000 0.023495
# 5 -0.000263 -0.001302 0.001352 0.000000 0.022850 0.000000
# 6 0.000000 0.000000 0.000000 0.023495 0.000000 0.041606
#
#
# Mechanical properties :
#
#
# Convention : Reuss Voigt Hill
#
# Bulk Modulus (GPa) = 64.85009 75.76806 70.30907
# Shear Modulus (GPa) = 25.30791 33.91533 29.61162
#
# Velocity S-wave (km/s) = 3.47714 4.02525 3.76119
# Velocity P-wave (km/s) = 6.86309 7.60268 7.24233
#
# Compressibility (1/GPa) = 0.01542018
#
# Stress axis : x y z
#
# Youngs Moduli (GPa) = 147.91687 60.86895 89.04245
#
# Poissons Ratio (x) = 0.18398 0.21102
# Poissons Ratio (y) = 0.44708 0.36573
# Poissons Ratio (z) = 0.35055 0.25001
#
# Static dielectric constant tensor:
#      x y z
#    x 4.426100 0.000000 -0.019960 
#    y 0.000000 3.565560 0.000000 
#    z -0.019960 0.000000 3.875020 
# 
# 
# High freq. dielectric constant tensor:
#      x y z
#    x 1.850640 0.000000 -0.013510 
#    y 0.000000 1.792500 0.000000 
#    z -0.013510 0.000000 1.824290 
# 
# From -- ./inp_files/16011.got.cif
#   From: 2010.03.12/outbox.cif.g09.slc.cpg/sg5_9_cif.got.tgz:16011.got - 2010.03.31 09:47:26.
