data_PCOD8051886
_publ_section_title
;
Structure prediction by ZEFSAII (Michael W. Deem and Ramdas Pophale) SiO2 
 PCOD8051886
Probable space group: C 2
;
_chemical_formula_sum "Si O2"
_cell_formula_units_Z 30
_cell_length_a 10.499253
_cell_length_b 8.753821
_cell_length_c 16.529213
_cell_angle_alpha 90.000000
_cell_angle_beta 119.378461
_cell_angle_gamma 90.000000
_cell_volume 1323.807825
_symmetry_space_group_name_H-M "C 2"
_symmetry_group_IT_number 5
_symmetry_cell_setting 'monoclinic'
loop_
_space_group_symop_operation_xyz
x,y,z
-x,y,-z
1/2+x,1/2+y,z
1/2-x,1/2+y,-z
loop_
_atom_site_type_symbol
_atom_site_label
_atom_site_fract_x
_atom_site_fract_y
_atom_site_fract_z
Si Si1 0.039493 0.524730 0.604181
Si Si2 0.113496 0.905849 0.108743
Si Si3 0.500000 0.852107 0.000000
Si Si4 0.278299 0.190116 0.120768
Si Si5 0.918451 0.838291 0.318835
Si Si6 0.614456 0.543490 0.274068
Si Si7 0.135419 0.392282 0.310509
Si Si8 0.560134 0.099773 0.145802
O O1 0.993306 0.695293 0.617476
O O2 0.213253 0.500294 0.669955
O O3 0.000000 0.494222 0.500000
O O4 0.935553 0.410840 0.623182
O O5 0.043749 0.976109 0.169811
O O6 0.169533 0.730305 0.144592
O O7 0.254950 0.010483 0.134704
O O8 0.000000 0.912133 0.000000
O O9 0.639100 0.746665 0.026089
O O10 0.550905 0.951328 0.090118
O O11 0.310201 0.286986 0.211721
O O12 0.410097 0.197608 0.098390
O O13 0.812798 0.900746 0.358238
O O14 0.032013 0.966759 0.324861
O O15 0.586135 0.724793 0.264665
O O16 0.084683 0.541013 0.243820
#
# Coordination Sequence:
#
# PCOD8051886 Si02
#       8
#     4   4   2   4   4   4   4   4
#     4  11  25  48  73 102 140 179 230 291 356 429
#     4  12  23  41  64  96 138 187 235 281 337 406
#     4  12  26  40  60 100 138 178 238 288 330 412
#     4  12  24  43  63  92 137 182 232 289 342 401
#     4  11  23  45  72 103 135 179 229 289 357 413
#     4  11  24  45  72 103 141 188 230 292 353 413
#     4  11  23  46  69 102 136 183 231 284 356 421
#     4  12  25  41  64  96 136 185 236 282 345 410
#
# _framework density 22.661899999999999
#
# number of rings (size 3 to 8) (size 9 to 14) (size 15 to 20)
#    0.000    0.533    8.000    0.000    1.867    5.333 
#    0.000    0.667    0.000    0.000    0.000    0.000 
#    0.000    0.000    0.000    0.000    0.000    0.000 
#
# Total GULP energy -185876.562600 kJ/mol
# GULP energy per Si atom -12391.770840 kJ/mol
# Density = 2.261032 g / cm^3
# Si number density = 22.661900 Si / 1000 Ang^3
#
#
#
# Elastic Constant Matrix: (Units=GPa)
#
#
# Indices 1 2 3 4 5 6 
#
# 1 118.0598 50.2091 22.0212 0.0000 -10.1046 0.0000
# 2 50.2091 124.5168 31.4268 0.0000 -5.8252 0.0000
# 3 22.0212 31.4268 87.4460 0.0000 -16.8184 0.0000
# 4 0.0000 0.0000 0.0000 22.9269 0.0000 -8.6748
# 5 -10.1046 -5.8252 -16.8184 0.0000 26.6019 0.0000
# 6 0.0000 0.0000 0.0000 -8.6748 0.0000 32.3760
#
#
#
# Elastic Compliance Matrix: (Units=1/GPa)
#
#
# Indices 1 2 3 4 5 6 
#
# 1 0.010504 -0.003929 -0.000719 0.000000 0.002675 0.000000
# 2 -0.003929 0.010302 -0.002921 0.000000 -0.001084 0.000000
# 3 -0.000719 -0.002921 0.014220 0.000000 0.008078 0.000000
# 4 0.000000 0.000000 0.000000 0.048538 0.000000 0.013005
# 5 0.002675 -0.001084 0.008078 0.000000 0.043477 0.000000
# 6 0.000000 0.000000 0.000000 0.013005 0.000000 0.034372
#
#
# Mechanical properties :
#
#
# Convention : Reuss Voigt Hill
#
# Bulk Modulus (GPa) = 50.28121 59.70409 54.99265
# Shear Modulus (GPa) = 27.29550 31.47198 29.38374
#
# Velocity S-wave (km/s) = 3.47431 3.73065 3.60476
# Velocity P-wave (km/s) = 6.19113 6.70521 6.45329
#
# Compressibility (1/GPa) = 0.01988814
#
# Stress axis : x y z
#
# Youngs Moduli (GPa) = 95.19913 97.06841 70.32318
#
# Poissons Ratio (x) = 0.38139 0.05054
# Poissons Ratio (y) = 0.37405 0.20544
# Poissons Ratio (z) = 0.06842 0.28357
#
# Static dielectric constant tensor:
#      x y z
#    x 4.181320 0.000000 -0.153930 
#    y 0.000000 4.268060 0.000000 
#    z -0.153930 0.000000 3.760520 
# 
# 
# High freq. dielectric constant tensor:
#      x y z
#    x 1.897540 0.000000 -0.015030 
#    y 0.000000 1.907900 0.000000 
#    z -0.015030 0.000000 1.859990 
# 
# From -- ./inp_files/60310.got.cif
#   From: 2010.03.12/outbox.cif.g09.slc.cpg/sg5_31_cif.got.tgz:60310.got - 2010.03.31 09:47:26.
