data_PCOD8051668
_publ_section_title
;
Structure prediction by ZEFSAII (Michael W. Deem and Ramdas Pophale) SiO2 
 PCOD8051668
Probable space group: C 2
;
_chemical_formula_sum "Si O2"
_cell_formula_units_Z 30
_cell_length_a 11.195165
_cell_length_b 14.382885
_cell_length_c 11.057647
_cell_angle_alpha 90.000000
_cell_angle_beta 127.386613
_cell_angle_gamma 90.000000
_cell_volume 1414.698910
_symmetry_space_group_name_H-M "C 2"
_symmetry_group_IT_number 5
_symmetry_cell_setting 'monoclinic'
loop_
_space_group_symop_operation_xyz
x,y,z
-x,y,-z
1/2+x,1/2+y,z
1/2-x,1/2+y,-z
loop_
_atom_site_type_symbol
_atom_site_label
_atom_site_fract_x
_atom_site_fract_y
_atom_site_fract_z
Si Si1 0.297747 0.665950 0.630502
Si Si2 0.281826 0.154888 0.149154
Si Si3 0.333876 0.061980 0.854100
Si Si4 0.418841 0.037770 0.645495
Si Si5 0.240204 0.760344 0.095700
Si Si6 0.958925 0.323117 0.612047
Si Si7 0.000000 0.902689 0.000000
Si Si8 0.430105 0.543519 0.143192
O O1 0.255783 0.693414 0.741865
O O2 0.161184 0.602522 0.501615
O O3 0.313716 0.761345 0.562712
O O4 0.451438 0.607110 0.712713
O O5 0.419731 0.082877 0.228473
O O6 0.305891 0.241909 0.072744
O O7 0.138272 0.099816 0.011572
O O8 0.318170 0.035892 0.704456
O O9 0.303352 0.171000 0.852192
O O10 0.203160 0.008913 0.848900
O O11 0.500000 0.032393 0.000000
O O12 0.430483 0.932940 0.604105
O O13 0.413339 0.788944 0.215964
O O14 0.150957 0.845043 0.095899
O O15 0.000000 0.298001 0.500000
O O16 0.985288 0.957410 0.864736
#
# Coordination Sequence:
#
# PCOD8051668 Si02
#       8
#     4   4   4   4   4   4   2   4
#     4  12  25  44  72 100 147 183 230 302 347 424
#     4  11  21  47  68 104 138 185 231 284 363 407
#     4  11  21  45  67 101 139 184 231 286 352 410
#     4  12  26  45  75 101 144 189 233 293 362 423
#     4  11  23  40  72 102 138 182 235 292 340 422
#     4  12  27  45  69 104 140 189 240 284 360 426
#     4  12  22  38  68 108 132 178 238 292 340 416
#     4  11  23  39  70  99 137 182 231 285 350 409
#
# _framework density 21.205925000000001
#
# number of rings (size 3 to 8) (size 9 to 14) (size 15 to 20)
#    0.000    0.533    7.333    2.800    1.867    1.067 
#    0.000    0.000    2.933    0.000    0.000    0.000 
#    0.000    0.000    0.000    0.000    0.000    0.000 
#
# Total GULP energy -185996.668138 kJ/mol
# GULP energy per Si atom -12399.777876 kJ/mol
# Density = 2.115766 g / cm^3
# Si number density = 21.205925 Si / 1000 Ang^3
#
#
#
# Elastic Constant Matrix: (Units=GPa)
#
#
# Indices 1 2 3 4 5 6 
#
# 1 116.5911 35.9076 14.7747 0.0000 -26.6848 0.0000
# 2 35.9076 94.7374 21.5497 0.0000 -3.5507 0.0000
# 3 14.7747 21.5497 74.8620 0.0000 -6.6708 0.0000
# 4 0.0000 0.0000 0.0000 41.9354 0.0000 19.9600
# 5 -26.6848 -3.5507 -6.6708 0.0000 49.1004 0.0000
# 6 0.0000 0.0000 0.0000 19.9600 0.0000 75.7158
#
#
#
# Elastic Compliance Matrix: (Units=1/GPa)
#
#
# Indices 1 2 3 4 5 6 
#
# 1 0.011150 -0.003882 -0.000575 0.000000 0.005701 0.000000
# 2 -0.003882 0.012653 -0.003019 0.000000 -0.001605 0.000000
# 3 -0.000575 -0.003019 0.014468 0.000000 0.001435 0.000000
# 4 0.000000 0.000000 0.000000 0.027268 0.000000 -0.007188
# 5 0.005701 -0.001605 0.001435 0.000000 0.023544 0.000000
# 6 0.000000 0.000000 0.000000 -0.007188 0.000000 0.015102
#
#
# Mechanical properties :
#
#
# Convention : Reuss Voigt Hill
#
# Bulk Modulus (GPa) = 42.88239 47.85051 45.36645
# Shear Modulus (GPa) = 39.39775 47.61423 43.50599
#
# Velocity S-wave (km/s) = 4.31497 4.74363 4.53437
# Velocity P-wave (km/s) = 6.71499 7.25371 6.98954
#
# Compressibility (1/GPa) = 0.02331959
#
# Stress axis : x y z
#
# Youngs Moduli (GPa) = 89.68493 79.03035 69.11613
#
# Poissons Ratio (x) = 0.30677 0.03976
# Poissons Ratio (y) = 0.34812 0.20868
# Poissons Ratio (z) = 0.05159 0.23862
#
# Static dielectric constant tensor:
#      x y z
#    x 4.021030 0.000000 -0.076830 
#    y 0.000000 3.787310 0.000000 
#    z -0.076830 0.000000 3.921900 
# 
# 
# High freq. dielectric constant tensor:
#      x y z
#    x 1.849840 0.000000 -0.003750 
#    y 0.000000 1.819220 0.000000 
#    z -0.003750 0.000000 1.825240 
# 
# From -- ./inp_files/40072.got.cif
#   From: 2010.03.12/outbox.cif.g09.slc.cpg/sg5_21_cif.got.tgz:40072.got - 2010.03.31 09:47:26.
