data_PCOD8051622
_publ_section_title
;
Structure prediction by ZEFSAII (Michael W. Deem and Ramdas Pophale) SiO2 
 PCOD8051622
Probable space group: C 2
;
_chemical_formula_sum "Si O2"
_cell_formula_units_Z 20
_cell_length_a 15.234943
_cell_length_b 16.513217
_cell_length_c 12.910613
_cell_angle_alpha 90.000000
_cell_angle_beta 161.782784
_cell_angle_gamma 90.000000
_cell_volume 1015.398757
_symmetry_space_group_name_H-M "C 2"
_symmetry_group_IT_number 5
_symmetry_cell_setting 'monoclinic'
loop_
_space_group_symop_operation_xyz
x,y,z
-x,y,-z
1/2+x,1/2+y,z
1/2-x,1/2+y,-z
loop_
_atom_site_type_symbol
_atom_site_label
_atom_site_fract_x
_atom_site_fract_y
_atom_site_fract_z
Si Si1 0.347944 0.602760 0.645827
Si Si2 0.364018 0.817835 0.176013
Si Si3 0.180699 0.165879 0.612576
Si Si4 0.400734 0.420776 0.771757
Si Si5 0.111122 0.698520 0.735341
O O1 0.311316 0.613284 0.481915
O O2 0.359966 0.508137 0.677284
O O3 0.105550 0.650247 0.435094
O O4 0.640449 0.637453 0.012838
O O5 0.506921 0.748390 0.404255
O O6 0.600806 0.881770 0.413552
O O7 0.223433 0.779290 0.916623
O O8 0.127520 0.864265 0.972967
O O9 0.000000 0.119350 0.500000
O O10 0.500000 0.186236 0.000000
O O11 0.500000 0.430972 0.000000
O O12 0.000000 0.727547 0.500000
#
# Coordination Sequence:
#
# PCOD8051622 Si02
#       5
#     4   4   4   4   4
#     4  11  24  39  61  90 118 153 201 239 289 354
#     4  11  23  37  60  89 116 150 197 239 290 351
#     4  11  21  39  63  86 116 156 198 243 287 343
#     4  12  23  38  59  88 121 150 187 247 301 339
#     4  11  22  41  63  85 117 159 199 240 284 345
#
# _framework density 19.696695999999999
#
# number of rings (size 3 to 8) (size 9 to 14) (size 15 to 20)
#    0.000    0.800    0.000   11.400    0.000    0.000 
#    0.000    3.000    0.000    0.000    0.000    0.000 
#    0.000    0.000    0.000    0.000    0.000    0.000 
#
# Total GULP energy -123989.726390 kJ/mol
# GULP energy per Si atom -12398.972639 kJ/mol
# Density = 1.965186 g / cm^3
# Si number density = 19.696696 Si / 1000 Ang^3
#
#
#
# Elastic Constant Matrix: (Units=GPa)
#
#
# Indices 1 2 3 4 5 6 
#
# 1 192.7976 72.2181 92.3513 0.0045 0.2456 0.0042
# 2 72.2181 163.3262 80.9411 -0.0021 0.4185 -0.0013
# 3 92.3513 80.9411 166.1202 -0.0027 6.0152 -0.0027
# 4 0.0045 -0.0021 -0.0027 16.2884 -0.0025 6.9300
# 5 0.2456 0.4185 6.0152 -0.0025 54.7355 -0.0016
# 6 0.0042 -0.0013 -0.0027 6.9300 -0.0016 21.2992
#
#
#
# Elastic Compliance Matrix: (Units=1/GPa)
#
#
# Indices 1 2 3 4 5 6 
#
# 1 0.007388 -0.001616 -0.003332 -0.000002 0.000345 -0.000001
# 2 -0.001616 0.008433 -0.003221 0.000001 0.000297 0.000000
# 3 -0.003332 -0.003221 0.009478 0.000001 -0.001002 0.000001
# 4 -0.000002 0.000001 0.000001 0.071257 0.000002 -0.023185
# 5 0.000345 0.000297 -0.001002 0.000002 0.018376 0.000000
# 6 -0.000001 0.000000 0.000001 -0.023185 0.000000 0.054494
#
#
# Mechanical properties :
#
#
# Convention : Reuss Voigt Hill
#
# Bulk Modulus (GPa) = 111.61069 112.58500 112.09785
# Shear Modulus (GPa) = 26.48988 36.91352 31.70170
#
# Velocity S-wave (km/s) = 3.67125 4.33378 4.01620
# Velocity P-wave (km/s) = 8.64630 9.07335 8.86240
#
# Compressibility (1/GPa) = 0.00895971
#
# Stress axis : x y z
#
# Youngs Moduli (GPa) = 135.35686 118.58267 105.50814
#
# Poissons Ratio (x) = 0.19166 0.35157
# Poissons Ratio (y) = 0.21877 0.33986
# Poissons Ratio (z) = 0.45103 0.38197
#
# Static dielectric constant tensor:
#      x y z
#    x 3.802420 0.000000 0.107200 
#    y 0.000000 3.509250 0.000000 
#    z 0.107200 0.000000 3.933070 
# 
# 
# High freq. dielectric constant tensor:
#      x y z
#    x 1.785670 0.000000 0.009650 
#    y 0.000000 1.757030 0.000000 
#    z 0.009650 0.000000 1.791020 
# 
# From -- ./inp_files/4619.got.cif
#   From: 2010.03.12/outbox.cif.g09.slc.cpg/sg5_3_cif.got.tgz:4619.got - 2010.03.31 09:47:26.
