data_PCOD8051833
_publ_section_title
;
Structure prediction by ZEFSAII (Michael W. Deem and Ramdas Pophale) SiO2 
 PCOD8051833
Probable space group: C 2
;
_chemical_formula_sum "Si O2"
_cell_formula_units_Z 26
_cell_length_a 7.996099
_cell_length_b 11.972319
_cell_length_c 19.459592
_cell_angle_alpha 90.000000
_cell_angle_beta 141.886858
_cell_angle_gamma 90.000000
_cell_volume 1149.814024
_symmetry_space_group_name_H-M "C 2"
_symmetry_group_IT_number 5
_symmetry_cell_setting 'monoclinic'
loop_
_space_group_symop_operation_xyz
x,y,z
-x,y,-z
1/2+x,1/2+y,z
1/2-x,1/2+y,-z
loop_
_atom_site_type_symbol
_atom_site_label
_atom_site_fract_x
_atom_site_fract_y
_atom_site_fract_z
Si Si1 0.799872 0.566240 0.817326
Si Si2 0.500000 0.221324 0.000000
Si Si3 0.189370 0.487695 0.415423
Si Si4 0.575677 0.808562 0.598021
Si Si5 0.222483 0.119636 0.432743
Si Si6 0.549644 0.165701 0.765698
Si Si7 0.489133 0.822972 0.078331
O O1 0.482529 0.579590 0.693340
O O2 0.002484 0.616784 0.826093
O O3 0.876784 0.436116 0.848804
O O4 0.830920 0.638674 0.896149
O O5 0.693867 0.303086 0.017282
O O6 0.500000 0.463052 0.500000
O O7 0.164674 0.515246 0.488111
O O8 0.037631 0.573015 0.317200
O O9 0.015776 0.373397 0.361872
O O10 0.500000 0.861193 0.500000
O O11 0.432072 0.687983 0.558096
O O12 0.893091 0.783438 0.705153
O O13 0.500000 0.183322 0.500000
O O14 0.855232 0.207086 0.852821
O O15 0.500000 0.836540 0.000000
#
# Coordination Sequence:
#
# PCOD8051833 Si02
#       7
#     4   2   4   4   4   4   4
#     4  11  26  49  75 107 147 190 249 301 370 432
#     4  12  28  50  76 112 140 186 262 306 364 440
#     4  12  23  43  67 106 149 189 237 289 358 435
#     4  11  23  42  68  99 148 194 237 284 355 433
#     4  11  24  43  68 110 150 188 240 297 354 443
#     4  11  25  48  69 105 145 187 241 309 357 438
#     4  12  28  50  78 103 144 196 247 312 372 421
#
# _framework density 22.612351
#
# number of rings (size 3 to 8) (size 9 to 14) (size 15 to 20)
#    0.000    0.615    6.923    0.923    6.462    3.692 
#    0.000    0.000    0.000    0.000    0.000    0.000 
#    0.000    0.000    0.000    0.000    0.000    0.000 
#
# Total GULP energy -161069.968769 kJ/mol
# GULP energy per Si atom -12389.997598 kJ/mol
# Density = 2.256088 g / cm^3
# Si number density = 22.612351 Si / 1000 Ang^3
#
#
#
# Elastic Constant Matrix: (Units=GPa)
#
#
# Indices 1 2 3 4 5 6 
#
# 1 116.7921 39.3504 52.8882 -0.0004 0.6823 0.0001
# 2 39.3504 91.0738 34.4825 -0.0002 -4.2884 0.0000
# 3 52.8882 34.4825 105.9435 -0.0011 -9.8019 0.0002
# 4 -0.0004 -0.0002 -0.0011 -48.3326 -0.0006 23.6180
# 5 0.6823 -4.2884 -9.8019 -0.0006 41.9880 0.0001
# 6 0.0001 0.0000 0.0002 23.6180 0.0001 27.8045
#
#
#
# Elastic Compliance Matrix: (Units=1/GPa)
#
#
# Indices 1 2 3 4 5 6 
#
# 1 0.011989 -0.003347 -0.005054 0.000000 -0.001717 0.000000
# 2 -0.003347 0.013463 -0.002636 0.000000 0.000814 0.000000
# 3 -0.005054 -0.002636 0.013085 0.000000 0.002868 0.000000
# 4 0.000000 0.000000 0.000000 -0.014621 0.000000 0.012420
# 5 -0.001717 0.000814 0.002868 0.000000 0.024597 0.000000
# 6 0.000000 0.000000 0.000000 0.012420 0.000000 0.025416
#
#
# Mechanical properties :
#
#
# Convention : Reuss Voigt Hill
#
# Bulk Modulus (GPa) = 60.74376 63.02794 61.88585
# Shear Modulus (GPa) = 49.26609 16.76455 33.01532
#
# Velocity S-wave (km/s) = 4.67275 2.72580 3.82521
# Velocity P-wave (km/s) = 7.48560 6.15145 6.85108
#
# Compressibility (1/GPa) = 0.01646260
#
# Stress axis : x y z
#
# Youngs Moduli (GPa) = 83.41121 74.28025 76.42166
#
# Poissons Ratio (x) = 0.24863 0.38626
# Poissons Ratio (y) = 0.27919 0.20141
# Poissons Ratio (z) = 0.42159 0.19577
#
# Static dielectric constant tensor:
#      x y z
#    x 4.313070 0.000000 0.189360 
#    y 0.000000 3.974990 0.000000 
#    z 0.189360 0.000000 4.159430 
# 
# 
# High freq. dielectric constant tensor:
#      x y z
#    x 1.904950 0.000000 -0.000320 
#    y 0.000000 1.899090 0.000000 
#    z -0.000320 0.000000 1.886390 
# 
# From -- ./inp_files/64580.got.cif
#   From: 2010.03.12/outbox.cif.g09.slc.cpg/sg5_33_cif.got.tgz:64580.got - 2010.03.31 09:47:26.
