data_PCOD8051381
_publ_section_title
;
Structure prediction by ZEFSAII (Michael W. Deem and Ramdas Pophale) SiO2 
 PCOD8051381
Probable space group: C 2
;
_chemical_formula_sum "Si O2"
_cell_formula_units_Z 30
_cell_length_a 13.687843
_cell_length_b 5.552782
_cell_length_c 16.975917
_cell_angle_alpha 90.000000
_cell_angle_beta 107.081337
_cell_angle_gamma 90.000000
_cell_volume 1233.349689
_symmetry_space_group_name_H-M "C 2"
_symmetry_group_IT_number 5
_symmetry_cell_setting 'monoclinic'
loop_
_space_group_symop_operation_xyz
x,y,z
-x,y,-z
1/2+x,1/2+y,z
1/2-x,1/2+y,-z
loop_
_atom_site_type_symbol
_atom_site_label
_atom_site_fract_x
_atom_site_fract_y
_atom_site_fract_z
Si Si1 0.186775 0.244060 0.486825
Si Si2 0.617741 0.513877 0.325670
Si Si3 0.288640 0.455913 0.205315
Si Si4 0.220600 0.645363 0.035840
Si Si5 0.433339 0.799329 0.826693
Si Si6 0.163813 0.311053 0.652042
Si Si7 0.000000 0.455715 0.000000
Si Si8 0.471580 0.129794 0.272651
O O1 0.248405 0.493855 0.495369
O O2 0.113323 0.220294 0.392723
O O3 0.124954 0.246387 0.554796
O O4 0.552158 0.582790 0.232018
O O5 0.735530 0.475888 0.331026
O O6 0.555146 0.283653 0.342578
O O7 0.282012 0.654141 0.133671
O O8 0.185091 0.304400 0.178742
O O9 0.304660 0.570707 0.294758
O O10 0.379990 0.274919 0.210905
O O11 0.099040 0.628195 0.022700
O O12 0.244552 0.897511 0.999342
O O13 0.467401 0.035730 0.788330
O O14 0.498411 0.779777 0.922788
O O15 0.072172 0.435234 0.677080
#
# Coordination Sequence:
#
# PCOD8051381 Si02
#       8
#     4   4   4   4   4   4   2   4
#     4  10  24  46  81 110 151 197 243 304 368 438
#     4  11  24  45  78 106 147 194 246 302 372 437
#     4  11  24  44  72 102 144 194 242 307 370 436
#     4  11  27  47  72 105 147 193 250 307 372 439
#     4  11  23  47  69 103 145 195 247 308 368 437
#     4  11  24  46  77 104 149 194 245 301 371 436
#     4  10  26  46  70 106 150 196 254 308 370 438
#     4  12  25  43  76 105 142 195 245 300 371 439
#
# _framework density 24.324003000000001
#
# number of rings (size 3 to 8) (size 9 to 14) (size 15 to 20)
#    0.000    1.067    2.667    2.400    9.333    0.533 
#    0.000    4.000    0.000    0.000    0.000    0.000 
#    0.000    0.000    0.000    0.000    0.000    0.000 
#
# Total GULP energy -185898.764718 kJ/mol
# GULP energy per Si atom -12393.250981 kJ/mol
# Density = 2.426864 g / cm^3
# Si number density = 24.324003 Si / 1000 Ang^3
#
#
#
# Elastic Constant Matrix: (Units=GPa)
#
#
# Indices 1 2 3 4 5 6 
#
# 1 84.0704 15.4554 21.0142 0.0000 -1.2856 0.0000
# 2 15.4554 82.7709 21.8477 0.0000 1.4886 0.0000
# 3 21.0142 21.8477 127.9500 0.0000 -20.6068 0.0000
# 4 0.0000 0.0000 0.0000 33.4543 0.0000 -3.7492
# 5 -1.2856 1.4886 -20.6068 0.0000 23.4076 0.0000
# 6 0.0000 0.0000 0.0000 -3.7492 0.0000 28.8153
#
#
#
# Elastic Compliance Matrix: (Units=1/GPa)
#
#
# Indices 1 2 3 4 5 6 
#
# 1 0.012699 -0.001852 -0.001909 0.000000 -0.000865 0.000000
# 2 -0.001852 0.013125 -0.002433 0.000000 -0.003078 0.000000
# 3 -0.001909 -0.002433 0.009965 0.000000 0.008823 0.000000
# 4 0.000000 0.000000 0.000000 0.030334 0.000000 0.003947
# 5 -0.000865 -0.003078 0.008823 0.000000 0.050636 0.000000
# 6 0.000000 0.000000 0.000000 0.003947 0.000000 0.035217
#
#
# Mechanical properties :
#
#
# Convention : Reuss Voigt Hill
#
# Bulk Modulus (GPa) = 42.73013 45.71399 44.22206
# Shear Modulus (GPa) = 29.04202 32.90039 30.97120
#
# Velocity S-wave (km/s) = 3.45913 3.68175 3.57217
# Velocity P-wave (km/s) = 5.79304 6.07522 5.93580
#
# Compressibility (1/GPa) = 0.02340269
#
# Stress axis : x y z
#
# Youngs Moduli (GPa) = 78.74562 76.19169 100.34747
#
# Poissons Ratio (x) = 0.14110 0.19154
# Poissons Ratio (y) = 0.14582 0.24411
# Poissons Ratio (z) = 0.15031 0.18535
#
# Static dielectric constant tensor:
#      x y z
#    x 4.368590 0.000000 -0.100240 
#    y 0.000000 4.207480 0.000000 
#    z -0.100240 0.000000 4.974020 
# 
# 
# High freq. dielectric constant tensor:
#      x y z
#    x 1.973000 0.000000 -0.004470 
#    y 0.000000 1.954600 0.000000 
#    z -0.004470 0.000000 1.980040 
# 
# From -- ./inp_files/61236.got.cif
#   From: 2010.03.12/outbox.cif.g09.slc.cpg/sg5_31_cif.got.tgz:61236.got - 2010.03.31 09:47:26.
