data_PCOD8051980
_publ_section_title
;
Structure prediction by ZEFSAII (Michael W. Deem and Ramdas Pophale) SiO2 
 PCOD8051980
Probable space group: C 2
;
_chemical_formula_sum "Si O2"
_cell_formula_units_Z 20
_cell_length_a 15.358857
_cell_length_b 9.494191
_cell_length_c 6.573632
_cell_angle_alpha 90.000000
_cell_angle_beta 74.305419
_cell_angle_gamma 90.000000
_cell_volume 922.828591
_symmetry_space_group_name_H-M "C 2"
_symmetry_group_IT_number 5
_symmetry_cell_setting 'monoclinic'
loop_
_space_group_symop_operation_xyz
x,y,z
-x,y,-z
1/2+x,1/2+y,z
1/2-x,1/2+y,-z
loop_
_atom_site_type_symbol
_atom_site_label
_atom_site_fract_x
_atom_site_fract_y
_atom_site_fract_z
Si Si1 0.283095 0.207010 0.019220
Si Si2 0.161829 0.504913 0.666406
Si Si3 0.603753 0.717570 0.879845
Si Si4 0.400998 0.229676 0.551748
Si Si5 0.679186 0.443920 0.690058
O O1 0.177775 0.210591 0.015643
O O2 0.355310 0.188097 0.793318
O O3 0.296178 0.070908 0.154865
O O4 0.307019 0.352570 0.116143
O O5 0.131108 0.344814 0.713714
O O6 0.082690 0.602113 0.622382
O O7 0.229477 0.521998 0.431908
O O8 0.604549 0.565637 0.769645
O O9 0.500000 0.748438 0.000000
O O10 0.500000 0.296906 0.500000
O O11 0.339314 0.349471 0.493877
#
# Coordination Sequence:
#
# PCOD8051980 Si02
#       5
#     4   4   4   4   4
#     4  11  24  46  71  91 137 188 221 269 339 408
#     4  11  24  46  68  97 137 176 226 274 337 404
#     4  12  26  41  69 105 135 172 222 288 339 382
#     4  11  26  42  72  96 129 183 232 267 326 411
#     4  11  24  46  68  97 137 176 226 274 337 404
#
# _framework density 21.672498000000001
#
# number of rings (size 3 to 8) (size 9 to 14) (size 15 to 20)
#    0.000    0.800    4.000    2.400    5.600    1.600 
#    0.000    3.000    0.000    0.000    0.000    0.000 
#    0.000    0.000    0.000    0.000    0.000    0.000 
#
# Total GULP energy -123936.046088 kJ/mol
# GULP energy per Si atom -12393.604609 kJ/mol
# Density = 2.162317 g / cm^3
# Si number density = 21.672498 Si / 1000 Ang^3
#
#
#
# Elastic Constant Matrix: (Units=GPa)
#
#
# Indices 1 2 3 4 5 6 
#
# 1 104.3882 9.1816 43.4934 0.0000 -20.2777 0.0000
# 2 9.1816 130.4261 47.4024 0.0000 0.1560 0.0000
# 3 43.4934 47.4024 117.9028 0.0000 -0.4976 0.0000
# 4 0.0000 0.0000 0.0000 36.8929 0.0000 -7.1079
# 5 -20.2777 0.1560 -0.4976 0.0000 22.1210 0.0000
# 6 0.0000 0.0000 0.0000 -7.1079 0.0000 17.7124
#
#
#
# Elastic Compliance Matrix: (Units=1/GPa)
#
#
# Indices 1 2 3 4 5 6 
#
# 1 0.014385 0.001031 -0.005666 0.000000 0.013052 0.000000
# 2 0.001031 0.009054 -0.004017 0.000000 0.000791 0.000000
# 3 -0.005666 -0.004017 0.012166 0.000000 -0.004892 0.000000
# 4 0.000000 0.000000 0.000000 0.029377 0.000000 0.011789
# 5 0.013052 0.000791 -0.004892 0.000000 0.057054 0.000000
# 6 0.000000 0.000000 0.000000 0.011789 0.000000 0.061188
#
#
# Mechanical properties :
#
#
# Convention : Reuss Voigt Hill
#
# Bulk Modulus (GPa) = 54.64246 61.43022 58.03634
# Shear Modulus (GPa) = 24.19812 32.18792 28.19302
#
# Velocity S-wave (km/s) = 3.34509 3.85801 3.61066
# Velocity P-wave (km/s) = 6.33932 6.94636 6.64977
#
# Compressibility (1/GPa) = 0.01830079
#
# Stress axis : x y z
#
# Youngs Moduli (GPa) = 69.51715 110.45362 82.19622
#
# Poissons Ratio (x) = -0.11387 0.46572
# Poissons Ratio (y) = -0.07167 0.33018
# Poissons Ratio (z) = 0.39388 0.44368
#
# Static dielectric constant tensor:
#      x y z
#    x 3.825980 0.000000 0.111460 
#    y 0.000000 4.021700 0.000000 
#    z 0.111460 0.000000 3.768660 
# 
# 
# High freq. dielectric constant tensor:
#      x y z
#    x 1.843640 0.000000 0.003300 
#    y 0.000000 1.874040 0.000000 
#    z 0.003300 0.000000 1.854520 
# 
# From -- ./inp_files/6489.got.cif
#   From: 2010.03.12/outbox.cif.g09.slc.cpg/sg5_4_cif.got.tgz:6489.got - 2010.03.31 09:47:26.
