data_PCOD8051341
_publ_section_title
;
Structure prediction by ZEFSAII (Michael W. Deem and Ramdas Pophale) SiO2 
 PCOD8051341
Probable space group: C 2
;
_chemical_formula_sum "Si O2"
_cell_formula_units_Z 18
_cell_length_a 12.750503
_cell_length_b 5.016043
_cell_length_c 18.548892
_cell_angle_alpha 90.000000
_cell_angle_beta 35.899149
_cell_angle_gamma 90.000000
_cell_volume 695.618492
_symmetry_space_group_name_H-M "C 2"
_symmetry_group_IT_number 5
_symmetry_cell_setting 'monoclinic'
loop_
_space_group_symop_operation_xyz
x,y,z
-x,y,-z
1/2+x,1/2+y,z
1/2-x,1/2+y,-z
loop_
_atom_site_type_symbol
_atom_site_label
_atom_site_fract_x
_atom_site_fract_y
_atom_site_fract_z
Si Si1 0.291393 0.278640 0.433206
Si Si2 0.039084 0.357509 0.077126
Si Si3 0.264260 0.356665 0.087563
Si Si4 0.000000 0.477999 0.500000
Si Si5 0.156286 0.702117 0.269817
O O1 0.213460 0.473667 0.537784
O O2 0.504173 0.348421 0.304225
O O3 0.172734 0.301556 0.426917
O O4 0.091732 0.386070 0.131516
O O5 0.826072 0.394029 0.187325
O O6 0.145674 0.566237 0.967336
O O7 0.086822 0.065706 0.021753
O O8 0.207953 0.424737 0.200833
O O9 0.934890 0.657200 0.602227
#
# Coordination Sequence:
#
# PCOD8051341 Si02
#       5
#     4   4   4   2   4
#     4  10  25  46  69 101 141 188 238 286 347 418
#     4  10  24  46  71 102 140 185 236 293 350 413
#     4  10  24  45  71 104 141 184 235 290 353 415
#     4  10  26  48  72 108 146 188 236 292 356 428
#     4  11  25  46  75 106 145 189 236 292 355 426
#
# _framework density 25.876249999999999
#
# number of rings (size 3 to 8) (size 9 to 14) (size 15 to 20)
#    0.000    1.778    0.000    0.667    0.000   28.444 
#    0.000    4.444    0.000    0.000    0.000    0.000 
#    0.000    0.000    0.000    0.000    0.000    0.000 
#
# Total GULP energy -111572.016392 kJ/mol
# GULP energy per Si atom -12396.890710 kJ/mol
# Density = 2.581735 g / cm^3
# Si number density = 25.876250 Si / 1000 Ang^3
#
#
#
# Elastic Constant Matrix: (Units=GPa)
#
#
# Indices 1 2 3 4 5 6 
#
# 1 204.7402 25.0421 95.8526 0.0003 -49.7627 -0.0008
# 2 25.0421 62.2588 10.5955 0.0012 -13.1799 -0.0020
# 3 95.8526 10.5955 124.3968 0.0000 -28.0908 0.0000
# 4 0.0003 0.0012 0.0000 22.8608 0.0000 1.0330
# 5 -49.7627 -13.1799 -28.0908 0.0000 78.9628 0.0000
# 6 -0.0008 -0.0020 0.0000 1.0330 0.0000 27.4309
#
#
#
# Elastic Compliance Matrix: (Units=1/GPa)
#
#
# Indices 1 2 3 4 5 6 
#
# 1 0.008525 -0.001812 -0.005730 0.000000 0.003032 0.000000
# 2 -0.001812 0.017120 0.000354 -0.000001 0.001842 0.000001
# 3 -0.005730 0.000354 0.012637 0.000000 0.000943 0.000000
# 4 0.000000 -0.000001 0.000000 0.043818 0.000000 -0.001650
# 5 0.003032 0.001842 0.000943 0.000000 0.015218 0.000000
# 6 0.000000 0.000001 0.000000 -0.001650 0.000000 0.036517
#
#
# Mechanical properties :
#
#
# Convention : Reuss Voigt Hill
#
# Bulk Modulus (GPa) = 41.83025 72.70847 57.26936
# Shear Modulus (GPa) = 32.01405 43.17795 37.59600
#
# Velocity S-wave (km/s) = 3.52120 4.08932 3.81585
# Velocity P-wave (km/s) = 5.72122 7.10326 6.44937
#
# Compressibility (1/GPa) = 0.02390615
#
# Stress axis : x y z
#
# Youngs Moduli (GPa) = 117.29538 58.40957 79.13227
#
# Poissons Ratio (x) = 0.10585 0.45345
# Poissons Ratio (y) = 0.21256 -0.02801
# Poissons Ratio (z) = 0.67213 -0.02067
#
# Static dielectric constant tensor:
#      x y z
#    x 5.706510 0.000000 -0.540900 
#    y 0.000000 4.253640 0.000000 
#    z -0.540900 0.000000 4.541250 
# 
# 
# High freq. dielectric constant tensor:
#      x y z
#    x 2.067910 0.000000 -0.023510 
#    y 0.000000 2.014200 0.000000 
#    z -0.023510 0.000000 2.024770 
# 
# From -- ./inp_files/65523.got.cif
#   From: 2010.03.12/outbox.cif.g09.slc.cpg/sg5_33_cif.got.tgz:65523.got - 2010.03.31 09:47:26.
