data_PCOD8051489
_publ_section_title
;
Structure prediction by ZEFSAII (Michael W. Deem and Ramdas Pophale) SiO2 
 PCOD8051489
Probable space group: C 2
;
_chemical_formula_sum "Si O2"
_cell_formula_units_Z 18
_cell_length_a 23.537511
_cell_length_b 4.769523
_cell_length_c 15.911631
_cell_angle_alpha 90.000000
_cell_angle_beta 157.352057
_cell_angle_gamma 90.000000
_cell_volume 687.839748
_symmetry_space_group_name_H-M "C 2"
_symmetry_group_IT_number 5
_symmetry_cell_setting 'monoclinic'
loop_
_space_group_symop_operation_xyz
x,y,z
-x,y,-z
1/2+x,1/2+y,z
1/2-x,1/2+y,-z
loop_
_atom_site_type_symbol
_atom_site_label
_atom_site_fract_x
_atom_site_fract_y
_atom_site_fract_z
Si Si1 0.500000 0.253590 0.500000
Si Si2 0.798843 0.708970 0.673460
Si Si3 0.780364 0.424581 0.096290
Si Si4 0.940510 0.213143 0.785280
Si Si5 0.716337 0.083189 0.161995
O O1 0.378290 0.454296 0.374024
O O2 0.435017 0.054939 0.338058
O O3 0.850890 0.390651 0.732417
O O4 0.791088 0.760397 0.762207
O O5 0.926254 0.896517 0.801490
O O6 0.639437 0.757604 0.413797
O O7 0.684320 0.307347 0.043711
O O8 0.685494 0.666259 0.920273
O O9 0.106994 0.319288 0.005008
#
# Coordination Sequence:
#
# PCOD8051489 Si02
#       5
#     2   4   4   4   4
#     4  12  30  54  80 128 164 232 276 344 414 508
#     4  10  25  50  80 120 156 204 272 333 405 483
#     4  12  29  54  78 118 171 222 281 340 413 493
#     4  10  25  49  81 119 159 205 264 337 407 480
#     4  12  28  51  90 115 170 219 275 340 417 498
#
# _framework density 26.168886000000001
#
# number of rings (size 3 to 8) (size 9 to 14) (size 15 to 20)
#    0.000    0.889    2.222    1.333    6.222    7.111 
#    4.000    0.000    0.000    0.000    0.000    0.000 
#    0.000    0.000    0.000    0.000    0.000    0.000 
#
# Total GULP energy -111640.403211 kJ/mol
# GULP energy per Si atom -12404.489246 kJ/mol
# Density = 2.610932 g / cm^3
# Si number density = 26.168886 Si / 1000 Ang^3
#
#
#
# Elastic Constant Matrix: (Units=GPa)
#
#
# Indices 1 2 3 4 5 6 
#
# 1 119.8482 26.9164 53.9066 -0.0003 -40.6518 -0.0003
# 2 26.9164 106.7144 17.3171 -0.0006 -26.3127 0.0000
# 3 53.9066 17.3171 109.9962 -0.0005 -7.4711 -0.0002
# 4 -0.0003 -0.0006 -0.0005 44.4576 0.0000 -23.2970
# 5 -40.6518 -26.3127 -7.4711 0.0000 46.8110 -0.0002
# 6 -0.0003 0.0000 -0.0002 -23.2970 -0.0002 22.7055
#
#
#
# Elastic Compliance Matrix: (Units=1/GPa)
#
#
# Indices 1 2 3 4 5 6 
#
# 1 0.015662 0.000286 -0.006860 0.000000 0.012667 0.000001
# 2 0.000286 0.011074 -0.001460 0.000000 0.006240 0.000000
# 3 -0.006860 -0.001460 0.012357 0.000000 -0.004806 0.000000
# 4 0.000000 0.000000 0.000000 0.048653 0.000001 0.049921
# 5 0.012667 0.006240 -0.004806 0.000001 0.035104 0.000001
# 6 0.000001 0.000000 0.000000 0.049921 0.000001 0.095264
#
#
# Mechanical properties :
#
#
# Convention : Reuss Voigt Hill
#
# Bulk Modulus (GPa) = 43.43101 59.20435 51.31768
# Shear Modulus (GPa) = 20.67346 38.68939 29.68142
#
# Velocity S-wave (km/s) = 2.81375 3.84923 3.37148
# Velocity P-wave (km/s) = 5.21428 6.51372 5.89988
#
# Compressibility (1/GPa) = 0.02302502
#
# Stress axis : x y z
#
# Youngs Moduli (GPa) = 63.84921 90.29978 80.92792
#
# Poissons Ratio (x) = -0.02585 0.55518
# Poissons Ratio (y) = -0.01828 0.11814
# Poissons Ratio (z) = 0.43802 0.13183
#
# Static dielectric constant tensor:
#      x y z
#    x 4.684290 0.000000 -0.308730 
#    y 0.000000 4.910680 0.000000 
#    z -0.308730 0.000000 4.821320 
# 
# 
# High freq. dielectric constant tensor:
#      x y z
#    x 2.040890 0.000000 -0.017930 
#    y 0.000000 2.068570 0.000000 
#    z -0.017930 0.000000 2.052040 
# 
# From -- ./inp_files/63507.got.cif
#   From: 2010.03.12/outbox.cif.g09.slc.cpg/sg5_32_cif.got.tgz:63507.got - 2010.03.31 09:47:26.
