data_PCOD8051386
_publ_section_title
;
Structure prediction by ZEFSAII (Michael W. Deem and Ramdas Pophale) SiO2 
 PCOD8051386
Probable space group: C 2
;
_chemical_formula_sum "Si O2"
_cell_formula_units_Z 20
_cell_length_a 17.372844
_cell_length_b 4.984613
_cell_length_c 26.194318
_cell_angle_alpha 90.000000
_cell_angle_beta 158.250325
_cell_angle_gamma 90.000000
_cell_volume 840.540843
_symmetry_space_group_name_H-M "C 2"
_symmetry_group_IT_number 5
_symmetry_cell_setting 'monoclinic'
loop_
_space_group_symop_operation_xyz
x,y,z
-x,y,-z
1/2+x,1/2+y,z
1/2-x,1/2+y,-z
loop_
_atom_site_type_symbol
_atom_site_label
_atom_site_fract_x
_atom_site_fract_y
_atom_site_fract_z
Si Si1 0.275622 0.981910 0.766605
Si Si2 0.001005 0.980888 0.942651
Si Si3 0.826512 0.721082 0.075787
Si Si4 0.172456 0.007531 0.481641
Si Si5 0.724780 0.633721 0.628390
O O1 0.333388 0.711802 0.830814
O O2 0.234166 0.916680 0.680843
O O3 0.069261 0.086786 0.668025
O O4 0.445208 0.221069 0.874546
O O5 0.000000 0.886842 0.000000
O O6 0.225288 0.094689 0.064537
O O7 0.065109 0.811041 0.234621
O O8 0.693096 0.981741 0.978354
O O9 0.202395 0.715654 0.475872
O O10 0.244943 0.997910 0.585464
O O11 0.500000 0.785910 0.500000
#
# Coordination Sequence:
#
# PCOD8051386 Si02
#       5
#     4   4   4   4   4
#     4  11  24  46  67  98 136 181 226 275 337 406
#     4  12  25  43  68 101 140 175 222 284 339 396
#     4  12  24  45  71 102 134 178 230 278 334 408
#     4  11  26  45  69 100 134 176 230 282 337 398
#     4  10  24  47  71  98 137 182 227 278 338 409
#
# _framework density 23.794201000000001
#
# number of rings (size 3 to 8) (size 9 to 14) (size 15 to 20)
#    0.000    0.800    4.000    1.800    5.600    3.200 
#    0.000    9.000    0.000    0.000    0.000    0.000 
#    0.000    0.000    0.000    0.000    0.000    0.000 
#
# Total GULP energy -123907.935443 kJ/mol
# GULP energy per Si atom -12390.793544 kJ/mol
# Density = 2.374004 g / cm^3
# Si number density = 23.794201 Si / 1000 Ang^3
#
#
#
# Elastic Constant Matrix: (Units=GPa)
#
#
# Indices 1 2 3 4 5 6 
#
# 1 148.1149 23.2437 61.1154 0.0021 -5.9769 0.0355
# 2 23.2437 104.6495 37.4566 0.1297 -8.2912 0.0728
# 3 61.1154 37.4566 156.0887 0.1720 12.2226 -0.0229
# 4 0.0021 0.1297 0.1720 22.8443 -0.0642 9.6675
# 5 -5.9769 -8.2912 12.2226 -0.0642 42.7916 0.0459
# 6 0.0355 0.0728 -0.0229 9.6675 0.0459 33.7832
#
#
#
# Elastic Compliance Matrix: (Units=1/GPa)
#
#
# Indices 1 2 3 4 5 6 
#
# 1 0.008260 -0.000507 -0.003268 0.000043 0.001989 -0.000025
# 2 -0.000507 0.010825 -0.002616 -0.000025 0.002774 -0.000021
# 3 -0.003268 -0.002616 0.008582 -0.000077 -0.003415 0.000041
# 4 0.000043 -0.000025 -0.000077 0.049807 0.000113 -0.014253
# 5 0.001989 0.002774 -0.003415 0.000113 0.025160 -0.000077
# 6 -0.000025 -0.000021 0.000041 -0.014253 -0.000077 0.033679
#
#
# Mechanical properties :
#
#
# Convention : Reuss Voigt Hill
#
# Bulk Modulus (GPa) = 67.19162 72.49828 69.84495
# Shear Modulus (GPa) = 32.45556 39.01966 35.73761
#
# Velocity S-wave (km/s) = 3.69726 4.05394 3.87970
# Velocity P-wave (km/s) = 6.82102 7.24207 7.03469
#
# Compressibility (1/GPa) = 0.01488281
#
# Stress axis : x y z
#
# Youngs Moduli (GPa) = 121.06672 92.38249 116.52970
#
# Poissons Ratio (x) = 0.04687 0.38084
# Poissons Ratio (y) = 0.06142 0.30485
# Poissons Ratio (z) = 0.39567 0.24168
#
# Static dielectric constant tensor:
#      x y z
#    x 4.420300 -0.000180 0.184680 
#    y -0.000180 3.801490 0.000020 
#    z 0.184680 0.000020 4.512470 
# 
# 
# High freq. dielectric constant tensor:
#      x y z
#    x 1.972030 -0.000010 0.018990 
#    y -0.000010 1.905000 0.000000 
#    z 0.018990 0.000000 1.952430 
# 
# From -- ./inp_files/43826.got.cif
#   From: 2010.03.12/outbox.cif.g09.slc.cpg/sg5_22_cif.got.tgz:43826.got - 2010.03.31 09:47:26.
