data_PCOD8051637
_publ_section_title
;
Structure prediction by ZEFSAII (Michael W. Deem and Ramdas Pophale) SiO2 
 PCOD8051637
Probable space group: C 2
;
_chemical_formula_sum "Si O2"
_cell_formula_units_Z 32
_cell_length_a 9.615902
_cell_length_b 19.873673
_cell_length_c 15.902150
_cell_angle_alpha 90.000000
_cell_angle_beta 147.892341
_cell_angle_gamma 90.000000
_cell_volume 1615.239534
_symmetry_space_group_name_H-M "C 2"
_symmetry_group_IT_number 5
_symmetry_cell_setting 'monoclinic'
loop_
_space_group_symop_operation_xyz
x,y,z
-x,y,-z
1/2+x,1/2+y,z
1/2-x,1/2+y,-z
loop_
_atom_site_type_symbol
_atom_site_label
_atom_site_fract_x
_atom_site_fract_y
_atom_site_fract_z
Si Si1 0.796369 0.123560 0.670125
Si Si2 0.801529 0.492517 0.142131
Si Si3 0.523606 0.886411 0.370642
Si Si4 0.738243 0.129204 0.823995
Si Si5 0.471688 0.733835 0.625683
Si Si6 0.247972 0.013389 0.922387
Si Si7 0.592994 0.238419 0.275979
Si Si8 0.917178 0.889994 0.715635
O O1 0.500000 0.097796 0.500000
O O2 0.776761 0.159276 0.750994
O O3 0.900281 0.179751 0.659577
O O4 0.998816 0.061878 0.778564
O O5 0.987811 0.431934 0.269493
O O6 0.910823 0.557068 0.252356
O O7 0.500000 0.470550 0.000000
O O8 0.846080 0.510144 0.067872
O O9 0.546426 0.809777 0.348866
O O10 0.783776 0.903767 0.556859
O O11 0.282478 0.899525 0.309762
O O12 0.639115 0.185510 0.837119
O O13 0.000000 0.102256 0.000000
O O14 0.281737 0.722936 0.450326
O O15 0.765262 0.724348 0.740407
O O16 0.500000 0.038573 0.000000
O O17 0.163084 0.939021 0.849890
O O18 0.479805 0.313464 0.225442
#
# Coordination Sequence:
#
# PCOD8051637 Si02
#       8
#     4   4   4   4   4   4   4   4
#     4  12  24  41  67  93 120 169 214 253 308 377
#     4  11  21  41  61  87 126 165 206 253 312 374
#     4   9  18  38  68  92 116 161 212 248 300 378
#     4  11  22  39  61  90 123 165 204 255 315 370
#     4   9  20  38  62  95 122 155 206 264 297 359
#     4  12  27  43  60  93 132 160 206 270 313 360
#     4   9  19  39  63  92 125 159 203 255 312 363
#     4   9  19  38  67  91 119 162 210 251 302 373
#
# _framework density 19.811302000000001
#
# number of rings (size 3 to 8) (size 9 to 14) (size 15 to 20)
#    0.000    1.750    5.000    1.500    5.250    0.500 
#    4.500    1.250    0.000    0.000    0.000    0.000 
#    0.000    0.000    0.000    0.000    0.000    0.000 
#
# Total GULP energy -198290.637720 kJ/mol
# GULP energy per Si atom -12393.164857 kJ/mol
# Density = 1.976621 g / cm^3
# Si number density = 19.811302 Si / 1000 Ang^3
#
#
#
# Elastic Constant Matrix: (Units=GPa)
#
#
# Indices 1 2 3 4 5 6 
#
# 1 104.1225 52.2240 44.1134 0.0196 -11.8776 0.0074
# 2 52.2240 131.3276 49.3970 -0.0235 -6.9455 -0.0179
# 3 44.1134 49.3970 69.5071 -0.0624 -8.9646 -0.0459
# 4 0.0196 -0.0235 -0.0624 17.6643 -0.0441 -9.3442
# 5 -11.8776 -6.9455 -8.9646 -0.0441 31.1249 -0.0345
# 6 0.0074 -0.0179 -0.0459 -9.3442 -0.0345 23.7049
#
#
#
# Elastic Compliance Matrix: (Units=1/GPa)
#
#
# Indices 1 2 3 4 5 6 
#
# 1 0.014211 -0.003066 -0.006470 -0.000055 0.002875 -0.000037
# 2 -0.003066 0.011055 -0.005965 -0.000007 -0.000421 -0.000006
# 3 -0.006470 -0.005965 0.023101 0.000142 0.002854 0.000102
# 4 -0.000055 -0.000007 0.000142 0.071527 0.000151 0.028196
# 5 0.002875 -0.000421 0.002854 0.000151 0.033954 0.000113
# 6 -0.000037 -0.000006 0.000102 0.028196 0.000113 0.053300
#
#
# Mechanical properties :
#
#
# Convention : Reuss Voigt Hill
#
# Bulk Modulus (GPa) = 57.58526 66.26956 61.92741
# Shear Modulus (GPa) = 20.49706 25.11369 22.80537
#
# Velocity S-wave (km/s) = 3.22003 3.56426 3.39651
# Velocity P-wave (km/s) = 6.55399 7.10363 6.83434
#
# Compressibility (1/GPa) = 0.01736556
#
# Stress axis : x y z
#
# Youngs Moduli (GPa) = 70.37013 90.45610 43.28888
#
# Poissons Ratio (x) = 0.27730 0.28006
# Poissons Ratio (y) = 0.21572 0.25823
# Poissons Ratio (z) = 0.45526 0.53960
#
# Static dielectric constant tensor:
#      x y z
#    x 3.713250 0.000050 -0.047290 
#    y 0.000050 3.658650 -0.000040 
#    z -0.047290 -0.000040 3.509020 
# 
# 
# High freq. dielectric constant tensor:
#      x y z
#    x 1.756900 0.000000 -0.012140 
#    y 0.000000 1.780800 0.000000 
#    z -0.012140 0.000000 1.760290 
# 
# From -- ./inp_files/51585.got.cif
#   From: 2010.03.12/outbox.cif.g09.slc.cpg/sg5_26_cif.got.tgz:51585.got - 2010.03.31 09:47:26.
