data_PCOD8051255
_publ_section_title
;
Structure prediction by ZEFSAII (Michael W. Deem and Ramdas Pophale) SiO2 
 PCOD8051255
Probable space group: C 2
;
_chemical_formula_sum "Si O2"
_cell_formula_units_Z 32
_cell_length_a 5.197557
_cell_length_b 18.445492
_cell_length_c 15.273607
_cell_angle_alpha 90.000000
_cell_angle_beta 83.122269
_cell_angle_gamma 90.000000
_cell_volume 1453.766367
_symmetry_space_group_name_H-M "C 2"
_symmetry_group_IT_number 5
_symmetry_cell_setting 'monoclinic'
loop_
_space_group_symop_operation_xyz
x,y,z
-x,y,-z
1/2+x,1/2+y,z
1/2-x,1/2+y,-z
loop_
_atom_site_type_symbol
_atom_site_label
_atom_site_fract_x
_atom_site_fract_y
_atom_site_fract_z
Si Si1 0.944270 0.858440 0.243222
Si Si2 0.035980 0.098223 0.322761
Si Si3 0.478244 0.080395 0.901321
Si Si4 0.580420 0.200693 0.767074
Si Si5 0.022081 0.008758 0.834015
Si Si6 0.221113 0.504165 0.553718
Si Si7 0.812156 0.707848 0.590102
Si Si8 0.594316 0.856212 0.642621
O O1 0.903237 0.781833 0.194320
O O2 0.704960 0.866947 0.319559
O O3 0.217647 0.860703 0.281765
O O4 0.955171 0.922016 0.171418
O O5 0.887518 0.042507 0.263858
O O6 0.856634 0.133906 0.405198
O O7 0.137950 0.164735 0.258399
O O8 0.271362 0.054111 0.359245
O O9 0.429839 0.150784 0.842592
O O10 0.220468 0.032056 0.901763
O O11 0.729103 0.033727 0.864512
O O12 0.500000 0.106610 0.000000
O O13 0.456034 0.207295 0.676709
O O14 0.500000 0.508103 0.500000
O O15 0.160072 0.420763 0.574564
O O16 0.000000 0.536619 0.500000
O O17 0.632764 0.779653 0.590999
O O18 0.000000 0.706589 0.500000
#
# Coordination Sequence:
#
# PCOD8051255 Si02
#       8
#     4   4   4   4   4   4   4   4
#     4  11  22  42  70  97 129 178 230 276 338 413
#     4  11  24  43  62  97 130 181 230 291 339 406
#     4  11  24  45  73 108 142 176 220 282 356 427
#     4  10  24  42  67  98 136 183 228 278 349 409
#     4  11  23  43  75 100 136 177 227 282 345 416
#     4  12  28  41  62  89 133 177 236 290 347 393
#     4  11  24  41  67  94 141 185 243 289 338 400
#     4  11  23  44  62  93 130 185 230 288 343 400
#
# _framework density 22.011787000000002
#
# number of rings (size 3 to 8) (size 9 to 14) (size 15 to 20)
#    0.000    1.000    3.750    2.250    5.250    1.000 
#    0.000    1.250    0.000    0.000    0.000    0.000 
#    0.000    0.000    0.000    0.000    0.000    0.000 
#
# Total GULP energy -198395.206492 kJ/mol
# GULP energy per Si atom -12399.700406 kJ/mol
# Density = 2.196169 g / cm^3
# Si number density = 22.011787 Si / 1000 Ang^3
#
#
#
# Elastic Constant Matrix: (Units=GPa)
#
#
# Indices 1 2 3 4 5 6 
#
# 1 89.0568 29.4964 13.6486 0.0000 7.3474 0.0000
# 2 29.4964 148.9869 41.1779 0.0000 0.7150 0.0000
# 3 13.6486 41.1779 91.7383 0.0000 10.2261 0.0000
# 4 0.0000 0.0000 0.0000 15.5484 0.0000 1.2222
# 5 7.3474 0.7150 10.2261 0.0000 33.0216 0.0000
# 6 0.0000 0.0000 0.0000 1.2222 0.0000 30.8971
#
#
#
# Elastic Compliance Matrix: (Units=1/GPa)
#
#
# Indices 1 2 3 4 5 6 
#
# 1 0.012269 -0.002272 -0.000525 0.000000 -0.002518 0.000000
# 2 -0.002272 0.008111 -0.003459 0.000000 0.001401 0.000000
# 3 -0.000525 -0.003459 0.012957 0.000000 -0.003821 0.000000
# 4 0.000000 0.000000 0.000000 0.064516 0.000000 -0.002552
# 5 -0.002518 0.001401 -0.003821 0.000000 0.031996 0.000000
# 6 0.000000 0.000000 0.000000 -0.002552 0.000000 0.032466
#
#
# Mechanical properties :
#
#
# Convention : Reuss Voigt Hill
#
# Bulk Modulus (GPa) = 48.01655 55.38088 51.69871
# Shear Modulus (GPa) = 27.50729 32.25736 29.88232
#
# Velocity S-wave (km/s) = 3.53889 3.83228 3.68851
# Velocity P-wave (km/s) = 6.20965 6.69299 6.45584
#
# Compressibility (1/GPa) = 0.02082615
#
# Stress axis : x y z
#
# Youngs Moduli (GPa) = 81.50295 123.28824 77.17740
#
# Poissons Ratio (x) = 0.28010 0.04051
# Poissons Ratio (y) = 0.18517 0.26695
# Poissons Ratio (z) = 0.04278 0.42644
#
# Static dielectric constant tensor:
#      x y z
#    x 4.015980 0.000000 0.033430 
#    y 0.000000 4.567290 0.000000 
#    z 0.033430 0.000000 3.607350 
# 
# 
# High freq. dielectric constant tensor:
#      x y z
#    x 1.873440 0.000000 0.004840 
#    y 0.000000 1.886580 0.000000 
#    z 0.004840 0.000000 1.827970 
# 
# From -- ./inp_files/49342.got.cif
#   From: 2010.03.12/outbox.cif.g09.slc.cpg/sg5_25_cif.got.tgz:49342.got - 2010.03.31 09:47:26.
