data_PCOD8051983
_publ_section_title
;
Structure prediction by ZEFSAII (Michael W. Deem and Ramdas Pophale) SiO2 
 PCOD8051983
Probable space group: C 2
;
_chemical_formula_sum "Si O2"
_cell_formula_units_Z 22
_cell_length_a 21.786260
_cell_length_b 8.696258
_cell_length_c 13.473504
_cell_angle_alpha 90.000000
_cell_angle_beta 157.541914
_cell_angle_gamma 90.000000
_cell_volume 975.141227
_symmetry_space_group_name_H-M "C 2"
_symmetry_group_IT_number 5
_symmetry_cell_setting 'monoclinic'
loop_
_space_group_symop_operation_xyz
x,y,z
-x,y,-z
1/2+x,1/2+y,z
1/2-x,1/2+y,-z
loop_
_atom_site_type_symbol
_atom_site_label
_atom_site_fract_x
_atom_site_fract_y
_atom_site_fract_z
Si Si1 0.500000 0.171750 0.500000
Si Si2 0.934462 0.758236 0.793543
Si Si3 0.591651 0.933328 0.479188
Si Si4 0.348083 0.579590 0.718423
Si Si5 0.272275 0.231105 0.901513
Si Si6 0.745126 0.896198 0.061511
O O1 0.343001 0.277807 0.275463
O O2 0.499479 0.069417 0.400666
O O3 0.755229 0.691258 0.505945
O O4 0.924041 0.942289 0.766764
O O5 0.000000 0.707683 0.000000
O O6 0.052726 0.697547 0.884779
O O7 0.738445 0.995292 0.635886
O O8 0.652424 0.797390 0.640109
O O9 0.443339 0.866283 0.193253
O O10 0.500000 0.664928 0.000000
O O11 0.200672 0.070692 0.834327
O O12 0.285002 0.359145 0.006124
#
# Coordination Sequence:
#
# PCOD8051983 Si02
#       6
#     2   4   4   4   4   4
#     4  12  26  42  66 108 140 178 236 276 360 414
#     4  11  24  48  69 103 140 187 238 289 347 427
#     4  12  23  46  69  96 145 183 232 292 340 424
#     4  11  24  46  71 100 141 188 235 293 351 403
#     4  12  23  48  72  99 143 184 232 286 359 409
#     4  12  25  43  70 104 141 180 231 291 348 421
#
# _framework density 22.560834
#
# number of rings (size 3 to 8) (size 9 to 14) (size 15 to 20)
#    0.000    0.364    9.091    0.000    2.545    2.182 
#    9.818    0.000    0.000    0.000    0.000    0.000 
#    0.000    0.000    0.000    0.000    0.000    0.000 
#
# Total GULP energy -136406.847087 kJ/mol
# GULP energy per Si atom -12400.622462 kJ/mol
# Density = 2.250948 g / cm^3
# Si number density = 22.560834 Si / 1000 Ang^3
#
#
#
# Elastic Constant Matrix: (Units=GPa)
#
#
# Indices 1 2 3 4 5 6 
#
# 1 52.1839 3.8605 6.0478 0.0000 12.5369 0.0000
# 2 3.8605 84.8125 39.0318 0.0000 -2.0316 0.0000
# 3 6.0478 39.0318 180.5454 0.0000 -4.0914 0.0000
# 4 0.0000 0.0000 0.0000 39.8013 0.0000 8.9378
# 5 12.5369 -2.0316 -4.0914 0.0000 34.8991 0.0000
# 6 0.0000 0.0000 0.0000 8.9378 0.0000 18.3387
#
#
#
# Elastic Compliance Matrix: (Units=1/GPa)
#
#
# Indices 1 2 3 4 5 6 
#
# 1 0.021164 -0.000824 -0.000706 0.000000 -0.007733 0.000000
# 2 -0.000824 0.013132 -0.002795 0.000000 0.000733 0.000000
# 3 -0.000706 -0.002795 0.006185 0.000000 0.000816 0.000000
# 4 0.000000 0.000000 0.000000 0.028213 0.000000 -0.013750
# 5 -0.007733 0.000733 0.000816 0.000000 0.031570 0.000000
# 6 0.000000 0.000000 0.000000 -0.013750 0.000000 0.061231
#
#
# Mechanical properties :
#
#
# Convention : Reuss Voigt Hill
#
# Bulk Modulus (GPa) = 31.41525 46.15802 38.78664
# Shear Modulus (GPa) = 27.66188 36.51460 32.08824
#
# Velocity S-wave (km/s) = 3.50537 4.02742 3.77543
# Velocity P-wave (km/s) = 5.50803 6.49081 6.01951
#
# Compressibility (1/GPa) = 0.03183167
#
# Stress axis : x y z
#
# Youngs Moduli (GPa) = 47.25085 76.15022 161.67845
#
# Poissons Ratio (x) = 0.06272 0.11417
# Poissons Ratio (y) = 0.03892 0.45186
# Poissons Ratio (z) = 0.03337 0.21282
#
# Static dielectric constant tensor:
#      x y z
#    x 3.886860 0.000000 0.041100 
#    y 0.000000 4.000530 0.000000 
#    z 0.041100 0.000000 4.461910 
# 
# 
# High freq. dielectric constant tensor:
#      x y z
#    x 1.872200 0.000000 0.003290 
#    y 0.000000 1.881130 0.000000 
#    z 0.003290 0.000000 1.916890 
# 
# From -- ./inp_files/38074.got.cif
#   From: 2010.03.12/outbox.cif.g09.slc.cpg/sg5_20_cif.got.tgz:38074.got - 2010.03.31 09:47:26.
