data_PCOD8051320
_publ_section_title
;
Structure prediction by ZEFSAII (Michael W. Deem and Ramdas Pophale) SiO2 
 PCOD8051320
Probable space group: C 2
;
_chemical_formula_sum "Si O2"
_cell_formula_units_Z 26
_cell_length_a 11.932315
_cell_length_b 8.324608
_cell_length_c 24.124983
_cell_angle_alpha 90.000000
_cell_angle_beta 27.502751
_cell_angle_gamma 90.000000
_cell_volume 1106.626770
_symmetry_space_group_name_H-M "C 2"
_symmetry_group_IT_number 5
_symmetry_cell_setting 'monoclinic'
loop_
_space_group_symop_operation_xyz
x,y,z
-x,y,-z
1/2+x,1/2+y,z
1/2-x,1/2+y,-z
loop_
_atom_site_type_symbol
_atom_site_label
_atom_site_fract_x
_atom_site_fract_y
_atom_site_fract_z
Si Si1 0.580941 0.360870 0.826721
Si Si2 0.904393 0.391234 0.255965
Si Si3 0.897358 0.257854 0.372190
Si Si4 0.207602 0.154961 0.053278
Si Si5 0.964961 0.741639 0.765181
Si Si6 0.566197 0.400863 0.610192
Si Si7 0.000000 0.415893 0.000000
O O1 0.518215 0.546552 0.870489
O O2 0.616472 0.344046 0.744664
O O3 0.820204 0.308567 0.753977
O O4 0.355381 0.241376 0.939611
O O5 0.788858 0.299626 0.359466
O O6 0.697487 0.418093 0.301375
O O7 0.120757 0.288063 0.134798
O O8 0.019058 0.555832 0.226958
O O9 0.765641 0.355928 0.477772
O O10 0.860183 0.070337 0.396601
O O11 0.381005 0.026942 0.006157
O O12 0.074953 0.770495 0.655740
O O13 0.688972 0.802824 0.885084
#
# Coordination Sequence:
#
# PCOD8051320 Si02
#       7
#     4   4   4   4   4   4   2
#     4  11  24  44  74 110 145 195 238 307 369 438
#     4  12  27  48  75 108 144 197 244 308 366 443
#     4  12  27  49  76 104 151 192 251 304 369 430
#     4  11  24  42  73 110 152 183 251 301 371 444
#     4  11  25  46  75 104 149 193 245 303 372 426
#     4  12  28  51  72 108 148 195 251 307 355 449
#     4  10  24  44  72 110 148 196 246 304 368 448
#
# _framework density 23.494821000000002
#
# number of rings (size 3 to 8) (size 9 to 14) (size 15 to 20)
#    0.000    0.615    1.538    6.000    8.615    2.462 
#    2.769    0.000    0.000    0.000    0.000    0.000 
#    0.000    0.000    0.000    0.000    0.000    0.000 
#
# Total GULP energy -161275.936153 kJ/mol
# GULP energy per Si atom -12405.841243 kJ/mol
# Density = 2.344135 g / cm^3
# Si number density = 23.494821 Si / 1000 Ang^3
#
#
#
# Elastic Constant Matrix: (Units=GPa)
#
#
# Indices 1 2 3 4 5 6 
#
# 1 60.4069 34.8910 18.1843 -0.0017 25.1139 0.0007
# 2 34.8910 160.1070 37.2517 0.0005 4.0127 0.0000
# 3 18.1843 37.2517 88.5343 0.0044 20.2541 -0.0016
# 4 -0.0017 0.0005 0.0044 44.9907 0.0011 7.5183
# 5 25.1139 4.0127 20.2541 0.0011 36.5028 -0.0001
# 6 0.0007 0.0000 -0.0016 7.5183 -0.0001 42.2371
#
#
#
# Elastic Compliance Matrix: (Units=1/GPa)
#
#
# Indices 1 2 3 4 5 6 
#
# 1 0.027360 -0.005747 0.001100 0.000002 -0.018802 -0.000001
# 2 -0.005747 0.008162 -0.003382 0.000000 0.004933 0.000000
# 3 0.001100 -0.003382 0.014409 -0.000001 -0.008380 0.000001
# 4 0.000002 0.000000 -0.000001 0.022908 -0.000001 -0.004078
# 5 -0.018802 0.004933 -0.008380 -0.000001 0.044438 0.000000
# 6 -0.000001 0.000000 0.000001 -0.004078 0.000000 0.024402
#
#
# Mechanical properties :
#
#
# Convention : Reuss Voigt Hill
#
# Bulk Modulus (GPa) = 29.52293 54.41133 41.96713
# Shear Modulus (GPa) = 29.58088 39.32754 34.45421
#
# Velocity S-wave (km/s) = 3.55214 4.09575 3.83359
# Velocity P-wave (km/s) = 5.42371 6.75100 6.12342
#
# Compressibility (1/GPa) = 0.03387198
#
# Stress axis : x y z
#
# Youngs Moduli (GPa) = 36.55031 122.52614 69.39903
#
# Poissons Ratio (x) = 0.70416 -0.07634
# Poissons Ratio (y) = 0.21005 0.23473
# Poissons Ratio (z) = -0.04021 0.41442
#
# Static dielectric constant tensor:
#      x y z
#    x 4.371540 0.000000 0.081580 
#    y 0.000000 4.426420 0.000000 
#    z 0.081580 0.000000 4.276590 
# 
# 
# High freq. dielectric constant tensor:
#      x y z
#    x 1.938060 0.000000 0.011360 
#    y 0.000000 1.947790 0.000000 
#    z 0.011360 0.000000 1.924290 
# 
# From -- ./inp_files/68254.got.cif
#   From: 2010.03.12/outbox.cif.g09.slc.cpg/sg5_35_cif.got.tgz:68254.got - 2010.03.31 09:47:26.
