data_PCOD8051695
_publ_section_title
;
Structure prediction by ZEFSAII (Michael W. Deem and Ramdas Pophale) SiO2 
 PCOD8051695
Probable space group: C 2
;
_chemical_formula_sum "Si O2"
_cell_formula_units_Z 24
_cell_length_a 13.245566
_cell_length_b 12.801376
_cell_length_c 13.415401
_cell_angle_alpha 90.000000
_cell_angle_beta 150.306008
_cell_angle_gamma 90.000000
_cell_volume 1126.830037
_symmetry_space_group_name_H-M "C 2"
_symmetry_group_IT_number 5
_symmetry_cell_setting 'monoclinic'
loop_
_space_group_symop_operation_xyz
x,y,z
-x,y,-z
1/2+x,1/2+y,z
1/2-x,1/2+y,-z
loop_
_atom_site_type_symbol
_atom_site_label
_atom_site_fract_x
_atom_site_fract_y
_atom_site_fract_z
Si Si1 0.204937 0.234370 0.273013
Si Si2 0.586512 0.243892 0.346289
Si Si3 0.375162 0.457893 0.135826
Si Si4 0.109458 0.098244 0.488908
Si Si5 0.446444 0.954037 0.853005
Si Si6 0.799946 0.134672 0.939881
O O1 0.382955 0.234498 0.507747
O O2 0.246798 0.155182 0.217218
O O3 0.179063 0.353169 0.213860
O O4 0.994008 0.200427 0.143516
O O5 0.535056 0.362522 0.269658
O O6 0.790285 0.206996 0.463482
O O7 0.392574 0.169994 0.157433
O O8 0.448386 0.548596 0.274641
O O9 0.150867 0.417839 0.972224
O O10 0.350606 0.512790 0.006125
O O11 0.000000 0.118901 0.500000
O O12 0.299545 0.019354 0.656685
O O13 0.500000 0.018434 0.000000
#
# Coordination Sequence:
#
# PCOD8051695 Si02
#       6
#     4   4   4   4   4   4
#     4  11  22  39  70 103 129 174 228 290 341 407
#     4  12  24  42  71  99 140 181 229 285 351 414
#     4  12  24  41  70 100 136 186 228 287 352 413
#     4  12  26  40  67 101 139 178 236 288 340 415
#     4  12  21  38  69 102 129 171 236 289 341 401
#     4  11  23  39  66 104 136 169 230 293 344 401
#
# _framework density 21.298686
#
# number of rings (size 3 to 8) (size 9 to 14) (size 15 to 20)
#    0.000    0.333   10.000    0.500    0.000    0.000 
#    0.000    0.000   25.667    0.000    0.000    0.000 
#    0.000    0.000    0.000    0.000    0.000    0.000 
#
# Total GULP energy -148721.541416 kJ/mol
# GULP energy per Si atom -12393.461785 kJ/mol
# Density = 2.125021 g / cm^3
# Si number density = 21.298686 Si / 1000 Ang^3
#
#
#
# Elastic Constant Matrix: (Units=GPa)
#
#
# Indices 1 2 3 4 5 6 
#
# 1 92.1060 56.3086 34.6745 -0.0041 2.4103 -0.0015
# 2 56.3086 115.6471 43.4444 0.0006 -11.9214 -0.0011
# 3 34.6745 43.4444 94.9300 -0.0040 1.8252 -0.0038
# 4 -0.0041 0.0006 -0.0040 38.0564 -0.0041 -0.8009
# 5 2.4103 -11.9214 1.8252 -0.0041 36.3422 -0.0035
# 6 -0.0015 -0.0011 -0.0038 -0.8009 -0.0035 34.1039
#
#
#
# Elastic Compliance Matrix: (Units=1/GPa)
#
#
# Indices 1 2 3 4 5 6 
#
# 1 0.016422 -0.007385 -0.002553 0.000001 -0.003384 0.000000
# 2 -0.007385 0.014276 -0.003939 -0.000001 0.005371 0.000000
# 3 -0.002553 -0.003939 0.013304 0.000001 -0.001791 0.000001
# 4 0.000001 -0.000001 0.000001 0.026290 0.000003 0.000617
# 5 -0.003384 0.005371 -0.001791 0.000003 0.029592 0.000003
# 6 0.000000 0.000000 0.000001 0.000617 0.000003 0.029337
#
#
# Mechanical properties :
#
#
# Convention : Reuss Voigt Hill
#
# Bulk Modulus (GPa) = 61.55249 63.50424 62.52837
# Shear Modulus (GPa) = 30.78962 32.91754 31.85358
#
# Velocity S-wave (km/s) = 3.80624 3.93558 3.87145
# Velocity P-wave (km/s) = 6.94831 7.10862 7.02892
#
# Compressibility (1/GPa) = 0.01624630
#
# Stress axis : x y z
#
# Youngs Moduli (GPa) = 60.89435 70.04561 75.16580
#
# Poissons Ratio (x) = 0.51732 0.19192
# Poissons Ratio (y) = 0.44973 0.29609
# Poissons Ratio (z) = 0.15548 0.27592
#
# Static dielectric constant tensor:
#      x y z
#    x 3.577980 0.000000 0.104930 
#    y 0.000000 3.720040 -0.000010 
#    z 0.104930 -0.000010 4.102770 
# 
# 
# High freq. dielectric constant tensor:
#      x y z
#    x 1.815730 0.000000 0.012840 
#    y 0.000000 1.813290 0.000000 
#    z 0.012840 0.000000 1.859360 
# 
# From -- ./inp_files/54404.got.cif
#   From: 2010.03.12/outbox.cif.g09.slc.cpg/sg5_28_cif.got.tgz:54404.got - 2010.03.31 09:47:26.
