data_PCOD8051525
_publ_section_title
;
Structure prediction by ZEFSAII (Michael W. Deem and Ramdas Pophale) SiO2 
 PCOD8051525
Probable space group: C 2
;
_chemical_formula_sum "Si O2"
_cell_formula_units_Z 20
_cell_length_a 19.951670
_cell_length_b 4.820033
_cell_length_c 8.453042
_cell_angle_alpha 90.000000
_cell_angle_beta 95.750140
_cell_angle_gamma 90.000000
_cell_volume 808.819334
_symmetry_space_group_name_H-M "C 2"
_symmetry_group_IT_number 5
_symmetry_cell_setting 'monoclinic'
loop_
_space_group_symop_operation_xyz
x,y,z
-x,y,-z
1/2+x,1/2+y,z
1/2-x,1/2+y,-z
loop_
_atom_site_type_symbol
_atom_site_label
_atom_site_fract_x
_atom_site_fract_y
_atom_site_fract_z
Si Si1 0.905042 0.472000 0.265253
Si Si2 0.483812 0.492861 0.168099
Si Si3 0.240270 0.376160 0.890192
Si Si4 0.570766 0.549661 0.459539
Si Si5 0.288963 0.359298 0.569631
O O1 0.939606 0.773568 0.261247
O O2 0.826902 0.499524 0.204429
O O3 0.915637 0.338012 0.443664
O O4 0.938825 0.269036 0.143753
O O5 0.554386 0.587744 0.268632
O O6 0.500000 0.370584 0.000000
O O7 0.290354 0.293493 0.757576
O O8 0.225060 0.104355 0.990012
O O9 0.500000 0.413473 0.500000
O O10 0.635575 0.345150 0.487462
O O11 0.239004 0.169407 0.457982
#
# Coordination Sequence:
#
# PCOD8051525 Si02
#       5
#     4   4   4   4   4
#     4  11  25  48  71 107 152 194 245 311 370 443
#     4  11  26  47  76 108 147 193 252 311 369 438
#     4  12  27  47  75 106 151 196 245 310 375 436
#     4  10  26  46  76 106 147 196 245 302 368 440
#     4  12  27  48  76 108 146 195 255 304 369 447
#
# _framework density 24.727401
#
# number of rings (size 3 to 8) (size 9 to 14) (size 15 to 20)
#    0.000    0.800    2.000    3.000   11.200   10.400 
#    0.000    0.000    0.000    0.000    0.000    0.000 
#    0.000    0.000    0.000    0.000    0.000    0.000 
#
# Total GULP energy -123942.639620 kJ/mol
# GULP energy per Si atom -12394.263962 kJ/mol
# Density = 2.467112 g / cm^3
# Si number density = 24.727401 Si / 1000 Ang^3
#
#
#
# Elastic Constant Matrix: (Units=GPa)
#
#
# Indices 1 2 3 4 5 6 
#
# 1 140.1470 14.0355 34.3415 0.0000 12.4385 0.0000
# 2 14.0355 69.5366 7.1955 0.0000 5.3945 0.0000
# 3 34.3415 7.1955 149.7900 0.0000 -2.5808 0.0000
# 4 0.0000 0.0000 0.0000 35.1149 0.0000 2.4490
# 5 12.4385 5.3945 -2.5808 0.0000 32.3572 0.0000
# 6 0.0000 0.0000 0.0000 2.4490 0.0000 36.4099
#
#
#
# Elastic Compliance Matrix: (Units=1/GPa)
#
#
# Indices 1 2 3 4 5 6 
#
# 1 0.007968 -0.001186 -0.001822 0.000000 -0.003010 0.000000
# 2 -0.001186 0.014829 -0.000476 0.000000 -0.002054 0.000000
# 3 -0.001822 -0.000476 0.007140 0.000000 0.001349 0.000000
# 4 0.000000 0.000000 0.000000 0.028612 0.000000 -0.001925
# 5 -0.003010 -0.002054 0.001349 0.000000 0.032512 0.000000
# 6 0.000000 0.000000 0.000000 -0.001925 0.000000 0.027594
#
#
# Mechanical properties :
#
#
# Convention : Reuss Voigt Hill
#
# Bulk Modulus (GPa) = 43.53648 52.29095 47.91371
# Shear Modulus (GPa) = 37.51532 41.03648 39.27590
#
# Velocity S-wave (km/s) = 3.89929 4.07818 3.98974
# Velocity P-wave (km/s) = 6.15771 6.58546 6.37518
#
# Compressibility (1/GPa) = 0.02296924
#
# Stress axis : x y z
#
# Youngs Moduli (GPa) = 125.50658 67.43571 140.06113
#
# Poissons Ratio (x) = 0.07999 0.25514
# Poissons Ratio (y) = 0.14888 0.06664
# Poissons Ratio (z) = 0.22862 0.03208
#
# Static dielectric constant tensor:
#      x y z
#    x 4.521490 0.000000 0.041050 
#    y 0.000000 4.104150 0.000000 
#    z 0.041050 0.000000 4.893600 
# 
# 
# High freq. dielectric constant tensor:
#      x y z
#    x 1.984630 0.000000 0.001890 
#    y 0.000000 1.975150 0.000000 
#    z 0.001890 0.000000 1.998280 
# 
# From -- ./inp_files/28373.got.cif
#   From: 2010.03.12/outbox.cif.g09.slc.cpg/sg5_15_cif.got.tgz:28373.got - 2010.03.31 09:47:26.
