data_PCOD8051828
_publ_section_title
;
Structure prediction by ZEFSAII (Michael W. Deem and Ramdas Pophale) SiO2 
 PCOD8051828
Probable space group: C 2
;
_chemical_formula_sum "Si O2"
_cell_formula_units_Z 18
_cell_length_a 10.072178
_cell_length_b 14.805926
_cell_length_c 4.749364
_cell_angle_alpha 90.000000
_cell_angle_beta 110.048808
_cell_angle_gamma 90.000000
_cell_volume 665.342716
_symmetry_space_group_name_H-M "C 2"
_symmetry_group_IT_number 5
_symmetry_cell_setting 'monoclinic'
loop_
_space_group_symop_operation_xyz
x,y,z
-x,y,-z
1/2+x,1/2+y,z
1/2-x,1/2+y,-z
loop_
_atom_site_type_symbol
_atom_site_label
_atom_site_fract_x
_atom_site_fract_y
_atom_site_fract_z
Si Si1 0.357975 0.155430 0.760865
Si Si2 0.000000 0.826781 0.000000
Si Si3 0.902909 0.229060 0.164677
Si Si4 0.841274 0.496709 0.369555
Si Si5 0.234671 0.899387 0.809614
O O1 0.393167 0.262271 0.737017
O O2 0.215953 0.155155 0.843403
O O3 0.328685 0.101966 0.450573
O O4 0.500000 0.109707 0.000000
O O5 0.923211 0.884290 0.186273
O O6 0.834888 0.316324 0.963808
O O7 0.000000 0.257422 0.500000
O O8 0.000000 0.180999 0.000000
O O9 0.791485 0.489535 0.011179
O O10 0.000000 0.460431 0.500000
O O11 0.742889 0.427889 0.486948
#
# Coordination Sequence:
#
# PCOD8051828 Si02
#       5
#     4   2   4   4   4
#     4   9  22  46  69  98 137 192 228 277 346 427
#     4   8  22  48  70  98 140 192 232 276 352 428
#     4  11  23  42  67 100 135 178 230 290 345 410
#     4  12  24  42  70 101 137 177 233 290 345 410
#     4  11  23  44  69 100 135 181 229 292 343 414
#
# _framework density 27.053726999999999
#
# number of rings (size 3 to 8) (size 9 to 14) (size 15 to 20)
#    0.667    0.889    0.000    5.333    0.000    4.444 
#   14.000    0.000    0.000    0.000    0.000    0.000 
#    0.000    0.000    0.000    0.000    0.000    0.000 
#
# Total GULP energy -111551.087598 kJ/mol
# GULP energy per Si atom -12394.565289 kJ/mol
# Density = 2.699215 g / cm^3
# Si number density = 27.053727 Si / 1000 Ang^3
#
#
#
# Elastic Constant Matrix: (Units=GPa)
#
#
# Indices 1 2 3 4 5 6 
#
# 1 150.5126 7.8732 3.4997 0.0000 -45.6358 0.0000
# 2 7.8732 62.3274 -17.0646 0.0000 -9.1414 0.0000
# 3 3.4997 -17.0646 65.0295 0.0000 -13.6496 0.0000
# 4 0.0000 0.0000 0.0000 34.1680 0.0000 -9.4335
# 5 -45.6358 -9.1414 -13.6496 0.0000 42.5084 0.0000
# 6 0.0000 0.0000 0.0000 -9.4335 0.0000 14.3088
#
#
#
# Elastic Compliance Matrix: (Units=1/GPa)
#
#
# Indices 1 2 3 4 5 6 
#
# 1 0.010113 0.001057 0.002209 0.000000 0.011794 0.000000
# 2 0.001057 0.018710 0.006364 0.000000 0.007202 0.000000
# 3 0.002209 0.006364 0.018994 0.000000 0.009839 0.000000
# 4 0.000000 0.000000 0.000000 0.035780 0.000000 0.023589
# 5 0.011794 0.007202 0.009839 0.000000 0.040894 0.000000
# 6 0.000000 0.000000 0.000000 0.023589 0.000000 0.085439
#
#
# Mechanical properties :
#
#
# Convention : Reuss Voigt Hill
#
# Bulk Modulus (GPa) = 14.90830 29.60955 22.25892
# Shear Modulus (GPa) = 23.47102 37.10111 30.28606
#
# Velocity S-wave (km/s) = 2.94865 3.70724 3.34949
# Velocity P-wave (km/s) = 4.13707 5.41233 4.81709
#
# Compressibility (1/GPa) = 0.06707674
#
# Stress axis : x y z
#
# Youngs Moduli (GPa) = 98.88063 53.44851 52.64809
#
# Poissons Ratio (x) = -0.05649 -0.11628
# Poissons Ratio (y) = -0.10451 -0.33507
# Poissons Ratio (z) = -0.21839 -0.34017
#
# Static dielectric constant tensor:
#      x y z
#    x 5.163540 0.000000 -0.245130 
#    y 0.000000 4.426050 0.000000 
#    z -0.245130 0.000000 4.647600 
# 
# 
# High freq. dielectric constant tensor:
#      x y z
#    x 2.100920 0.000000 -0.018820 
#    y 0.000000 2.075960 0.000000 
#    z -0.018820 0.000000 2.079600 
# 
# From -- ./inp_files/2133.got.cif
#   From: 2010.03.12/outbox.cif.g09.slc.cpg/sg5_2_cif.got.tgz:2133.got - 2010.03.31 09:47:26.
