data_PCOD8051016
_publ_section_title
;
Structure prediction by ZEFSAII (Michael W. Deem and Ramdas Pophale) SiO2 
 PCOD8051016
Probable space group: C 2
;
_chemical_formula_sum "Si O2"
_cell_formula_units_Z 30
_cell_length_a 12.186746
_cell_length_b 8.841872
_cell_length_c 13.784636
_cell_angle_alpha 90.000000
_cell_angle_beta 72.618520
_cell_angle_gamma 90.000000
_cell_volume 1417.519428
_symmetry_space_group_name_H-M "C 2"
_symmetry_group_IT_number 5
_symmetry_cell_setting 'monoclinic'
loop_
_space_group_symop_operation_xyz
x,y,z
-x,y,-z
1/2+x,1/2+y,z
1/2-x,1/2+y,-z
loop_
_atom_site_type_symbol
_atom_site_label
_atom_site_fract_x
_atom_site_fract_y
_atom_site_fract_z
Si Si1 0.012134 0.896230 0.290648
Si Si2 0.692697 0.013842 0.450012
Si Si3 0.366050 0.678319 0.521880
Si Si4 0.500000 0.247153 0.500000
Si Si5 0.190064 0.126690 0.252749
Si Si6 0.291490 0.386236 0.889420
Si Si7 0.214133 0.930578 0.762488
Si Si8 0.866921 0.112686 0.037036
O O1 0.029646 0.847172 0.398034
O O2 0.100173 0.805057 0.194288
O O3 0.885356 0.869906 0.283716
O O4 0.056163 0.073570 0.271626
O O5 0.820506 0.061537 0.452630
O O6 0.605054 0.142340 0.506341
O O7 0.655196 0.852170 0.504078
O O8 0.692529 0.008915 0.332657
O O9 0.500000 0.647657 0.500000
O O10 0.290019 0.639769 0.637235
O O11 0.223187 0.290285 0.199332
O O12 0.267355 0.998691 0.176616
O O13 0.203924 0.267118 0.957931
O O14 0.337958 0.491106 0.963612
O O15 0.163828 0.048557 0.850029
O O16 0.000000 0.155508 0.000000
#
# Coordination Sequence:
#
# PCOD8051016 Si02
#       8
#     4   4   4   2   4   4   4   4
#     4  10  23  41  65  95 131 175 215 270 326 385
#     4  11  25  39  64  99 130 182 224 273 330 392
#     4  11  23  41  63  93 134 172 223 272 324 395
#     4  12  22  42  64  98 144 174 226 272 326 402
#     4   9  22  40  62  93 127 167 214 269 322 386
#     4  10  24  44  68 100 127 171 221 267 338 388
#     4  11  22  42  66  95 132 170 224 272 332 390
#     4  12  23  45  69  93 134 169 214 279 332 396
#
# _framework density 21.163730999999999
#
# number of rings (size 3 to 8) (size 9 to 14) (size 15 to 20)
#    0.800    0.533    2.000    4.000    4.667    0.000 
#    2.400    0.000    0.000    0.000    0.000    0.000 
#    0.000    0.000    0.000    0.000    0.000    0.000 
#
# Total GULP energy -185848.703148 kJ/mol
# GULP energy per Si atom -12389.913543 kJ/mol
# Density = 2.111556 g / cm^3
# Si number density = 21.163731 Si / 1000 Ang^3
#
#
#
# Elastic Constant Matrix: (Units=GPa)
#
#
# Indices 1 2 3 4 5 6 
#
# 1 103.3852 51.7898 23.9469 0.0000 -4.6500 0.0000
# 2 51.7898 84.2112 35.2760 0.0000 -1.7785 0.0000
# 3 23.9469 35.2760 98.9281 0.0000 -2.5294 0.0000
# 4 0.0000 0.0000 0.0000 27.5732 0.0000 -3.7962
# 5 -4.6500 -1.7785 -2.5294 0.0000 27.4504 0.0000
# 6 0.0000 0.0000 0.0000 -3.7962 0.0000 37.2530
#
#
#
# Elastic Compliance Matrix: (Units=1/GPa)
#
#
# Indices 1 2 3 4 5 6 
#
# 1 0.014080 -0.008479 -0.000339 0.000000 0.001805 0.000000
# 2 -0.008479 0.019072 -0.004765 0.000000 -0.000640 0.000000
# 3 -0.000339 -0.004765 0.011908 0.000000 0.000731 0.000000
# 4 0.000000 0.000000 0.000000 0.036783 0.000000 0.003748
# 5 0.001805 -0.000640 0.000731 0.000000 0.036761 0.000000
# 6 0.000000 0.000000 0.000000 0.003748 0.000000 0.027225
#
#
# Mechanical properties :
#
#
# Convention : Reuss Voigt Hill
#
# Bulk Modulus (GPa) = 55.88113 56.50555 56.19334
# Shear Modulus (GPa) = 27.93945 30.15610 29.04777
#
# Velocity S-wave (km/s) = 3.63734 3.77887 3.70878
# Velocity P-wave (km/s) = 6.64092 6.76735 6.70443
#
# Compressibility (1/GPa) = 0.01789513
#
# Stress axis : x y z
#
# Youngs Moduli (GPa) = 71.02453 52.43320 83.97744
#
# Poissons Ratio (x) = 0.44458 0.02843
# Poissons Ratio (y) = 0.60222 0.40012
# Poissons Ratio (z) = 0.02405 0.24982
#
# Static dielectric constant tensor:
#      x y z
#    x 3.597750 0.000000 -0.114120 
#    y 0.000000 3.816690 0.000000 
#    z -0.114120 0.000000 4.029650 
# 
# 
# High freq. dielectric constant tensor:
#      x y z
#    x 1.807210 0.000000 -0.006470 
#    y 0.000000 1.824410 0.000000 
#    z -0.006470 0.000000 1.844480 
# 
# From -- ./inp_files/52419.got.cif
#   From: 2010.03.12/outbox.cif.g09.slc.cpg/sg5_27_cif.got.tgz:52419.got - 2010.03.31 09:47:26.
