data_PCOD8051303
_publ_section_title
;
Structure prediction by ZEFSAII (Michael W. Deem and Ramdas Pophale) SiO2 
 PCOD8051303
Probable space group: C 2
;
_chemical_formula_sum "Si O2"
_cell_formula_units_Z 28
_cell_length_a 17.077765
_cell_length_b 7.351515
_cell_length_c 13.807171
_cell_angle_alpha 90.000000
_cell_angle_beta 128.202142
_cell_angle_gamma 90.000000
_cell_volume 1362.207523
_symmetry_space_group_name_H-M "C 2"
_symmetry_group_IT_number 5
_symmetry_cell_setting 'monoclinic'
loop_
_space_group_symop_operation_xyz
x,y,z
-x,y,-z
1/2+x,1/2+y,z
1/2-x,1/2+y,-z
loop_
_atom_site_type_symbol
_atom_site_label
_atom_site_fract_x
_atom_site_fract_y
_atom_site_fract_z
Si Si1 0.035169 0.696850 0.740258
Si Si2 0.806812 0.405687 0.127661
Si Si3 0.284346 0.296793 0.391366
Si Si4 0.000000 0.760366 0.500000
Si Si5 0.000000 0.010366 0.000000
Si Si6 0.179151 0.655687 0.372339
Si Si7 0.892980 0.046793 0.108634
Si Si8 0.794911 0.946850 0.759742
O O1 0.128630 0.582970 0.848945
O O2 0.019675 0.650014 0.614210
O O3 0.939279 0.632432 0.726588
O O4 0.046995 0.913021 0.772514
O O5 0.867038 0.228478 0.144261
O O6 0.787309 0.382432 0.226588
O O7 0.703847 0.430488 0.992898
O O8 0.394500 0.363336 0.438860
O O9 0.222777 0.478478 0.355739
O O10 0.289051 0.180488 0.492898
O O11 0.225518 0.163021 0.272514
O O12 0.955640 0.113336 0.061140
O O13 0.094535 0.900014 0.114210
O O14 0.220316 0.832969 0.348945
#
# Coordination Sequence:
#
# PCOD8051303 Si02
#       8
#     4   4   4   2   2   4   4   4
#     4  11  23  44  63 100 134 170 221 274 327 400
#     4  11  24  41  69  93 135 175 221 271 331 389
#     4  11  23  44  66  98 131 177 219 274 328 393
#     4  10  24  44  66  92 140 170 214 280 322 386
#     4  10  24  44  66  92 140 170 214 280 322 386
#     4  11  24  41  69  93 135 175 221 271 331 389
#     4  11  23  44  66  98 131 177 219 274 328 393
#     4  11  23  44  63 100 134 170 221 274 327 400
#
# _framework density 20.554872
#
# number of rings (size 3 to 8) (size 9 to 14) (size 15 to 20)
#    0.000    1.143    5.714    0.000    4.000    0.000 
#    0.000    2.857    0.000    0.000    0.000    0.000 
#    0.000    0.000    0.000    0.000    0.000    0.000 
#
# Total GULP energy -173446.672805 kJ/mol
# GULP energy per Si atom -12389.048058 kJ/mol
# Density = 2.050809 g / cm^3
# Si number density = 20.554872 Si / 1000 Ang^3
#
#
#
# Elastic Constant Matrix: (Units=GPa)
#
#
# Indices 1 2 3 4 5 6 
#
# 1 162.9484 74.1892 42.6038 0.0000 -3.2709 0.0000
# 2 74.1892 109.4432 31.8790 0.0000 -2.6082 0.0000
# 3 42.6038 31.8790 72.7716 0.0000 -2.2878 0.0000
# 4 0.0000 0.0000 0.0000 19.5915 0.0000 -0.9734
# 5 -3.2709 -2.6082 -2.2878 0.0000 33.7021 0.0000
# 6 0.0000 0.0000 0.0000 -0.9734 0.0000 35.3842
#
#
#
# Elastic Compliance Matrix: (Units=1/GPa)
#
#
# Indices 1 2 3 4 5 6 
#
# 1 0.009462 -0.005498 -0.003122 0.000000 0.000281 0.000000
# 2 -0.005498 0.013677 -0.002762 0.000000 0.000337 0.000000
# 3 -0.003122 -0.002762 0.016799 0.000000 0.000624 0.000000
# 4 0.000000 0.000000 0.000000 0.051112 0.000000 0.001406
# 5 0.000281 0.000337 0.000624 0.000000 0.029767 0.000000
# 6 0.000000 0.000000 0.000000 0.001406 0.000000 0.028300
#
#
# Mechanical properties :
#
#
# Convention : Reuss Voigt Hill
#
# Bulk Modulus (GPa) = 58.22925 71.38971 64.80948
# Shear Modulus (GPa) = 28.15213 30.83495 29.49354
#
# Velocity S-wave (km/s) = 3.70484 3.87735 3.79208
# Velocity P-wave (km/s) = 6.83310 7.40620 7.12542
#
# Compressibility (1/GPa) = 0.01717350
#
# Stress axis : x y z
#
# Youngs Moduli (GPa) = 105.68519 73.11712 59.52722
#
# Poissons Ratio (x) = 0.40200 0.18585
# Poissons Ratio (y) = 0.58106 0.16441
# Poissons Ratio (z) = 0.32997 0.20195
#
# Static dielectric constant tensor:
#      x y z
#    x 4.170800 0.000000 -0.024580 
#    y 0.000000 3.283010 0.000000 
#    z -0.024580 0.000000 3.772010 
# 
# 
# High freq. dielectric constant tensor:
#      x y z
#    x 1.833190 0.000000 -0.001640 
#    y 0.000000 1.768140 0.000000 
#    z -0.001640 0.000000 1.806650 
# 
# From -- ./inp_files/55251.got.cif
#   From: 2010.03.12/outbox.cif.g09.slc.cpg/sg5_28_cif.got.tgz:55251.got - 2010.03.31 09:47:26.
