data_PCOD8051791
_publ_section_title
;
Structure prediction by ZEFSAII (Michael W. Deem and Ramdas Pophale) SiO2 
 PCOD8051791
Probable space group: C 2
;
_chemical_formula_sum "Si O2"
_cell_formula_units_Z 28
_cell_length_a 14.581375
_cell_length_b 10.674856
_cell_length_c 9.037408
_cell_angle_alpha 90.000000
_cell_angle_beta 120.870744
_cell_angle_gamma 90.000000
_cell_volume 1207.416692
_symmetry_space_group_name_H-M "C 2"
_symmetry_group_IT_number 5
_symmetry_cell_setting 'monoclinic'
loop_
_space_group_symop_operation_xyz
x,y,z
-x,y,-z
1/2+x,1/2+y,z
1/2-x,1/2+y,-z
loop_
_atom_site_type_symbol
_atom_site_label
_atom_site_fract_x
_atom_site_fract_y
_atom_site_fract_z
Si Si1 0.437100 0.037970 0.574498
Si Si2 0.376249 0.515726 0.891210
Si Si3 0.070223 0.641178 0.917915
Si Si4 0.757862 0.193314 0.598637
Si Si5 0.307589 0.827267 0.343008
Si Si6 0.309593 0.592628 0.149257
Si Si7 0.896055 0.830236 0.315437
O O1 0.500000 0.122958 0.500000
O O2 0.513091 0.026425 0.780355
O O3 0.329711 0.100889 0.544751
O O4 0.407812 0.919242 0.446896
O O5 0.357786 0.609724 0.737444
O O6 0.299405 0.393612 0.811319
O O7 0.500000 0.473787 0.000000
O O8 0.343499 0.597413 0.006495
O O9 0.080059 0.764511 0.822822
O O10 0.182088 0.585175 0.061346
O O11 0.000000 0.680908 0.000000
O O12 0.790312 0.285502 0.496877
O O13 0.705045 0.264946 0.691883
O O14 0.346538 0.718190 0.265626
O O15 0.362883 0.473145 0.265584
O O16 0.000000 0.837910 0.500000
#
# Coordination Sequence:
#
# PCOD8051791 Si02
#       7
#     4   4   4   4   4   4   4
#     4  11  22  47  73  99 138 194 238 294 359 440
#     4  11  27  50  75 106 151 195 242 312 376 427
#     4  12  24  47  76 110 144 191 252 303 372 436
#     4  11  23  47  72 104 143 189 248 296 356 445
#     4  11  28  46  74 103 150 191 247 297 364 447
#     4  12  28  46  70 114 149 184 247 310 366 427
#     4  12  26  47  76 103 148 201 243 299 366 451
#
# _framework density 23.190007000000001
#
# number of rings (size 3 to 8) (size 9 to 14) (size 15 to 20)
#    0.000    0.571    4.286    2.571    8.000    4.000 
#    2.571    0.000    0.000    0.000    0.000    0.000 
#    0.000    0.000    0.000    0.000    0.000    0.000 
#
# Total GULP energy -173545.451031 kJ/mol
# GULP energy per Si atom -12396.103645 kJ/mol
# Density = 2.313723 g / cm^3
# Si number density = 23.190007 Si / 1000 Ang^3
#
#
#
# Elastic Constant Matrix: (Units=GPa)
#
#
# Indices 1 2 3 4 5 6 
#
# 1 96.0366 36.0699 36.4117 0.0000 -7.2787 0.0000
# 2 36.0699 133.8995 71.6138 0.0000 8.5653 0.0000
# 3 36.4117 71.6138 108.7101 0.0000 -1.4780 0.0000
# 4 0.0000 0.0000 0.0000 28.1282 0.0000 -11.6433
# 5 -7.2787 8.5653 -1.4780 0.0000 50.9180 0.0000
# 6 0.0000 0.0000 0.0000 -11.6433 0.0000 16.0937
#
#
#
# Elastic Compliance Matrix: (Units=1/GPa)
#
#
# Indices 1 2 3 4 5 6 
#
# 1 0.012371 -0.001945 -0.002835 0.000000 0.002013 0.000000
# 2 -0.001945 0.012079 -0.007340 0.000000 -0.002523 0.000000
# 3 -0.002835 -0.007340 0.015001 0.000000 0.001265 0.000000
# 4 0.000000 0.000000 0.000000 0.050750 0.000000 0.036716
# 5 0.002013 -0.002523 0.001265 0.000000 0.020388 0.000000
# 6 0.000000 0.000000 0.000000 0.036716 0.000000 0.088699
#
#
# Mechanical properties :
#
#
# Convention : Reuss Voigt Hill
#
# Bulk Modulus (GPa) = 65.74269 69.64855 67.69562
# Shear Modulus (GPa) = 21.87244 31.99805 26.93525
#
# Velocity S-wave (km/s) = 3.07446 3.71862 3.41178
# Velocity P-wave (km/s) = 6.40423 6.96682 6.69144
#
# Compressibility (1/GPa) = 0.01521082
#
# Stress axis : x y z
#
# Youngs Moduli (GPa) = 80.83681 82.78514 66.66261
#
# Poissons Ratio (x) = 0.16102 0.18897
# Poissons Ratio (y) = 0.15723 0.48932
# Poissons Ratio (z) = 0.22915 0.60766
#
# Static dielectric constant tensor:
#      x y z
#    x 4.136290 0.000000 0.083170 
#    y 0.000000 4.257440 0.000000 
#    z 0.083170 0.000000 4.375360 
# 
# 
# High freq. dielectric constant tensor:
#      x y z
#    x 1.918960 0.000000 0.003520 
#    y 0.000000 1.913120 0.000000 
#    z 0.003520 0.000000 1.934860 
# 
# From -- ./inp_files/23946.got.cif
#   From: 2010.03.12/outbox.cif.g09.slc.cpg/sg5_12_cif.got.tgz:23946.got - 2010.03.31 09:47:26.
