data_PCOD8051557
_publ_section_title
;
Structure prediction by ZEFSAII (Michael W. Deem and Ramdas Pophale) SiO2 
 PCOD8051557
Probable space group: C 2
;
_chemical_formula_sum "Si O2"
_cell_formula_units_Z 22
_cell_length_a 6.694490
_cell_length_b 22.315931
_cell_length_c 9.621210
_cell_angle_alpha 90.000000
_cell_angle_beta 44.107421
_cell_angle_gamma 90.000000
_cell_volume 1000.403176
_symmetry_space_group_name_H-M "C 2"
_symmetry_group_IT_number 5
_symmetry_cell_setting 'monoclinic'
loop_
_space_group_symop_operation_xyz
x,y,z
-x,y,-z
1/2+x,1/2+y,z
1/2-x,1/2+y,-z
loop_
_atom_site_type_symbol
_atom_site_label
_atom_site_fract_x
_atom_site_fract_y
_atom_site_fract_z
Si Si1 0.500000 0.256580 0.500000
Si Si2 0.835535 0.852680 0.803545
Si Si3 0.571046 0.697647 0.215128
Si Si4 0.500000 0.607274 0.000000
Si Si5 0.000000 0.947491 0.500000
Si Si6 0.500000 0.302254 0.000000
Si Si7 0.557911 0.040165 0.626706
Si Si8 0.000000 0.130756 0.500000
O O1 0.381947 0.293866 0.688530
O O2 0.749502 0.212584 0.423496
O O3 0.969875 0.908618 0.654757
O O4 0.500000 0.863066 0.000000
O O5 0.016591 0.845018 0.856406
O O6 0.583307 0.650960 0.083983
O O7 0.727678 0.760087 0.106324
O O8 0.699030 0.668136 0.292018
O O9 0.234770 0.562544 0.156857
O O10 0.706064 0.985822 0.637316
O O11 0.500000 0.018386 0.500000
O O12 0.789129 0.093244 0.506936
#
# Coordination Sequence:
#
# PCOD8051557 Si02
#       8
#     2   4   4   2   2   2   4   2
#     4  11  22  43  68  98 150 185 226 271 338 412
#     4  11  24  48  68 104 135 181 235 296 334 411
#     4  12  22  40  70 108 144 192 215 273 341 423
#     4  12  24  42  75 104 148 179 232 274 344 418
#     4  10  28  48  80  90 136 180 242 296 358 388
#     4  12  24  40  73 108 142 181 232 266 350 414
#     4  11  24  48  68 103 133 184 231 294 341 409
#     4  11  22  41  66 102 144 181 230 267 338 412
#
# _framework density 21.991133999999999
#
# number of rings (size 3 to 8) (size 9 to 14) (size 15 to 20)
#    0.000    0.727    3.636    4.364    0.000    2.909 
#    0.000    0.000    0.000    0.000    0.000    0.000 
#    0.000    0.000    0.000    0.000    0.000    0.000 
#
# Total GULP energy -136387.518263 kJ/mol
# GULP energy per Si atom -12398.865297 kJ/mol
# Density = 2.194108 g / cm^3
# Si number density = 21.991134 Si / 1000 Ang^3
#
#
#
# Elastic Constant Matrix: (Units=GPa)
#
#
# Indices 1 2 3 4 5 6 
#
# 1 125.9678 57.3100 57.4055 0.0000 13.4750 0.0000
# 2 57.3100 118.1773 59.5135 0.0000 8.5183 0.0000
# 3 57.4055 59.5135 126.9697 0.0000 3.5942 0.0000
# 4 0.0000 0.0000 0.0000 21.5232 0.0000 2.2557
# 5 13.4750 8.5183 3.5942 0.0000 58.3987 0.0000
# 6 0.0000 0.0000 0.0000 2.2557 0.0000 27.7135
#
#
#
# Elastic Compliance Matrix: (Units=1/GPa)
#
#
# Indices 1 2 3 4 5 6 
#
# 1 0.011338 -0.003676 -0.003350 0.000000 -0.001874 0.000000
# 2 -0.003676 0.012368 -0.004115 0.000000 -0.000702 0.000000
# 3 -0.003350 -0.004115 0.011300 0.000000 0.000678 0.000000
# 4 0.000000 0.000000 0.000000 0.046861 0.000000 -0.003814
# 5 -0.001874 -0.000702 0.000678 0.000000 0.017617 0.000000
# 6 0.000000 0.000000 0.000000 -0.003814 0.000000 0.036394
#
#
# Mechanical properties :
#
#
# Convention : Reuss Voigt Hill
#
# Bulk Modulus (GPa) = 78.59586 79.95251 79.27419
# Shear Modulus (GPa) = 30.78788 34.65279 32.72033
#
# Velocity S-wave (km/s) = 3.74573 3.97389 3.86150
# Velocity P-wave (km/s) = 7.38409 7.58231 7.48385
#
# Compressibility (1/GPa) = 0.01272332
#
# Stress axis : x y z
#
# Youngs Moduli (GPa) = 88.19735 80.85642 88.49503
#
# Poissons Ratio (x) = 0.29726 0.29646
# Poissons Ratio (y) = 0.32424 0.36415
# Poissons Ratio (z) = 0.29546 0.33272
#
# Static dielectric constant tensor:
#      x y z
#    x 4.017230 0.000000 0.058280 
#    y 0.000000 3.943050 0.000000 
#    z 0.058280 0.000000 4.035380 
# 
# 
# High freq. dielectric constant tensor:
#      x y z
#    x 1.874690 0.000000 0.005230 
#    y 0.000000 1.865920 0.000000 
#    z 0.005230 0.000000 1.870250 
# 
# From -- ./inp_files/13005.got.cif
#   From: 2010.03.12/outbox.cif.g09.slc.cpg/sg5_7_cif.got.tgz:13005.got - 2010.03.31 09:47:26.
