data_PCOD8051672
_publ_section_title
;
Structure prediction by ZEFSAII (Michael W. Deem and Ramdas Pophale) SiO2 
 PCOD8051672
Probable space group: C 2
;
_chemical_formula_sum "Si O2"
_cell_formula_units_Z 24
_cell_length_a 13.004784
_cell_length_b 17.888683
_cell_length_c 7.895270
_cell_angle_alpha 90.000000
_cell_angle_beta 32.396947
_cell_angle_gamma 90.000000
_cell_volume 984.093715
_symmetry_space_group_name_H-M "C 2"
_symmetry_group_IT_number 5
_symmetry_cell_setting 'monoclinic'
loop_
_space_group_symop_operation_xyz
x,y,z
-x,y,-z
1/2+x,1/2+y,z
1/2-x,1/2+y,-z
loop_
_atom_site_type_symbol
_atom_site_label
_atom_site_fract_x
_atom_site_fract_y
_atom_site_fract_z
Si Si1 0.521114 0.452730 0.770477
Si Si2 0.544322 0.139916 0.241689
Si Si3 0.125101 0.476990 0.162722
Si Si4 0.176570 0.240283 0.351652
Si Si5 0.134196 0.115699 0.655708
Si Si6 0.364589 0.860350 0.325770
O O1 0.600860 0.534688 0.624376
O O2 0.685623 0.397153 0.474388
O O3 0.500000 0.440177 0.000000
O O4 0.326027 0.438186 0.936970
O O5 0.500000 0.157878 0.500000
O O6 0.351506 0.130136 0.404528
O O7 0.661883 0.062309 0.046127
O O8 0.653220 0.211327 0.007046
O O9 0.000000 0.492673 0.500000
O O10 0.001120 0.425090 0.212347
O O11 0.077386 0.171860 0.586874
O O12 0.237443 0.304683 0.399165
O O13 0.000000 0.279105 0.500000
O O14 0.000000 0.130975 0.000000
O O15 0.500000 0.817572 0.000000
#
# Coordination Sequence:
#
# PCOD8051672 Si02
#       6
#     4   4   4   4   4   4
#     4  11  22  42  78 109 145 200 257 310 371 443
#     4  11  23  44  77 114 144 195 258 315 372 448
#     4  11  21  45  77 111 150 190 256 324 372 444
#     4  12  27  47  72 105 155 202 247 314 384 445
#     4  11  22  44  73 111 149 193 254 312 369 446
#     4  12  28  48  73 110 157 204 251 308 387 453
#
# _framework density 24.387922
#
# number of rings (size 3 to 8) (size 9 to 14) (size 15 to 20)
#    0.000    0.667    3.333    6.500    2.333    2.000 
#    0.000    0.000    3.667    0.000    0.000    0.000 
#    0.000    0.000    0.000    0.000    0.000    0.000 
#
# Total GULP energy -148752.163405 kJ/mol
# GULP energy per Si atom -12396.013617 kJ/mol
# Density = 2.433241 g / cm^3
# Si number density = 24.387922 Si / 1000 Ang^3
#
#
#
# Elastic Constant Matrix: (Units=GPa)
#
#
# Indices 1 2 3 4 5 6 
#
# 1 86.1927 23.6564 37.7653 0.0039 -31.6031 -0.0017
# 2 23.6564 94.5153 54.9413 0.0047 6.4461 -0.0040
# 3 37.7653 54.9413 127.7555 0.0107 -15.6921 -0.0071
# 4 0.0039 0.0047 0.0107 21.7980 -0.0079 -6.8221
# 5 -31.6031 6.4461 -15.6921 -0.0079 52.0973 0.0051
# 6 -0.0017 -0.0040 -0.0071 -6.8221 0.0051 21.2572
#
#
#
# Elastic Compliance Matrix: (Units=1/GPa)
#
#
# Indices 1 2 3 4 5 6 
#
# 1 0.017417 -0.003748 -0.002266 0.000002 0.010347 -0.000002
# 2 -0.003748 0.015639 -0.006370 -0.000001 -0.006127 0.000002
# 3 -0.002266 -0.006370 0.011594 -0.000003 0.002906 0.000001
# 4 0.000002 -0.000001 -0.000003 0.050998 0.000007 0.016367
# 5 0.010347 -0.006127 0.002906 0.000007 0.027105 -0.000004
# 6 -0.000002 0.000002 0.000001 0.016367 -0.000004 0.052295
#
#
# Mechanical properties :
#
#
# Convention : Reuss Voigt Hill
#
# Bulk Modulus (GPa) = 50.29740 60.13218 55.21479
# Shear Modulus (GPa) = 24.21960 31.83719 28.02839
#
# Velocity S-wave (km/s) = 3.15476 3.61702 3.39377
# Velocity P-wave (km/s) = 5.82570 6.49260 6.16817
#
# Compressibility (1/GPa) = 0.01988174
#
# Stress axis : x y z
#
# Youngs Moduli (GPa) = 57.41510 63.94118 86.25282
#
# Poissons Ratio (x) = 0.23964 0.19545
# Poissons Ratio (y) = 0.21518 0.54947
# Poissons Ratio (z) = 0.13010 0.40734
#
# Static dielectric constant tensor:
#      x y z
#    x 4.597020 0.000000 0.063250 
#    y 0.000000 4.379470 0.000000 
#    z 0.063250 0.000000 4.516060 
# 
# 
# High freq. dielectric constant tensor:
#      x y z
#    x 1.973480 0.000000 -0.004390 
#    y 0.000000 1.964790 0.000000 
#    z -0.004390 0.000000 1.975180 
# 
# From -- ./inp_files/25148.got.cif
#   From: 2010.03.12/outbox.cif.g09.slc.cpg/sg5_13_cif.got.tgz:25148.got - 2010.03.31 09:47:26.
