data_PCOD8051283
_publ_section_title
;
Structure prediction by ZEFSAII (Michael W. Deem and Ramdas Pophale) SiO2 
 PCOD8051283
Probable space group: C 2
;
_chemical_formula_sum "Si O2"
_cell_formula_units_Z 24
_cell_length_a 24.260046
_cell_length_b 10.772759
_cell_length_c 9.113084
_cell_angle_alpha 90.000000
_cell_angle_beta 26.604908
_cell_angle_gamma 90.000000
_cell_volume 1066.602579
_symmetry_space_group_name_H-M "C 2"
_symmetry_group_IT_number 5
_symmetry_cell_setting 'monoclinic'
loop_
_space_group_symop_operation_xyz
x,y,z
-x,y,-z
1/2+x,1/2+y,z
1/2-x,1/2+y,-z
loop_
_atom_site_type_symbol
_atom_site_label
_atom_site_fract_x
_atom_site_fract_y
_atom_site_fract_z
Si Si1 0.733400 0.090630 0.674982
Si Si2 0.521111 0.996082 0.612402
Si Si3 0.297773 0.827003 0.693251
Si Si4 0.561562 0.428193 0.699868
Si Si5 0.198966 0.714903 0.223603
Si Si6 0.166213 0.056443 0.879691
O O1 0.788235 0.224275 0.589405
O O2 0.750237 0.074217 0.462393
O O3 0.805429 0.986834 0.593455
O O4 0.591245 0.071716 0.050721
O O5 0.500000 0.941865 0.500000
O O6 0.634470 0.089863 0.324088
O O7 0.564044 0.884722 0.619825
O O8 0.201820 0.932708 0.880251
O O9 0.264214 0.775451 0.931367
O O10 0.589580 0.303457 0.543804
O O11 0.500000 0.389347 0.000000
O O12 0.477333 0.532728 0.818630
O O13 0.305991 0.678571 0.087521
#
# Coordination Sequence:
#
# PCOD8051283 Si02
#       6
#     4   4   4   4   4   4
#     4  11  24  45  68  99 138 177 227 283 339 405
#     4  11  23  43  70 102 134 181 228 281 339 403
#     4  11  25  45  69 101 134 178 230 278 342 405
#     4  10  24  43  67  99 136 180 229 278 339 404
#     4  11  24  42  73  97 136 182 229 277 345 399
#     4  10  26  45  68 102 133 179 231 275 344 405
#
# _framework density 22.501349999999999
#
# number of rings (size 3 to 8) (size 9 to 14) (size 15 to 20)
#    0.000    1.333    1.667    2.000    9.333    4.667 
#    6.000    0.000    0.000    0.000    0.000    0.000 
#    0.000    0.000    0.000    0.000    0.000    0.000 
#
# Total GULP energy -148783.921895 kJ/mol
# GULP energy per Si atom -12398.660158 kJ/mol
# Density = 2.245014 g / cm^3
# Si number density = 22.501350 Si / 1000 Ang^3
#
#
#
# Elastic Constant Matrix: (Units=GPa)
#
#
# Indices 1 2 3 4 5 6 
#
# 1 116.8396 38.2399 40.4592 0.0000 1.9174 0.0000
# 2 38.2399 94.5867 35.5848 0.0000 3.5776 0.0000
# 3 40.4592 35.5848 46.0441 0.0000 1.8485 0.0000
# 4 0.0000 0.0000 0.0000 30.8284 0.0000 1.6265
# 5 1.9174 3.5776 1.8485 0.0000 26.3696 0.0000
# 6 0.0000 0.0000 0.0000 1.6265 0.0000 54.3031
#
#
#
# Elastic Compliance Matrix: (Units=1/GPa)
#
#
# Indices 1 2 3 4 5 6 
#
# 1 0.012413 -0.001289 -0.009910 0.000000 -0.000033 0.000000
# 2 -0.001289 0.015079 -0.010473 0.000000 -0.001218 0.000000
# 3 -0.009910 -0.010473 0.038542 0.000000 -0.000560 0.000000
# 4 0.000000 0.000000 0.000000 0.032489 0.000000 -0.000973
# 5 -0.000033 -0.001218 -0.000560 0.000000 0.038129 0.000000
# 6 0.000000 0.000000 0.000000 -0.000973 0.000000 0.018444
#
#
# Mechanical properties :
#
#
# Convention : Reuss Voigt Hill
#
# Bulk Modulus (GPa) = 44.06835 54.00423 49.03629
# Shear Modulus (GPa) = 24.27151 31.84599 28.05875
#
# Velocity S-wave (km/s) = 3.28787 3.76612 3.53509
# Velocity P-wave (km/s) = 5.83445 6.55470 6.20503
#
# Compressibility (1/GPa) = 0.02269202
#
# Stress axis : x y z
#
# Youngs Moduli (GPa) = 80.56322 66.31590 25.94565
#
# Poissons Ratio (x) = 0.08547 0.25711
# Poissons Ratio (y) = 0.10383 0.27172
# Poissons Ratio (z) = 0.79835 0.69450
#
# Static dielectric constant tensor:
#      x y z
#    x 4.427980 0.000000 -0.148430 
#    y 0.000000 4.197510 0.000000 
#    z -0.148430 0.000000 3.748960 
# 
# 
# High freq. dielectric constant tensor:
#      x y z
#    x 1.906130 0.000000 -0.005990 
#    y 0.000000 1.892430 0.000000 
#    z -0.005990 0.000000 1.873070 
# 
# From -- ./inp_files/30913.got.cif
#   From: 2010.03.12/outbox.cif.g09.slc.cpg/sg5_16_cif.got.tgz:30913.got - 2010.03.31 09:47:26.
