data_PCOD8051433
_publ_section_title
;
Structure prediction by ZEFSAII (Michael W. Deem and Ramdas Pophale) SiO2 
 PCOD8051433
Probable space group: C 2
;
_chemical_formula_sum "Si O2"
_cell_formula_units_Z 30
_cell_length_a 8.624556
_cell_length_b 17.263276
_cell_length_c 11.050523
_cell_angle_alpha 90.000000
_cell_angle_beta 67.921570
_cell_angle_gamma 90.000000
_cell_volume 1524.642392
_symmetry_space_group_name_H-M "C 2"
_symmetry_group_IT_number 5
_symmetry_cell_setting 'monoclinic'
loop_
_space_group_symop_operation_xyz
x,y,z
-x,y,-z
1/2+x,1/2+y,z
1/2-x,1/2+y,-z
loop_
_atom_site_type_symbol
_atom_site_label
_atom_site_fract_x
_atom_site_fract_y
_atom_site_fract_z
Si Si1 0.525241 0.984680 0.627505
Si Si2 0.967851 0.335082 0.209559
Si Si3 0.948165 0.673001 0.883816
Si Si4 0.500000 0.452784 0.000000
Si Si5 0.259083 0.124329 0.376585
Si Si6 0.280115 0.574316 0.192938
Si Si7 0.928041 0.176755 0.347555
Si Si8 0.270922 0.331895 0.941360
O O1 0.500000 0.950674 0.500000
O O2 0.513966 0.915933 0.726698
O O3 0.694522 0.034725 0.603950
O O4 0.372852 0.043973 0.683405
O O5 0.953212 0.267724 0.313925
O O6 0.807513 0.342525 0.168876
O O7 0.130585 0.316730 0.082955
O O8 0.788434 0.619624 0.903497
O O9 0.900624 0.762227 0.900321
O O10 0.092713 0.664492 0.741538
O O11 0.000000 0.643394 0.000000
O O12 0.393662 0.503407 0.122622
O O13 0.622194 0.405869 0.052038
O O14 0.224712 0.170047 0.512093
O O15 0.090571 0.131211 0.347794
O O16 0.385463 0.636988 0.234471
#
# Coordination Sequence:
#
# PCOD8051433 Si02
#       8
#     4   4   4   2   4   4   4   4
#     4  11  23  46  66  92 132 173 211 266 328 384
#     4  11  25  43  68  95 129 175 213 268 323 384
#     4  11  23  42  66  95 128 172 211 267 320 380
#     4  12  26  40  66  98 134 170 214 264 330 380
#     4  10  25  41  70  93 134 164 219 266 321 382
#     4  11  25  41  69  96 126 173 218 265 318 386
#     4  11  23  45  67 100 126 168 220 268 318 383
#     4  11  24  44  63  95 137 164 214 270 322 377
#
# _framework density 19.676746000000001
#
# number of rings (size 3 to 8) (size 9 to 14) (size 15 to 20)
#    0.000    1.067    4.667    0.800    7.467    1.067 
#    0.000    0.000    0.000    0.000    0.000    0.000 
#    0.000    0.000    0.000    0.000    0.000    0.000 
#
# Total GULP energy -186008.069191 kJ/mol
# GULP energy per Si atom -12400.537946 kJ/mol
# Density = 1.963196 g / cm^3
# Si number density = 19.676746 Si / 1000 Ang^3
#
#
#
# Elastic Constant Matrix: (Units=GPa)
#
#
# Indices 1 2 3 4 5 6 
#
# 1 108.9697 35.6533 44.7280 0.0000 14.1121 0.0000
# 2 35.6533 94.3815 41.3429 0.0000 2.7013 0.0000
# 3 44.7280 41.3429 104.1090 0.0000 6.5008 0.0000
# 4 0.0000 0.0000 0.0000 35.6521 0.0000 -4.4493
# 5 14.1121 2.7013 6.5008 0.0000 34.8435 0.0000
# 6 0.0000 0.0000 0.0000 -4.4493 0.0000 37.7064
#
#
#
# Elastic Compliance Matrix: (Units=1/GPa)
#
#
# Indices 1 2 3 4 5 6 
#
# 1 0.012203 -0.002794 -0.003883 0.000000 -0.004001 0.000000
# 2 -0.002794 0.013466 -0.004202 0.000000 0.000872 0.000000
# 3 -0.003883 -0.004202 0.012975 0.000000 -0.000522 0.000000
# 4 0.000000 0.000000 0.000000 0.028468 0.000000 0.003359
# 5 -0.004001 0.000872 -0.000522 0.000000 0.030350 0.000000
# 6 0.000000 0.000000 0.000000 0.003359 0.000000 0.026917
#
#
# Mechanical properties :
#
#
# Convention : Reuss Voigt Hill
#
# Bulk Modulus (GPa) = 59.22060 61.21208 60.21634
# Shear Modulus (GPa) = 32.94525 34.02280 33.48403
#
# Velocity S-wave (km/s) = 4.09629 4.16274 4.12965
# Velocity P-wave (km/s) = 7.24809 7.36756 7.30807
#
# Compressibility (1/GPa) = 0.01688601
#
# Stress axis : x y z
#
# Youngs Moduli (GPa) = 81.94519 74.25899 77.07239
#
# Poissons Ratio (x) = 0.20750 0.29930
# Poissons Ratio (y) = 0.22898 0.32383
# Poissons Ratio (z) = 0.31822 0.31201
#
# Static dielectric constant tensor:
#      x y z
#    x 3.914850 0.000000 0.081980 
#    y 0.000000 3.534180 0.000000 
#    z 0.081980 0.000000 3.734080 
# 
# 
# High freq. dielectric constant tensor:
#      x y z
#    x 1.781660 0.000000 0.005760 
#    y 0.000000 1.768080 0.000000 
#    z 0.005760 0.000000 1.772950 
# 
# From -- ./inp_files/36985.got.cif
#   From: 2010.03.12/outbox.cif.g09.slc.cpg/sg5_19_cif.got.tgz:36985.got - 2010.03.31 09:47:26.
