data_PCOD8051743
_publ_section_title
;
Structure prediction by ZEFSAII (Michael W. Deem and Ramdas Pophale) SiO2 
 PCOD8051743
Probable space group: C 2
;
_chemical_formula_sum "Si O2"
_cell_formula_units_Z 14
_cell_length_a 12.239693
_cell_length_b 7.288970
_cell_length_c 12.151108
_cell_angle_alpha 90.000000
_cell_angle_beta 37.844620
_cell_angle_gamma 90.000000
_cell_volume 665.093740
_symmetry_space_group_name_H-M "C 2"
_symmetry_group_IT_number 5
_symmetry_cell_setting 'monoclinic'
loop_
_space_group_symop_operation_xyz
x,y,z
-x,y,-z
1/2+x,1/2+y,z
1/2-x,1/2+y,-z
loop_
_atom_site_type_symbol
_atom_site_label
_atom_site_fract_x
_atom_site_fract_y
_atom_site_fract_z
Si Si1 0.500000 0.079340 0.000000
Si Si2 0.943577 0.717184 0.273980
Si Si3 0.548011 0.868778 0.580638
Si Si4 0.114090 0.991260 0.301488
O O1 0.474322 0.205088 0.912883
O O2 0.676468 0.954278 0.842034
O O3 0.739313 0.772955 0.427917
O O4 0.963666 0.521014 0.316955
O O5 0.056691 0.869013 0.245533
O O6 0.500000 0.958299 0.500000
O O7 0.408476 0.704755 0.713626
O O8 0.000000 0.939220 0.500000
#
# Coordination Sequence:
#
# PCOD8051743 Si02
#       4
#     2   4   4   4
#     4  12  26  44  66 104 136 168 226 274 322 402
#     4  12  24  43  70  98 135 176 217 274 332 387
#     4  11  22  43  71  96 131 175 221 267 329 393
#     4  11  24  48  66  97 138 174 220 273 327 394
#
# _framework density 21.049665000000001
#
# number of rings (size 3 to 8) (size 9 to 14) (size 15 to 20)
#    0.000    0.571    8.571    0.857    4.000    0.000 
#    0.000    2.857    0.000    0.000    0.000    0.000 
#    0.000    0.000    0.000    0.000    0.000    0.000 
#
# Total GULP energy -86813.020966 kJ/mol
# GULP energy per Si atom -12401.860138 kJ/mol
# Density = 2.100176 g / cm^3
# Si number density = 21.049665 Si / 1000 Ang^3
#
#
#
# Elastic Constant Matrix: (Units=GPa)
#
#
# Indices 1 2 3 4 5 6 
#
# 1 160.4655 53.0014 73.4660 0.0000 12.2779 0.0000
# 2 53.0014 76.8993 35.9457 0.0000 24.2652 0.0000
# 3 73.4660 35.9457 131.6316 0.0000 3.2563 0.0000
# 4 0.0000 0.0000 0.0000 6.3595 0.0000 17.3160
# 5 12.2779 24.2652 3.2563 0.0000 60.1131 0.0000
# 6 0.0000 0.0000 0.0000 17.3160 0.0000 -15.0644
#
#
#
# Elastic Compliance Matrix: (Units=1/GPa)
#
#
# Indices 1 2 3 4 5 6 
#
# 1 0.009683 -0.004821 -0.004093 0.000000 0.000190 0.000000
# 2 -0.004821 0.019647 -0.002506 0.000000 -0.006810 0.000000
# 3 -0.004093 -0.002506 0.010534 0.000000 0.001277 0.000000
# 4 0.000000 0.000000 0.000000 0.038075 0.000000 0.043766
# 5 0.000190 -0.006810 0.001277 0.000000 0.019276 0.000000
# 6 0.000000 0.000000 0.000000 0.043766 0.000000 -0.016074
#
#
# Mechanical properties :
#
#
# Convention : Reuss Voigt Hill
#
# Bulk Modulus (GPa) = 58.73691 77.09143 67.91417
# Shear Modulus (GPa) = 45.59660 24.05386 34.82523
#
# Velocity S-wave (km/s) = 4.65923 3.38408 4.07188
# Velocity P-wave (km/s) = 7.54382 7.20919 7.37840
#
# Compressibility (1/GPa) = 0.01702507
#
# Stress axis : x y z
#
# Youngs Moduli (GPa) = 103.26881 50.89787 94.93125
#
# Poissons Ratio (x) = 0.24538 0.38853
# Poissons Ratio (y) = 0.49786 0.23790
# Poissons Ratio (z) = 0.42265 0.12755
#
# Static dielectric constant tensor:
#      x y z
#    x 4.354380 0.000000 0.111450 
#    y 0.000000 3.650050 0.000000 
#    z 0.111450 0.000000 3.933350 
# 
# 
# High freq. dielectric constant tensor:
#      x y z
#    x 1.856040 0.000000 -0.003510 
#    y 0.000000 1.804150 0.000000 
#    z -0.003510 0.000000 1.822160 
# 
# From -- ./inp_files/13595.got.cif
#   From: 2010.03.12/outbox.cif.g09.slc.cpg/sg5_7_cif.got.tgz:13595.got - 2010.03.31 09:47:26.
