data_PCOD8051816
_publ_section_title
;
Structure prediction by ZEFSAII (Michael W. Deem and Ramdas Pophale) SiO2 
 PCOD8051816
Probable space group: C 2
;
_chemical_formula_sum "Si O2"
_cell_formula_units_Z 12
_cell_length_a 4.958682
_cell_length_b 13.600858
_cell_length_c 8.286028
_cell_angle_alpha 90.000000
_cell_angle_beta 86.155855
_cell_angle_gamma 90.000000
_cell_volume 557.571729
_symmetry_space_group_name_H-M "C 2"
_symmetry_group_IT_number 5
_symmetry_cell_setting 'monoclinic'
loop_
_space_group_symop_operation_xyz
x,y,z
-x,y,-z
1/2+x,1/2+y,z
1/2-x,1/2+y,-z
loop_
_atom_site_type_symbol
_atom_site_label
_atom_site_fract_x
_atom_site_fract_y
_atom_site_fract_z
Si Si1 0.230463 0.546610 0.613224
Si Si2 0.595426 0.264762 0.677206
Si Si3 0.597341 0.863785 0.815324
O O1 0.500000 0.548354 0.500000
O O2 0.182600 0.652332 0.696140
O O3 0.233091 0.466053 0.754037
O O4 0.000000 0.517267 0.500000
O O5 0.500000 0.290739 0.500000
O O6 0.336499 0.282942 0.802126
O O7 0.848300 0.333402 0.711126
O O8 0.500000 0.876357 0.000000
#
# Coordination Sequence:
#
# PCOD8051816 Si02
#       3
#     4   4   4
#     4  11  23  41  66  91 119 163 213 254 297 361
#     4  11  23  43  66  90 122 165 213 253 298 364
#     4  12  25  40  63  95 130 162 197 255 318 367
#
# _framework density 21.521892000000001
#
# number of rings (size 3 to 8) (size 9 to 14) (size 15 to 20)
#    0.000    0.667    0.000   11.000    0.000    2.667 
#    0.000    0.000    0.000    0.000    0.000    0.000 
#    0.000    0.000    0.000    0.000    0.000    0.000 
#
# Total GULP energy -74429.424717 kJ/mol
# GULP energy per Si atom -12404.904120 kJ/mol
# Density = 2.147291 g / cm^3
# Si number density = 21.521892 Si / 1000 Ang^3
#
#
#
# Elastic Constant Matrix: (Units=GPa)
#
#
# Indices 1 2 3 4 5 6 
#
# 1 167.7071 69.4104 55.1675 0.0000 -28.7304 0.0000
# 2 69.4104 148.8003 94.9392 0.0000 -19.0390 0.0000
# 3 55.1675 94.9392 123.5803 0.0000 -36.9724 0.0000
# 4 0.0000 0.0000 0.0000 25.2406 0.0000 -10.9380
# 5 -28.7304 -19.0390 -36.9724 0.0000 46.8998 0.0000
# 6 0.0000 0.0000 0.0000 -10.9380 0.0000 37.7859
#
#
#
# Elastic Compliance Matrix: (Units=1/GPa)
#
#
# Indices 1 2 3 4 5 6 
#
# 1 0.007907 -0.003255 0.000032 0.000000 0.003548 0.000000
# 2 -0.003255 0.014961 -0.011542 0.000000 -0.005020 0.000000
# 3 0.000032 -0.011542 0.020348 0.000000 0.011375 0.000000
# 4 0.000000 0.000000 0.000000 0.045301 0.000000 0.013113
# 5 0.003548 -0.005020 0.011375 0.000000 0.030425 0.000000
# 6 0.000000 0.000000 0.000000 0.013113 0.000000 0.030261
#
#
# Mechanical properties :
#
#
# Convention : Reuss Voigt Hill
#
# Bulk Modulus (GPa) = 73.06819 97.68023 85.37421
# Shear Modulus (GPa) = 27.27849 36.68998 31.98423
#
# Velocity S-wave (km/s) = 3.56403 4.13337 3.85921
# Velocity P-wave (km/s) = 7.13868 8.26224 7.72093
#
# Compressibility (1/GPa) = 0.01368585
#
# Stress axis : x y z
#
# Youngs Moduli (GPa) = 126.46752 66.84145 49.14556
#
# Poissons Ratio (x) = 0.21758 -0.00159
# Poissons Ratio (y) = 0.41166 0.56724
# Poissons Ratio (z) = -0.00409 0.77149
#
# Static dielectric constant tensor:
#      x y z
#    x 4.117440 0.000000 -0.129930 
#    y 0.000000 4.019470 0.000000 
#    z -0.129930 0.000000 3.665450 
# 
# 
# High freq. dielectric constant tensor:
#      x y z
#    x 1.870390 0.000000 -0.014010 
#    y 0.000000 1.855870 0.000000 
#    z -0.014010 0.000000 1.829820 
# 
# From -- ./inp_files/11369.got.cif
#   From: 2010.03.12/outbox.cif.g09.slc.cpg/sg5_6_cif.got.tgz:11369.got - 2010.03.31 09:47:26.
