data_PCOD8051501
_publ_section_title
;
Structure prediction by ZEFSAII (Michael W. Deem and Ramdas Pophale) SiO2 
 PCOD8051501
Probable space group: C 2
;
_chemical_formula_sum "Si O2"
_cell_formula_units_Z 24
_cell_length_a 16.702708
_cell_length_b 5.999829
_cell_length_c 11.300452
_cell_angle_alpha 90.000000
_cell_angle_beta 75.978588
_cell_angle_gamma 90.000000
_cell_volume 1098.715362
_symmetry_space_group_name_H-M "C 2"
_symmetry_group_IT_number 5
_symmetry_cell_setting 'monoclinic'
loop_
_space_group_symop_operation_xyz
x,y,z
-x,y,-z
1/2+x,1/2+y,z
1/2-x,1/2+y,-z
loop_
_atom_site_type_symbol
_atom_site_label
_atom_site_fract_x
_atom_site_fract_y
_atom_site_fract_z
Si Si1 0.500000 0.552680 0.500000
Si Si2 0.238204 0.553428 0.683286
Si Si3 0.106464 0.749702 0.889240
Si Si4 0.645458 0.855365 0.511966
Si Si5 0.448777 0.024674 0.866243
Si Si6 0.000000 0.136977 0.000000
Si Si7 0.380680 0.230687 0.663112
O O1 0.562256 0.712001 0.548876
O O2 0.455664 0.400875 0.614072
O O3 0.194317 0.716848 0.793857
O O4 0.283810 0.711010 0.574424
O O5 0.170472 0.408285 0.637433
O O6 0.300664 0.380281 0.724407
O O7 0.033115 0.664577 0.830609
O O8 0.111077 0.611000 0.008687
O O9 0.081901 0.001645 0.931469
O O10 0.633511 0.089152 0.449736
O O11 0.471973 0.772792 0.893181
O O12 0.401689 0.053126 0.758904
#
# Coordination Sequence:
#
# PCOD8051501 Si02
#       7
#     2   4   4   4   4   2   4
#     4  10  26  42  68  98 128 178 216 274 326 386
#     4  11  24  44  65  97 137 177 214 270 338 384
#     4   9  21  41  68  97 131 175 214 276 326 393
#     4  11  24  43  65  98 133 177 218 272 326 394
#     4   9  21  42  67  99 126 170 228 271 325 385
#     4   8  18  42  68 106 124 162 232 274 326 386
#     4  11  24  45  64 100 135 169 228 269 324 402
#
# _framework density 21.843691
#
# number of rings (size 3 to 8) (size 9 to 14) (size 15 to 20)
#    0.000    2.333    1.667    0.500    4.667    8.000 
#    9.000    0.000    0.000    0.000    0.000    0.000 
#    0.000    0.000    0.000    0.000    0.000    0.000 
#
# Total GULP energy -148770.641635 kJ/mol
# GULP energy per Si atom -12397.553470 kJ/mol
# Density = 2.179397 g / cm^3
# Si number density = 21.843691 Si / 1000 Ang^3
#
#
#
# Elastic Constant Matrix: (Units=GPa)
#
#
# Indices 1 2 3 4 5 6 
#
# 1 105.7784 40.8092 50.8311 0.0000 -7.2429 0.0000
# 2 40.8092 110.3838 23.7070 0.0000 -8.1072 0.0000
# 3 50.8311 23.7070 73.2305 0.0000 -4.4927 0.0000
# 4 0.0000 0.0000 0.0000 20.5055 0.0000 3.9807
# 5 -7.2429 -8.1072 -4.4927 0.0000 26.0482 0.0000
# 6 0.0000 0.0000 0.0000 3.9807 0.0000 28.6349
#
#
#
# Elastic Compliance Matrix: (Units=1/GPa)
#
#
# Indices 1 2 3 4 5 6 
#
# 1 0.015512 -0.003577 -0.009514 0.000000 0.001559 0.000000
# 2 -0.003577 0.010727 -0.000855 0.000000 0.002196 0.000000
# 3 -0.009514 -0.000855 0.020575 0.000000 0.000637 0.000000
# 4 0.000000 0.000000 0.000000 0.050120 0.000000 -0.006967
# 5 0.001559 0.002196 0.000637 0.000000 0.039617 0.000000
# 6 0.000000 0.000000 0.000000 -0.006967 0.000000 0.035891
#
#
# Mechanical properties :
#
#
# Convention : Reuss Voigt Hill
#
# Bulk Modulus (GPa) = 52.84700 57.78750 55.31725
# Shear Modulus (GPa) = 24.19649 26.64077 25.41863
#
# Velocity S-wave (km/s) = 3.33184 3.49608 3.41495
# Velocity P-wave (km/s) = 6.24879 6.54287 6.39752
#
# Compressibility (1/GPa) = 0.01892255
#
# Stress axis : x y z
#
# Youngs Moduli (GPa) = 64.46471 93.22533 48.60242
#
# Poissons Ratio (x) = 0.33348 0.46239
# Poissons Ratio (y) = 0.23060 0.04155
# Poissons Ratio (z) = 0.61331 0.07969
#
# Static dielectric constant tensor:
#      x y z
#    x 3.881090 0.000000 -0.078460 
#    y 0.000000 4.093040 0.000000 
#    z -0.078460 0.000000 3.642390 
# 
# 
# High freq. dielectric constant tensor:
#      x y z
#    x 1.850750 0.000000 -0.004850 
#    y 0.000000 1.870270 0.000000 
#    z -0.004850 0.000000 1.842290 
# 
# From -- ./inp_files/43728.got.cif
#   From: 2010.03.12/outbox.cif.g09.slc.cpg/sg5_22_cif.got.tgz:43728.got - 2010.03.31 09:47:26.
