data_PCOD8051871
_publ_section_title
;
Structure prediction by ZEFSAII (Michael W. Deem and Ramdas Pophale) SiO2 
 PCOD8051871
Probable space group: C 2
;
_chemical_formula_sum "Si O2"
_cell_formula_units_Z 22
_cell_length_a 20.576804
_cell_length_b 8.043291
_cell_length_c 9.158084
_cell_angle_alpha 90.000000
_cell_angle_beta 38.618831
_cell_angle_gamma 90.000000
_cell_volume 946.010268
_symmetry_space_group_name_H-M "C 2"
_symmetry_group_IT_number 5
_symmetry_cell_setting 'monoclinic'
loop_
_space_group_symop_operation_xyz
x,y,z
-x,y,-z
1/2+x,1/2+y,z
1/2-x,1/2+y,-z
loop_
_atom_site_type_symbol
_atom_site_label
_atom_site_fract_x
_atom_site_fract_y
_atom_site_fract_z
Si Si1 0.200676 0.979230 0.149687
Si Si2 0.214010 0.624957 0.271134
Si Si3 0.035086 0.411007 0.706600
Si Si4 0.281767 0.784123 0.432370
Si Si5 0.000000 0.191707 0.500000
Si Si6 0.334713 0.079103 0.161653
O O1 0.194525 0.789812 0.210562
O O2 0.291815 0.080286 0.073154
O O3 0.095241 0.074002 0.370543
O O4 0.226700 0.988451 0.931937
O O5 0.102576 0.553718 0.511946
O O6 0.283391 0.653497 0.294281
O O7 0.106780 0.289655 0.679760
O O8 0.976164 0.304720 0.684691
O O9 0.952202 0.509258 0.954019
O O10 0.186374 0.753023 0.715862
O O11 0.260833 0.960888 0.392147
#
# Coordination Sequence:
#
# PCOD8051871 Si02
#       6
#     4   4   4   4   2   4
#     4  11  25  45  68 105 145 195 250 308 368 446
#     4  11  25  46  73 103 149 196 248 309 373 445
#     4  12  24  46  76 108 148 203 244 304 387 438
#     4  11  23  44  73 107 142 192 243 304 369 442
#     4  12  24  44  72 110 146 196 258 310 372 450
#     4  11  24  44  73 101 149 189 246 304 368 439
#
# _framework density 23.255562000000001
#
# number of rings (size 3 to 8) (size 9 to 14) (size 15 to 20)
#    0.000    0.727    3.636    4.909    0.000    2.182 
#    0.000    0.000    4.000    0.000    0.000    0.000 
#    0.000    0.000    0.000    0.000    0.000    0.000 
#
# Total GULP energy -136339.294677 kJ/mol
# GULP energy per Si atom -12394.481334 kJ/mol
# Density = 2.320263 g / cm^3
# Si number density = 23.255562 Si / 1000 Ang^3
#
#
#
# Elastic Constant Matrix: (Units=GPa)
#
#
# Indices 1 2 3 4 5 6 
#
# 1 125.4615 36.8471 42.0448 0.0000 10.9591 0.0000
# 2 36.8471 81.1127 62.6673 0.0000 2.8614 0.0000
# 3 42.0448 62.6673 154.1558 0.0000 0.3900 0.0000
# 4 0.0000 0.0000 0.0000 55.2921 0.0000 7.8653
# 5 10.9591 2.8614 0.3900 0.0000 38.4689 0.0000
# 6 0.0000 0.0000 0.0000 7.8653 0.0000 38.8651
#
#
#
# Elastic Compliance Matrix: (Units=1/GPa)
#
#
# Indices 1 2 3 4 5 6 
#
# 1 0.009576 -0.003280 -0.001272 0.000000 -0.002471 0.000000
# 2 -0.003280 0.019159 -0.006893 0.000000 -0.000421 0.000000
# 3 -0.001272 -0.006893 0.009634 0.000000 0.000777 0.000000
# 4 0.000000 0.000000 0.000000 0.018622 0.000000 -0.003769
# 5 -0.002471 -0.000421 0.000777 0.000000 0.026722 0.000000
# 6 0.000000 0.000000 0.000000 -0.003769 0.000000 0.026493
#
#
# Mechanical properties :
#
#
# Convention : Reuss Voigt Hill
#
# Bulk Modulus (GPa) = 64.60421 71.53872 68.07146
# Shear Modulus (GPa) = 36.16500 41.13658 38.65079
#
# Velocity S-wave (km/s) = 3.94777 4.21038 4.08119
# Velocity P-wave (km/s) = 6.97282 7.38005 7.17933
#
# Compressibility (1/GPa) = 0.01547887
#
# Stress axis : x y z
#
# Youngs Moduli (GPa) = 104.42674 52.19566 103.79962
#
# Poissons Ratio (x) = 0.17121 0.13205
# Poissons Ratio (y) = 0.34253 0.71546
# Poissons Ratio (z) = 0.13284 0.35977
#
# Static dielectric constant tensor:
#      x y z
#    x 4.419580 0.000000 0.392980 
#    y 0.000000 4.387590 0.000000 
#    z 0.392980 0.000000 4.184060 
# 
# 
# High freq. dielectric constant tensor:
#      x y z
#    x 1.930720 0.000000 0.030060 
#    y 0.000000 1.914090 0.000000 
#    z 0.030060 0.000000 1.917540 
# 
# From -- ./inp_files/22862.got.cif
#   From: 2010.03.12/outbox.cif.g09.slc.cpg/sg5_12_cif.got.tgz:22862.got - 2010.03.31 09:47:26.
