data_PCOD8051265
_publ_section_title
;
Structure prediction by ZEFSAII (Michael W. Deem and Ramdas Pophale) SiO2 
 PCOD8051265
Probable space group: C 2
;
_chemical_formula_sum "Si O2"
_cell_formula_units_Z 24
_cell_length_a 12.929768
_cell_length_b 11.863476
_cell_length_c 18.570866
_cell_angle_alpha 90.000000
_cell_angle_beta 23.366610
_cell_angle_gamma 90.000000
_cell_volume 1129.800536
_symmetry_space_group_name_H-M "C 2"
_symmetry_group_IT_number 5
_symmetry_cell_setting 'monoclinic'
loop_
_space_group_symop_operation_xyz
x,y,z
-x,y,-z
1/2+x,1/2+y,z
1/2-x,1/2+y,-z
loop_
_atom_site_type_symbol
_atom_site_label
_atom_site_fract_x
_atom_site_fract_y
_atom_site_fract_z
Si Si1 0.942052 0.745530 0.115597
Si Si2 0.854370 0.800253 0.668205
Si Si3 0.487699 0.112378 0.686526
Si Si4 0.239095 0.474860 0.294115
Si Si5 0.958891 0.054231 0.609810
Si Si6 0.360840 0.660201 0.953593
O O1 0.812749 0.843672 0.246067
O O2 0.747542 0.642176 0.228252
O O3 0.000000 0.796096 0.000000
O O4 0.207955 0.703604 0.981853
O O5 0.557439 0.757654 0.853781
O O6 0.000000 0.781198 0.500000
O O7 0.008756 0.729996 0.630090
O O8 0.847240 0.929992 0.695241
O O9 0.773918 0.066122 0.517990
O O10 0.332548 0.019240 0.739646
O O11 0.341494 0.131205 0.854602
O O12 0.482558 0.547213 0.168295
O O13 0.000000 0.494780 0.500000
O O14 0.000000 0.078560 0.500000
#
# Coordination Sequence:
#
# PCOD8051265 Si02
#       6
#     4   4   4   4   4   4
#     4  12  28  42  70  99 139 172 230 276 334 389
#     4  10  24  42  70  96 133 178 220 271 336 392
#     4  11  23  44  71  96 137 174 225 270 335 397
#     4  11  26  46  71  99 134 181 221 273 339 396
#     4  11  25  44  64 101 133 176 219 279 332 390
#     4  11  24  45  70  97 136 175 225 273 331 400
#
# _framework density 21.242687
#
# number of rings (size 3 to 8) (size 9 to 14) (size 15 to 20)
#    0.000    1.000    1.667    5.500    9.333    2.667 
#    0.000    0.000    0.000    0.000    0.000    0.000 
#    0.000    0.000    0.000    0.000    0.000    0.000 
#
# Total GULP energy -148881.211307 kJ/mol
# GULP energy per Si atom -12406.767609 kJ/mol
# Density = 2.119434 g / cm^3
# Si number density = 21.242687 Si / 1000 Ang^3
#
#
#
# Elastic Constant Matrix: (Units=GPa)
#
#
# Indices 1 2 3 4 5 6 
#
# 1 99.7081 29.4416 26.3501 -0.0253 -14.4526 0.0311
# 2 29.4416 152.8389 56.5066 -0.0527 -10.3491 0.0068
# 3 26.3501 56.5066 91.5785 -0.0957 -12.3111 0.0315
# 4 -0.0253 -0.0527 -0.0957 38.3951 -0.0206 1.4408
# 5 -14.4526 -10.3491 -12.3111 -0.0206 42.4127 -0.0487
# 6 0.0311 0.0068 0.0315 1.4408 -0.0487 24.4537
#
#
#
# Elastic Compliance Matrix: (Units=1/GPa)
#
#
# Indices 1 2 3 4 5 6 
#
# 1 0.011378 -0.001202 -0.002133 0.000002 0.002964 -0.000006
# 2 -0.001202 0.008617 -0.004936 -0.000001 0.000260 0.000006
# 3 -0.002133 -0.004936 0.014901 0.000031 0.002394 -0.000012
# 4 0.000002 -0.000001 0.000031 0.026103 0.000020 -0.001538
# 5 0.002964 0.000260 0.002394 0.000020 0.025346 0.000042
# 6 -0.000006 0.000006 -0.000012 -0.001538 0.000042 0.040984
#
#
# Mechanical properties :
#
#
# Convention : Reuss Voigt Hill
#
# Bulk Modulus (GPa) = 54.48890 63.19134 58.84012
# Shear Modulus (GPa) = 33.33554 36.50743 34.92149
#
# Velocity S-wave (km/s) = 3.96570 4.15008 4.05894
# Velocity P-wave (km/s) = 6.83194 7.26472 7.05165
#
# Compressibility (1/GPa) = 0.01835236
#
# Stress axis : x y z
#
# Youngs Moduli (GPa) = 87.89069 116.05023 67.10977
#
# Poissons Ratio (x) = 0.13952 0.14317
# Poissons Ratio (y) = 0.10567 0.33126
# Poissons Ratio (z) = 0.18751 0.57283
#
# Static dielectric constant tensor:
#      x y z
#    x 3.868210 0.000050 -0.096860 
#    y 0.000050 3.925440 0.000080 
#    z -0.096860 0.000080 3.858130 
# 
# 
# High freq. dielectric constant tensor:
#      x y z
#    x 1.836500 -0.000010 -0.002620 
#    y -0.000010 1.843340 0.000020 
#    z -0.002620 0.000020 1.841750 
# 
# From -- ./inp_files/66081.got.cif
#   From: 2010.03.12/outbox.cif.g09.slc.cpg/sg5_34_cif.got.tgz:66081.got - 2010.03.31 09:47:26.
