data_PCOD8051232
_publ_section_title
;
Structure prediction by ZEFSAII (Michael W. Deem and Ramdas Pophale) SiO2 
 PCOD8051232
Probable space group: C 2
;
_chemical_formula_sum "Si O2"
_cell_formula_units_Z 26
_cell_length_a 9.290764
_cell_length_b 14.206742
_cell_length_c 16.104030
_cell_angle_alpha 90.000000
_cell_angle_beta 143.939868
_cell_angle_gamma 90.000000
_cell_volume 1251.197395
_symmetry_space_group_name_H-M "C 2"
_symmetry_group_IT_number 5
_symmetry_cell_setting 'monoclinic'
loop_
_space_group_symop_operation_xyz
x,y,z
-x,y,-z
1/2+x,1/2+y,z
1/2-x,1/2+y,-z
loop_
_atom_site_type_symbol
_atom_site_label
_atom_site_fract_x
_atom_site_fract_y
_atom_site_fract_z
Si Si1 0.500000 0.234771 0.000000
Si Si2 0.569355 0.382270 0.902093
Si Si3 0.014450 0.622973 0.278695
Si Si4 0.277950 0.590366 0.232456
Si Si5 0.000000 0.443661 0.000000
Si Si6 0.000000 0.043277 0.000000
Si Si7 0.769492 0.815823 0.616231
Si Si8 0.692233 0.012872 0.516427
O O1 0.633084 0.299434 0.994889
O O2 0.284008 0.175963 0.857579
O O3 0.794647 0.379895 0.944647
O O4 0.529635 0.480695 0.930884
O O5 0.332627 0.359855 0.736080
O O6 0.206072 0.612033 0.293130
O O7 0.050221 0.730817 0.328229
O O8 0.071658 0.543974 0.373705
O O9 0.736657 0.609808 0.118432
O O10 0.565468 0.574190 0.356127
O O11 0.119623 0.502033 0.130107
O O12 0.500000 0.772203 0.500000
O O13 0.766945 0.902004 0.548536
O O14 0.500000 0.033158 0.500000
#
# Coordination Sequence:
#
# PCOD8051232 Si02
#       8
#     2   4   4   4   2   2   4   4
#     4  10  24  40  71  99 136 186 228 284 347 429
#     4  11  22  44  69 100 138 184 230 289 346 422
#     4  12  25  44  72 100 138 187 236 291 347 426
#     4  11  22  44  66  99 140 180 227 286 356 411
#     4  11  22  40  68  99 138 182 219 291 351 401
#     4  11  24  42  67 108 138 180 235 287 354 406
#     4  11  23  44  69  96 135 185 228 285 351 413
#     4  11  25  46  70  97 137 185 236 295 352 413
#
# _framework density 20.780093999999998
#
# number of rings (size 3 to 8) (size 9 to 14) (size 15 to 20)
#    0.000    0.923    4.615    3.231    0.000    0.615 
#    2.769    1.538    0.000    0.000    0.000    0.000 
#    0.000    0.000    0.000    0.000    0.000    0.000 
#
# Total GULP energy -161212.419920 kJ/mol
# GULP energy per Si atom -12400.955378 kJ/mol
# Density = 2.073280 g / cm^3
# Si number density = 20.780094 Si / 1000 Ang^3
#
#
#
# Elastic Constant Matrix: (Units=GPa)
#
#
# Indices 1 2 3 4 5 6 
#
# 1 108.4062 52.7989 45.7213 -0.0002 8.4012 0.0003
# 2 52.7989 138.7374 62.1516 0.0001 1.6151 -0.0002
# 3 45.7213 62.1516 127.7277 -0.0012 6.0211 -0.0002
# 4 -0.0002 0.0001 -0.0012 -1.9962 -0.0009 19.1279
# 5 8.4012 1.6151 6.0211 -0.0009 41.5169 0.0002
# 6 0.0003 -0.0002 -0.0002 19.1279 0.0002 4.3317
#
#
#
# Elastic Compliance Matrix: (Units=1/GPa)
#
#
# Indices 1 2 3 4 5 6 
#
# 1 0.012140 -0.003442 -0.002579 0.000000 -0.001949 0.000000
# 2 -0.003442 0.010197 -0.003769 0.000000 0.000847 0.000000
# 3 -0.002579 -0.003769 0.010628 0.000000 -0.000873 0.000001
# 4 0.000000 0.000000 0.000000 -0.011566 0.000000 0.051073
# 5 -0.001949 0.000847 -0.000873 0.000000 0.024575 0.000001
# 6 0.000000 0.000000 0.000001 0.051073 0.000001 0.005330
#
#
# Mechanical properties :
#
#
# Convention : Reuss Voigt Hill
#
# Bulk Modulus (GPa) = 74.71952 77.35720 76.03836
# Shear Modulus (GPa) = 66.36243 23.05045 44.70644
#
# Velocity S-wave (km/s) = 5.65729 3.33416 4.64336
# Velocity P-wave (km/s) = 8.87178 7.22008 8.08820
#
# Compressibility (1/GPa) = 0.01338338
#
# Stress axis : x y z
#
# Youngs Moduli (GPa) = 82.37494 98.07249 94.09505
#
# Poissons Ratio (x) = 0.33757 0.24265
# Poissons Ratio (y) = 0.28354 0.35468
# Poissons Ratio (z) = 0.21242 0.36967
#
# Static dielectric constant tensor:
#      x y z
#    x 3.937170 0.000000 0.064070 
#    y 0.000000 3.869430 0.000000 
#    z 0.064070 0.000000 4.104300 
# 
# 
# High freq. dielectric constant tensor:
#      x y z
#    x 1.797880 0.000000 0.001510 
#    y 0.000000 1.817160 0.000000 
#    z 0.001510 0.000000 1.832350 
# 
# From -- ./inp_files/50863.got.cif
#   From: 2010.03.12/outbox.cif.g09.slc.cpg/sg5_26_cif.got.tgz:50863.got - 2010.03.31 09:47:26.
