data_PCOD8051246
_publ_section_title
;
Structure prediction by ZEFSAII (Michael W. Deem and Ramdas Pophale) SiO2 
 PCOD8051246
Probable space group: C 2
;
_chemical_formula_sum "Si O2"
_cell_formula_units_Z 26
_cell_length_a 5.041707
_cell_length_b 13.488307
_cell_length_c 18.178806
_cell_angle_alpha 90.000000
_cell_angle_beta 63.637761
_cell_angle_gamma 90.000000
_cell_volume 1107.670632
_symmetry_space_group_name_H-M "C 2"
_symmetry_group_IT_number 5
_symmetry_cell_setting 'monoclinic'
loop_
_space_group_symop_operation_xyz
x,y,z
-x,y,-z
1/2+x,1/2+y,z
1/2-x,1/2+y,-z
loop_
_atom_site_type_symbol
_atom_site_label
_atom_site_fract_x
_atom_site_fract_y
_atom_site_fract_z
Si Si1 0.598986 0.250000 0.404621
Si Si2 0.781575 0.348260 0.664027
Si Si3 0.500000 0.819555 0.000000
Si Si4 0.247719 0.596544 0.799256
Si Si5 0.255874 0.467686 0.076212
Si Si6 0.034811 0.804977 0.842966
Si Si7 0.904335 0.561715 0.694195
O O1 0.500000 0.241872 0.500000
O O2 0.388221 0.332471 0.392104
O O3 0.545860 0.144925 0.372799
O O4 0.947141 0.272891 0.356960
O O5 0.525318 0.328367 0.756806
O O6 0.931134 0.456579 0.649842
O O7 0.278200 0.882191 0.979308
O O8 0.718905 0.765309 0.914558
O O9 0.245076 0.710052 0.827021
O O10 0.582943 0.564703 0.771942
O O11 0.040771 0.529928 0.876850
O O12 0.150437 0.578861 0.726747
O O13 0.344840 0.409173 0.139504
O O14 0.500000 0.533868 0.000000
#
# Coordination Sequence:
#
# PCOD8051246 Si02
#       7
#     4   4   2   4   4   4   4
#     4  12  27  48  72 108 145 180 233 296 359 426
#     4  12  25  46  78 103 142 191 232 290 349 431
#     4  10  24  42  64  96 144 188 232 304 342 408
#     4  12  25  41  73 101 135 185 239 291 343 419
#     4  10  24  44  61 101 139 189 233 301 348 407
#     4  11  23  42  69  99 141 183 244 282 354 407
#     4  12  25  46  72 106 133 184 233 289 351 422
#
# _framework density 23.472683
#
# number of rings (size 3 to 8) (size 9 to 14) (size 15 to 20)
#    0.000    0.615    4.615    2.308    7.538    1.231 
#    4.154    0.000    0.000    0.000    0.000    0.000 
#    0.000    0.000    0.000    0.000    0.000    0.000 
#
# Total GULP energy -161096.568875 kJ/mol
# GULP energy per Si atom -12392.043760 kJ/mol
# Density = 2.341926 g / cm^3
# Si number density = 23.472683 Si / 1000 Ang^3
#
#
#
# Elastic Constant Matrix: (Units=GPa)
#
#
# Indices 1 2 3 4 5 6 
#
# 1 67.8398 -9.2971 8.9582 0.0000 -0.0706 0.0000
# 2 -9.2971 77.8587 21.7538 0.0000 -1.7042 0.0000
# 3 8.9582 21.7538 113.0462 0.0000 1.5896 0.0000
# 4 0.0000 0.0000 0.0000 -5.3705 0.0000 18.2327
# 5 -0.0706 -1.7042 1.5896 0.0000 26.9958 0.0000
# 6 0.0000 0.0000 0.0000 18.2327 0.0000 11.7649
#
#
#
# Elastic Compliance Matrix: (Units=1/GPa)
#
#
# Indices 1 2 3 4 5 6 
#
# 1 0.015274 0.002293 -0.001655 0.000000 0.000282 0.000000
# 2 0.002293 0.013945 -0.002880 0.000000 0.001056 0.000000
# 3 -0.001655 -0.002880 0.009542 0.000000 -0.000748 0.000000
# 4 0.000000 0.000000 0.000000 -0.029738 0.000000 0.046087
# 5 0.000282 0.001056 -0.000748 0.000000 0.037154 0.000000
# 6 0.000000 0.000000 0.000000 0.046087 0.000000 0.013575
#
#
# Mechanical properties :
#
#
# Convention : Reuss Voigt Hill
#
# Bulk Modulus (GPa) = 29.17583 33.50826 31.34205
# Shear Modulus (GPa) = 66.08257 22.50003 44.29130
#
# Velocity S-wave (km/s) = 5.31169 3.09942 4.34859
# Velocity P-wave (km/s) = 7.07640 5.20721 6.21251
#
# Compressibility (1/GPa) = 0.03427495
#
# Stress axis : x y z
#
# Youngs Moduli (GPa) = 65.47204 71.70850 104.80133
#
# Poissons Ratio (x) = -0.16440 0.17350
# Poissons Ratio (y) = -0.15010 0.30183
# Poissons Ratio (z) = 0.10839 0.20652
#
# Static dielectric constant tensor:
#      x y z
#    x 4.207930 0.000000 0.369980 
#    y 0.000000 4.223760 0.000000 
#    z 0.369980 0.000000 6.236180 
# 
# 
# High freq. dielectric constant tensor:
#      x y z
#    x 1.928870 0.000000 -0.002820 
#    y 0.000000 1.924570 0.000000 
#    z -0.002820 0.000000 1.934030 
# 
# From -- ./inp_files/58731.got.cif
#   From: 2010.03.12/outbox.cif.g09.slc.cpg/sg5_30_cif.got.tgz:58731.got - 2010.03.31 09:47:26.
