data_PCOD8051902
_publ_section_title
;
Structure prediction by ZEFSAII (Michael W. Deem and Ramdas Pophale) SiO2 
 PCOD8051902
Probable space group: C 2
;
_chemical_formula_sum "Si O2"
_cell_formula_units_Z 20
_cell_length_a 11.220947
_cell_length_b 8.201376
_cell_length_c 12.977895
_cell_angle_alpha 90.000000
_cell_angle_beta 134.020477
_cell_angle_gamma 90.000000
_cell_volume 858.824923
_symmetry_space_group_name_H-M "C 2"
_symmetry_group_IT_number 5
_symmetry_cell_setting 'monoclinic'
loop_
_space_group_symop_operation_xyz
x,y,z
-x,y,-z
1/2+x,1/2+y,z
1/2-x,1/2+y,-z
loop_
_atom_site_type_symbol
_atom_site_label
_atom_site_fract_x
_atom_site_fract_y
_atom_site_fract_z
Si Si1 0.660576 0.593830 0.540706
Si Si2 0.988275 0.735902 0.234590
Si Si3 0.653101 0.101929 0.039240
Si Si4 0.738278 0.821721 0.243105
Si Si5 0.989219 0.093368 0.768944
O O1 0.500000 0.673780 0.500000
O O2 0.705388 0.424795 0.623898
O O3 0.622180 0.563473 0.398499
O O4 0.815331 0.713793 0.638579
O O5 0.900743 0.732127 0.294275
O O6 0.902378 0.593049 0.114281
O O7 0.960202 0.911994 0.162165
O O8 0.836139 0.183868 0.155774
O O9 0.657913 0.930026 0.103756
O O10 0.500000 0.203615 0.000000
O O11 0.603821 0.689860 0.197877
#
# Coordination Sequence:
#
# PCOD8051902 Si02
#       5
#     4   4   4   4   4
#     4  12  22  48  75 101 147 183 223 292 354 407
#     4  11  25  46  70 106 138 185 238 282 349 416
#     4  11  23  46  71  97 147 185 226 293 346 402
#     4  11  26  49  73 101 146 184 228 297 340 418
#     4  11  26  43  75 107 134 189 235 280 353 415
#
# _framework density 23.287633
#
# number of rings (size 3 to 8) (size 9 to 14) (size 15 to 20)
#    0.000    0.800    6.000    1.200    5.600    0.000 
#   18.000    0.000    0.000    0.000    0.000    0.000 
#    0.000    0.000    0.000    0.000    0.000    0.000 
#
# Total GULP energy -123889.509642 kJ/mol
# GULP energy per Si atom -12388.950964 kJ/mol
# Density = 2.323463 g / cm^3
# Si number density = 23.287633 Si / 1000 Ang^3
#
#
#
# Elastic Constant Matrix: (Units=GPa)
#
#
# Indices 1 2 3 4 5 6 
#
# 1 214.2727 79.5801 55.1127 0.0000 31.0509 0.0000
# 2 79.5801 68.4946 38.2800 0.0000 0.4724 0.0000
# 3 55.1127 38.2800 131.7255 0.0000 13.7666 0.0000
# 4 0.0000 0.0000 0.0000 26.1747 0.0000 -2.4793
# 5 31.0509 0.4724 13.7666 0.0000 48.3624 0.0000
# 6 0.0000 0.0000 0.0000 -2.4793 0.0000 41.9609
#
#
#
# Elastic Compliance Matrix: (Units=1/GPa)
#
#
# Indices 1 2 3 4 5 6 
#
# 1 0.009753 -0.011181 -0.000194 0.000000 -0.006097 0.000000
# 2 -0.011181 0.030330 -0.005004 0.000000 0.008307 0.000000
# 3 -0.000194 -0.005004 0.009388 0.000000 -0.002499 0.000000
# 4 0.000000 0.000000 0.000000 0.038420 0.000000 0.002270
# 5 -0.006097 0.008307 -0.002499 0.000000 0.025222 0.000000
# 6 0.000000 0.000000 0.000000 0.002270 0.000000 0.023966
#
#
# Mechanical properties :
#
#
# Convention : Reuss Voigt Hill
#
# Bulk Modulus (GPa) = 59.83543 84.49316 72.16430
# Shear Modulus (GPa) = 28.50493 39.40091 33.95292
#
# Velocity S-wave (km/s) = 3.50242 4.11776 3.82249
# Velocity P-wave (km/s) = 6.48890 7.67914 7.10897
#
# Compressibility (1/GPa) = 0.01671251
#
# Stress axis : x y z
#
# Youngs Moduli (GPa) = 102.53167 32.97094 106.51769
#
# Poissons Ratio (x) = 0.36865 0.02067
# Poissons Ratio (y) = 1.14641 0.53302
# Poissons Ratio (z) = 0.01990 0.16499
#
# Static dielectric constant tensor:
#      x y z
#    x 4.776160 0.000000 0.283150 
#    y 0.000000 3.830830 0.000000 
#    z 0.283150 0.000000 4.330560 
# 
# 
# High freq. dielectric constant tensor:
#      x y z
#    x 1.948380 0.000000 0.017960 
#    y 0.000000 1.869970 0.000000 
#    z 0.017960 0.000000 1.932650 
# 
# From -- ./inp_files/52162.got.cif
#   From: 2010.03.12/outbox.cif.g09.slc.cpg/sg5_27_cif.got.tgz:52162.got - 2010.03.31 09:47:26.
