data_PCOD8051438
_publ_section_title
;
Structure prediction by ZEFSAII (Michael W. Deem and Ramdas Pophale) SiO2 
 PCOD8051438
Probable space group: C 2
;
_chemical_formula_sum "Si O2"
_cell_formula_units_Z 24
_cell_length_a 8.781065
_cell_length_b 11.473782
_cell_length_c 11.637364
_cell_angle_alpha 90.000000
_cell_angle_beta 81.353214
_cell_angle_gamma 90.000000
_cell_volume 1159.161432
_symmetry_space_group_name_H-M "C 2"
_symmetry_group_IT_number 5
_symmetry_cell_setting 'monoclinic'
loop_
_space_group_symop_operation_xyz
x,y,z
-x,y,-z
1/2+x,1/2+y,z
1/2-x,1/2+y,-z
loop_
_atom_site_type_symbol
_atom_site_label
_atom_site_fract_x
_atom_site_fract_y
_atom_site_fract_z
Si Si1 0.344544 0.355160 0.267522
Si Si2 0.336473 0.758704 0.162573
Si Si3 0.818115 0.627985 0.403077
Si Si4 0.829127 0.985251 0.772503
Si Si5 0.833826 0.578280 0.658383
Si Si6 0.683569 0.711089 0.099811
O O1 0.332385 0.265634 0.375069
O O2 0.507181 0.420836 0.242681
O O3 0.213774 0.449626 0.300922
O O4 0.313605 0.283291 0.153802
O O5 0.231335 0.670466 0.244660
O O6 0.515461 0.742220 0.167414
O O7 0.303066 0.889613 0.204722
O O8 0.294172 0.739862 0.034916
O O9 0.689549 0.562060 0.341305
O O10 0.769458 0.613444 0.540529
O O11 0.983085 0.572451 0.358562
O O12 0.802355 0.071859 0.883297
#
# Coordination Sequence:
#
# PCOD8051438 Si02
#       6
#     4   4   4   4   4   4
#     4  11  23  44  67  93 131 170 218 269 324 385
#     4  11  23  42  67  93 131 171 213 270 326 379
#     4  10  25  43  63  98 128 170 221 263 326 389
#     4  11  23  44  67  93 131 170 218 269 324 385
#     4  11  23  42  67  93 131 171 213 270 326 379
#     4  10  25  43  63  98 128 170 221 263 326 389
#
# _framework density 20.704622000000001
#
# number of rings (size 3 to 8) (size 9 to 14) (size 15 to 20)
#    0.000    1.333    3.333    1.000    4.667    1.333 
#    0.000    0.000    0.000    0.000    0.000    0.000 
#    0.000    0.000    0.000    0.000    0.000    0.000 
#
# Total GULP energy -148836.847466 kJ/mol
# GULP energy per Si atom -12403.070622 kJ/mol
# Density = 2.065750 g / cm^3
# Si number density = 20.704622 Si / 1000 Ang^3
#
#
#
# Elastic Constant Matrix: (Units=GPa)
#
#
# Indices 1 2 3 4 5 6 
#
# 1 78.1873 26.9976 11.5338 0.0000 5.8483 0.0000
# 2 26.9976 150.1283 25.1267 0.0000 1.5769 0.0000
# 3 11.5338 25.1267 79.4933 0.0000 4.7883 0.0000
# 4 0.0000 0.0000 0.0000 15.6778 0.0000 3.9361
# 5 5.8483 1.5769 4.7883 0.0000 29.6986 0.0000
# 6 0.0000 0.0000 0.0000 3.9361 0.0000 46.1657
#
#
#
# Elastic Compliance Matrix: (Units=1/GPa)
#
#
# Indices 1 2 3 4 5 6 
#
# 1 0.013932 -0.002287 -0.001152 0.000000 -0.002436 0.000000
# 2 -0.002287 0.007408 -0.002033 0.000000 0.000385 0.000000
# 3 -0.001152 -0.002033 0.013500 0.000000 -0.001842 0.000000
# 4 0.000000 0.000000 0.000000 0.065180 0.000000 -0.005557
# 5 -0.002436 0.000385 -0.001842 0.000000 0.034428 0.000000
# 6 0.000000 0.000000 0.000000 -0.005557 0.000000 0.022135
#
#
# Mechanical properties :
#
#
# Convention : Reuss Voigt Hill
#
# Bulk Modulus (GPa) = 41.84642 48.34723 45.09682
# Shear Modulus (GPa) = 28.49132 34.58514 31.53823
#
# Velocity S-wave (km/s) = 3.71359 4.09150 3.90711
# Velocity P-wave (km/s) = 6.21632 6.76181 6.49480
#
# Compressibility (1/GPa) = 0.02389691
#
# Stress axis : x y z
#
# Youngs Moduli (GPa) = 71.77918 134.98064 74.07214
#
# Poissons Ratio (x) = 0.30870 0.08531
# Poissons Ratio (y) = 0.16416 0.15059
# Poissons Ratio (z) = 0.08267 0.27443
#
# Static dielectric constant tensor:
#      x y z
#    x 3.785340 0.000000 0.087050 
#    y 0.000000 3.963660 0.000000 
#    z 0.087050 0.000000 3.687360 
# 
# 
# High freq. dielectric constant tensor:
#      x y z
#    x 1.817710 0.000000 0.007240 
#    y 0.000000 1.829810 0.000000 
#    z 0.007240 0.000000 1.805620 
# 
# From -- ./inp_files/35339.got.cif
#   From: 2010.03.12/outbox.cif.g09.slc.cpg/sg5_18_cif.got.tgz:35339.got - 2010.03.31 09:47:26.
