data_PCOD8051316
_publ_section_title
;
Structure prediction by ZEFSAII (Michael W. Deem and Ramdas Pophale) SiO2 
 PCOD8051316
Probable space group: C 2
;
_chemical_formula_sum "Si O2"
_cell_formula_units_Z 22
_cell_length_a 11.055662
_cell_length_b 11.230487
_cell_length_c 8.836463
_cell_angle_alpha 90.000000
_cell_angle_beta 63.316229
_cell_angle_gamma 90.000000
_cell_volume 980.292528
_symmetry_space_group_name_H-M "C 2"
_symmetry_group_IT_number 5
_symmetry_cell_setting 'monoclinic'
loop_
_space_group_symop_operation_xyz
x,y,z
-x,y,-z
1/2+x,1/2+y,z
1/2-x,1/2+y,-z
loop_
_atom_site_type_symbol
_atom_site_label
_atom_site_fract_x
_atom_site_fract_y
_atom_site_fract_z
Si Si1 0.246540 0.438850 0.398228
Si Si2 0.176949 0.755248 0.187391
Si Si3 0.428862 0.644759 0.190582
Si Si4 0.500000 0.105596 0.500000
Si Si5 0.353461 0.479289 0.637139
Si Si6 0.805682 0.219200 0.797047
O O1 0.374904 0.521285 0.287176
O O2 0.117850 0.521392 0.489090
O O3 0.280218 0.397178 0.549902
O O4 0.220988 0.332187 0.295525
O O5 0.308260 0.734014 0.217713
O O6 0.048885 0.683661 0.328082
O O7 0.141223 0.895477 0.217305
O O8 0.204473 0.723429 0.997245
O O9 0.536270 0.712458 0.240299
O O10 0.500000 0.601639 0.000000
O O11 0.500000 0.520573 0.500000
O O12 0.270758 0.599477 0.723662
#
# Coordination Sequence:
#
# PCOD8051316 Si02
#       6
#     4   4   4   2   4   4
#     4  11  26  42  73 104 143 188 245 293 366 427
#     4  10  24  46  69 101 144 188 244 299 360 435
#     4   9  21  45  71 100 140 189 239 294 356 427
#     4  10  24  44  70  98 144 182 242 302 358 422
#     4  12  26  44  70 103 150 192 246 296 367 432
#     4  11  26  45  74 104 142 196 242 294 368 430
#
# _framework density 22.442278999999999
#
# number of rings (size 3 to 8) (size 9 to 14) (size 15 to 20)
#    0.000    1.455    2.727    0.000   16.545    0.000 
#    0.000    2.727    0.000    0.000    0.000    0.000 
#    0.000    0.000    0.000    0.000    0.000    0.000 
#
# Total GULP energy -136314.983393 kJ/mol
# GULP energy per Si atom -12392.271218 kJ/mol
# Density = 2.239120 g / cm^3
# Si number density = 22.442279 Si / 1000 Ang^3
#
#
#
# Elastic Constant Matrix: (Units=GPa)
#
#
# Indices 1 2 3 4 5 6 
#
# 1 72.9960 44.1325 66.9123 0.0000 5.3972 0.0000
# 2 44.1325 143.6159 90.8999 0.0000 -3.6692 0.0000
# 3 66.9123 90.8999 162.7502 0.0000 -3.8287 0.0000
# 4 0.0000 0.0000 0.0000 -345.7539 0.0000 284.8068
# 5 5.3972 -3.6692 -3.8287 0.0000 40.9947 0.0000
# 6 0.0000 0.0000 0.0000 284.8068 0.0000 -163.9900
#
#
#
# Elastic Compliance Matrix: (Units=1/GPa)
#
#
# Indices 1 2 3 4 5 6 
#
# 1 0.022848 -0.001729 -0.008521 0.000000 -0.003959 0.000000
# 2 -0.001729 0.010908 -0.005365 0.000000 0.000703 0.000000
# 3 -0.008521 -0.005365 0.012687 0.000000 0.001827 0.000000
# 4 0.000000 0.000000 0.000000 0.006717 0.000000 0.011665
# 5 -0.003959 0.000703 0.001827 0.000000 0.025148 0.000000
# 6 0.000000 0.000000 0.000000 0.011665 0.000000 0.014162
#
#
# Mechanical properties :
#
#
# Convention : Reuss Voigt Hill
#
# Bulk Modulus (GPa) = 65.73222 87.02794 76.38008
# Shear Modulus (GPa) = 38.82839 -81.92201 -21.54681
#
# Velocity S-wave (km/s) = 4.16401 -6.04836 -3.10191
# Velocity P-wave (km/s) = 7.24374 3.14867 4.61289
#
# Compressibility (1/GPa) = 0.01521324
#
# Stress axis : x y z
#
# Youngs Moduli (GPa) = 43.76669 91.67592 78.81936
#
# Poissons Ratio (x) = 0.15850 0.67164
# Poissons Ratio (y) = 0.07567 0.42287
# Poissons Ratio (z) = 0.37295 0.49184
#
# Static dielectric constant tensor:
#      x y z
#    x 4.794030 0.000000 -0.581230 
#    y 0.000000 3.921840 0.000000 
#    z -0.581230 0.000000 4.718430 
# 
# 
# High freq. dielectric constant tensor:
#      x y z
#    x 1.882850 0.000000 -0.002980 
#    y 0.000000 1.885030 0.000000 
#    z -0.002980 0.000000 1.897450 
# 
# From -- ./inp_files/19265.got.cif
#   From: 2010.03.12/outbox.cif.g09.slc.cpg/sg5_10_cif.got.tgz:19265.got - 2010.03.31 09:47:26.
