data_PCOD8051808
_publ_section_title
;
Structure prediction by ZEFSAII (Michael W. Deem and Ramdas Pophale) SiO2 
 PCOD8051808
Probable space group: C 2
;
_chemical_formula_sum "Si O2"
_cell_formula_units_Z 30
_cell_length_a 22.307021
_cell_length_b 5.180296
_cell_length_c 13.098565
_cell_angle_alpha 90.000000
_cell_angle_beta 106.341352
_cell_angle_gamma 90.000000
_cell_volume 1452.483581
_symmetry_space_group_name_H-M "C 2"
_symmetry_group_IT_number 5
_symmetry_cell_setting 'monoclinic'
loop_
_space_group_symop_operation_xyz
x,y,z
-x,y,-z
1/2+x,1/2+y,z
1/2-x,1/2+y,-z
loop_
_atom_site_type_symbol
_atom_site_label
_atom_site_fract_x
_atom_site_fract_y
_atom_site_fract_z
Si Si1 0.934367 0.813970 0.246536
Si Si2 0.120458 0.953239 0.586893
Si Si3 0.744293 0.679918 0.565401
Si Si4 0.546179 0.795477 0.871303
Si Si5 0.941914 0.668575 0.616449
Si Si6 0.641800 0.205955 0.236617
Si Si7 0.000000 0.268120 0.500000
Si Si8 0.408786 0.731673 0.878839
O O1 0.936119 0.564592 0.174261
O O2 0.000866 0.863589 0.336152
O O3 0.878851 0.790057 0.306140
O O4 0.921105 0.065487 0.173990
O O5 0.180728 0.128074 0.596805
O O6 0.058516 0.118521 0.572010
O O7 0.112007 0.772409 0.484424
O O8 0.765680 0.422291 0.515108
O O9 0.793255 0.760503 0.675815
O O10 0.471401 0.766264 0.841727
O O11 0.575631 0.769387 0.996347
O O12 0.909467 0.613698 0.706882
O O13 0.975289 0.420906 0.586007
O O14 0.621120 0.454287 0.161570
O O15 0.643504 0.952257 0.166746
#
# Coordination Sequence:
#
# PCOD8051808 Si02
#       8
#     4   4   4   4   4   4   2   4
#     4  12  22  38  63  96 132 170 207 264 339 389
#     4  12  26  39  63  95 139 179 215 264 324 400
#     4  12  27  45  65  95 135 184 228 264 307 389
#     4  11  23  39  64  98 131 160 215 281 330 395
#     4  12  22  36  59  96 131 174 204 257 327 401
#     4  12  24  41  67  91 135 177 212 270 319 392
#     4  12  22  38  60  90 142 174 214 262 320 398
#     4  11  23  41  65  96 129 170 218 271 339 381
#
# _framework density 20.654277
#
# number of rings (size 3 to 8) (size 9 to 14) (size 15 to 20)
#    0.000    0.267    6.667    3.200    1.867    2.133 
#    0.000    0.000    0.000    3.200    0.000    0.000 
#    0.000    0.000    0.000    0.000    0.000    0.000 
#
# Total GULP energy -185918.942725 kJ/mol
# GULP energy per Si atom -12394.596182 kJ/mol
# Density = 2.060727 g / cm^3
# Si number density = 20.654277 Si / 1000 Ang^3
#
#
#
# Elastic Constant Matrix: (Units=GPa)
#
#
# Indices 1 2 3 4 5 6 
#
# 1 81.2138 30.0593 30.5881 0.0000 2.8398 0.0000
# 2 30.0593 126.7132 48.6859 0.0000 -2.3134 0.0000
# 3 30.5881 48.6859 99.1966 0.0000 -0.1823 0.0000
# 4 0.0000 0.0000 0.0000 53.4920 0.0000 -9.7143
# 5 2.8398 -2.3134 -0.1823 0.0000 27.5934 0.0000
# 6 0.0000 0.0000 0.0000 -9.7143 0.0000 28.7110
#
#
#
# Elastic Compliance Matrix: (Units=1/GPa)
#
#
# Indices 1 2 3 4 5 6 
#
# 1 0.014450 -0.002151 -0.003403 0.000000 -0.001690 0.000000
# 2 -0.002151 0.010063 -0.004274 0.000000 0.001037 0.000000
# 3 -0.003403 -0.004274 0.013228 0.000000 0.000079 0.000000
# 4 0.000000 0.000000 0.000000 0.019918 0.000000 0.006739
# 5 -0.001690 0.001037 0.000079 0.000000 0.036502 0.000000
# 6 0.000000 0.000000 0.000000 0.006739 0.000000 0.037110
#
#
# Mechanical properties :
#
#
# Convention : Reuss Voigt Hill
#
# Bulk Modulus (GPa) = 55.29368 58.42111 56.85739
# Shear Modulus (GPa) = 31.85598 35.14529 33.50063
#
# Velocity S-wave (km/s) = 3.93153 4.12952 4.03174
# Velocity P-wave (km/s) = 6.88755 7.14730 7.01863
#
# Compressibility (1/GPa) = 0.01808525
#
# Stress axis : x y z
#
# Youngs Moduli (GPa) = 69.20296 99.37235 75.59668
#
# Poissons Ratio (x) = 0.21377 0.25727
# Poissons Ratio (y) = 0.14887 0.32308
# Poissons Ratio (z) = 0.23551 0.42469
#
# Static dielectric constant tensor:
#      x y z
#    x 3.505800 0.000000 -0.022800 
#    y 0.000000 3.836640 0.000000 
#    z -0.022800 0.000000 3.900160 
# 
# 
# High freq. dielectric constant tensor:
#      x y z
#    x 1.779030 0.000000 -0.007770 
#    y 0.000000 1.821080 0.000000 
#    z -0.007770 0.000000 1.819130 
# 
# From -- ./inp_files/46957.got.cif
#   From: 2010.03.12/outbox.cif.g09.slc.cpg/sg5_24_cif.got.tgz:46957.got - 2010.03.31 09:47:26.
