data_PCOD8051700
_publ_section_title
;
Structure prediction by ZEFSAII (Michael W. Deem and Ramdas Pophale) SiO2 
 PCOD8051700
Probable space group: C 2
;
_chemical_formula_sum "Si O2"
_cell_formula_units_Z 26
_cell_length_a 8.294773
_cell_length_b 20.936914
_cell_length_c 11.879657
_cell_angle_alpha 90.000000
_cell_angle_beta 34.770552
_cell_angle_gamma 90.000000
_cell_volume 1176.570451
_symmetry_space_group_name_H-M "C 2"
_symmetry_group_IT_number 5
_symmetry_cell_setting 'monoclinic'
loop_
_space_group_symop_operation_xyz
x,y,z
-x,y,-z
1/2+x,1/2+y,z
1/2-x,1/2+y,-z
loop_
_atom_site_type_symbol
_atom_site_label
_atom_site_fract_x
_atom_site_fract_y
_atom_site_fract_z
Si Si1 0.522808 0.163870 0.116812
Si Si2 0.000000 0.241501 0.500000
Si Si3 0.194139 0.336290 0.203976
Si Si4 0.754283 0.323564 0.270202
Si Si5 0.000000 0.213903 0.000000
Si Si6 0.160093 0.523625 0.074215
Si Si7 0.000000 0.422449 0.000000
Si Si8 0.220352 0.479435 0.277276
O O1 0.507589 0.087461 0.118697
O O2 0.275272 0.195799 0.334452
O O3 0.500000 0.188994 0.000000
O O4 0.823383 0.174611 0.008039
O O5 0.995415 0.288419 0.610872
O O6 0.250049 0.404478 0.231155
O O7 0.038688 0.342360 0.174187
O O8 0.500000 0.305689 0.000000
O O9 0.500000 0.327138 0.500000
O O10 0.774637 0.254742 0.200831
O O11 0.731409 0.375393 0.181311
O O12 0.106225 0.519053 0.237316
O O13 0.004113 0.464720 0.107905
O O14 0.488316 0.513120 0.853122
O O15 0.000000 0.491182 0.500000
#
# Coordination Sequence:
#
# PCOD8051700 Si02
#       8
#     4   2   4   4   2   4   2   4
#     4  12  27  50  74 102 147 200 251 300 356 441
#     4  12  26  42  74 108 138 194 248 300 360 434
#     4  12  22  42  69 103 147 180 237 303 368 438
#     4  11  24  39  66 103 142 180 229 299 368 433
#     4  11  24  46  70 102 146 193 240 296 366 431
#     4  11  24  46  67 100 142 187 234 297 363 426
#     4  11  22  40  66  94 136 175 224 290 362 417
#     4  11  23  42  72 107 138 182 238 297 370 438
#
# _framework density 22.098126000000001
#
# number of rings (size 3 to 8) (size 9 to 14) (size 15 to 20)
#    0.000    0.615    4.615    4.154    2.154    3.692 
#    1.385    3.077    0.000    0.000    0.000    0.000 
#    0.000    0.000    0.000    0.000    0.000    0.000 
#
# Total GULP energy -161093.731450 kJ/mol
# GULP energy per Si atom -12391.825496 kJ/mol
# Density = 2.204783 g / cm^3
# Si number density = 22.098126 Si / 1000 Ang^3
#
#
#
# Elastic Constant Matrix: (Units=GPa)
#
#
# Indices 1 2 3 4 5 6 
#
# 1 84.7727 17.4137 18.6488 0.0000 -4.1393 0.0000
# 2 17.4137 107.8061 41.0984 0.0000 1.8057 0.0000
# 3 18.6488 41.0984 159.1418 0.0000 11.8662 0.0000
# 4 0.0000 0.0000 0.0000 32.6553 0.0000 -4.1010
# 5 -4.1393 1.8057 11.8662 0.0000 19.9077 0.0000
# 6 0.0000 0.0000 0.0000 -4.1010 0.0000 43.8819
#
#
#
# Elastic Compliance Matrix: (Units=1/GPa)
#
#
# Indices 1 2 3 4 5 6 
#
# 1 0.012588 -0.001586 -0.001331 0.000000 0.003554 0.000000
# 2 -0.001586 0.010497 -0.002543 0.000000 0.000234 0.000000
# 3 -0.001331 -0.002543 0.007430 0.000000 -0.004475 0.000000
# 4 0.000000 0.000000 0.000000 0.030987 0.000000 0.002896
# 5 0.003554 0.000234 -0.004475 0.000000 0.053617 0.000000
# 6 0.000000 0.000000 0.000000 0.002896 0.000000 0.023059
#
#
# Mechanical properties :
#
#
# Convention : Reuss Voigt Hill
#
# Bulk Modulus (GPa) = 51.02600 56.22693 53.62647
# Shear Modulus (GPa) = 32.12782 37.59296 34.86039
#
# Velocity S-wave (km/s) = 3.81710 4.12901 3.97612
# Velocity P-wave (km/s) = 6.52440 6.94486 6.73791
#
# Compressibility (1/GPa) = 0.01959785
#
# Stress axis : x y z
#
# Youngs Moduli (GPa) = 79.43915 95.26159 134.59110
#
# Poissons Ratio (x) = 0.15105 0.17910
# Poissons Ratio (y) = 0.12596 0.34221
# Poissons Ratio (z) = 0.10571 0.24221
#
# Static dielectric constant tensor:
#      x y z
#    x 3.630760 0.000000 0.401570 
#    y 0.000000 3.997830 0.000000 
#    z 0.401570 0.000000 3.839490 
# 
# 
# High freq. dielectric constant tensor:
#      x y z
#    x 1.869620 0.000000 0.018820 
#    y 0.000000 1.879400 0.000000 
#    z 0.018820 0.000000 1.867710 
# 
# From -- ./inp_files/37319.got.cif
#   From: 2010.03.12/outbox.cif.g09.slc.cpg/sg5_19_cif.got.tgz:37319.got - 2010.03.31 09:47:26.
