data_PCOD8051389
_publ_section_title
;
Structure prediction by ZEFSAII (Michael W. Deem and Ramdas Pophale) SiO2 
 PCOD8051389
Probable space group: C 2
;
_chemical_formula_sum "Si O2"
_cell_formula_units_Z 26
_cell_length_a 11.025155
_cell_length_b 11.118971
_cell_length_c 10.759085
_cell_angle_alpha 90.000000
_cell_angle_beta 126.147823
_cell_angle_gamma 90.000000
_cell_volume 1065.040193
_symmetry_space_group_name_H-M "C 2"
_symmetry_group_IT_number 5
_symmetry_cell_setting 'monoclinic'
loop_
_space_group_symop_operation_xyz
x,y,z
-x,y,-z
1/2+x,1/2+y,z
1/2-x,1/2+y,-z
loop_
_atom_site_type_symbol
_atom_site_label
_atom_site_fract_x
_atom_site_fract_y
_atom_site_fract_z
Si Si1 0.500000 0.272610 0.500000
Si Si2 0.407410 0.048765 0.832988
Si Si3 0.727882 0.199224 0.453022
Si Si4 0.839694 0.410017 0.356752
Si Si5 0.656989 0.410315 0.809819
Si Si6 0.082567 0.080597 0.253361
Si Si7 0.593395 0.818947 0.868834
O O1 0.645987 0.202746 0.538585
O O2 0.547898 0.342966 0.651258
O O3 0.388648 0.145633 0.714901
O O4 0.247057 0.008110 0.785205
O O5 0.498097 0.937095 0.835245
O O6 0.500000 0.111723 0.000000
O O7 0.783990 0.327616 0.438205
O O8 0.866511 0.110291 0.572385
O O9 0.723348 0.520447 0.263161
O O10 0.853693 0.324922 0.243078
O O11 0.000000 0.463093 0.500000
O O12 0.550519 0.484492 0.837673
O O13 0.762074 0.319941 0.952649
O O14 0.013211 0.206157 0.159172
#
# Coordination Sequence:
#
# PCOD8051389 Si02
#       7
#     2   4   4   4   4   4   4
#     4  12  26  46  72 112 146 198 266 320 386 476
#     4  10  24  47  74 107 153 203 258 320 395 468
#     4  12  26  45  79 106 153 205 260 329 394 466
#     4  12  26  50  75 118 155 204 269 320 393 479
#     4  11  25  49  74 107 153 202 262 310 401 469
#     4  12  26  49  77 111 156 209 248 332 392 458
#     4  11  26  50  77 113 156 204 260 329 389 479
#
# _framework density 24.412223000000001
#
# number of rings (size 3 to 8) (size 9 to 14) (size 15 to 20)
#    0.000    0.615    3.077    3.692    3.231    4.308 
#   11.077    0.000    0.000    0.000    0.000    0.000 
#    0.000    0.000    0.000    0.000    0.000    0.000 
#
# Total GULP energy -161150.859226 kJ/mol
# GULP energy per Si atom -12396.219940 kJ/mol
# Density = 2.435666 g / cm^3
# Si number density = 24.412223 Si / 1000 Ang^3
#
#
#
# Elastic Constant Matrix: (Units=GPa)
#
#
# Indices 1 2 3 4 5 6 
#
# 1 112.5029 26.7188 18.8475 0.0000 8.7526 0.0000
# 2 26.7188 92.4723 40.3050 0.0000 12.7604 0.0000
# 3 18.8475 40.3050 109.4151 0.0000 5.8941 0.0000
# 4 0.0000 0.0000 0.0000 44.6257 0.0000 9.2844
# 5 8.7526 12.7604 5.8941 0.0000 32.9758 0.0000
# 6 0.0000 0.0000 0.0000 9.2844 0.0000 41.5567
#
#
#
# Elastic Compliance Matrix: (Units=1/GPa)
#
#
# Indices 1 2 3 4 5 6 
#
# 1 0.009671 -0.002251 -0.000753 0.000000 -0.001561 0.000000
# 2 -0.002251 0.014002 -0.004554 0.000000 -0.004007 0.000000
# 3 -0.000753 -0.004554 0.010947 0.000000 0.000006 0.000000
# 4 0.000000 0.000000 0.000000 0.023501 0.000000 -0.005250
# 5 -0.001561 -0.004007 0.000006 0.000000 0.032289 0.000000
# 6 0.000000 0.000000 0.000000 -0.005250 0.000000 0.025237
#
#
# Mechanical properties :
#
#
# Convention : Reuss Voigt Hill
#
# Bulk Modulus (GPa) = 51.27148 54.01476 52.64312
# Shear Modulus (GPa) = 36.42626 39.06624 37.74625
#
# Velocity S-wave (km/s) = 3.86700 4.00468 3.93644
# Velocity P-wave (km/s) = 6.40205 6.59981 6.50168
#
# Compressibility (1/GPa) = 0.01950402
#
# Stress axis : x y z
#
# Youngs Moduli (GPa) = 103.40448 71.41624 91.35283
#
# Poissons Ratio (x) = 0.16074 0.06876
# Poissons Ratio (y) = 0.23274 0.41606
# Poissons Ratio (z) = 0.07783 0.32526
#
# Static dielectric constant tensor:
#      x y z
#    x 4.581180 0.000000 0.195170 
#    y 0.000000 4.181630 0.000000 
#    z 0.195170 0.000000 4.675890 
# 
# 
# High freq. dielectric constant tensor:
#      x y z
#    x 1.975000 0.000000 0.018000 
#    y 0.000000 1.961560 0.000000 
#    z 0.018000 0.000000 1.981330 
# 
# From -- ./inp_files/39291.got.cif
#   From: 2010.03.12/outbox.cif.g09.slc.cpg/sg5_20_cif.got.tgz:39291.got - 2010.03.31 09:47:26.
