data_PCOD8051026
_publ_section_title
;
Structure prediction by ZEFSAII (Michael W. Deem and Ramdas Pophale) SiO2 
 PCOD8051026
Probable space group: C 2
;
_chemical_formula_sum "Si O2"
_cell_formula_units_Z 28
_cell_length_a 5.588298
_cell_length_b 19.163939
_cell_length_c 12.375825
_cell_angle_alpha 90.000000
_cell_angle_beta 69.387104
_cell_angle_gamma 90.000000
_cell_volume 1240.524123
_symmetry_space_group_name_H-M "C 2"
_symmetry_group_IT_number 5
_symmetry_cell_setting 'monoclinic'
loop_
_space_group_symop_operation_xyz
x,y,z
-x,y,-z
1/2+x,1/2+y,z
1/2-x,1/2+y,-z
loop_
_atom_site_type_symbol
_atom_site_label
_atom_site_fract_x
_atom_site_fract_y
_atom_site_fract_z
Si Si1 0.000000 0.678831 0.500000
Si Si2 0.043640 0.454273 0.613958
Si Si3 0.518594 0.707262 0.690688
Si Si4 0.288439 0.669493 0.107791
Si Si5 0.342263 0.334496 0.298613
Si Si6 0.500000 0.356636 0.500000
Si Si7 0.204276 0.818092 0.056766
Si Si8 0.120244 0.599383 0.696585
O O1 0.746600 0.725119 0.568005
O O2 0.980810 0.631029 0.398275
O O3 0.797265 0.409174 0.687673
O O4 0.000000 0.483807 0.500000
O O5 0.281235 0.403849 0.584166
O O6 0.112089 0.516167 0.685918
O O7 0.606722 0.702942 0.798985
O O8 0.317243 0.769778 0.721912
O O9 0.399014 0.631874 0.675856
O O10 0.195935 0.734173 0.049503
O O11 0.059768 0.617085 0.172384
O O12 0.500000 0.629465 0.000000
O O13 0.401451 0.311763 0.413277
O O14 0.602771 0.342587 0.190003
O O15 0.500000 0.845599 0.000000
O O16 0.000000 0.847062 0.000000
#
# Coordination Sequence:
#
# PCOD8051026 Si02
#       8
#     2   4   4   4   4   2   4   4
#     4  10  24  39  62  94 135 168 230 274 355 408
#     4  10  24  43  65  93 139 190 228 274 355 439
#     4  11  24  40  66 102 135 177 230 306 346 423
#     4  10  23  41  68  97 135 172 230 290 362 409
#     4  11  24  45  65 103 139 181 236 286 366 418
#     4  10  26  39  68  92 143 184 222 288 349 434
#     4  11  24  44  76 104 142 184 239 301 359 423
#     4  11  22  40  67  95 130 178 228 287 340 427
#
# _framework density 22.571103999999998
#
# number of rings (size 3 to 8) (size 9 to 14) (size 15 to 20)
#    0.000    1.429    2.143    2.143    6.000    5.714 
#    0.000    0.714    0.000    0.000    0.000    0.000 
#    0.000    0.000    0.000    0.000    0.000    0.000 
#
# Total GULP energy -173545.975584 kJ/mol
# GULP energy per Si atom -12396.141113 kJ/mol
# Density = 2.251973 g / cm^3
# Si number density = 22.571104 Si / 1000 Ang^3
#
#
#
# Elastic Constant Matrix: (Units=GPa)
#
#
# Indices 1 2 3 4 5 6 
#
# 1 118.2736 20.2145 50.2198 0.0000 -19.2953 0.0000
# 2 20.2145 73.8250 23.2347 0.0000 -9.5925 0.0000
# 3 50.2198 23.2347 137.9478 0.0000 -39.7944 0.0000
# 4 0.0000 0.0000 0.0000 39.9737 0.0000 -3.7175
# 5 -19.2953 -9.5925 -39.7944 0.0000 50.8252 0.0000
# 6 0.0000 0.0000 0.0000 -3.7175 0.0000 21.8282
#
#
#
# Elastic Compliance Matrix: (Units=1/GPa)
#
#
# Indices 1 2 3 4 5 6 
#
# 1 0.010252 -0.001677 -0.003124 0.000000 0.001130 0.000000
# 2 -0.001677 0.014622 -0.001601 0.000000 0.000869 0.000000
# 3 -0.003124 -0.001601 0.010627 0.000000 0.006832 0.000000
# 4 0.000000 0.000000 0.000000 0.025419 0.000000 0.004329
# 5 0.001130 0.000869 0.006832 0.000000 0.025618 0.000000
# 6 0.000000 0.000000 0.000000 0.004329 0.000000 0.046550
#
#
# Mechanical properties :
#
#
# Convention : Reuss Voigt Hill
#
# Bulk Modulus (GPa) = 44.06101 57.48715 50.77408
# Shear Modulus (GPa) = 32.58212 38.28391 35.43302
#
# Velocity S-wave (km/s) = 3.80351 4.12290 3.96642
# Velocity P-wave (km/s) = 6.23316 6.94183 6.59702
#
# Compressibility (1/GPa) = 0.02269580
#
# Stress axis : x y z
#
# Youngs Moduli (GPa) = 97.53804 68.39129 94.09886
#
# Poissons Ratio (x) = 0.11471 0.29396
# Poissons Ratio (y) = 0.16360 0.15070
# Poissons Ratio (z) = 0.30471 0.10953
#
# Static dielectric constant tensor:
#      x y z
#    x 4.361530 0.000000 -0.255640 
#    y 0.000000 3.654910 0.000000 
#    z -0.255640 0.000000 4.283330 
# 
# 
# High freq. dielectric constant tensor:
#      x y z
#    x 1.903090 0.000000 -0.009600 
#    y 0.000000 1.852420 0.000000 
#    z -0.009600 0.000000 1.900850 
# 
# From -- ./inp_files/33943.got.cif
#   From: 2010.03.12/outbox.cif.g09.slc.cpg/sg5_17_cif.got.tgz:33943.got - 2010.03.31 09:47:26.
