data_PCOD8051550
_publ_section_title
;
Structure prediction by ZEFSAII (Michael W. Deem and Ramdas Pophale) SiO2 
 PCOD8051550
Probable space group: C 2
;
_chemical_formula_sum "Si O2"
_cell_formula_units_Z 18
_cell_length_a 13.166637
_cell_length_b 5.069041
_cell_length_c 10.633449
_cell_angle_alpha 90.000000
_cell_angle_beta 90.210728
_cell_angle_gamma 90.000000
_cell_volume 709.695222
_symmetry_space_group_name_H-M "C 2"
_symmetry_group_IT_number 5
_symmetry_cell_setting 'monoclinic'
loop_
_space_group_symop_operation_xyz
x,y,z
-x,y,-z
1/2+x,1/2+y,z
1/2-x,1/2+y,-z
loop_
_atom_site_type_symbol
_atom_site_label
_atom_site_fract_x
_atom_site_fract_y
_atom_site_fract_z
Si Si1 0.879936 0.937460 0.791249
Si Si2 0.160040 0.314441 0.814149
Si Si3 0.500000 0.756472 0.000000
Si Si4 0.187845 0.014710 0.470852
Si Si5 0.920705 0.798190 0.306830
O O1 0.779677 0.800163 0.849482
O O2 0.847716 0.110474 0.668100
O O3 0.962586 0.733936 0.731545
O O4 0.934000 0.094547 0.900439
O O5 0.086737 0.424747 0.927273
O O6 0.143613 0.527429 0.702175
O O7 0.125223 0.018147 0.787163
O O8 0.262418 0.761081 0.456603
O O9 0.091903 0.912449 0.552747
#
# Coordination Sequence:
#
# PCOD8051550 Si02
#       5
#     4   4   2   4   4
#     4  11  25  47  75 103 149 189 235 302 349 433
#     4  11  25  47  72 102 148 186 241 295 348 428
#     4  10  28  46  72 112 140 200 242 284 362 428
#     4  12  23  45  75 107 144 185 236 299 367 421
#     4  11  24  45  72 110 138 188 238 292 368 418
#
# _framework density 25.363
#
# number of rings (size 3 to 8) (size 9 to 14) (size 15 to 20)
#    0.000    0.889    4.444    0.667    0.000   16.000 
#    0.000    6.667    0.000    0.000    0.000    0.000 
#    0.000    0.000    0.000    0.000    0.000    0.000 
#
# Total GULP energy -111494.712349 kJ/mol
# GULP energy per Si atom -12388.301372 kJ/mol
# Density = 2.530527 g / cm^3
# Si number density = 25.363000 Si / 1000 Ang^3
#
#
#
# Elastic Constant Matrix: (Units=GPa)
#
#
# Indices 1 2 3 4 5 6 
#
# 1 229.8891 39.0169 53.9288 0.0000 -23.3471 0.0000
# 2 39.0169 96.8192 17.8105 0.0000 6.7846 0.0000
# 3 53.9288 17.8105 139.6657 0.0000 9.5057 0.0000
# 4 0.0000 0.0000 0.0000 22.3641 0.0000 -6.7316
# 5 -23.3471 6.7846 9.5057 0.0000 52.1250 0.0000
# 6 0.0000 0.0000 0.0000 -6.7316 0.0000 21.9286
#
#
#
# Elastic Compliance Matrix: (Units=1/GPa)
#
#
# Indices 1 2 3 4 5 6 
#
# 1 0.005501 -0.002053 -0.002074 0.000000 0.003109 0.000000
# 2 -0.002053 0.011411 -0.000505 0.000000 -0.002313 0.000000
# 3 -0.002074 -0.000505 0.008185 0.000000 -0.002356 0.000000
# 4 0.000000 0.000000 0.000000 0.049267 0.000000 0.015124
# 5 0.003109 -0.002313 -0.002356 0.000000 0.021308 0.000000
# 6 0.000000 0.000000 0.000000 0.015124 0.000000 0.050245
#
#
# Mechanical properties :
#
#
# Convention : Reuss Voigt Hill
#
# Bulk Modulus (GPa) = 63.15805 76.43181 69.79493
# Shear Modulus (GPa) = 31.16076 42.99140 37.07608
#
# Velocity S-wave (km/s) = 3.50893 4.12156 3.82752
# Velocity P-wave (km/s) = 6.43214 7.26982 6.86377
#
# Compressibility (1/GPa) = 0.01583329
#
# Stress axis : x y z
#
# Youngs Moduli (GPa) = 181.79834 87.63589 122.16854
#
# Poissons Ratio (x) = 0.17992 0.25334
# Poissons Ratio (y) = 0.37324 0.06169
# Poissons Ratio (z) = 0.37700 0.04425
#
# Static dielectric constant tensor:
#      x y z
#    x 5.398200 0.000000 -0.567970 
#    y 0.000000 3.957800 0.000000 
#    z -0.567970 0.000000 4.781880 
# 
# 
# High freq. dielectric constant tensor:
#      x y z
#    x 2.047190 0.000000 -0.028450 
#    y 0.000000 1.968070 0.000000 
#    z -0.028450 0.000000 2.018640 
# 
# From -- ./inp_files/37739.got.cif
#   From: 2010.03.12/outbox.cif.g09.slc.cpg/sg5_19_cif.got.tgz:37739.got - 2010.03.31 09:47:26.
