data_PCOD8051925
_publ_section_title
;
Structure prediction by ZEFSAII (Michael W. Deem and Ramdas Pophale) SiO2 
 PCOD8051925
Probable space group: C 2
;
_chemical_formula_sum "Si O2"
_cell_formula_units_Z 32
_cell_length_a 14.533247
_cell_length_b 9.171318
_cell_length_c 24.639102
_cell_angle_alpha 90.000000
_cell_angle_beta 151.007266
_cell_angle_gamma 90.000000
_cell_volume 1591.809667
_symmetry_space_group_name_H-M "C 2"
_symmetry_group_IT_number 5
_symmetry_cell_setting 'monoclinic'
loop_
_space_group_symop_operation_xyz
x,y,z
-x,y,-z
1/2+x,1/2+y,z
1/2-x,1/2+y,-z
loop_
_atom_site_type_symbol
_atom_site_label
_atom_site_fract_x
_atom_site_fract_y
_atom_site_fract_z
Si Si1 0.897253 0.719690 0.610876
Si Si2 0.945370 0.886300 0.740754
Si Si3 0.348234 0.199235 0.005021
Si Si4 0.605562 0.877848 0.384693
Si Si5 0.189561 0.869865 0.208995
Si Si6 0.033594 0.217775 0.241535
Si Si7 0.829983 0.363879 0.986961
Si Si8 0.173735 0.207706 0.194361
O O1 0.769736 0.791060 0.499248
O O2 0.855849 0.548778 0.591147
O O3 0.849294 0.790669 0.644268
O O4 0.113352 0.755461 0.707545
O O5 0.851065 0.837308 0.748778
O O6 0.900763 0.056080 0.706890
O O7 0.174881 0.861256 0.858589
O O8 0.554584 0.270582 0.100674
O O9 0.371181 0.027889 0.027316
O O10 0.197094 0.226970 0.878746
O O11 0.264187 0.271356 0.014639
O O12 0.406610 0.831336 0.308866
O O13 0.610107 0.834290 0.323920
O O14 0.142054 0.036263 0.170395
O O15 0.122207 0.257227 0.228867
O O16 0.032927 0.288659 0.078626
#
# Coordination Sequence:
#
# PCOD8051925 Si02
#       8
#     4   4   4   4   4   4   4   4
#     4  11  24  40  57  79 108 144 188 233 274 322
#     4   9  19  37  58  81 111 145 179 219 272 328
#     4   9  17  31  55  85 115 145 178 219 269 326
#     4  11  24  40  57  79 108 144 188 233 274 322
#     4   9  20  38  58  81 112 148 181 220 274 329
#     4   9  19  37  58  81 111 145 179 219 272 328
#     4   9  17  31  55  85 115 145 178 219 269 326
#     4   9  20  38  58  81 112 148 181 220 274 329
#
# _framework density 20.102906000000001
#
# number of rings (size 3 to 8) (size 9 to 14) (size 15 to 20)
#    0.000    2.500    0.000    3.000    0.000    9.000 
#    0.000   10.000    0.000    0.000    0.000    0.000 
#    0.000    0.000    0.000    0.000    0.000    0.000 
#
# Total GULP energy -198356.564843 kJ/mol
# GULP energy per Si atom -12397.285303 kJ/mol
# Density = 2.005715 g / cm^3
# Si number density = 20.102906 Si / 1000 Ang^3
#
#
#
# Elastic Constant Matrix: (Units=GPa)
#
#
# Indices 1 2 3 4 5 6 
#
# 1 38.5501 4.2230 2.2479 0.0000 -1.4842 0.0000
# 2 4.2230 66.8828 22.5393 0.0001 -1.8412 -0.0001
# 3 2.2479 22.5393 54.0323 0.0026 -2.5215 0.0002
# 4 0.0000 0.0001 0.0026 39.4672 0.0001 -3.6227
# 5 -1.4842 -1.8412 -2.5215 0.0001 27.9987 0.0000
# 6 0.0000 -0.0001 0.0002 -3.6227 0.0000 25.7323
#
#
#
# Elastic Compliance Matrix: (Units=1/GPa)
#
#
# Indices 1 2 3 4 5 6 
#
# 1 0.026175 -0.001479 -0.000414 0.000000 0.001253 0.000000
# 2 -0.001479 0.017487 -0.007214 0.000000 0.000422 0.000000
# 3 -0.000414 -0.007214 0.021601 -0.000001 0.001449 0.000000
# 4 0.000000 0.000000 -0.000001 0.025669 0.000000 0.003614
# 5 0.001253 0.000422 0.001449 0.000000 0.035941 0.000000
# 6 0.000000 0.000000 0.000000 0.003614 0.000000 0.039370
#
#
# Mechanical properties :
#
#
# Convention : Reuss Voigt Hill
#
# Bulk Modulus (GPa) = 21.25331 24.16508 22.70919
# Shear Modulus (GPa) = 24.98256 27.33664 26.15960
#
# Velocity S-wave (km/s) = 3.52907 3.69160 3.61125
# Velocity P-wave (km/s) = 5.21545 5.49703 5.35809
#
# Compressibility (1/GPa) = 0.04705149
#
# Stress axis : x y z
#
# Youngs Moduli (GPa) = 38.20493 57.18374 46.29323
#
# Poissons Ratio (x) = 0.08456 0.01915
# Poissons Ratio (y) = 0.05650 0.33394
# Poissons Ratio (z) = 0.01580 0.41250
#
# Static dielectric constant tensor:
#      x y z
#    x 3.438830 0.000000 0.149810 
#    y 0.000000 3.747060 0.000000 
#    z 0.149810 0.000000 4.067050 
# 
# 
# High freq. dielectric constant tensor:
#      x y z
#    x 1.769620 0.000000 0.003880 
#    y 0.000000 1.787950 0.000000 
#    z 0.003880 0.000000 1.786480 
# 
# From -- ./inp_files/57721.got.cif
#   From: 2010.03.12/outbox.cif.g09.slc.cpg/sg5_29_cif.got.tgz:57721.got - 2010.03.31 09:47:26.
