data_PCOD8051206
_publ_section_title
;
Structure prediction by ZEFSAII (Michael W. Deem and Ramdas Pophale) SiO2 
 PCOD8051206
Probable space group: C 2
;
_chemical_formula_sum "Si O2"
_cell_formula_units_Z 30
_cell_length_a 8.336668
_cell_length_b 20.350826
_cell_length_c 9.316753
_cell_angle_alpha 90.000000
_cell_angle_beta 67.915834
_cell_angle_gamma 90.000000
_cell_volume 1464.693280
_symmetry_space_group_name_H-M "C 2"
_symmetry_group_IT_number 5
_symmetry_cell_setting 'monoclinic'
loop_
_space_group_symop_operation_xyz
x,y,z
-x,y,-z
1/2+x,1/2+y,z
1/2-x,1/2+y,-z
loop_
_atom_site_type_symbol
_atom_site_label
_atom_site_fract_x
_atom_site_fract_y
_atom_site_fract_z
Si Si1 0.621316 0.788460 0.586944
Si Si2 0.120815 0.735979 0.087975
Si Si3 0.174434 0.942236 0.873867
Si Si4 0.939202 0.848016 0.318685
Si Si5 0.000000 0.957270 0.500000
Si Si6 0.388386 0.836957 0.902015
Si Si7 0.797488 0.527129 0.582031
Si Si8 0.672739 0.175363 0.356153
O O1 0.500000 0.763834 0.500000
O O2 0.791841 0.827384 0.480495
O O3 0.507587 0.837529 0.720914
O O4 0.671928 0.724050 0.658173
O O5 0.160863 0.675154 0.183604
O O6 0.054040 0.787035 0.232489
O O7 0.266690 0.772336 0.946597
O O8 0.000000 0.709342 0.000000
O O9 0.147138 0.874489 0.796023
O O10 0.300773 0.909778 0.949681
O O11 0.250195 0.999540 0.753274
O O12 0.000000 0.970871 0.000000
O O13 0.050708 0.908307 0.350929
O O14 0.168241 0.999966 0.498323
O O15 0.500000 0.825652 0.000000
O O16 0.773011 0.604676 0.600665
O O17 0.000000 0.507669 0.500000
O O18 0.500000 0.197468 0.500000
#
# Coordination Sequence:
#
# PCOD8051206 Si02
#       8
#     4   4   4   4   2   4   4   4
#     4  12  23  37  65 101 132 169 211 278 340 406
#     4  12  21  41  63  93 135 172 207 270 345 407
#     4  11  22  42  63  89 134 176 212 278 341 401
#     4  11  20  36  67  95 125 167 217 264 348 407
#     4  10  24  38  70  98 128 174 224 286 336 394
#     4  12  24  35  59 102 134 156 208 277 342 403
#     4  10  26  47  67  94 131 182 240 283 322 401
#     4  11  24  44  67  93 132 179 234 274 328 406
#
# _framework density 20.482102999999999
#
# number of rings (size 3 to 8) (size 9 to 14) (size 15 to 20)
#    0.000    0.800    6.667    0.800    4.667    0.000 
#    2.400    0.667    2.933    0.000    0.000    0.000 
#    0.000    0.000    0.000    0.000    0.000    0.000 
#
# Total GULP energy -185826.040861 kJ/mol
# GULP energy per Si atom -12388.402724 kJ/mol
# Density = 2.043548 g / cm^3
# Si number density = 20.482103 Si / 1000 Ang^3
#
#
#
# Elastic Constant Matrix: (Units=GPa)
#
#
# Indices 1 2 3 4 5 6 
#
# 1 115.3090 41.4996 32.8138 0.0000 8.5777 0.0000
# 2 41.4996 57.7199 30.6030 0.0000 -1.9399 0.0000
# 3 32.8138 30.6030 108.9019 0.0000 -10.6370 0.0000
# 4 0.0000 0.0000 0.0000 25.3967 0.0000 10.8340
# 5 8.5777 -1.9399 -10.6370 0.0000 43.4010 0.0000
# 6 0.0000 0.0000 0.0000 10.8340 0.0000 26.3280
#
#
#
# Elastic Compliance Matrix: (Units=1/GPa)
#
#
# Indices 1 2 3 4 5 6 
#
# 1 0.012300 -0.008014 -0.001769 0.000000 -0.003223 0.000000
# 2 -0.008014 0.025590 -0.004621 0.000000 0.001595 0.000000
# 3 -0.001769 -0.004621 0.011299 0.000000 0.002912 0.000000
# 4 0.000000 0.000000 0.000000 0.047759 0.000000 -0.019653
# 5 -0.003223 0.001595 0.002912 0.000000 0.024463 0.000000
# 6 0.000000 0.000000 0.000000 -0.019653 0.000000 0.046070
#
#
# Mechanical properties :
#
#
# Convention : Reuss Voigt Hill
#
# Bulk Modulus (GPa) = 49.06352 54.64040 51.85196
# Shear Modulus (GPa) = 24.62084 30.82611 27.72348
#
# Velocity S-wave (km/s) = 3.47084 3.88368 3.68305
# Velocity P-wave (km/s) = 6.32998 6.84439 6.59220
#
# Compressibility (1/GPa) = 0.02038174
#
# Stress axis : x y z
#
# Youngs Moduli (GPa) = 81.30395 39.07747 88.50712
#
# Poissons Ratio (x) = 0.31315 0.15656
# Poissons Ratio (y) = 0.65154 0.40897
# Poissons Ratio (z) = 0.14382 0.18057
#
# Static dielectric constant tensor:
#      x y z
#    x 3.997770 0.000000 0.090530 
#    y 0.000000 3.457930 0.000000 
#    z 0.090530 0.000000 3.755800 
# 
# 
# High freq. dielectric constant tensor:
#      x y z
#    x 1.812540 0.000000 0.009890 
#    y 0.000000 1.774960 0.000000 
#    z 0.009890 0.000000 1.807470 
# 
# From -- ./inp_files/17317.got.cif
#   From: 2010.03.12/outbox.cif.g09.slc.cpg/sg5_9_cif.got.tgz:17317.got - 2010.03.31 09:47:26.
