data_PCOD8051250
_publ_section_title
;
Structure prediction by ZEFSAII (Michael W. Deem and Ramdas Pophale) SiO2 
 PCOD8051250
Probable space group: C 2
;
_chemical_formula_sum "Si O2"
_cell_formula_units_Z 28
_cell_length_a 27.774209
_cell_length_b 7.777947
_cell_length_c 20.559808
_cell_angle_alpha 90.000000
_cell_angle_beta 162.754544
_cell_angle_gamma 90.000000
_cell_volume 1316.741075
_symmetry_space_group_name_H-M "C 2"
_symmetry_group_IT_number 5
_symmetry_cell_setting 'monoclinic'
loop_
_space_group_symop_operation_xyz
x,y,z
-x,y,-z
1/2+x,1/2+y,z
1/2-x,1/2+y,-z
loop_
_atom_site_type_symbol
_atom_site_label
_atom_site_fract_x
_atom_site_fract_y
_atom_site_fract_z
Si Si1 0.093027 0.609170 0.300108
Si Si2 0.882837 0.307932 0.983057
Si Si3 0.132181 0.088617 0.243438
Si Si4 0.274576 0.384953 0.348034
Si Si5 0.243051 0.249337 0.610892
Si Si6 0.410321 0.320469 0.167428
Si Si7 0.125267 0.210845 0.888286
O O1 0.224540 0.550233 0.521535
O O2 0.186382 0.729298 0.370341
O O3 0.953073 0.709978 0.158904
O O4 0.024485 0.450343 0.170355
O O5 0.742860 0.368296 0.752478
O O6 0.806856 0.292627 0.957151
O O7 0.963971 0.125862 0.064703
O O8 0.148108 0.255306 0.218305
O O9 0.151039 0.912659 0.224254
O O10 0.231880 0.580921 0.312349
O O11 0.452390 0.324277 0.599555
O O12 0.049973 0.290110 0.356628
O O13 0.385100 0.511078 0.109884
O O14 0.246056 0.244632 0.984962
#
# Coordination Sequence:
#
# PCOD8051250 Si02
#       7
#     4   4   4   4   4   4   4
#     4  11  20  38  66  95 125 161 216 265 308 383
#     4  12  22  40  65  94 132 167 208 266 328 379
#     4  11  20  38  63  92 126 164 208 260 310 379
#     4  10  25  42  59  95 135 166 203 265 327 382
#     4  11  22  40  66  93 129 166 213 262 319 381
#     4  10  24  42  66  95 125 170 221 266 317 379
#     4  11  22  40  68  94 123 170 222 266 314 381
#
# _framework density 21.264621999999999
#
# number of rings (size 3 to 8) (size 9 to 14) (size 15 to 20)
#    0.000    1.143    4.286    2.143    4.000    0.571 
#    7.714    0.000    0.000    0.000    0.000    0.000 
#    0.000    0.000    0.000    0.000    0.000    0.000 
#
# Total GULP energy -173521.714631 kJ/mol
# GULP energy per Si atom -12394.408188 kJ/mol
# Density = 2.121622 g / cm^3
# Si number density = 21.264622 Si / 1000 Ang^3
#
#
#
# Elastic Constant Matrix: (Units=GPa)
#
#
# Indices 1 2 3 4 5 6 
#
# 1 75.9377 18.7040 35.3824 0.0001 15.7261 0.0001
# 2 18.7040 105.7218 24.8200 0.0001 -0.4743 0.0001
# 3 35.3824 24.8200 62.1730 0.0000 9.2906 0.0000
# 4 0.0001 0.0001 0.0000 16.8946 0.0001 12.6118
# 5 15.7261 -0.4743 9.2906 0.0001 44.7691 0.0000
# 6 0.0001 0.0001 0.0000 12.6118 0.0000 27.9047
#
#
#
# Elastic Compliance Matrix: (Units=1/GPa)
#
#
# Indices 1 2 3 4 5 6 
#
# 1 0.018881 -0.001105 -0.009609 0.000000 -0.004650 0.000000
# 2 -0.001105 0.010546 -0.003773 0.000000 0.001283 0.000000
# 3 -0.009609 -0.003773 0.023282 0.000000 -0.001496 0.000000
# 4 0.000000 0.000000 0.000000 0.089329 0.000000 -0.040373
# 5 -0.004650 0.001283 -0.001496 0.000000 0.024294 0.000000
# 6 0.000000 0.000000 0.000000 -0.040373 0.000000 0.054083
#
#
# Mechanical properties :
#
#
# Convention : Reuss Voigt Hill
#
# Bulk Modulus (GPa) = 42.13165 44.62725 43.37945
# Shear Modulus (GPa) = 19.43247 28.90875 24.17061
#
# Velocity S-wave (km/s) = 3.02626 3.69111 3.37509
# Velocity P-wave (km/s) = 5.66278 6.26082 5.96929
#
# Compressibility (1/GPa) = 0.02373513
#
# Stress axis : x y z
#
# Youngs Moduli (GPa) = 52.96277 94.82457 42.95116
#
# Poissons Ratio (x) = 0.10482 0.41272
# Poissons Ratio (y) = 0.05854 0.16204
# Poissons Ratio (z) = 0.50892 0.35774
#
# Static dielectric constant tensor:
#      x y z
#    x 1.873710 0.000000 -1.303170 
#    y 0.000000 4.159360 0.000000 
#    z -1.303170 0.000000 2.799850 
# 
# 
# High freq. dielectric constant tensor:
#      x y z
#    x 1.824580 0.000000 -0.002210 
#    y 0.000000 1.851730 0.000000 
#    z -0.002210 0.000000 1.812180 
# 
# From -- ./inp_files/67534.got.cif
#   From: 2010.03.12/outbox.cif.g09.slc.cpg/sg5_34_cif.got.tgz:67534.got - 2010.03.31 09:47:26.
