data_PCOD8051362
_publ_section_title
;
Structure prediction by ZEFSAII (Michael W. Deem and Ramdas Pophale) SiO2 
 PCOD8051362
Probable space group: C 2
;
_chemical_formula_sum "Si O2"
_cell_formula_units_Z 28
_cell_length_a 14.539807
_cell_length_b 11.281504
_cell_length_c 9.736304
_cell_angle_alpha 90.000000
_cell_angle_beta 53.303458
_cell_angle_gamma 90.000000
_cell_volume 1280.537097
_symmetry_space_group_name_H-M "C 2"
_symmetry_group_IT_number 5
_symmetry_cell_setting 'monoclinic'
loop_
_space_group_symop_operation_xyz
x,y,z
-x,y,-z
1/2+x,1/2+y,z
1/2-x,1/2+y,-z
loop_
_atom_site_type_symbol
_atom_site_label
_atom_site_fract_x
_atom_site_fract_y
_atom_site_fract_z
Si Si1 0.654799 0.526530 0.216206
Si Si2 0.374553 0.133836 0.628907
Si Si3 0.000000 0.200624 0.500000
Si Si4 0.882570 0.627307 0.935386
Si Si5 0.735563 0.850876 0.682256
Si Si6 0.812891 0.386759 0.583962
Si Si7 0.891046 0.885695 0.017899
Si Si8 0.000000 0.442529 0.000000
O O1 0.549689 0.614764 0.337762
O O2 0.768864 0.605700 0.125580
O O3 0.668856 0.425984 0.320201
O O4 0.641407 0.469487 0.078968
O O5 0.500000 0.193544 0.500000
O O6 0.273996 0.214587 0.656746
O O7 0.377582 0.010825 0.544138
O O8 0.347114 0.110832 0.810902
O O9 0.096849 0.280007 0.484828
O O10 0.929685 0.757912 0.924809
O O11 0.976376 0.527748 0.890614
O O12 0.740789 0.888024 0.519478
O O13 0.609121 0.861773 0.863457
O O14 0.715254 0.373138 0.785091
O O15 0.000000 0.940700 0.000000
#
# Coordination Sequence:
#
# PCOD8051362 Si02
#       8
#     4   4   2   4   4   4   4   2
#     4  11  26  47  73 105 147 192 236 304 361 424
#     4  12  26  44  73 102 146 185 241 298 359 440
#     4  12  28  48  74 104 152 188 244 298 372 426
#     4  11  22  45  71 102 141 193 238 288 364 436
#     4  11  28  44  74 108 143 184 246 297 368 421
#     4  12  28  48  72 107 142 194 237 301 367 431
#     4  12  26  45  73 106 143 191 244 295 359 432
#     4  10  24  46  72 102 150 192 234 294 368 438
#
# _framework density 21.865824
#
# number of rings (size 3 to 8) (size 9 to 14) (size 15 to 20)
#    0.000    0.571    5.714    0.857    7.000    1.143 
#    1.286    0.000    0.000    0.000    0.000    0.000 
#    0.000    0.000    0.000    0.000    0.000    0.000 
#
# Total GULP energy -173666.343317 kJ/mol
# GULP energy per Si atom -12404.738808 kJ/mol
# Density = 2.181606 g / cm^3
# Si number density = 21.865824 Si / 1000 Ang^3
#
#
#
# Elastic Constant Matrix: (Units=GPa)
#
#
# Indices 1 2 3 4 5 6 
#
# 1 127.6036 52.5270 56.3030 0.0000 7.9334 0.0000
# 2 52.5270 108.8396 53.7226 0.0000 -7.5190 0.0000
# 3 56.3030 53.7226 111.9610 0.0000 12.7405 0.0000
# 4 0.0000 0.0000 0.0000 25.9292 0.0000 -9.8470
# 5 7.9334 -7.5190 12.7405 0.0000 51.5066 0.0000
# 6 0.0000 0.0000 0.0000 -9.8470 0.0000 33.0821
#
#
#
# Elastic Compliance Matrix: (Units=1/GPa)
#
#
# Indices 1 2 3 4 5 6 
#
# 1 0.011017 -0.003600 -0.003663 0.000000 -0.001316 0.000000
# 2 -0.003600 0.013779 -0.005241 0.000000 0.003862 0.000000
# 3 -0.003663 -0.005241 0.013697 0.000000 -0.003589 0.000000
# 4 0.000000 0.000000 0.000000 0.043482 0.000000 0.012942
# 5 -0.001316 0.003862 -0.003589 0.000000 0.021069 0.000000
# 6 0.000000 0.000000 0.000000 0.012942 0.000000 0.034080
#
#
# Mechanical properties :
#
#
# Convention : Reuss Voigt Hill
#
# Bulk Modulus (GPa) = 74.15505 74.83439 74.49472
# Shear Modulus (GPa) = 30.00747 34.49368 32.25057
#
# Velocity S-wave (km/s) = 3.70854 3.97610 3.84465
# Velocity P-wave (km/s) = 7.23360 7.44163 7.33835
#
# Compressibility (1/GPa) = 0.01348526
#
# Stress axis : x y z
#
# Youngs Moduli (GPa) = 90.77210 72.57595 73.00948
#
# Poissons Ratio (x) = 0.26124 0.26744
# Poissons Ratio (y) = 0.32674 0.38263
# Poissons Ratio (z) = 0.33250 0.38036
#
# Static dielectric constant tensor:
#      x y z
#    x 3.971230 0.000000 0.004270 
#    y 0.000000 3.956860 0.000000 
#    z 0.004270 0.000000 3.865500 
# 
# 
# High freq. dielectric constant tensor:
#      x y z
#    x 1.867030 0.000000 0.001000 
#    y 0.000000 1.862690 0.000000 
#    z 0.001000 0.000000 1.865020 
# 
# From -- ./inp_files/23821.got.cif
#   From: 2010.03.12/outbox.cif.g09.slc.cpg/sg5_12_cif.got.tgz:23821.got - 2010.03.31 09:47:26.
