data_PCOD8051718
_publ_section_title
;
Structure prediction by ZEFSAII (Michael W. Deem and Ramdas Pophale) SiO2 
 PCOD8051718
Probable space group: C 2
;
_chemical_formula_sum "Si O2"
_cell_formula_units_Z 24
_cell_length_a 12.040130
_cell_length_b 8.615672
_cell_length_c 11.434341
_cell_angle_alpha 90.000000
_cell_angle_beta 113.215067
_cell_angle_gamma 90.000000
_cell_volume 1090.089034
_symmetry_space_group_name_H-M "C 2"
_symmetry_group_IT_number 5
_symmetry_cell_setting 'monoclinic'
loop_
_space_group_symop_operation_xyz
x,y,z
-x,y,-z
1/2+x,1/2+y,z
1/2-x,1/2+y,-z
loop_
_atom_site_type_symbol
_atom_site_label
_atom_site_fract_x
_atom_site_fract_y
_atom_site_fract_z
Si Si1 0.231333 0.403080 0.863193
Si Si2 0.005475 0.528113 0.634967
Si Si3 0.300128 0.538400 0.128517
Si Si4 0.190377 0.351710 0.298093
Si Si5 0.919090 0.028256 0.780209
Si Si6 0.907978 0.856853 0.548990
O O1 0.209192 0.221274 0.859325
O O2 0.363760 0.429411 0.863286
O O3 0.136599 0.489928 0.740532
O O4 0.220923 0.479378 0.986718
O O5 0.904141 0.455597 0.673364
O O6 0.984977 0.712394 0.630437
O O7 0.000000 0.463554 0.500000
O O8 0.252311 0.452131 0.222899
O O9 0.438797 0.498167 0.161365
O O10 0.118163 0.206574 0.214846
O O11 0.291363 0.294166 0.431385
O O12 0.865514 0.970940 0.633841
O O13 0.000000 0.948823 0.500000
#
# Coordination Sequence:
#
# PCOD8051718 Si02
#       6
#     4   4   4   4   4   4
#     4  12  27  49  74 104 146 192 240 301 360 429
#     4  11  25  45  73 107 147 189 238 300 361 423
#     4  12  28  49  73 107 145 191 245 295 360 434
#     4  12  24  46  73 107 148 189 238 300 358 428
#     4  12  25  47  72 106 146 189 242 296 360 424
#     4  11  22  41  72 106 145 185 238 294 354 429
#
# _framework density 22.016551
#
# number of rings (size 3 to 8) (size 9 to 14) (size 15 to 20)
#    0.000    0.333    3.333    6.500    2.333    2.667 
#    3.000    0.000    0.000    0.000    0.000    0.000 
#    0.000    0.000    0.000    0.000    0.000    0.000 
#
# Total GULP energy -148861.719246 kJ/mol
# GULP energy per Si atom -12405.143271 kJ/mol
# Density = 2.196644 g / cm^3
# Si number density = 22.016551 Si / 1000 Ang^3
#
#
#
# Elastic Constant Matrix: (Units=GPa)
#
#
# Indices 1 2 3 4 5 6 
#
# 1 139.8482 37.9797 38.5679 0.0000 -14.0924 0.0000
# 2 37.9797 90.1530 45.6594 0.0000 -8.0167 0.0000
# 3 38.5679 45.6594 122.0892 0.0000 -0.0704 0.0000
# 4 0.0000 0.0000 0.0000 34.3770 0.0000 -6.2852
# 5 -14.0924 -8.0167 -0.0704 0.0000 33.8235 0.0000
# 6 0.0000 0.0000 0.0000 -6.2852 0.0000 29.2351
#
#
#
# Elastic Compliance Matrix: (Units=1/GPa)
#
#
# Indices 1 2 3 4 5 6 
#
# 1 0.008616 -0.002449 -0.001804 0.000000 0.003006 0.000000
# 2 -0.002449 0.014743 -0.004739 0.000000 0.002464 0.000000
# 3 -0.001804 -0.004739 0.010532 0.000000 -0.001853 0.000000
# 4 0.000000 0.000000 0.000000 0.030279 0.000000 0.006510
# 5 0.003006 0.002464 -0.001853 0.000000 0.031398 0.000000
# 6 0.000000 0.000000 0.000000 0.006510 0.000000 0.035605
#
#
# Mechanical properties :
#
#
# Convention : Reuss Voigt Hill
#
# Bulk Modulus (GPa) = 62.86329 66.27825 64.57077
# Shear Modulus (GPa) = 32.37106 34.81267 33.59187
#
# Velocity S-wave (km/s) = 3.83862 3.98075 3.91033
# Velocity P-wave (km/s) = 6.94704 7.16224 7.05546
#
# Compressibility (1/GPa) = 0.01590753
#
# Stress axis : x y z
#
# Youngs Moduli (GPa) = 116.06172 67.82906 94.95027
#
# Poissons Ratio (x) = 0.16609 0.17132
# Poissons Ratio (y) = 0.28420 0.44994
# Poissons Ratio (z) = 0.20941 0.32142
#
# Static dielectric constant tensor:
#      x y z
#    x 4.315720 0.000000 -0.114650 
#    y 0.000000 3.874240 0.000000 
#    z -0.114650 0.000000 4.134370 
# 
# 
# High freq. dielectric constant tensor:
#      x y z
#    x 1.889340 0.000000 -0.006720 
#    y 0.000000 1.864470 0.000000 
#    z -0.006720 0.000000 1.872680 
# 
# From -- ./inp_files/38410.got.cif
#   From: 2010.03.12/outbox.cif.g09.slc.cpg/sg5_20_cif.got.tgz:38410.got - 2010.03.31 09:47:26.
