data_PCOD8051421
_publ_section_title
;
Structure prediction by ZEFSAII (Michael W. Deem and Ramdas Pophale) SiO2 
 PCOD8051421
Probable space group: C 2
;
_chemical_formula_sum "Si O2"
_cell_formula_units_Z 28
_cell_length_a 17.862504
_cell_length_b 5.175863
_cell_length_c 21.002777
_cell_angle_alpha 90.000000
_cell_angle_beta 143.033648
_cell_angle_gamma 90.000000
_cell_volume 1167.686318
_symmetry_space_group_name_H-M "C 2"
_symmetry_group_IT_number 5
_symmetry_cell_setting 'monoclinic'
loop_
_space_group_symop_operation_xyz
x,y,z
-x,y,-z
1/2+x,1/2+y,z
1/2-x,1/2+y,-z
loop_
_atom_site_type_symbol
_atom_site_label
_atom_site_fract_x
_atom_site_fract_y
_atom_site_fract_z
Si Si1 0.473303 0.068520 0.240345
Si Si2 0.736044 0.858799 0.823978
Si Si3 0.040273 0.969121 0.657005
Si Si4 0.752516 0.035993 0.704610
Si Si5 0.500000 0.152023 0.000000
Si Si6 0.329674 0.781860 0.558084
Si Si7 0.912355 0.526304 0.808240
Si Si8 0.000000 0.673191 0.500000
O O1 0.495704 0.304993 0.304194
O O2 0.480513 0.117601 0.169415
O O3 0.338369 0.945120 0.163450
O O4 0.591132 0.874057 0.327028
O O5 0.677516 0.589183 0.759089
O O6 0.881893 0.830792 0.937544
O O7 0.716284 0.076119 0.755303
O O8 0.031954 0.835218 0.583910
O O9 0.936137 0.196875 0.579982
O O10 0.841569 0.264002 0.740958
O O11 0.627446 0.012250 0.576423
O O12 0.816277 0.759618 0.744626
O O13 0.473930 0.980822 0.919606
O O14 0.246330 0.531128 0.520024
#
# Coordination Sequence:
#
# PCOD8051421 Si02
#       8
#     4   4   4   4   2   4   4   2
#     4  11  25  47  72 108 155 185 243 318 362 425
#     4  10  24  50  74 105 150 190 244 314 369 440
#     4  11  25  45  69 107 151 194 246 304 355 436
#     4  11  26  47  71 108 150 194 245 294 366 436
#     4  10  24  54  76 106 138 194 244 302 380 448
#     4  11  24  42  67 100 144 198 238 288 357 427
#     4  11  28  47  76 108 144 189 244 313 364 442
#     4  12  24  42  70 106 142 210 238 290 354 442
#
# _framework density 23.979043000000001
#
# number of rings (size 3 to 8) (size 9 to 14) (size 15 to 20)
#    0.000    1.143    2.857    1.714    6.000    5.714 
#    5.143    0.000    0.000    0.000    0.000    0.000 
#    0.000    0.000    0.000    0.000    0.000    0.000 
#
# Total GULP energy -173464.840143 kJ/mol
# GULP energy per Si atom -12390.345724 kJ/mol
# Density = 2.392447 g / cm^3
# Si number density = 23.979043 Si / 1000 Ang^3
#
#
#
# Elastic Constant Matrix: (Units=GPa)
#
#
# Indices 1 2 3 4 5 6 
#
# 1 148.7268 31.1375 59.4184 0.0044 -1.6911 -0.0060
# 2 31.1375 112.6956 42.0418 0.0032 6.8949 -0.0034
# 3 59.4184 42.0418 130.8003 0.0050 30.0555 -0.0075
# 4 0.0044 0.0032 0.0050 13.2247 -0.0016 0.3558
# 5 -1.6911 6.8949 30.0555 -0.0016 44.4709 0.0011
# 6 -0.0060 -0.0034 -0.0075 0.3558 0.0011 26.4911
#
#
#
# Elastic Compliance Matrix: (Units=1/GPa)
#
#
# Indices 1 2 3 4 5 6 
#
# 1 0.008752 -0.000965 -0.004471 -0.000001 0.003504 0.000000
# 2 -0.000965 0.010209 -0.002925 -0.000001 0.000358 0.000000
# 3 -0.004471 -0.002925 0.012491 -0.000004 -0.008158 0.000003
# 4 -0.000001 -0.000001 -0.000004 0.075643 0.000005 -0.001016
# 5 0.003504 0.000358 -0.008158 0.000005 0.028078 -0.000003
# 6 0.000000 0.000000 0.000003 -0.001016 -0.000003 0.037762
#
#
# Mechanical properties :
#
#
# Convention : Reuss Voigt Hill
#
# Bulk Modulus (GPa) = 67.88562 73.04646 70.46604
# Shear Modulus (GPa) = 25.69802 34.14569 29.92185
#
# Velocity S-wave (km/s) = 3.27721 3.77766 3.53630
# Velocity P-wave (km/s) = 6.53391 7.03963 6.79148
#
# Compressibility (1/GPa) = 0.01473066
#
# Stress axis : x y z
#
# Youngs Moduli (GPa) = 114.26460 97.94821 80.05707
#
# Poissons Ratio (x) = 0.09448 0.35791
# Poissons Ratio (y) = 0.11022 0.23421
# Poissons Ratio (z) = 0.51084 0.28655
#
# Static dielectric constant tensor:
#      x y z
#    x 4.585210 -0.000010 0.187140 
#    y -0.000010 4.353590 -0.000030 
#    z 0.187140 -0.000030 4.338770 
# 
# 
# High freq. dielectric constant tensor:
#      x y z
#    x 1.967210 0.000000 0.015340 
#    y 0.000000 1.947870 0.000000 
#    z 0.015340 0.000000 1.932030 
# 
# From -- ./inp_files/66476.got.cif
#   From: 2010.03.12/outbox.cif.g09.slc.cpg/sg5_34_cif.got.tgz:66476.got - 2010.03.31 09:47:26.
