data_PCOD8051584
_publ_section_title
;
Structure prediction by ZEFSAII (Michael W. Deem and Ramdas Pophale) SiO2 
 PCOD8051584
Probable space group: C 2
;
_chemical_formula_sum "Si O2"
_cell_formula_units_Z 28
_cell_length_a 26.761434
_cell_length_b 9.665347
_cell_length_c 9.139002
_cell_angle_alpha 90.000000
_cell_angle_beta 38.030915
_cell_angle_gamma 90.000000
_cell_volume 1456.355321
_symmetry_space_group_name_H-M "C 2"
_symmetry_group_IT_number 5
_symmetry_cell_setting 'monoclinic'
loop_
_space_group_symop_operation_xyz
x,y,z
-x,y,-z
1/2+x,1/2+y,z
1/2-x,1/2+y,-z
loop_
_atom_site_type_symbol
_atom_site_label
_atom_site_fract_x
_atom_site_fract_y
_atom_site_fract_z
Si Si1 0.712999 0.986600 0.902089
Si Si2 0.840966 0.066650 0.372545
Si Si3 0.467633 0.598206 0.316998
Si Si4 0.554855 0.337309 0.002141
Si Si5 0.650635 0.495019 0.181937
Si Si6 0.360198 0.703791 0.039209
Si Si7 0.917899 0.708836 0.768661
O O1 0.772359 0.951969 0.899068
O O2 0.666678 0.850418 0.958549
O O3 0.761593 0.049646 0.653308
O O4 0.649485 0.095613 0.111886
O O5 0.915199 0.134321 0.293674
O O6 0.821174 0.173894 0.288310
O O7 0.867678 0.916856 0.245798
O O8 0.502585 0.445032 0.216723
O O9 0.410136 0.596195 0.590602
O O10 0.541506 0.704151 0.173031
O O11 0.577113 0.216636 0.065164
O O12 0.500000 0.271108 0.000000
O O13 0.606692 0.355451 0.239497
O O14 0.674598 0.581898 0.983787
O O15 0.000000 0.659576 0.500000
#
# Coordination Sequence:
#
# PCOD8051584 Si02
#       7
#     4   4   4   4   4   4   4
#     4  11  27  37  54  93 130 148 187 256 312 338
#     4   9  20  37  61  84 117 148 201 244 290 353
#     4   9  17  35  64  88 103 150 210 243 267 353
#     4   9  17  34  61  88 105 147 205 246 273 339
#     4  11  20  40  62  85 114 164 206 235 282 362
#     4  11  20  37  61  88 114 158 197 244 296 350
#     4  12  22  40  62  88 120 160 201 245 295 355
#
# _framework density 19.226078000000001
#
# number of rings (size 3 to 8) (size 9 to 14) (size 15 to 20)
#    0.000    1.714    4.286    2.571    2.000    1.143 
#    0.000    1.429    0.000    0.000    0.000    0.000 
#    0.000    0.000    0.000    0.000    0.000    0.000 
#
# Total GULP energy -173587.849059 kJ/mol
# GULP energy per Si atom -12399.132076 kJ/mol
# Density = 1.918232 g / cm^3
# Si number density = 19.226078 Si / 1000 Ang^3
#
#
#
# Elastic Constant Matrix: (Units=GPa)
#
#
# Indices 1 2 3 4 5 6 
#
# 1 123.6662 35.8626 52.3907 0.0000 5.2969 0.0000
# 2 35.8626 50.3335 31.3391 0.0000 -3.1224 0.0000
# 3 52.3907 31.3391 97.8978 0.0000 -3.5828 0.0000
# 4 0.0000 0.0000 0.0000 15.5486 0.0000 -4.1135
# 5 5.2969 -3.1224 -3.5828 0.0000 27.4699 0.0000
# 6 0.0000 0.0000 0.0000 -4.1135 0.0000 14.4206
#
#
#
# Elastic Compliance Matrix: (Units=1/GPa)
#
#
# Indices 1 2 3 4 5 6 
#
# 1 0.011884 -0.005804 -0.004632 0.000000 -0.003555 0.000000
# 2 -0.005804 0.027736 -0.005643 0.000000 0.003536 0.000000
# 3 -0.004632 -0.005643 0.014579 0.000000 0.002153 0.000000
# 4 0.000000 0.000000 0.000000 0.069564 0.000000 0.019843
# 5 -0.003555 0.003536 0.002153 0.000000 0.037772 0.000000
# 6 0.000000 0.000000 0.000000 0.019843 0.000000 0.075006
#
#
# Mechanical properties :
#
#
# Convention : Reuss Voigt Hill
#
# Bulk Modulus (GPa) = 45.37166 56.78694 51.07930
# Shear Modulus (GPa) = 18.11293 21.64148 19.87721
#
# Velocity S-wave (km/s) = 3.07270 3.35868 3.21887
# Velocity P-wave (km/s) = 6.01987 6.68143 6.35926
#
# Compressibility (1/GPa) = 0.02204019
#
# Stress axis : x y z
#
# Youngs Moduli (GPa) = 84.14687 36.05445 68.59209
#
# Poissons Ratio (x) = 0.20926 0.31772
# Poissons Ratio (y) = 0.48838 0.38709
# Poissons Ratio (z) = 0.38977 0.20347
#
# Static dielectric constant tensor:
#      x y z
#    x 3.896490 0.000000 0.077340 
#    y 0.000000 3.059400 0.000000 
#    z 0.077340 0.000000 3.587910 
# 
# 
# High freq. dielectric constant tensor:
#      x y z
#    x 1.768230 0.000000 0.011200 
#    y 0.000000 1.702340 0.000000 
#    z 0.011200 0.000000 1.750330 
# 
# From -- ./inp_files/31748.got.cif
#   From: 2010.03.12/outbox.cif.g09.slc.cpg/sg5_16_cif.got.tgz:31748.got - 2010.03.31 09:47:26.
