data_PCOD8051940
_publ_section_title
;
Structure prediction by ZEFSAII (Michael W. Deem and Ramdas Pophale) SiO2 
 PCOD8051940
Probable space group: C 2
;
_chemical_formula_sum "Si O2"
_cell_formula_units_Z 32
_cell_length_a 23.347810
_cell_length_b 5.170490
_cell_length_c 12.220164
_cell_angle_alpha 90.000000
_cell_angle_beta 114.874977
_cell_angle_gamma 90.000000
_cell_volume 1338.354739
_symmetry_space_group_name_H-M "C 2"
_symmetry_group_IT_number 5
_symmetry_cell_setting 'monoclinic'
loop_
_space_group_symop_operation_xyz
x,y,z
-x,y,-z
1/2+x,1/2+y,z
1/2-x,1/2+y,-z
loop_
_atom_site_type_symbol
_atom_site_label
_atom_site_fract_x
_atom_site_fract_y
_atom_site_fract_z
Si Si1 0.939421 0.066050 0.375559
Si Si2 0.521845 0.590069 0.238879
Si Si3 0.141489 0.561382 0.704302
Si Si4 0.674959 0.961232 0.192674
Si Si5 0.658344 0.592203 0.379881
Si Si6 0.040817 0.605433 0.130622
Si Si7 0.209274 0.453451 0.977807
Si Si8 0.768128 0.316809 0.374374
O O1 0.904534 0.333496 0.373701
O O2 0.000000 0.027399 0.500000
O O3 0.962620 0.069916 0.269974
O O4 0.889863 0.834173 0.348800
O O5 0.587889 0.486273 0.345372
O O6 0.509364 0.382894 0.133008
O O7 0.532715 0.889717 0.218222
O O8 0.156859 0.530011 0.845353
O O9 0.206756 0.544396 0.686142
O O10 0.614476 0.151148 0.159356
O O11 0.742237 0.089513 0.275869
O O12 0.662230 0.723980 0.263423
O O13 0.676671 0.876079 0.066841
O O14 0.710947 0.370790 0.413085
O O15 0.673221 0.755600 0.499856
O O16 0.000000 0.487039 0.000000
O O17 0.246356 0.201324 0.965820
#
# Coordination Sequence:
#
# PCOD8051940 Si02
#       8
#     4   4   4   4   4   4   4   4
#     4  12  28  50  74 105 146 193 248 302 358 432
#     4  11  25  47  70 101 142 177 245 287 360 412
#     4  12  28  47  75 109 144 201 241 298 369 435
#     4  11  25  42  69 102 146 182 236 293 366 422
#     4  11  24  42  73 106 137 188 228 309 359 431
#     4  11  25  45  70 103 135 188 229 298 352 421
#     4  12  26  47  70 103 150 189 238 293 353 448
#     4  12  23  44  71 106 146 178 242 291 372 432
#
# _framework density 23.909953000000002
#
# number of rings (size 3 to 8) (size 9 to 14) (size 15 to 20)
#    0.000    0.500    3.750    3.750    5.250    3.000 
#    0.000    0.000    0.000    0.000    0.000    0.000 
#    0.000    0.000    0.000    0.000    0.000    0.000 
#
# Total GULP energy -198380.484375 kJ/mol
# GULP energy per Si atom -12398.780273 kJ/mol
# Density = 2.385553 g / cm^3
# Si number density = 23.909953 Si / 1000 Ang^3
#
#
#
# Elastic Constant Matrix: (Units=GPa)
#
#
# Indices 1 2 3 4 5 6 
#
# 1 79.7359 11.6067 -4.0805 0.0000 -3.4283 0.0000
# 2 11.6067 86.2883 -5.0680 0.0000 0.5722 0.0000
# 3 -4.0805 -5.0680 96.2457 0.0000 -0.3552 0.0000
# 4 0.0000 0.0000 0.0000 28.1024 0.0000 3.8882
# 5 -3.4283 0.5722 -0.3552 0.0000 37.4656 0.0000
# 6 0.0000 0.0000 0.0000 3.8882 0.0000 39.6879
#
#
#
# Elastic Compliance Matrix: (Units=1/GPa)
#
#
# Indices 1 2 3 4 5 6 
#
# 1 0.012866 -0.001712 0.000460 0.000000 0.001208 0.000000
# 2 -0.001712 0.011854 0.000550 0.000000 -0.000332 0.000000
# 3 0.000460 0.000550 0.010439 0.000000 0.000133 0.000000
# 4 0.000000 0.000000 0.000000 0.036073 0.000000 -0.003534
# 5 0.001208 -0.000332 0.000133 0.000000 0.026808 0.000000
# 6 0.000000 0.000000 0.000000 -0.003534 0.000000 0.025543
#
#
# Mechanical properties :
#
#
# Convention : Reuss Voigt Hill
#
# Bulk Modulus (GPa) = 29.62435 29.68737 29.65586
# Shear Modulus (GPa) = 36.70054 38.37194 37.53624
#
# Velocity S-wave (km/s) = 3.92209 4.01041 3.96650
# Velocity P-wave (km/s) = 5.73823 5.82132 5.77992
#
# Compressibility (1/GPa) = 0.03375602
#
# Stress axis : x y z
#
# Youngs Moduli (GPa) = 77.72418 84.36097 95.79423
#
# Poissons Ratio (x) = 0.14439 -0.04405
# Poissons Ratio (y) = 0.13303 -0.05272
# Poissons Ratio (z) = -0.03574 -0.04643
#
# Static dielectric constant tensor:
#      x y z
#    x 4.621450 0.000000 0.034790 
#    y 0.000000 4.035500 0.000000 
#    z 0.034790 0.000000 4.306100 
# 
# 
# High freq. dielectric constant tensor:
#      x y z
#    x 1.958210 0.000000 0.000970 
#    y 0.000000 1.938670 0.000000 
#    z 0.000970 0.000000 1.955480 
# 
# From -- ./inp_files/47049.got.cif
#   From: 2010.03.12/outbox.cif.g09.slc.cpg/sg5_24_cif.got.tgz:47049.got - 2010.03.31 09:47:26.
