data_PCOD8051478
_publ_section_title
;
Structure prediction by ZEFSAII (Michael W. Deem and Ramdas Pophale) SiO2 
 PCOD8051478
Probable space group: C 2
;
_chemical_formula_sum "Si O2"
_cell_formula_units_Z 18
_cell_length_a 5.348578
_cell_length_b 24.252845
_cell_length_c 5.340449
_cell_angle_alpha 90.000000
_cell_angle_beta 88.116820
_cell_angle_gamma 90.000000
_cell_volume 692.379457
_symmetry_space_group_name_H-M "C 2"
_symmetry_group_IT_number 5
_symmetry_cell_setting 'monoclinic'
loop_
_space_group_symop_operation_xyz
x,y,z
-x,y,-z
1/2+x,1/2+y,z
1/2-x,1/2+y,-z
loop_
_atom_site_type_symbol
_atom_site_label
_atom_site_fract_x
_atom_site_fract_y
_atom_site_fract_z
Si Si1 0.336428 0.018810 0.756977
Si Si2 0.765299 0.782602 0.350626
Si Si3 0.500000 0.597822 0.500000
Si Si4 0.844198 0.397327 0.758668
Si Si5 0.747107 0.669618 0.133192
O O1 0.500000 0.021902 0.500000
O O2 0.104696 0.060210 0.725642
O O3 0.214178 0.957220 0.790256
O O4 0.500000 0.033186 0.000000
O O5 0.500000 0.784984 0.500000
O O6 0.838751 0.843920 0.247132
O O7 0.742740 0.736206 0.139123
O O8 0.000000 0.760919 0.500000
O O9 0.724590 0.638218 0.400381
O O10 0.000000 0.398784 0.500000
O O11 0.000000 0.385345 0.000000
O O12 0.500000 0.649541 0.000000
O O13 0.000000 0.647565 0.000000
#
# Coordination Sequence:
#
# PCOD8051478 Si02
#       5
#     4   4   2   4   4
#     4  10  25  47  76 113 158 208 269 329 403 476
#     4  11  23  45  76 111 155 199 258 325 399 473
#     4  12  30  46  78 112 164 210 276 328 396 484
#     4   9  20  43  74 110 152 201 254 325 396 475
#     4  12  29  49  78 114 154 213 268 328 401 474
#
# _framework density 25.997305000000001
#
# number of rings (size 3 to 8) (size 9 to 14) (size 15 to 20)
#    0.000    1.333    1.111    2.000    7.778    1.778 
#    0.000    0.000    0.000    0.000    0.000    0.000 
#    0.000    0.000    0.000    0.000    0.000    0.000 
#
# Total GULP energy -111511.039687 kJ/mol
# GULP energy per Si atom -12390.115521 kJ/mol
# Density = 2.593813 g / cm^3
# Si number density = 25.997305 Si / 1000 Ang^3
#
#
#
# Elastic Constant Matrix: (Units=GPa)
#
#
# Indices 1 2 3 4 5 6 
#
# 1 146.9711 44.5390 45.4533 0.0000 -0.5987 0.0000
# 2 44.5390 199.9533 37.6403 0.0000 4.1937 0.0000
# 3 45.4533 37.6403 139.2998 0.0000 8.7929 0.0000
# 4 0.0000 0.0000 0.0000 -83.4011 0.0000 -15.2465
# 5 -0.5987 4.1937 8.7929 0.0000 42.5493 0.0000
# 6 0.0000 0.0000 0.0000 -15.2465 0.0000 16.5696
#
#
#
# Elastic Compliance Matrix: (Units=1/GPa)
#
#
# Indices 1 2 3 4 5 6 
#
# 1 0.007917 -0.001352 -0.002263 0.000000 0.000712 0.000000
# 2 -0.001352 0.005502 -0.001023 0.000000 -0.000350 0.000000
# 3 -0.002263 -0.001023 0.008297 0.000000 -0.001646 0.000000
# 4 0.000000 0.000000 0.000000 -0.010264 0.000000 -0.009444
# 5 0.000712 -0.000350 -0.001646 0.000000 0.023887 0.000000
# 6 0.000000 0.000000 0.000000 -0.009444 0.000000 0.051662
#
#
# Mechanical properties :
#
#
# Convention : Reuss Voigt Hill
#
# Bulk Modulus (GPa) = 80.38962 82.38773 81.38867
# Shear Modulus (GPa) = 49.78863 19.04965 34.41914
#
# Velocity S-wave (km/s) = 4.38099 2.70988 3.64256
# Velocity P-wave (km/s) = 7.52198 6.44600 7.00468
#
# Compressibility (1/GPa) = 0.01243942
#
# Stress axis : x y z
#
# Youngs Moduli (GPa) = 126.31727 181.73872 120.51828
#
# Poissons Ratio (x) = 0.24578 0.27270
# Poissons Ratio (y) = 0.17083 0.12334
# Poissons Ratio (z) = 0.28582 0.18600
#
# Static dielectric constant tensor:
#      x y z
#    x 7.810640 0.000000 0.031340 
#    y 0.000000 5.525560 0.000000 
#    z 0.031340 0.000000 4.662070 
# 
# 
# High freq. dielectric constant tensor:
#      x y z
#    x 2.010620 0.000000 0.006330 
#    y 0.000000 2.080680 0.000000 
#    z 0.006330 0.000000 2.040760 
# 
# From -- ./inp_files/924.got.cif
#   From: 2010.03.12/outbox.cif.g09.slc.cpg/sg5_1_cif.got.tgz:924.got - 2010.03.31 09:47:26.
