data_PCOD8051385
_publ_section_title
;
Structure prediction by ZEFSAII (Michael W. Deem and Ramdas Pophale) SiO2 
 PCOD8051385
Probable space group: C 2
;
_chemical_formula_sum "Si O2"
_cell_formula_units_Z 22
_cell_length_a 10.825338
_cell_length_b 17.000771
_cell_length_c 8.238693
_cell_angle_alpha 90.000000
_cell_angle_beta 139.396512
_cell_angle_gamma 90.000000
_cell_volume 986.801011
_symmetry_space_group_name_H-M "C 2"
_symmetry_group_IT_number 5
_symmetry_cell_setting 'monoclinic'
loop_
_space_group_symop_operation_xyz
x,y,z
-x,y,-z
1/2+x,1/2+y,z
1/2-x,1/2+y,-z
loop_
_atom_site_type_symbol
_atom_site_label
_atom_site_fract_x
_atom_site_fract_y
_atom_site_fract_z
Si Si1 0.221145 0.627150 0.831379
Si Si2 0.000000 0.003084 0.000000
Si Si3 0.617472 0.441791 0.461229
Si Si4 0.897423 0.567484 0.730822
Si Si5 0.198329 0.284152 0.273415
Si Si6 0.549546 0.676860 0.379284
O O1 0.313347 0.559617 0.808618
O O2 0.204964 0.711744 0.728399
O O3 0.016959 0.596815 0.692671
O O4 0.361153 0.638157 0.120132
O O5 0.991962 0.951481 0.823674
O O6 0.500000 0.477614 0.500000
O O7 0.833248 0.476127 0.662124
O O8 0.646172 0.350677 0.538569
O O9 0.693057 0.605748 0.527455
O O10 0.000000 0.589009 0.000000
O O11 0.139136 0.251925 0.386930
O O12 0.000000 0.315228 0.000000
O O13 0.500000 0.713536 0.500000
#
# Coordination Sequence:
#
# PCOD8051385 Si02
#       6
#     4   2   4   4   4   4
#     4  11  22  45  75 102 142 188 253 298 361 443
#     4  12  24  50  74 102 148 198 240 312 364 436
#     4  12  27  48  71 106 157 190 242 311 378 435
#     4  12  23  39  77 110 136 193 249 303 365 439
#     4  10  24  47  70 101 146 197 236 305 381 433
#     4  11  21  43  68 104 145 181 244 310 350 435
#
# _framework density 22.294263000000001
#
# number of rings (size 3 to 8) (size 9 to 14) (size 15 to 20)
#    0.000    0.727    6.364    2.182    2.545    2.182 
#   11.455    0.000    0.000    0.000    0.000    0.000 
#    0.000    0.000    0.000    0.000    0.000    0.000 
#
# Total GULP energy -136309.045186 kJ/mol
# GULP energy per Si atom -12391.731381 kJ/mol
# Density = 2.224352 g / cm^3
# Si number density = 22.294263 Si / 1000 Ang^3
#
#
#
# Elastic Constant Matrix: (Units=GPa)
#
#
# Indices 1 2 3 4 5 6 
#
# 1 165.9495 54.9376 52.3922 0.0000 -9.2063 0.0000
# 2 54.9376 119.4358 50.7999 0.0000 0.1272 0.0000
# 3 52.3922 50.7999 99.4697 0.0000 -8.5368 0.0000
# 4 0.0000 0.0000 0.0000 49.4473 0.0000 -2.7039
# 5 -9.2063 0.1272 -8.5368 0.0000 44.7521 0.0000
# 6 0.0000 0.0000 0.0000 -2.7039 0.0000 42.1908
#
#
#
# Elastic Compliance Matrix: (Units=1/GPa)
#
#
# Indices 1 2 3 4 5 6 
#
# 1 0.007751 -0.002388 -0.002771 0.000000 0.001073 0.000000
# 2 -0.002388 0.011484 -0.004730 0.000000 -0.001426 0.000000
# 3 -0.002771 -0.004730 0.014112 0.000000 0.002135 0.000000
# 4 0.000000 0.000000 0.000000 0.020295 0.000000 0.001301
# 5 0.001073 -0.001426 0.002135 0.000000 0.022977 0.000000
# 6 0.000000 0.000000 0.000000 0.001301 0.000000 0.023785
#
#
# Mechanical properties :
#
#
# Convention : Reuss Voigt Hill
#
# Bulk Modulus (GPa) = 73.69405 77.90162 75.79783
# Shear Modulus (GPa) = 40.09493 42.39305 41.24399
#
# Velocity S-wave (km/s) = 4.24540 4.36538 4.30581
# Velocity P-wave (km/s) = 7.56030 7.77348 7.66763
#
# Compressibility (1/GPa) = 0.01356962
#
# Stress axis : x y z
#
# Youngs Moduli (GPa) = 129.02053 87.07564 70.86354
#
# Poissons Ratio (x) = 0.20791 0.19636
# Poissons Ratio (y) = 0.30806 0.33517
# Poissons Ratio (z) = 0.35751 0.41185
#
# Static dielectric constant tensor:
#      x y z
#    x 4.212030 0.000000 -0.107440 
#    y 0.000000 3.811030 0.000000 
#    z -0.107440 0.000000 3.891720 
# 
# 
# High freq. dielectric constant tensor:
#      x y z
#    x 1.891850 0.000000 -0.006750 
#    y 0.000000 1.860290 0.000000 
#    z -0.006750 0.000000 1.893690 
# 
# From -- ./inp_files/21419.got.cif
#   From: 2010.03.12/outbox.cif.g09.slc.cpg/sg5_11_cif.got.tgz:21419.got - 2010.03.31 09:47:26.
