data_PCOD8051747
_publ_section_title
;
Structure prediction by ZEFSAII (Michael W. Deem and Ramdas Pophale) SiO2 
 PCOD8051747
Probable space group: C 2
;
_chemical_formula_sum "Si O2"
_cell_formula_units_Z 24
_cell_length_a 23.485040
_cell_length_b 8.947142
_cell_length_c 12.207817
_cell_angle_alpha 90.000000
_cell_angle_beta 25.646695
_cell_angle_gamma 90.000000
_cell_volume 1110.251962
_symmetry_space_group_name_H-M "C 2"
_symmetry_group_IT_number 5
_symmetry_cell_setting 'monoclinic'
loop_
_space_group_symop_operation_xyz
x,y,z
-x,y,-z
1/2+x,1/2+y,z
1/2-x,1/2+y,-z
loop_
_atom_site_type_symbol
_atom_site_label
_atom_site_fract_x
_atom_site_fract_y
_atom_site_fract_z
Si Si1 0.873478 0.112710 0.277232
Si Si2 0.496839 0.918427 0.885971
Si Si3 0.340913 0.124222 0.538252
Si Si4 0.350222 0.623698 0.734773
Si Si5 0.846047 0.476198 0.752933
Si Si6 0.297770 0.441093 0.618788
O O1 0.913332 0.269917 0.264682
O O2 0.768370 0.136665 0.365281
O O3 0.815884 0.999631 0.464818
O O4 0.000000 0.038602 0.000000
O O5 0.538696 0.029930 0.717921
O O6 0.500000 0.998377 0.000000
O O7 0.348834 0.876199 0.110964
O O8 0.388465 0.294232 0.482510
O O9 0.290920 0.044116 0.735212
O O10 0.500000 0.578018 0.500000
O O11 0.328139 0.799217 0.783892
O O12 0.327934 0.575036 0.648557
O O13 0.244768 0.540287 0.993518
O O14 0.000000 0.520701 0.500000
#
# Coordination Sequence:
#
# PCOD8051747 Si02
#       6
#     4   4   4   4   4   4
#     4  11  23  43  65  97 137 176 215 267 335 392
#     4  11  22  44  63  94 140 174 215 267 332 393
#     4  12  23  41  71  97 132 176 220 273 326 397
#     4  11  27  47  72  98 133 179 228 282 337 399
#     4  11  26  49  69  99 137 178 226 281 341 394
#     4  12  25  43  68  99 134 175 221 276 330 397
#
# _framework density 21.616716
#
# number of rings (size 3 to 8) (size 9 to 14) (size 15 to 20)
#    0.000    0.667    5.000    3.000    2.333    7.333 
#    3.000    0.000    0.000    0.000    0.000    0.000 
#    0.000    0.000    0.000    0.000    0.000    0.000 
#
# Total GULP energy -148789.144596 kJ/mol
# GULP energy per Si atom -12399.095383 kJ/mol
# Density = 2.156752 g / cm^3
# Si number density = 21.616716 Si / 1000 Ang^3
#
#
#
# Elastic Constant Matrix: (Units=GPa)
#
#
# Indices 1 2 3 4 5 6 
#
# 1 92.1673 46.3367 35.0101 0.0000 7.1648 0.0000
# 2 46.3367 126.8697 63.6297 0.0000 0.3952 0.0000
# 3 35.0101 63.6297 120.3449 0.0000 1.2480 0.0000
# 4 0.0000 0.0000 0.0000 33.1882 0.0000 9.2805
# 5 7.1648 0.3952 1.2480 0.0000 29.5060 0.0000
# 6 0.0000 0.0000 0.0000 9.2805 0.0000 33.1519
#
#
#
# Elastic Compliance Matrix: (Units=1/GPa)
#
#
# Indices 1 2 3 4 5 6 
#
# 1 0.013875 -0.004151 -0.001808 0.000000 -0.003237 0.000000
# 2 -0.004151 0.011968 -0.005132 0.000000 0.001065 0.000000
# 3 -0.001808 -0.005132 0.011549 0.000000 0.000019 0.000000
# 4 0.000000 0.000000 0.000000 0.032690 0.000000 -0.009151
# 5 -0.003237 0.001065 0.000019 0.000000 0.034662 0.000000
# 6 0.000000 0.000000 0.000000 -0.009151 0.000000 0.032726
#
#
# Mechanical properties :
#
#
# Convention : Reuss Voigt Hill
#
# Bulk Modulus (GPa) = 65.74214 69.92609 67.83412
# Shear Modulus (GPa) = 30.35419 32.12957 31.24188
#
# Velocity S-wave (km/s) = 3.75133 3.85948 3.80579
# Velocity P-wave (km/s) = 7.01726 7.23043 7.12464
#
# Compressibility (1/GPa) = 0.01521094
#
# Stress axis : x y z
#
# Youngs Moduli (GPa) = 72.07172 83.55351 86.59085
#
# Poissons Ratio (x) = 0.34679 0.15659
# Poissons Ratio (y) = 0.29914 0.44435
# Poissons Ratio (z) = 0.13033 0.42876
#
# Static dielectric constant tensor:
#      x y z
#    x 4.031630 0.000000 0.179180 
#    y 0.000000 4.024970 0.000000 
#    z 0.179180 0.000000 4.355570 
# 
# 
# High freq. dielectric constant tensor:
#      x y z
#    x 1.855400 0.000000 0.007680 
#    y 0.000000 1.853360 0.000000 
#    z 0.007680 0.000000 1.857020 
# 
# From -- ./inp_files/47222.got.cif
#   From: 2010.03.12/outbox.cif.g09.slc.cpg/sg5_24_cif.got.tgz:47222.got - 2010.03.31 09:47:26.
