data_PCOD8051078
_publ_section_title
;
Structure prediction by ZEFSAII (Michael W. Deem and Ramdas Pophale) SiO2 
 PCOD8051078
Probable space group: C 2
;
_chemical_formula_sum "Si O2"
_cell_formula_units_Z 24
_cell_length_a 10.507758
_cell_length_b 9.423400
_cell_length_c 21.374035
_cell_angle_alpha 90.000000
_cell_angle_beta 34.466091
_cell_angle_gamma 90.000000
_cell_volume 1197.727495
_symmetry_space_group_name_H-M "C 2"
_symmetry_group_IT_number 5
_symmetry_cell_setting 'monoclinic'
loop_
_space_group_symop_operation_xyz
x,y,z
-x,y,-z
1/2+x,1/2+y,z
1/2-x,1/2+y,-z
loop_
_atom_site_type_symbol
_atom_site_label
_atom_site_fract_x
_atom_site_fract_y
_atom_site_fract_z
Si Si1 0.561959 0.328290 0.295703
Si Si2 0.544545 0.166577 0.052812
Si Si3 0.042418 0.332936 0.054968
Si Si4 0.224688 0.115751 0.386426
Si Si5 0.320479 0.323312 0.525629
Si Si6 0.609068 0.629583 0.296053
O O1 0.435449 0.221098 0.300558
O O2 0.444495 0.314394 0.409789
O O3 0.537222 0.492731 0.283277
O O4 0.826442 0.290374 0.184987
O O5 0.316899 0.211285 0.180930
O O6 0.594620 0.999680 0.038258
O O7 0.500000 0.214228 0.000000
O O8 0.749062 0.249973 0.000736
O O9 0.000000 0.288721 0.000000
O O10 0.190419 0.063345 0.329399
O O11 0.000000 0.200023 0.500000
O O12 0.248634 0.981169 0.423419
O O13 0.500000 0.253597 0.500000
O O14 0.094240 0.235624 0.613590
#
# Coordination Sequence:
#
# PCOD8051078 Si02
#       6
#     4   4   4   4   4   4
#     4  11  21  39  63  85 119 156 192 245 291 348
#     4  10  24  41  63  89 119 157 204 250 293 352
#     4  10  23  43  61  88 122 157 203 248 297 350
#     4  11  21  39  58  86 123 152 194 236 292 356
#     4  11  22  38  59  90 120 151 194 239 294 353
#     4  11  23  41  60  86 122 155 192 246 294 349
#
# _framework density 20.037948
#
# number of rings (size 3 to 8) (size 9 to 14) (size 15 to 20)
#    0.000    1.333    5.000    1.000    2.333    2.667 
#    3.000    0.000    0.000    0.000    0.000    0.000 
#    0.000    0.000    0.000    0.000    0.000    0.000 
#
# Total GULP energy -148729.907100 kJ/mol
# GULP energy per Si atom -12394.158925 kJ/mol
# Density = 1.999234 g / cm^3
# Si number density = 20.037948 Si / 1000 Ang^3
#
#
#
# Elastic Constant Matrix: (Units=GPa)
#
#
# Indices 1 2 3 4 5 6 
#
# 1 117.8778 62.5890 62.3393 -0.0001 -14.9825 0.0000
# 2 62.5890 84.7988 57.5512 -0.0001 -18.0979 0.0000
# 3 62.3393 57.5512 179.9946 -0.0006 -17.4185 0.0001
# 4 -0.0001 -0.0001 -0.0006 32.0893 0.0000 -10.8743
# 5 -14.9825 -18.0979 -17.4185 0.0000 29.2775 0.0000
# 6 0.0000 0.0000 0.0001 -10.8743 0.0000 28.4559
#
#
#
# Elastic Compliance Matrix: (Units=1/GPa)
#
#
# Indices 1 2 3 4 5 6 
#
# 1 0.014524 -0.009233 -0.002028 0.000000 0.000519 0.000000
# 2 -0.009233 0.022342 -0.003254 0.000000 0.007150 0.000000
# 3 -0.002028 -0.003254 0.007431 0.000000 0.001372 0.000000
# 4 0.000000 0.000000 0.000000 0.035799 0.000000 0.013680
# 5 0.000519 0.007150 0.001372 0.000000 0.039657 0.000000
# 6 0.000000 0.000000 0.000000 0.013680 0.000000 0.040370
#
#
# Mechanical properties :
#
#
# Convention : Reuss Voigt Hill
#
# Bulk Modulus (GPa) = 65.49921 83.07003 74.28462
# Shear Modulus (GPa) = 25.74105 31.31066 28.52585
#
# Velocity S-wave (km/s) = 3.58804 3.95722 3.77714
# Velocity P-wave (km/s) = 7.06569 7.90100 7.49499
#
# Compressibility (1/GPa) = 0.01526736
#
# Stress axis : x y z
#
# Youngs Moduli (GPa) = 68.85047 44.75941 134.56753
#
# Poissons Ratio (x) = 0.41327 0.27289
# Poissons Ratio (y) = 0.63571 0.43785
# Poissons Ratio (z) = 0.13962 0.14564
#
# Static dielectric constant tensor:
#      x y z
#    x 3.673040 0.000000 0.030620 
#    y 0.000000 3.559430 0.000000 
#    z 0.030620 0.000000 4.043310 
# 
# 
# High freq. dielectric constant tensor:
#      x y z
#    x 1.775760 0.000000 0.003630 
#    y 0.000000 1.768470 0.000000 
#    z 0.003630 0.000000 1.806480 
# 
# From -- ./inp_files/35427.got.cif
#   From: 2010.03.12/outbox.cif.g09.slc.cpg/sg5_18_cif.got.tgz:35427.got - 2010.03.31 09:47:26.
