data_PCOD8051882
_publ_section_title
;
Structure prediction by ZEFSAII (Michael W. Deem and Ramdas Pophale) SiO2 
 PCOD8051882
Probable space group: C 2
;
_chemical_formula_sum "Si O2"
_cell_formula_units_Z 32
_cell_length_a 10.369507
_cell_length_b 8.981660
_cell_length_c 15.570046
_cell_angle_alpha 90.000000
_cell_angle_beta 76.183001
_cell_angle_gamma 90.000000
_cell_volume 1408.160738
_symmetry_space_group_name_H-M "C 2"
_symmetry_group_IT_number 5
_symmetry_cell_setting 'monoclinic'
loop_
_space_group_symop_operation_xyz
x,y,z
-x,y,-z
1/2+x,1/2+y,z
1/2-x,1/2+y,-z
loop_
_atom_site_type_symbol
_atom_site_label
_atom_site_fract_x
_atom_site_fract_y
_atom_site_fract_z
Si Si1 0.122022 0.025260 0.026410
Si Si2 0.034469 0.249208 0.334926
Si Si3 0.417125 0.188174 0.244047
Si Si4 0.461891 0.507987 0.215600
Si Si5 0.280062 0.583941 0.582595
Si Si6 0.267743 0.251554 0.579784
Si Si7 0.331807 0.056049 0.729097
Si Si8 0.640660 0.214604 0.942438
O O1 0.245536 0.128529 0.024741
O O2 0.057618 0.957971 0.123278
O O3 0.000000 0.115894 0.000000
O O4 0.163757 0.888714 0.958443
O O5 0.088961 0.175228 0.413114
O O6 0.130204 0.386256 0.297900
O O7 0.041608 0.130179 0.256673
O O8 0.883940 0.292810 0.374910
O O9 0.432540 0.358457 0.275102
O O10 0.326294 0.093922 0.323018
O O11 0.563805 0.115693 0.217530
O O12 0.350535 0.185063 0.160522
O O13 0.316899 0.568914 0.208467
O O14 0.330435 0.415060 0.558508
O O15 0.215050 0.652853 0.507848
O O16 0.340126 0.157798 0.642392
O O17 0.500000 0.157163 0.000000
#
# Coordination Sequence:
#
# PCOD8051882 Si02
#       8
#     4   4   4   4   4   4   4   4
#     4  11  25  48  70 105 142 183 237 295 363 433
#     4  11  23  45  67 101 138 185 241 293 357 424
#     4  12  24  46  72  99 142 189 233 298 362 430
#     4  11  24  44  72  99 138 184 237 294 359 430
#     4  12  24  44  71  99 145 188 241 295 360 423
#     4  11  26  45  67 106 143 190 240 297 356 426
#     4  11  25  45  72 101 141 186 239 298 358 425
#     4  11  26  49  72 106 146 186 236 298 363 439
#
# _framework density 22.724678999999998
#
# number of rings (size 3 to 8) (size 9 to 14) (size 15 to 20)
#    0.000    0.750    5.000    2.625    3.500    1.000 
#    4.500    0.000    0.000    0.000    0.000    0.000 
#    0.000    0.000    0.000    0.000    0.000    0.000 
#
# Total GULP energy -198396.110121 kJ/mol
# GULP energy per Si atom -12399.756883 kJ/mol
# Density = 2.267296 g / cm^3
# Si number density = 22.724679 Si / 1000 Ang^3
#
#
#
# Elastic Constant Matrix: (Units=GPa)
#
#
# Indices 1 2 3 4 5 6 
#
# 1 112.0687 43.5535 21.7835 0.0000 23.7554 0.0000
# 2 43.5535 140.7935 39.8772 0.0000 22.0621 0.0000
# 3 21.7835 39.8772 97.9158 0.0000 12.0312 0.0000
# 4 0.0000 0.0000 0.0000 33.4457 0.0000 10.9696
# 5 23.7554 22.0621 12.0312 0.0000 36.5547 0.0000
# 6 0.0000 0.0000 0.0000 10.9696 0.0000 40.3468
#
#
#
# Elastic Compliance Matrix: (Units=1/GPa)
#
#
# Indices 1 2 3 4 5 6 
#
# 1 0.011180 -0.002346 -0.000848 0.000000 -0.005571 0.000000
# 2 -0.002346 0.009101 -0.002811 0.000000 -0.003044 0.000000
# 3 -0.000848 -0.002811 0.011745 0.000000 -0.001618 0.000000
# 4 0.000000 0.000000 0.000000 0.032826 0.000000 -0.008925
# 5 -0.005571 -0.003044 -0.001618 0.000000 0.033346 0.000000
# 6 0.000000 0.000000 0.000000 -0.008925 0.000000 0.027212
#
#
# Mechanical properties :
#
#
# Convention : Reuss Voigt Hill
#
# Bulk Modulus (GPa) = 49.95305 62.35629 56.15467
# Shear Modulus (GPa) = 34.70020 38.44034 36.57027
#
# Velocity S-wave (km/s) = 3.91190 4.11733 4.01593
# Velocity P-wave (km/s) = 6.51410 7.07832 6.80207
#
# Compressibility (1/GPa) = 0.02001880
#
# Stress axis : x y z
#
# Youngs Moduli (GPa) = 89.44312 109.87575 85.14272
#
# Poissons Ratio (x) = 0.25772 0.07216
# Poissons Ratio (y) = 0.20979 0.23932
# Poissons Ratio (z) = 0.07581 0.30884
#
# Static dielectric constant tensor:
#      x y z
#    x 4.247340 0.000000 0.205760 
#    y 0.000000 4.041620 0.000000 
#    z 0.205760 0.000000 3.973060 
# 
# 
# High freq. dielectric constant tensor:
#      x y z
#    x 1.910630 0.000000 0.007040 
#    y 0.000000 1.895160 0.000000 
#    z 0.007040 0.000000 1.892090 
# 
# From -- ./inp_files/52464.got.cif
#   From: 2010.03.12/outbox.cif.g09.slc.cpg/sg5_27_cif.got.tgz:52464.got - 2010.03.31 09:47:26.
