data_PCOD8051777
_publ_section_title
;
Structure prediction by ZEFSAII (Michael W. Deem and Ramdas Pophale) SiO2 
 PCOD8051777
Probable space group: C 2
;
_chemical_formula_sum "Si O2"
_cell_formula_units_Z 28
_cell_length_a 12.510340
_cell_length_b 7.255598
_cell_length_c 14.575161
_cell_angle_alpha 90.000000
_cell_angle_beta 63.287767
_cell_angle_gamma 90.000000
_cell_volume 1181.792086
_symmetry_space_group_name_H-M "C 2"
_symmetry_group_IT_number 5
_symmetry_cell_setting 'monoclinic'
loop_
_space_group_symop_operation_xyz
x,y,z
-x,y,-z
1/2+x,1/2+y,z
1/2-x,1/2+y,-z
loop_
_atom_site_type_symbol
_atom_site_label
_atom_site_fract_x
_atom_site_fract_y
_atom_site_fract_z
Si Si1 0.729440 0.928620 0.130756
Si Si2 0.144638 0.659652 0.607822
Si Si3 0.015113 0.305467 0.718790
Si Si4 0.582758 0.927540 0.887530
Si Si5 0.070146 0.820334 0.821283
Si Si6 0.309834 0.336634 0.901891
Si Si7 0.906701 0.026599 0.457587
O O1 0.628824 0.807881 0.220388
O O2 0.849143 0.948957 0.145099
O O3 0.674659 0.128601 0.137582
O O4 0.756668 0.831860 0.024020
O O5 0.059574 0.481407 0.642421
O O6 0.146498 0.767646 0.703136
O O7 0.278247 0.600883 0.534915
O O8 0.096595 0.804833 0.550999
O O9 0.072823 0.307080 0.798597
O O10 0.054927 0.118386 0.653719
O O11 0.721141 0.941122 0.866363
O O12 0.535990 0.133483 0.888436
O O13 0.500000 0.839242 0.000000
O O14 0.943944 0.924411 0.847560
O O15 0.000000 0.081970 0.500000
#
# Coordination Sequence:
#
# PCOD8051777 Si02
#       7
#     4   4   4   4   4   4   4
#     4  12  24  44  69 102 150 193 244 303 359 433
#     4  11  25  50  75 108 146 187 248 308 375 447
#     4  11  25  50  75 114 153 193 249 312 375 441
#     4  11  22  46  70 100 154 193 239 307 355 435
#     4  11  25  45  68 104 147 188 247 307 360 433
#     4  12  24  42  69 100 143 201 242 291 361 432
#     4  12  27  50  81 108 145 195 245 314 386 439
#
# _framework density 23.692831999999999
#
# number of rings (size 3 to 8) (size 9 to 14) (size 15 to 20)
#    0.000    0.571    5.714    3.000    2.000    6.286 
#    2.571    0.000    0.000    0.000    0.000    0.000 
#    0.000    0.000    0.000    0.000    0.000    0.000 
#
# Total GULP energy -173668.389572 kJ/mol
# GULP energy per Si atom -12404.884969 kJ/mol
# Density = 2.363891 g / cm^3
# Si number density = 23.692832 Si / 1000 Ang^3
#
#
#
# Elastic Constant Matrix: (Units=GPa)
#
#
# Indices 1 2 3 4 5 6 
#
# 1 188.3023 23.0254 44.7542 0.0000 -10.6587 0.0000
# 2 23.0254 57.4536 16.9112 0.0000 -1.3040 0.0002
# 3 44.7542 16.9112 120.6319 0.0000 -13.4170 0.0000
# 4 0.0000 0.0000 0.0000 36.4832 0.0000 -2.4526
# 5 -10.6587 -1.3040 -13.4170 0.0000 35.8855 0.0000
# 6 0.0000 0.0002 0.0000 -2.4526 0.0000 26.7831
#
#
#
# Elastic Compliance Matrix: (Units=1/GPa)
#
#
# Indices 1 2 3 4 5 6 
#
# 1 0.006038 -0.001847 -0.001867 0.000000 0.001028 0.000000
# 2 -0.001847 0.018723 -0.002008 0.000000 -0.000619 0.000000
# 3 -0.001867 -0.002008 0.009593 0.000000 0.002959 0.000000
# 4 0.000000 0.000000 0.000000 0.027580 0.000000 0.002526
# 5 0.001028 -0.000619 0.002959 0.000000 0.029256 0.000000
# 6 0.000000 0.000000 0.000000 0.002526 0.000000 0.037568
#
#
# Mechanical properties :
#
#
# Convention : Reuss Voigt Hill
#
# Bulk Modulus (GPa) = 43.65020 59.52996 51.59008
# Shear Modulus (GPa) = 33.82062 38.61016 36.21539
#
# Velocity S-wave (km/s) = 3.78228 4.04123 3.91389
# Velocity P-wave (km/s) = 6.12679 6.85242 6.49974
#
# Compressibility (1/GPa) = 0.02290940
#
# Stress axis : x y z
#
# Youngs Moduli (GPa) = 165.60693 53.41116 104.24302
#
# Poissons Ratio (x) = 0.09866 0.19461
# Poissons Ratio (y) = 0.30590 0.20935
# Poissons Ratio (z) = 0.30917 0.10727
#
# Static dielectric constant tensor:
#      x y z
#    x 4.448500 0.000000 0.018340 
#    y 0.000000 4.176660 0.000000 
#    z 0.018340 0.000000 4.315970 
# 
# 
# High freq. dielectric constant tensor:
#      x y z
#    x 1.945380 0.000000 -0.007330 
#    y 0.000000 1.936760 0.000000 
#    z -0.007330 0.000000 1.942120 
# 
# From -- ./inp_files/52387.got.cif
#   From: 2010.03.12/outbox.cif.g09.slc.cpg/sg5_27_cif.got.tgz:52387.got - 2010.03.31 09:47:26.
