data_PCOD8051322
_publ_section_title
;
Structure prediction by ZEFSAII (Michael W. Deem and Ramdas Pophale) SiO2 
 PCOD8051322
Probable space group: C 2
;
_chemical_formula_sum "Si O2"
_cell_formula_units_Z 20
_cell_length_a 28.801192
_cell_length_b 5.114993
_cell_length_c 9.101368
_cell_angle_alpha 90.000000
_cell_angle_beta 139.712423
_cell_angle_gamma 90.000000
_cell_volume 866.990362
_symmetry_space_group_name_H-M "C 2"
_symmetry_group_IT_number 5
_symmetry_cell_setting 'monoclinic'
loop_
_space_group_symop_operation_xyz
x,y,z
-x,y,-z
1/2+x,1/2+y,z
1/2-x,1/2+y,-z
loop_
_atom_site_type_symbol
_atom_site_label
_atom_site_fract_x
_atom_site_fract_y
_atom_site_fract_z
Si Si1 0.188505 0.387380 0.077174
Si Si2 0.096165 0.321400 0.580551
Si Si3 0.865475 0.893931 0.894118
Si Si4 0.845956 0.995329 0.518547
Si Si5 0.471370 0.320818 0.656062
O O1 0.154532 0.431907 0.835036
O O2 0.164597 0.608797 0.136333
O O3 0.274111 0.385669 0.268951
O O4 0.161825 0.100807 0.054775
O O5 0.135295 0.275304 0.515050
O O6 0.031634 0.534207 0.422964
O O7 0.056610 0.045779 0.526122
O O8 0.834883 0.002663 0.666179
O O9 0.951190 0.887160 0.094466
O O10 0.913459 0.804306 0.649587
#
# Coordination Sequence:
#
# PCOD8051322 Si02
#       5
#     4   4   4   4   4
#     4  12  27  42  73 101 142 171 235 285 351 390
#     4  10  25  43  72  97 133 184 227 275 333 420
#     4  12  26  45  68 106 136 181 221 299 338 404
#     4  10  27  45  72  95 140 181 233 269 344 416
#     4  10  24  44  72  94 139 178 235 264 348 409
#
# _framework density 23.068307000000001
#
# number of rings (size 3 to 8) (size 9 to 14) (size 15 to 20)
#    1.200    0.000    0.000    4.200    8.400    4.800 
#    3.600    0.000    0.000    0.000    0.000    0.000 
#    0.000    0.000    0.000    0.000    0.000    0.000 
#
# Total GULP energy -123915.301184 kJ/mol
# GULP energy per Si atom -12391.530118 kJ/mol
# Density = 2.301580 g / cm^3
# Si number density = 23.068307 Si / 1000 Ang^3
#
#
#
# Elastic Constant Matrix: (Units=GPa)
#
#
# Indices 1 2 3 4 5 6 
#
# 1 52.8689 9.1455 18.5939 0.0000 16.7354 0.0000
# 2 9.1455 126.7203 24.3287 0.0000 10.2723 0.0000
# 3 18.5939 24.3287 122.0743 0.0000 9.8712 0.0000
# 4 0.0000 0.0000 0.0000 30.2477 0.0000 0.3431
# 5 16.7354 10.2723 9.8712 0.0000 52.9656 0.0000
# 6 0.0000 0.0000 0.0000 0.3431 0.0000 24.3935
#
#
#
# Elastic Compliance Matrix: (Units=1/GPa)
#
#
# Indices 1 2 3 4 5 6 
#
# 1 0.021971 -0.000549 -0.002725 0.000000 -0.006328 0.000000
# 2 -0.000549 0.008309 -0.001478 0.000000 -0.001162 0.000000
# 3 -0.002725 -0.001478 0.008943 0.000000 -0.000519 0.000000
# 4 0.000000 0.000000 0.000000 0.033066 0.000000 -0.000465
# 5 -0.006328 -0.001162 -0.000519 0.000000 0.021202 0.000000
# 6 0.000000 0.000000 0.000000 -0.000465 0.000000 0.041001
#
#
# Mechanical properties :
#
#
# Convention : Reuss Voigt Hill
#
# Bulk Modulus (GPa) = 33.65027 45.08886 39.36956
# Shear Modulus (GPa) = 32.48772 38.16105 35.32438
#
# Velocity S-wave (km/s) = 3.75684 4.07168 3.91742
# Velocity P-wave (km/s) = 5.78250 6.45701 6.12904
#
# Compressibility (1/GPa) = 0.02971744
#
# Stress axis : x y z
#
# Youngs Moduli (GPa) = 45.51399 120.35015 111.81390
#
# Poissons Ratio (x) = 0.06613 0.30474
# Poissons Ratio (y) = 0.02501 0.16529
# Poissons Ratio (z) = 0.12404 0.17791
#
# Static dielectric constant tensor:
#      x y z
#    x 3.973590 0.000000 0.139320 
#    y 0.000000 4.084090 0.000000 
#    z 0.139320 0.000000 4.029370 
# 
# 
# High freq. dielectric constant tensor:
#      x y z
#    x 1.905560 0.000000 0.014230 
#    y 0.000000 1.912000 0.000000 
#    z 0.014230 0.000000 1.913050 
# 
# From -- ./inp_files/28266.got.cif
#   From: 2010.03.12/outbox.cif.g09.slc.cpg/sg5_15_cif.got.tgz:28266.got - 2010.03.31 09:47:26.
