data_PCOD8051289
_publ_section_title
;
Structure prediction by ZEFSAII (Michael W. Deem and Ramdas Pophale) SiO2 
 PCOD8051289
Probable space group: C 2
;
_chemical_formula_sum "Si O2"
_cell_formula_units_Z 24
_cell_length_a 22.594342
_cell_length_b 5.123384
_cell_length_c 23.132701
_cell_angle_alpha 90.000000
_cell_angle_beta 157.581337
_cell_angle_gamma 90.000000
_cell_volume 1021.247945
_symmetry_space_group_name_H-M "C 2"
_symmetry_group_IT_number 5
_symmetry_cell_setting 'monoclinic'
loop_
_space_group_symop_operation_xyz
x,y,z
-x,y,-z
1/2+x,1/2+y,z
1/2-x,1/2+y,-z
loop_
_atom_site_type_symbol
_atom_site_label
_atom_site_fract_x
_atom_site_fract_y
_atom_site_fract_z
Si Si1 0.145076 0.806470 0.659990
Si Si2 0.083843 0.117853 0.707553
Si Si3 0.850356 0.057407 0.101216
Si Si4 0.067952 0.163743 0.194581
Si Si5 0.727873 0.667789 0.635557
Si Si6 0.135319 0.962634 0.086019
O O1 0.169222 0.077529 0.646357
O O2 0.298643 0.633467 0.800442
O O3 0.000000 0.651758 0.500000
O O4 0.101583 0.850553 0.687834
O O5 0.232313 0.290106 0.823353
O O6 0.084326 0.061228 0.775240
O O7 0.914849 0.225096 0.536944
O O8 0.996878 0.106236 0.192947
O O9 0.781878 0.773083 0.026560
O O10 0.189112 0.942900 0.285912
O O11 0.152199 0.442788 0.276574
O O12 0.929825 0.156730 0.022532
O O13 0.000000 0.804857 0.000000
#
# Coordination Sequence:
#
# PCOD8051289 Si02
#       6
#     4   4   4   4   4   4
#     4  10  24  43  70 106 147 194 239 307 378 447
#     4  11  27  45  74 104 149 200 244 301 386 442
#     4  12  26  48  75 108 150 192 248 310 365 440
#     4  12  26  47  73 109 144 195 252 307 361 442
#     4  11  27  48  73 108 151 190 246 308 375 445
#     4  12  24  42  77 106 147 191 253 306 379 439
#
# _framework density 23.500658000000001
#
# number of rings (size 3 to 8) (size 9 to 14) (size 15 to 20)
#    0.000    0.667    3.333    3.000    7.000    2.667 
#    0.000    0.000    0.000    0.000    0.000    0.000 
#    0.000    0.000    0.000    0.000    0.000    0.000 
#
# Total GULP energy -148730.713114 kJ/mol
# GULP energy per Si atom -12394.226093 kJ/mol
# Density = 2.344717 g / cm^3
# Si number density = 23.500658 Si / 1000 Ang^3
#
#
#
# Elastic Constant Matrix: (Units=GPa)
#
#
# Indices 1 2 3 4 5 6 
#
# 1 143.1558 -8.7015 63.6841 0.0000 -24.0856 0.0017
# 2 -8.7015 32.6668 30.2631 0.0026 -14.2932 0.0174
# 3 63.6841 30.2631 169.4503 -0.0013 -14.9331 0.0013
# 4 0.0000 0.0026 -0.0013 37.0515 0.0003 7.6070
# 5 -24.0856 -14.2932 -14.9331 0.0003 40.0567 0.0002
# 6 0.0017 0.0174 0.0013 7.6070 0.0002 28.6233
#
#
#
# Elastic Compliance Matrix: (Units=1/GPa)
#
#
# Indices 1 2 3 4 5 6 
#
# 1 0.012077 0.013015 -0.006011 0.000001 0.009665 -0.000009
# 2 0.013015 0.056090 -0.012878 0.000003 0.023039 -0.000035
# 3 -0.006011 -0.012878 0.010068 0.000000 -0.004457 0.000008
# 4 0.000001 0.000003 0.000000 0.028547 0.000001 -0.007587
# 5 0.009665 0.023039 -0.004457 0.000001 0.037335 -0.000015
# 6 -0.000009 -0.000035 0.000008 -0.007587 -0.000015 0.036953
#
#
# Mechanical properties :
#
#
# Convention : Reuss Voigt Hill
#
# Bulk Modulus (GPa) = 15.04109 57.30715 36.17412
# Shear Modulus (GPa) = 23.25776 38.48143 30.86960
#
# Velocity S-wave (km/s) = 3.14931 4.05095 3.62824
# Velocity P-wave (km/s) = 4.43152 6.80577 5.74268
#
# Compressibility (1/GPa) = 0.06648454
#
# Stress axis : x y z
#
# Youngs Moduli (GPa) = 82.80388 17.82843 99.32489
#
# Poissons Ratio (x) = -0.23203 0.59708
# Poissons Ratio (y) = -1.07766 1.27914
# Poissons Ratio (z) = 0.49777 0.22960
#
# Static dielectric constant tensor:
#      x y z
#    x 4.400740 -0.000010 -0.040800 
#    y -0.000010 3.983940 -0.000010 
#    z -0.040800 -0.000010 4.737120 
# 
# 
# High freq. dielectric constant tensor:
#      x y z
#    x 1.939650 0.000000 0.002230 
#    y 0.000000 1.914930 0.000000 
#    z 0.002230 0.000000 1.956310 
# 
# From -- ./inp_files/69589.got.cif
#   From: 2010.03.12/outbox.cif.g09.slc.cpg/sg5_35_cif.got.tgz:69589.got - 2010.03.31 09:47:26.
