data_PCOD8051734
_publ_section_title
;
Structure prediction by ZEFSAII (Michael W. Deem and Ramdas Pophale) SiO2 
 PCOD8051734
Probable space group: C 2
;
_chemical_formula_sum "Si O2"
_cell_formula_units_Z 24
_cell_length_a 7.759218
_cell_length_b 18.035385
_cell_length_c 14.008897
_cell_angle_alpha 90.000000
_cell_angle_beta 146.452307
_cell_angle_gamma 90.000000
_cell_volume 1083.384192
_symmetry_space_group_name_H-M "C 2"
_symmetry_group_IT_number 5
_symmetry_cell_setting 'monoclinic'
loop_
_space_group_symop_operation_xyz
x,y,z
-x,y,-z
1/2+x,1/2+y,z
1/2-x,1/2+y,-z
loop_
_atom_site_type_symbol
_atom_site_label
_atom_site_fract_x
_atom_site_fract_y
_atom_site_fract_z
Si Si1 0.771978 0.215480 0.467952
Si Si2 0.272310 0.975815 0.808868
Si Si3 0.229896 0.060306 0.310096
Si Si4 0.349733 0.053112 0.662551
Si Si5 0.342557 0.810165 0.823785
Si Si6 0.863715 0.198390 0.166978
O O1 0.669380 0.139768 0.367910
O O2 0.466607 0.263393 0.340108
O O3 0.000000 0.258525 0.500000
O O4 0.970164 0.199688 0.653994
O O5 0.250191 0.893814 0.753388
O O6 0.441018 0.033258 0.813478
O O7 0.500000 0.969435 0.000000
O O8 0.940732 0.001967 0.698447
O O9 0.500000 0.096651 0.500000
O O10 0.392073 0.020212 0.292578
O O11 0.011119 0.128652 0.176826
O O12 0.000000 0.016046 0.500000
O O13 0.593294 0.776983 0.865785
O O14 0.500000 0.801794 0.000000
O O15 0.500000 0.181309 0.000000
#
# Coordination Sequence:
#
# PCOD8051734 Si02
#       6
#     4   4   4   4   4   4
#     4  11  22  43  72 102 135 181 240 289 351 425
#     4  11  27  47  66 104 148 182 235 294 353 424
#     4  12  21  44  74 102 139 183 238 295 349 418
#     4  11  22  42  73 102 133 184 239 288 354 423
#     4  11  25  47  67 100 145 187 234 291 353 420
#     4  12  24  45  73 104 142 184 236 299 354 420
#
# _framework density 22.152805000000001
#
# number of rings (size 3 to 8) (size 9 to 14) (size 15 to 20)
#    0.000    0.667    5.000    3.000    0.000    4.000 
#    9.000    0.000    0.000    0.000    0.000    0.000 
#    0.000    0.000    0.000    0.000    0.000    0.000 
#
# Total GULP energy -148692.026867 kJ/mol
# GULP energy per Si atom -12391.002239 kJ/mol
# Density = 2.210238 g / cm^3
# Si number density = 22.152805 Si / 1000 Ang^3
#
#
#
# Elastic Constant Matrix: (Units=GPa)
#
#
# Indices 1 2 3 4 5 6 
#
# 1 184.0426 60.4830 34.0641 0.0007 13.0363 0.0005
# 2 60.4830 130.9391 50.4361 0.0003 -0.5672 0.0002
# 3 34.0641 50.4361 94.4435 0.0058 19.1252 0.0023
# 4 0.0007 0.0003 0.0058 24.5624 0.0015 0.4939
# 5 13.0363 -0.5672 19.1252 0.0015 35.3502 0.0008
# 6 0.0005 0.0002 0.0023 0.4939 0.0008 34.4101
#
#
#
# Elastic Compliance Matrix: (Units=1/GPa)
#
#
# Indices 1 2 3 4 5 6 
#
# 1 0.006626 -0.002933 -0.000359 0.000000 -0.002297 0.000000
# 2 -0.002933 0.011267 -0.005856 0.000001 0.004431 0.000000
# 3 -0.000359 -0.005856 0.015540 -0.000003 -0.008369 -0.000001
# 4 0.000000 0.000001 -0.000003 0.040724 0.000000 -0.000584
# 5 -0.002297 0.004431 -0.008369 0.000000 0.033734 0.000000
# 6 0.000000 0.000000 -0.000001 -0.000584 0.000000 0.029070
#
#
# Mechanical properties :
#
#
# Convention : Reuss Voigt Hill
#
# Bulk Modulus (GPa) = 66.06049 77.71017 71.88533
# Shear Modulus (GPa) = 31.19101 36.49402 33.84252
#
# Velocity S-wave (km/s) = 3.75640 4.06319 3.91280
# Velocity P-wave (km/s) = 6.97848 7.56095 7.27555
#
# Compressibility (1/GPa) = 0.01513764
#
# Stress axis : x y z
#
# Youngs Moduli (GPa) = 150.91252 88.75714 64.34992
#
# Poissons Ratio (x) = 0.26028 0.02309
# Poissons Ratio (y) = 0.44256 0.37685
# Poissons Ratio (z) = 0.05416 0.51979
#
# Static dielectric constant tensor:
#      x y z
#    x 4.390820 0.000040 0.036610 
#    y 0.000040 4.148600 0.000010 
#    z 0.036610 0.000010 4.020370 
# 
# 
# High freq. dielectric constant tensor:
#      x y z
#    x 1.890720 0.000000 0.005600 
#    y 0.000000 1.847220 0.000000 
#    z 0.005600 0.000000 1.878270 
# 
# From -- ./inp_files/51443.got.cif
#   From: 2010.03.12/outbox.cif.g09.slc.cpg/sg5_26_cif.got.tgz:51443.got - 2010.03.31 09:47:26.
