data_PCOD8051709
_publ_section_title
;
Structure prediction by ZEFSAII (Michael W. Deem and Ramdas Pophale) SiO2 
 PCOD8051709
Probable space group: C 2
;
_chemical_formula_sum "Si O2"
_cell_formula_units_Z 32
_cell_length_a 11.245543
_cell_length_b 8.532502
_cell_length_c 14.946008
_cell_angle_alpha 90.000000
_cell_angle_beta 83.408541
_cell_angle_gamma 90.000000
_cell_volume 1424.628980
_symmetry_space_group_name_H-M "C 2"
_symmetry_group_IT_number 5
_symmetry_cell_setting 'monoclinic'
loop_
_space_group_symop_operation_xyz
x,y,z
-x,y,-z
1/2+x,1/2+y,z
1/2-x,1/2+y,-z
loop_
_atom_site_type_symbol
_atom_site_label
_atom_site_fract_x
_atom_site_fract_y
_atom_site_fract_z
Si Si1 0.760991 0.413590 0.346166
Si Si2 0.628184 0.483478 0.035970
Si Si3 0.878881 0.472508 0.762365
Si Si4 0.885429 0.927076 0.468082
Si Si5 0.976601 0.598503 0.402789
Si Si6 0.884886 0.612246 0.948886
Si Si7 0.903262 0.110211 0.767859
Si Si8 0.834971 0.081198 0.299564
O O1 0.696016 0.367268 0.443857
O O2 0.883136 0.494379 0.359437
O O3 0.689747 0.536804 0.292723
O O4 0.795759 0.260403 0.286933
O O5 0.632323 0.297764 0.047583
O O6 0.635435 0.573832 0.128574
O O7 0.500000 0.531159 0.000000
O O8 0.754332 0.533135 0.978515
O O9 0.926264 0.555722 0.847422
O O10 0.920386 0.294839 0.752356
O O11 0.734766 0.474359 0.766642
O O12 0.909311 0.579208 0.671848
O O13 0.935816 0.777702 0.410087
O O14 0.000000 0.019784 0.500000
O O15 0.812803 0.036551 0.406218
O O16 0.000000 0.531215 0.500000
O O17 0.000000 0.562075 0.000000
O O18 0.030275 0.036175 0.735031
#
# Coordination Sequence:
#
# PCOD8051709 Si02
#       8
#     4   4   4   4   4   4   4   4
#     4  12  24  44  67 102 141 187 242 294 354 424
#     4  11  26  49  76 110 146 186 239 297 367 436
#     4  12  26  47  71 105 144 191 236 294 361 423
#     4  11  22  41  66  98 141 186 239 297 350 419
#     4  11  25  43  69 102 144 190 239 294 357 422
#     4  11  27  48  78 110 147 189 237 299 364 437
#     4  12  27  45  72 106 142 188 239 296 355 432
#     4  12  25  44  69 100 140 188 236 295 354 419
#
# _framework density 22.461988000000002
#
# number of rings (size 3 to 8) (size 9 to 14) (size 15 to 20)
#    0.000    0.500    2.500    6.000    3.500    5.500 
#    0.000    0.000    0.000    0.000    0.000    0.000 
#    0.000    0.000    0.000    0.000    0.000    0.000 
#
# Total GULP energy -198337.391492 kJ/mol
# GULP energy per Si atom -12396.086968 kJ/mol
# Density = 2.241086 g / cm^3
# Si number density = 22.461988 Si / 1000 Ang^3
#
#
#
# Elastic Constant Matrix: (Units=GPa)
#
#
# Indices 1 2 3 4 5 6 
#
# 1 110.8774 19.7306 30.6382 0.0000 18.5480 0.0000
# 2 19.7306 85.4921 33.1749 0.0000 3.5926 0.0000
# 3 30.6382 33.1749 131.4380 0.0000 7.5933 0.0000
# 4 0.0000 0.0000 0.0000 35.5852 0.0000 2.4402
# 5 18.5480 3.5926 7.5933 0.0000 37.2463 0.0000
# 6 0.0000 0.0000 0.0000 2.4402 0.0000 28.3223
#
#
#
# Elastic Compliance Matrix: (Units=1/GPa)
#
#
# Indices 1 2 3 4 5 6 
#
# 1 0.010588 -0.001544 -0.001804 0.000000 -0.004756 0.000000
# 2 -0.001544 0.013205 -0.002979 0.000000 0.000102 0.000000
# 3 -0.001804 -0.002979 0.008816 0.000000 -0.000612 0.000000
# 4 0.000000 0.000000 0.000000 0.028269 0.000000 -0.002436
# 5 -0.004756 0.000102 -0.000612 0.000000 0.029331 0.000000
# 6 0.000000 0.000000 0.000000 -0.002436 0.000000 0.035518
#
#
# Mechanical properties :
#
#
# Convention : Reuss Voigt Hill
#
# Bulk Modulus (GPa) = 50.11099 54.98833 52.54966
# Shear Modulus (GPa) = 34.47544 36.51501 35.49523
#
# Velocity S-wave (km/s) = 3.92195 4.03629 3.97953
# Velocity P-wave (km/s) = 6.54726 6.80117 6.67542
#
# Compressibility (1/GPa) = 0.01995570
#
# Stress axis : x y z
#
# Youngs Moduli (GPa) = 94.44973 75.72913 113.43263
#
# Poissons Ratio (x) = 0.11691 0.20459
# Poissons Ratio (y) = 0.14581 0.33791
# Poissons Ratio (z) = 0.17035 0.22560
#
# Static dielectric constant tensor:
#      x y z
#    x 5.286500 0.000000 -0.180920 
#    y 0.000000 3.920390 0.000000 
#    z -0.180920 0.000000 4.362860 
# 
# 
# High freq. dielectric constant tensor:
#      x y z
#    x 1.912360 0.000000 0.005960 
#    y 0.000000 1.882470 0.000000 
#    z 0.005960 0.000000 1.888540 
# 
# From -- ./inp_files/52439.got.cif
#   From: 2010.03.12/outbox.cif.g09.slc.cpg/sg5_27_cif.got.tgz:52439.got - 2010.03.31 09:47:26.
