data_PCOD8051160
_publ_section_title
;
Structure prediction by ZEFSAII (Michael W. Deem and Ramdas Pophale) SiO2 
 PCOD8051160
Probable space group: C 2
;
_chemical_formula_sum "Si O2"
_cell_formula_units_Z 32
_cell_length_a 10.718830
_cell_length_b 11.672593
_cell_length_c 21.712964
_cell_angle_alpha 90.000000
_cell_angle_beta 32.775912
_cell_angle_gamma 90.000000
_cell_volume 1470.671955
_symmetry_space_group_name_H-M "C 2"
_symmetry_group_IT_number 5
_symmetry_cell_setting 'monoclinic'
loop_
_space_group_symop_operation_xyz
x,y,z
-x,y,-z
1/2+x,1/2+y,z
1/2-x,1/2+y,-z
loop_
_atom_site_type_symbol
_atom_site_label
_atom_site_fract_x
_atom_site_fract_y
_atom_site_fract_z
Si Si1 0.870115 0.314360 0.769085
Si Si2 0.358061 0.375964 0.353483
Si Si3 0.550307 0.668164 0.157346
Si Si4 0.770242 0.533767 0.882694
Si Si5 0.484235 0.937500 0.408284
Si Si6 0.766992 0.931823 0.890420
Si Si7 0.916454 0.657464 0.702414
Si Si8 0.399054 0.223168 0.916412
O O1 0.973875 0.203551 0.760596
O O2 0.818265 0.400283 0.848372
O O3 0.038031 0.367296 0.647066
O O4 0.650705 0.271666 0.822519
O O5 0.185955 0.382168 0.366518
O O6 0.613716 0.417946 0.226753
O O7 0.379679 0.247659 0.371686
O O8 0.255159 0.443280 0.454647
O O9 0.582016 0.530140 0.138233
O O10 0.327078 0.714063 0.214414
O O11 0.770990 0.727570 0.034769
O O12 0.887753 0.595510 0.777885
O O13 0.889626 0.592150 0.893399
O O14 0.500000 0.557186 0.000000
O O15 0.528890 0.070016 0.375423
O O16 0.775897 0.809911 0.920326
O O17 0.500000 0.972058 0.000000
#
# Coordination Sequence:
#
# PCOD8051160 Si02
#       8
#     4   4   4   4   4   4   4   4
#     4  11  24  42  58  97 139 177 225 280 343 406
#     4  11  22  44  73  99 125 183 229 285 340 404
#     4  12  25  39  62  99 142 180 218 281 354 407
#     4  11  20  37  64  89 126 176 220 274 336 402
#     4  10  23  45  72  95 133 175 235 283 342 403
#     4  12  23  41  64 101 135 168 230 278 337 416
#     4  11  21  42  67  97 127 175 231 273 341 413
#     4  12  22  39  62  95 132 180 224 278 335 409
#
# _framework density 21.758761
#
# number of rings (size 3 to 8) (size 9 to 14) (size 15 to 20)
#    0.000    0.750    5.000    3.750    1.750    1.000 
#    2.250    0.000   11.000    0.000    0.000    0.000 
#    0.000    0.000    0.000    0.000    0.000    0.000 
#
# Total GULP energy -198275.242468 kJ/mol
# GULP energy per Si atom -12392.202654 kJ/mol
# Density = 2.170924 g / cm^3
# Si number density = 21.758761 Si / 1000 Ang^3
#
#
#
# Elastic Constant Matrix: (Units=GPa)
#
#
# Indices 1 2 3 4 5 6 
#
# 1 75.4060 34.5982 22.3639 -0.0002 8.7409 -0.0002
# 2 34.5982 80.9229 24.5645 0.0006 3.6197 0.0001
# 3 22.3639 24.5645 117.5244 0.0050 17.4125 -0.0027
# 4 -0.0002 0.0006 0.0050 22.0447 -0.0005 5.3376
# 5 8.7409 3.6197 17.4125 -0.0005 28.3230 0.0009
# 6 -0.0002 0.0001 -0.0027 5.3376 0.0009 42.6596
#
#
#
# Elastic Compliance Matrix: (Units=1/GPa)
#
#
# Indices 1 2 3 4 5 6 
#
# 1 0.017186 -0.006786 -0.001314 0.000001 -0.003628 0.000000
# 2 -0.006786 0.015874 -0.002240 0.000000 0.001443 0.000000
# 3 -0.001314 -0.002240 0.010039 -0.000003 -0.005480 0.000001
# 4 0.000001 0.000000 -0.000003 0.046780 0.000002 -0.005853
# 5 -0.003628 0.001443 -0.005480 0.000002 0.039611 -0.000001
# 6 0.000000 0.000000 0.000001 -0.005853 -0.000001 0.024174
#
#
# Mechanical properties :
#
#
# Convention : Reuss Voigt Hill
#
# Bulk Modulus (GPa) = 44.60858 48.54517 46.57687
# Shear Modulus (GPa) = 27.49993 31.42723 29.46358
#
# Velocity S-wave (km/s) = 3.55893 3.80458 3.68380
# Velocity P-wave (km/s) = 6.11833 6.45437 6.28859
#
# Compressibility (1/GPa) = 0.02241721
#
# Stress axis : x y z
#
# Youngs Moduli (GPa) = 58.18785 62.99413 99.60993
#
# Poissons Ratio (x) = 0.42751 0.13091
# Poissons Ratio (y) = 0.39489 0.22317
# Poissons Ratio (z) = 0.07647 0.14113
#
# Static dielectric constant tensor:
#      x y z
#    x 3.618880 0.000000 0.315180 
#    y 0.000000 4.414670 0.000000 
#    z 0.315180 0.000000 3.987260 
# 
# 
# High freq. dielectric constant tensor:
#      x y z
#    x 1.841730 0.000000 0.022160 
#    y 0.000000 1.858350 0.000000 
#    z 0.022160 0.000000 1.850730 
# 
# From -- ./inp_files/39438.got.cif
#   From: 2010.03.12/outbox.cif.g09.slc.cpg/sg5_20_cif.got.tgz:39438.got - 2010.03.31 09:47:26.
