data_PCOD8051621
_publ_section_title
;
Structure prediction by ZEFSAII (Michael W. Deem and Ramdas Pophale) SiO2 
 PCOD8051621
Probable space group: C 2
;
_chemical_formula_sum "Si O2"
_cell_formula_units_Z 20
_cell_length_a 23.872075
_cell_length_b 8.248834
_cell_length_c 4.920117
_cell_angle_alpha 90.000000
_cell_angle_beta 103.600692
_cell_angle_gamma 90.000000
_cell_volume 941.685179
_symmetry_space_group_name_H-M "C 2"
_symmetry_group_IT_number 5
_symmetry_cell_setting 'monoclinic'
loop_
_space_group_symop_operation_xyz
x,y,z
-x,y,-z
1/2+x,1/2+y,z
1/2-x,1/2+y,-z
loop_
_atom_site_type_symbol
_atom_site_label
_atom_site_fract_x
_atom_site_fract_y
_atom_site_fract_z
Si Si1 0.366910 0.577900 0.440587
Si Si2 0.297348 0.880316 0.170013
Si Si3 0.645413 0.029809 0.276176
Si Si4 0.836693 0.880082 0.918719
Si Si5 0.461428 0.820278 0.701967
O O1 0.319970 0.705827 0.284795
O O2 0.343192 0.514468 0.697139
O O3 0.428603 0.661229 0.555333
O O4 0.373021 0.434691 0.225358
O O5 0.229290 0.865529 0.068984
O O6 0.317405 0.020421 0.403581
O O7 0.322453 0.917660 0.903848
O O8 0.638545 0.211658 0.163654
O O9 0.581700 0.962003 0.256636
O O10 0.500000 0.889263 0.500000
O O11 0.500000 0.767234 0.000000
#
# Coordination Sequence:
#
# PCOD8051621 Si02
#       5
#     4   4   4   4   4
#     4  11  24  39  63  94 123 163 210 245 299 369
#     4  11  21  39  61  91 132 174 195 227 300 385
#     4  11  24  39  63  94 123 163 210 245 299 370
#     4  12  22  38  61  97 134 156 192 258 304 355
#     4  11  23  45  68  84 114 166 215 259 304 361
#
# _framework density 21.238520999999999
#
# number of rings (size 3 to 8) (size 9 to 14) (size 15 to 20)
#    0.000    0.800    0.000   10.800    0.000    0.000 
#    0.000    4.000    0.000    2.400    0.000    0.000 
#    0.000    0.000    0.000    0.000    0.000    0.000 
#
# Total GULP energy -124070.802523 kJ/mol
# GULP energy per Si atom -12407.080252 kJ/mol
# Density = 2.119018 g / cm^3
# Si number density = 21.238521 Si / 1000 Ang^3
#
#
#
# Elastic Constant Matrix: (Units=GPa)
#
#
# Indices 1 2 3 4 5 6 
#
# 1 125.7399 57.5398 46.8959 0.0000 -7.2183 0.0000
# 2 57.5398 93.0711 23.1502 0.0000 9.6873 0.0000
# 3 46.8959 23.1502 113.4210 0.0000 4.2845 0.0000
# 4 0.0000 0.0000 0.0000 40.9320 0.0000 -7.6187
# 5 -7.2183 9.6873 4.2845 0.0000 43.8379 0.0000
# 6 0.0000 0.0000 0.0000 -7.6187 0.0000 9.1809
#
#
#
# Elastic Compliance Matrix: (Units=1/GPa)
#
#
# Indices 1 2 3 4 5 6 
#
# 1 0.013180 -0.007579 -0.004063 0.000000 0.004242 0.000000
# 2 -0.007579 0.015910 0.000067 0.000000 -0.004770 0.000000
# 3 -0.004063 0.000067 0.010548 0.000000 -0.001715 0.000000
# 4 0.000000 0.000000 0.000000 0.028894 0.000000 0.023977
# 5 0.004242 -0.004770 -0.001715 0.000000 0.024732 0.000000
# 6 0.000000 0.000000 0.000000 0.023977 0.000000 0.128819
#
#
# Mechanical properties :
#
#
# Convention : Reuss Voigt Hill
#
# Bulk Modulus (GPa) = 60.65396 65.26711 62.96053
# Shear Modulus (GPa) = 19.94181 32.43322 26.18752
#
# Velocity S-wave (km/s) = 3.06755 3.91204 3.51525
# Velocity P-wave (km/s) = 6.41615 7.15561 6.79594
#
# Compressibility (1/GPa) = 0.01648697
#
# Stress axis : x y z
#
# Youngs Moduli (GPa) = 75.87188 62.85250 94.80726
#
# Poissons Ratio (x) = 0.47638 0.38518
# Poissons Ratio (y) = 0.57506 -0.00631
# Poissons Ratio (z) = 0.30825 -0.00419
#
# Static dielectric constant tensor:
#      x y z
#    x 3.807650 0.000000 -0.109720 
#    y 0.000000 3.849030 0.000000 
#    z -0.109720 0.000000 4.229510 
# 
# 
# High freq. dielectric constant tensor:
#      x y z
#    x 1.830300 0.000000 -0.014350 
#    y 0.000000 1.829810 0.000000 
#    z -0.014350 0.000000 1.856000 
# 
# From -- ./inp_files/9157.got.cif
#   From: 2010.03.12/outbox.cif.g09.slc.cpg/sg5_5_cif.got.tgz:9157.got - 2010.03.31 09:47:26.
