data_PCOD8051787
_publ_section_title
;
Structure prediction by ZEFSAII (Michael W. Deem and Ramdas Pophale) SiO2 
 PCOD8051787
Probable space group: C 2
;
_chemical_formula_sum "Si O2"
_cell_formula_units_Z 32
_cell_length_a 19.541516
_cell_length_b 9.196851
_cell_length_c 11.036938
_cell_angle_alpha 90.000000
_cell_angle_beta 46.782673
_cell_angle_gamma 90.000000
_cell_volume 1445.544526
_symmetry_space_group_name_H-M "C 2"
_symmetry_group_IT_number 5
_symmetry_cell_setting 'monoclinic'
loop_
_space_group_symop_operation_xyz
x,y,z
-x,y,-z
1/2+x,1/2+y,z
1/2-x,1/2+y,-z
loop_
_atom_site_type_symbol
_atom_site_label
_atom_site_fract_x
_atom_site_fract_y
_atom_site_fract_z
Si Si1 0.906654 0.228260 0.803422
Si Si2 0.648473 0.424369 0.841553
Si Si3 0.787181 0.230930 0.329957
Si Si4 0.851527 0.424370 0.658447
Si Si5 0.937260 0.413752 0.293454
Si Si6 0.906654 0.728260 0.303422
Si Si7 0.562740 0.413752 0.206546
Si Si8 0.287181 0.230931 0.829957
O O1 0.905705 0.315845 0.680087
O O2 0.968135 0.317616 0.827889
O O3 0.956337 0.073577 0.715752
O O4 0.802256 0.197912 0.977866
O O5 0.659377 0.580745 0.763578
O O6 0.750000 0.358466 0.750001
O O7 0.594295 0.315845 0.819913
O O8 0.589020 0.438232 0.034926
O O9 0.855255 0.339714 0.316061
O O10 0.697744 0.197911 0.522134
O O11 0.750000 0.302938 0.250000
O O12 0.910980 0.438231 0.465075
O O13 0.840623 0.580745 0.736422
O O14 0.956337 0.573577 0.215752
O O15 0.968134 0.817617 0.327889
O O16 0.644745 0.339713 0.183939
#
# Coordination Sequence:
#
# PCOD8051787 Si02
#       8
#     4   4   4   4   4   4   4   4
#     4  12  24  44  71 100 134 179 224 275 338 397
#     4  11  22  47  72  94 135 181 220 275 338 394
#     4  11  23  47  72  94 135 184 222 272 337 400
#     4  11  22  47  72  94 135 181 220 275 338 394
#     4  12  26  45  68 102 138 173 226 282 331 398
#     4  12  24  44  71 100 134 179 224 275 338 397
#     4  12  26  45  68 102 138 173 226 282 331 398
#     4  11  23  47  72  94 135 184 222 272 337 400
#
# _framework density 22.136986
#
# number of rings (size 3 to 8) (size 9 to 14) (size 15 to 20)
#    0.000    0.500    7.500    2.250    0.000    2.000 
#   13.500    0.000    0.000    0.000    0.000    0.000 
#    0.000    0.000    0.000    0.000    0.000    0.000 
#
# Total GULP energy -198436.559768 kJ/mol
# GULP energy per Si atom -12402.284985 kJ/mol
# Density = 2.208660 g / cm^3
# Si number density = 22.136986 Si / 1000 Ang^3
#
#
#
# Elastic Constant Matrix: (Units=GPa)
#
#
# Indices 1 2 3 4 5 6 
#
# 1 137.2862 101.4402 19.3293 0.0000 4.8617 0.0000
# 2 101.4402 183.1814 32.2638 0.0000 7.6321 0.0000
# 3 19.3293 32.2638 67.0329 0.0000 13.8018 0.0000
# 4 0.0000 0.0000 0.0000 24.0873 0.0000 1.2415
# 5 4.8617 7.6321 13.8018 0.0000 34.2651 0.0000
# 6 0.0000 0.0000 0.0000 1.2415 0.0000 45.7955
#
#
#
# Elastic Compliance Matrix: (Units=1/GPa)
#
#
# Indices 1 2 3 4 5 6 
#
# 1 0.012335 -0.006778 -0.000267 0.000000 -0.000133 0.000000
# 2 -0.006778 0.009690 -0.002686 0.000000 -0.000115 0.000000
# 3 -0.000267 -0.002686 0.017618 0.000000 -0.006460 0.000000
# 4 0.000000 0.000000 0.000000 0.041574 0.000000 -0.001127
# 5 -0.000133 -0.000115 -0.006460 0.000000 0.031831 0.000000
# 6 0.000000 0.000000 0.000000 -0.001127 0.000000 0.021867
#
#
# Mechanical properties :
#
#
# Convention : Reuss Voigt Hill
#
# Bulk Modulus (GPa) = 49.55181 77.06302 63.30741
# Shear Modulus (GPa) = 31.03600 36.46072 33.74836
#
# Velocity S-wave (km/s) = 3.74839 4.06279 3.90875
# Velocity P-wave (km/s) = 6.41612 7.54293 7.00223
#
# Compressibility (1/GPa) = 0.02018090
#
# Stress axis : x y z
#
# Youngs Moduli (GPa) = 81.07317 103.19560 56.76007
#
# Poissons Ratio (x) = 0.69945 0.01516
# Poissons Ratio (y) = 0.54951 0.15246
# Poissons Ratio (z) = 0.02165 0.27718
#
# Static dielectric constant tensor:
#      x y z
#    x 4.252990 0.000000 -0.010840 
#    y 0.000000 4.161340 0.000000 
#    z -0.010840 0.000000 3.876920 
# 
# 
# High freq. dielectric constant tensor:
#      x y z
#    x 1.890870 0.000000 -0.002560 
#    y 0.000000 1.871460 0.000000 
#    z -0.002560 0.000000 1.862740 
# 
# From -- ./inp_files/46141.got.cif
#   From: 2010.03.12/outbox.cif.g09.slc.cpg/sg5_24_cif.got.tgz:46141.got - 2010.03.31 09:47:26.
