data_PCOD8051801
_publ_section_title
;
Structure prediction by ZEFSAII (Michael W. Deem and Ramdas Pophale) SiO2 
 PCOD8051801
Probable space group: C 2
;
_chemical_formula_sum "Si O2"
_cell_formula_units_Z 28
_cell_length_a 16.372991
_cell_length_b 12.194616
_cell_length_c 18.606309
_cell_angle_alpha 90.000000
_cell_angle_beta 20.524299
_cell_angle_gamma 90.000000
_cell_volume 1302.488745
_symmetry_space_group_name_H-M "C 2"
_symmetry_group_IT_number 5
_symmetry_cell_setting 'monoclinic'
loop_
_space_group_symop_operation_xyz
x,y,z
-x,y,-z
1/2+x,1/2+y,z
1/2-x,1/2+y,-z
loop_
_atom_site_type_symbol
_atom_site_label
_atom_site_fract_x
_atom_site_fract_y
_atom_site_fract_z
Si Si1 0.777469 0.220230 0.226659
Si Si2 0.742203 0.982179 0.268097
Si Si3 0.858433 0.157175 0.889235
Si Si4 0.940271 0.849275 0.898029
Si Si5 0.814172 0.787237 0.551774
Si Si6 0.862269 0.526547 0.808232
Si Si7 0.124101 0.963912 0.613650
O O1 0.553665 0.213395 0.356480
O O2 0.744147 0.311424 0.316281
O O3 0.804817 0.103646 0.247479
O O4 0.000000 0.256975 0.000000
O O5 0.500000 0.941496 0.500000
O O6 0.756170 0.005267 0.171591
O O7 0.920512 0.887448 0.145542
O O8 0.096444 0.226889 0.694874
O O9 0.646276 0.223877 0.026391
O O10 0.911383 0.050155 0.796779
O O11 0.759916 0.129386 0.050498
O O12 0.102378 0.873134 0.694858
O O13 0.702802 0.920849 0.089299
O O14 0.877427 0.901529 0.460933
O O15 0.139528 0.534383 0.572784
#
# Coordination Sequence:
#
# PCOD8051801 Si02
#       7
#     4   4   4   4   4   4   4
#     4  11  23  38  67  99 134 176 221 295 348 407
#     4  12  21  39  63 100 140 172 220 286 351 406
#     4  11  25  40  67 104 137 185 223 286 354 414
#     4  11  24  40  64 101 137 180 228 278 354 412
#     4  11  23  41  64 101 135 173 232 285 350 410
#     4  11  23  41  67  96 141 178 226 283 345 422
#     4  11  24  41  65  99 136 182 228 286 341 427
#
# _framework density 21.497306999999999
#
# number of rings (size 3 to 8) (size 9 to 14) (size 15 to 20)
#    0.000    0.857    4.286    4.714    6.000    0.000 
#    0.000    0.000    0.000    8.571    0.000    0.000 
#    0.000    0.000    0.000    0.000    0.000    0.000 
#
# Total GULP energy -173465.147430 kJ/mol
# GULP energy per Si atom -12390.367674 kJ/mol
# Density = 2.144838 g / cm^3
# Si number density = 21.497307 Si / 1000 Ang^3
#
#
#
# Elastic Constant Matrix: (Units=GPa)
#
#
# Indices 1 2 3 4 5 6 
#
# 1 105.9756 64.7609 51.0994 -0.0228 0.8847 -0.0077
# 2 64.7609 107.7882 57.0598 -0.0754 -2.4308 0.0143
# 3 51.0994 57.0598 153.0664 -0.0520 10.9367 -0.0043
# 4 -0.0228 -0.0754 -0.0520 40.6047 0.0051 -0.3117
# 5 0.8847 -2.4308 10.9367 0.0051 30.1191 0.0148
# 6 -0.0077 0.0143 -0.0043 -0.3117 0.0148 34.8069
#
#
#
# Elastic Compliance Matrix: (Units=1/GPa)
#
#
# Indices 1 2 3 4 5 6 
#
# 1 0.015444 -0.008187 -0.002078 -0.000009 -0.000360 0.000007
# 2 -0.008187 0.016095 -0.003466 0.000020 0.002798 -0.000010
# 3 -0.002078 -0.003466 0.008762 0.000004 -0.003400 0.000004
# 4 -0.000009 0.000020 0.000004 0.024629 -0.000004 0.000221
# 5 -0.000360 0.002798 -0.003400 -0.000004 0.034673 -0.000016
# 6 0.000007 -0.000010 0.000004 0.000221 -0.000016 0.028732
#
#
# Mechanical properties :
#
#
# Convention : Reuss Voigt Hill
#
# Bulk Modulus (GPa) = 77.89775 79.18559 78.54167
# Shear Modulus (GPa) = 31.23483 34.03350 32.63417
#
# Velocity S-wave (km/s) = 3.81591 3.98320 3.90045
# Velocity P-wave (km/s) = 7.46523 7.62034 7.54318
#
# Compressibility (1/GPa) = 0.01283734
#
# Stress axis : x y z
#
# Youngs Moduli (GPa) = 64.74874 62.13269 114.12828
#
# Poissons Ratio (x) = 0.50869 0.23718
# Poissons Ratio (y) = 0.53011 0.39562
# Poissons Ratio (z) = 0.13456 0.21538
#
# Static dielectric constant tensor:
#      x y z
#    x 3.635860 0.000010 0.146640 
#    y 0.000010 3.680620 0.000180 
#    z 0.146640 0.000180 4.287940 
# 
# 
# High freq. dielectric constant tensor:
#      x y z
#    x 1.817070 0.000000 0.017180 
#    y 0.000000 1.804000 0.000010 
#    z 0.017180 0.000010 1.881580 
# 
# From -- ./inp_files/66697.got.cif
#   From: 2010.03.12/outbox.cif.g09.slc.cpg/sg5_34_cif.got.tgz:66697.got - 2010.03.31 09:47:26.
