data_PCOD8051645
_publ_section_title
;
Structure prediction by ZEFSAII (Michael W. Deem and Ramdas Pophale) SiO2 
 PCOD8051645
Probable space group: C 2
;
_chemical_formula_sum "Si O2"
_cell_formula_units_Z 28
_cell_length_a 9.378880
_cell_length_b 10.910119
_cell_length_c 14.205794
_cell_angle_alpha 90.000000
_cell_angle_beta 111.255259
_cell_angle_gamma 90.000000
_cell_volume 1354.721599
_symmetry_space_group_name_H-M "C 2"
_symmetry_group_IT_number 5
_symmetry_cell_setting 'monoclinic'
loop_
_space_group_symop_operation_xyz
x,y,z
-x,y,-z
1/2+x,1/2+y,z
1/2-x,1/2+y,-z
loop_
_atom_site_type_symbol
_atom_site_label
_atom_site_fract_x
_atom_site_fract_y
_atom_site_fract_z
Si Si1 0.703855 0.409010 0.730102
Si Si2 0.399262 0.795246 0.396482
Si Si3 0.638372 0.461129 0.334633
Si Si4 0.318078 0.982096 0.952778
Si Si5 0.855346 0.219095 0.030945
Si Si6 0.940560 0.212550 0.750326
Si Si7 0.326172 0.543871 0.458057
O O1 0.520719 0.388771 0.686060
O O2 0.756357 0.492061 0.831106
O O3 0.789736 0.279801 0.752751
O O4 0.761257 0.473936 0.647328
O O5 0.500000 0.866076 0.500000
O O6 0.265963 0.875555 0.316845
O O7 0.512446 0.741931 0.345048
O O8 0.313813 0.687540 0.433690
O O9 0.602092 0.570001 0.254094
O O10 0.727928 0.509082 0.450048
O O11 0.252398 0.097680 0.996640
O O12 0.500000 0.991923 0.000000
O O13 0.269050 0.845983 0.980035
O O14 0.915395 0.243430 0.150377
O O15 0.000000 0.189982 0.000000
O O16 0.500000 0.499444 0.500000
#
# Coordination Sequence:
#
# PCOD8051645 Si02
#       7
#     4   4   4   4   4   4   4
#     4  11  21  44  68  89 132 174 212 269 330 380
#     4  11  21  42  65  93 133 170 215 266 322 388
#     4  11  23  41  66  95 130 172 216 263 326 389
#     4  11  23  46  68  96 131 175 223 275 334 391
#     4  11  24  45  69  95 135 172 221 281 332 385
#     4  12  22  44  66  92 134 171 212 274 326 381
#     4   9  18  38  64  87 128 171 202 262 320 375
#
# _framework density 20.668453
#
# number of rings (size 3 to 8) (size 9 to 14) (size 15 to 20)
#    0.000    1.143    8.571    0.857    0.000    1.714 
#   10.286    0.000    0.000    0.000    0.000    0.000 
#    0.000    0.000    0.000    0.000    0.000    0.000 
#
# Total GULP energy -173487.902767 kJ/mol
# GULP energy per Si atom -12391.993055 kJ/mol
# Density = 2.062141 g / cm^3
# Si number density = 20.668453 Si / 1000 Ang^3
#
#
#
# Elastic Constant Matrix: (Units=GPa)
#
#
# Indices 1 2 3 4 5 6 
#
# 1 70.2324 50.7341 2.0858 0.0000 12.6394 0.0000
# 2 50.7341 115.8735 16.8990 0.0000 8.8312 0.0000
# 3 2.0858 16.8990 94.5443 0.0000 8.7958 0.0000
# 4 0.0000 0.0000 0.0000 30.4743 0.0000 4.3112
# 5 12.6394 8.8312 8.7958 0.0000 23.9175 0.0000
# 6 0.0000 0.0000 0.0000 4.3112 0.0000 36.1771
#
#
#
# Elastic Compliance Matrix: (Units=1/GPa)
#
#
# Indices 1 2 3 4 5 6 
#
# 1 0.022744 -0.009555 0.002067 0.000000 -0.009251 0.000000
# 2 -0.009555 0.013058 -0.002220 0.000000 0.001044 0.000000
# 3 0.002067 -0.002220 0.011342 0.000000 -0.004443 0.000000
# 4 0.000000 0.000000 0.000000 0.033377 0.000000 -0.003978
# 5 -0.009251 0.001044 -0.004443 0.000000 0.047948 0.000000
# 6 0.000000 0.000000 0.000000 -0.003978 0.000000 0.028116
#
#
# Mechanical properties :
#
#
# Convention : Reuss Voigt Hill
#
# Bulk Modulus (GPa) = 36.06590 46.67644 41.37117
# Shear Modulus (GPa) = 26.99160 32.17586 29.58373
#
# Velocity S-wave (km/s) = 3.61769 3.94986 3.78742
# Velocity P-wave (km/s) = 5.91082 6.59047 6.25988
#
# Compressibility (1/GPa) = 0.02772702
#
# Stress axis : x y z
#
# Youngs Moduli (GPa) = 43.96779 76.58335 88.17022
#
# Poissons Ratio (x) = 0.73172 -0.18222
# Poissons Ratio (y) = 0.42009 0.19577
# Poissons Ratio (z) = -0.09087 0.17004
#
# Static dielectric constant tensor:
#      x y z
#    x 3.474900 0.000000 -0.001600 
#    y 0.000000 3.751300 0.000000 
#    z -0.001600 0.000000 4.030250 
# 
# 
# High freq. dielectric constant tensor:
#      x y z
#    x 1.780810 0.000000 0.002760 
#    y 0.000000 1.801810 0.000000 
#    z 0.002760 0.000000 1.821560 
# 
# From -- ./inp_files/50266.got.cif
#   From: 2010.03.12/outbox.cif.g09.slc.cpg/sg5_26_cif.got.tgz:50266.got - 2010.03.31 09:47:26.
