data_PCOD8051754
_publ_section_title
;
Structure prediction by ZEFSAII (Michael W. Deem and Ramdas Pophale) SiO2 
 PCOD8051754
Probable space group: C 2
;
_chemical_formula_sum "Si O2"
_cell_formula_units_Z 24
_cell_length_a 17.370688
_cell_length_b 9.473266
_cell_length_c 14.076958
_cell_angle_alpha 90.000000
_cell_angle_beta 28.558464
_cell_angle_gamma 90.000000
_cell_volume 1107.397800
_symmetry_space_group_name_H-M "C 2"
_symmetry_group_IT_number 5
_symmetry_cell_setting 'monoclinic'
loop_
_space_group_symop_operation_xyz
x,y,z
-x,y,-z
1/2+x,1/2+y,z
1/2-x,1/2+y,-z
loop_
_atom_site_type_symbol
_atom_site_label
_atom_site_fract_x
_atom_site_fract_y
_atom_site_fract_z
Si Si1 0.627811 0.902780 0.780252
Si Si2 0.249116 0.705556 0.618762
Si Si3 0.802244 0.563004 0.855305
Si Si4 0.857538 0.678433 0.475103
Si Si5 0.679325 0.477392 0.789659
Si Si6 0.565201 0.796804 0.188346
O O1 0.776561 0.795493 0.630504
O O2 0.536621 0.881331 0.779769
O O3 0.711642 0.052990 0.700824
O O4 0.500000 0.873624 0.000000
O O5 0.157586 0.722170 0.617816
O O6 0.175212 0.809760 0.777921
O O7 0.440340 0.734967 0.401338
O O8 0.786668 0.522920 0.762239
O O9 0.813891 0.413629 0.898751
O O10 0.957782 0.660210 0.698721
O O11 0.654694 0.658603 0.051178
O O12 0.757456 0.535881 0.607003
O O13 0.500000 0.536061 0.000000
#
# Coordination Sequence:
#
# PCOD8051754 Si02
#       6
#     4   4   4   4   4   4
#     4  11  23  43  68 102 136 188 236 290 358 420
#     4  11  23  44  68 100 138 181 238 286 353 424
#     4  12  26  44  72 105 146 186 247 298 358 426
#     4  11  22  44  69  98 140 184 234 288 353 424
#     4  12  25  43  72 101 138 191 235 292 356 426
#     4  11  26  44  69 103 141 191 240 296 358 425
#
# _framework density 21.672428
#
# number of rings (size 3 to 8) (size 9 to 14) (size 15 to 20)
#    0.000    0.667    3.333    5.500    4.667    1.333 
#    0.000    0.000    3.667    0.000    0.000    0.000 
#    0.000    0.000    0.000    0.000    0.000    0.000 
#
# Total GULP energy -148819.571862 kJ/mol
# GULP energy per Si atom -12401.630988 kJ/mol
# Density = 2.162310 g / cm^3
# Si number density = 21.672428 Si / 1000 Ang^3
#
#
#
# Elastic Constant Matrix: (Units=GPa)
#
#
# Indices 1 2 3 4 5 6 
#
# 1 82.6744 36.7823 28.5507 0.0000 -4.3227 0.0000
# 2 36.7823 123.4260 20.9672 0.0000 -6.5629 0.0000
# 3 28.5507 20.9672 88.2434 0.0000 -5.6024 0.0000
# 4 0.0000 0.0000 0.0000 47.1388 0.0000 3.1949
# 5 -4.3227 -6.5629 -5.6024 0.0000 28.9129 0.0000
# 6 0.0000 0.0000 0.0000 3.1949 0.0000 38.0885
#
#
#
# Elastic Compliance Matrix: (Units=1/GPa)
#
#
# Indices 1 2 3 4 5 6 
#
# 1 0.015200 -0.003822 -0.003969 0.000000 0.000636 0.000000
# 2 -0.003822 0.009473 -0.000925 0.000000 0.001399 0.000000
# 3 -0.003969 -0.000925 0.012945 0.000000 0.001705 0.000000
# 4 0.000000 0.000000 0.000000 0.021335 0.000000 -0.001790
# 5 0.000636 0.001399 0.001705 0.000000 0.035330 0.000000
# 6 0.000000 0.000000 0.000000 -0.001790 0.000000 0.026405
#
#
# Mechanical properties :
#
#
# Convention : Reuss Voigt Hill
#
# Bulk Modulus (GPa) = 49.54369 51.88268 50.71318
# Shear Modulus (GPa) = 34.51897 36.69763 35.60830
#
# Velocity S-wave (km/s) = 3.99527 4.11942 4.05782
# Velocity P-wave (km/s) = 6.64776 6.82771 6.73834
#
# Compressibility (1/GPa) = 0.02018421
#
# Stress axis : x y z
#
# Youngs Moduli (GPa) = 65.78972 105.56854 77.25164
#
# Poissons Ratio (x) = 0.40344 0.30665
# Poissons Ratio (y) = 0.25142 0.07149
# Poissons Ratio (z) = 0.26115 0.09770
#
# Static dielectric constant tensor:
#      x y z
#    x 3.716910 0.000000 -0.022800 
#    y 0.000000 4.084900 0.000000 
#    z -0.022800 0.000000 4.046410 
# 
# 
# High freq. dielectric constant tensor:
#      x y z
#    x 1.833930 0.000000 0.002000 
#    y 0.000000 1.867780 0.000000 
#    z 0.002000 0.000000 1.864220 
# 
# From -- ./inp_files/22892.got.cif
#   From: 2010.03.12/outbox.cif.g09.slc.cpg/sg5_12_cif.got.tgz:22892.got - 2010.03.31 09:47:26.
