data_PCOD8051724
_publ_section_title
;
Structure prediction by ZEFSAII (Michael W. Deem and Ramdas Pophale) SiO2 
 PCOD8051724
Probable space group: C 2
;
_chemical_formula_sum "Si O2"
_cell_formula_units_Z 28
_cell_length_a 21.237345
_cell_length_b 9.439893
_cell_length_c 15.795291
_cell_angle_alpha 90.000000
_cell_angle_beta 26.432531
_cell_angle_gamma 90.000000
_cell_volume 1409.597516
_symmetry_space_group_name_H-M "C 2"
_symmetry_group_IT_number 5
_symmetry_cell_setting 'monoclinic'
loop_
_space_group_symop_operation_xyz
x,y,z
-x,y,-z
1/2+x,1/2+y,z
1/2-x,1/2+y,-z
loop_
_atom_site_type_symbol
_atom_site_label
_atom_site_fract_x
_atom_site_fract_y
_atom_site_fract_z
Si Si1 0.803841 0.091490 0.296173
Si Si2 0.058496 0.506548 0.709406
Si Si3 0.849921 0.412612 0.226940
Si Si4 0.333680 0.485193 0.704949
Si Si5 0.827844 0.278597 0.981889
Si Si6 0.814824 0.726492 0.020389
Si Si7 0.608340 0.515246 0.990172
O O1 0.670361 0.016831 0.499616
O O2 0.795112 0.259343 0.321768
O O3 0.798737 0.059947 0.202538
O O4 0.943109 0.026401 0.170059
O O5 0.134055 0.511597 0.710079
O O6 0.978178 0.357434 0.796796
O O7 0.952015 0.637257 0.830143
O O8 0.735850 0.488871 0.304441
O O9 0.000000 0.393021 0.000000
O O10 0.500000 0.466503 0.500000
O O11 0.298991 0.631223 0.793689
O O12 0.271581 0.351251 0.829039
O O13 0.754784 0.289048 0.979554
O O14 0.851846 0.116078 0.979152
O O15 0.858541 0.854256 0.027954
#
# Coordination Sequence:
#
# PCOD8051724 Si02
#       7
#     4   4   4   4   4   4   4
#     4  11  23  40  67  99 126 163 227 272 327 383
#     4  11  25  41  69  97 125 177 224 271 325 395
#     4  12  20  48  71  93 133 176 220 268 327 408
#     4  11  25  44  69  96 129 180 215 263 334 395
#     4  11  22  45  65  91 133 177 217 265 332 393
#     4  11  26  41  62  99 134 167 220 272 332 379
#     4  11  22  42  67  92 133 173 210 280 327 384
#
# _framework density 19.863826
#
# number of rings (size 3 to 8) (size 9 to 14) (size 15 to 20)
#    0.000    0.857    7.143    1.714    4.000    4.571 
#    0.000    2.143    0.000    0.000    0.000    0.000 
#    0.000    0.000    0.000    0.000    0.000    0.000 
#
# Total GULP energy -173696.349900 kJ/mol
# GULP energy per Si atom -12406.882136 kJ/mol
# Density = 1.981862 g / cm^3
# Si number density = 19.863826 Si / 1000 Ang^3
#
#
#
# Elastic Constant Matrix: (Units=GPa)
#
#
# Indices 1 2 3 4 5 6 
#
# 1 128.1045 13.0147 29.7091 0.0000 -4.3544 0.0000
# 2 13.0147 77.4640 25.6996 0.0000 -2.0730 0.0000
# 3 29.7091 25.6996 140.1835 0.0000 -5.5271 0.0000
# 4 0.0000 0.0000 0.0000 -3.8716 0.0000 5.1793
# 5 -4.3544 -2.0730 -5.5271 0.0000 20.0726 0.0000
# 6 0.0000 0.0000 0.0000 5.1793 0.0000 32.3283
#
#
#
# Elastic Compliance Matrix: (Units=1/GPa)
#
#
# Indices 1 2 3 4 5 6 
#
# 1 0.008296 -0.000844 -0.001553 0.000000 0.001285 0.000000
# 2 -0.000844 0.013842 -0.002335 0.000000 0.000603 0.000000
# 3 -0.001553 -0.002335 0.007954 0.000000 0.001612 0.000000
# 4 0.000000 0.000000 0.000000 -0.212704 0.000000 0.034077
# 5 0.001285 0.000603 0.001612 0.000000 0.050604 0.000000
# 6 0.000000 0.000000 0.000000 0.034077 0.000000 0.025473
#
#
# Mechanical properties :
#
#
# Convention : Reuss Voigt Hill
#
# Bulk Modulus (GPa) = 48.47764 53.62210 51.04987
# Shear Modulus (GPa) = -55.43531 28.19442 -13.62045
#
# Velocity S-wave (km/s) = -5.28850 3.77156 -2.62141
# Velocity P-wave (km/s) = 3.58232 6.78378 4.07349
#
# Compressibility (1/GPa) = 0.02062807
#
# Stress axis : x y z
#
# Youngs Moduli (GPa) = 120.54500 72.24476 125.71997
#
# Poissons Ratio (x) = 0.06099 0.19520
# Poissons Ratio (y) = 0.10177 0.29354
# Poissons Ratio (z) = 0.18717 0.16868
#
# Static dielectric constant tensor:
#      x y z
#    x 3.762130 0.000000 0.019800 
#    y 0.000000 3.562190 0.000000 
#    z 0.019800 0.000000 3.548810 
# 
# 
# High freq. dielectric constant tensor:
#      x y z
#    x 1.789320 0.000000 0.001110 
#    y 0.000000 1.777170 0.000000 
#    z 0.001110 0.000000 1.768180 
# 
# From -- ./inp_files/29078.got.cif
#   From: 2010.03.12/outbox.cif.g09.slc.cpg/sg5_15_cif.got.tgz:29078.got - 2010.03.31 09:47:26.
