data_PCOD8051794
_publ_section_title
;
Structure prediction by ZEFSAII (Michael W. Deem and Ramdas Pophale) SiO2 
 PCOD8051794
Probable space group: C 2
;
_chemical_formula_sum "Si O2"
_cell_formula_units_Z 24
_cell_length_a 15.965841
_cell_length_b 11.650453
_cell_length_c 11.525297
_cell_angle_alpha 90.000000
_cell_angle_beta 35.423703
_cell_angle_gamma 90.000000
_cell_volume 1242.592862
_symmetry_space_group_name_H-M "C 2"
_symmetry_group_IT_number 5
_symmetry_cell_setting 'monoclinic'
loop_
_space_group_symop_operation_xyz
x,y,z
-x,y,-z
1/2+x,1/2+y,z
1/2-x,1/2+y,-z
loop_
_atom_site_type_symbol
_atom_site_label
_atom_site_fract_x
_atom_site_fract_y
_atom_site_fract_z
Si Si1 0.343962 0.909920 0.631899
Si Si2 0.159532 0.690742 0.784631
Si Si3 0.393458 0.115222 0.408922
Si Si4 0.666064 0.263098 0.325587
Si Si5 0.843148 0.025823 0.722295
Si Si6 0.720976 0.078693 0.096892
O O1 0.500000 0.867617 0.500000
O O2 0.256579 0.803130 0.682140
O O3 0.344337 0.997262 0.523982
O O4 0.274878 0.969192 0.823102
O O5 0.164518 0.628017 0.655285
O O6 0.216353 0.598582 0.810828
O O7 0.000000 0.729087 0.000000
O O8 0.312171 0.222062 0.566283
O O9 0.567565 0.111215 0.212286
O O10 0.500000 0.223434 0.500000
O O11 0.691968 0.395670 0.273239
O O12 0.765084 0.191014 0.123152
O O13 0.000000 0.063048 0.500000
O O14 0.838355 0.048395 0.865799
#
# Coordination Sequence:
#
# PCOD8051794 Si02
#       6
#     4   4   4   4   4   4
#     4   9  21  41  66  86 115 162 198 237 292 359
#     4  12  24  37  59  89 124 153 196 248 302 337
#     4   9  19  40  61  85 119 154 191 240 302 353
#     4   8  18  36  62  83 110 156 195 237 289 353
#     4  11  23  36  58  90 118 153 202 243 285 348
#     4   9  18  39  64  85 114 155 201 235 291 357
#
# _framework density 19.314451999999999
#
# number of rings (size 3 to 8) (size 9 to 14) (size 15 to 20)
#    0.000    2.333    1.667    2.500    4.667    1.333 
#    0.000    0.000    0.000    0.000    0.000    0.000 
#    0.000    0.000    0.000    0.000    0.000    0.000 
#
# Total GULP energy -148697.215907 kJ/mol
# GULP energy per Si atom -12391.434659 kJ/mol
# Density = 1.927049 g / cm^3
# Si number density = 19.314452 Si / 1000 Ang^3
#
#
#
# Elastic Constant Matrix: (Units=GPa)
#
#
# Indices 1 2 3 4 5 6 
#
# 1 84.7716 30.2803 38.7505 0.0000 14.5326 0.0000
# 2 30.2803 86.3088 48.0224 0.0000 0.9886 0.0000
# 3 38.7505 48.0224 120.0049 0.0000 19.8464 0.0000
# 4 0.0000 0.0000 0.0000 18.9591 0.0000 0.8964
# 5 14.5326 0.9886 19.8464 0.0000 29.5077 0.0000
# 6 0.0000 0.0000 0.0000 0.8964 0.0000 31.3723
#
#
#
# Elastic Compliance Matrix: (Units=1/GPa)
#
#
# Indices 1 2 3 4 5 6 
#
# 1 0.015302 -0.003970 -0.002395 0.000000 -0.005793 0.000000
# 2 -0.003970 0.016356 -0.006184 0.000000 0.005566 0.000000
# 3 -0.002395 -0.006184 0.012772 0.000000 -0.007204 0.000000
# 4 0.000000 0.000000 0.000000 0.052816 0.000000 -0.001509
# 5 -0.005793 0.005566 -0.007204 0.000000 0.041401 0.000000
# 6 0.000000 0.000000 0.000000 -0.001509 0.000000 0.031918
#
#
# Mechanical properties :
#
#
# Convention : Reuss Voigt Hill
#
# Bulk Modulus (GPa) = 51.72292 58.35464 55.03878
# Shear Modulus (GPa) = 24.73932 27.56996 26.15464
#
# Velocity S-wave (km/s) = 3.58281 3.78223 3.68387
# Velocity P-wave (km/s) = 6.62970 7.02511 6.83027
#
# Compressibility (1/GPa) = 0.01933379
#
# Stress axis : x y z
#
# Youngs Moduli (GPa) = 65.35059 61.13947 78.29522
#
# Poissons Ratio (x) = 0.24272 0.18748
# Poissons Ratio (y) = 0.25943 0.48417
# Poissons Ratio (z) = 0.15648 0.37808
#
# Static dielectric constant tensor:
#      x y z
#    x 3.400170 0.000000 0.238980 
#    y 0.000000 3.477850 0.000000 
#    z 0.238980 0.000000 3.513300 
# 
# 
# High freq. dielectric constant tensor:
#      x y z
#    x 1.738010 0.000000 0.026440 
#    y 0.000000 1.757290 0.000000 
#    z 0.026440 0.000000 1.746140 
# 
# From -- ./inp_files/39087.got.cif
#   From: 2010.03.12/outbox.cif.g09.slc.cpg/sg5_20_cif.got.tgz:39087.got - 2010.03.31 09:47:26.
