data_PCOD8051486
_publ_section_title
;
Structure prediction by ZEFSAII (Michael W. Deem and Ramdas Pophale) SiO2 
 PCOD8051486
Probable space group: C 2
;
_chemical_formula_sum "Si O2"
_cell_formula_units_Z 16
_cell_length_a 22.640452
_cell_length_b 5.136517
_cell_length_c 9.489465
_cell_angle_alpha 90.000000
_cell_angle_beta 34.664550
_cell_angle_gamma 90.000000
_cell_volume 627.672059
_symmetry_space_group_name_H-M "C 2"
_symmetry_group_IT_number 5
_symmetry_cell_setting 'monoclinic'
loop_
_space_group_symop_operation_xyz
x,y,z
-x,y,-z
1/2+x,1/2+y,z
1/2-x,1/2+y,-z
loop_
_atom_site_type_symbol
_atom_site_label
_atom_site_fract_x
_atom_site_fract_y
_atom_site_fract_z
Si Si1 0.312397 0.767640 0.851136
Si Si2 0.000000 0.575358 0.500000
Si Si3 0.500000 0.602638 0.000000
Si Si4 0.112580 0.915225 0.511663
Si Si5 0.786789 0.273702 0.345788
O O1 0.361250 0.704366 0.600125
O O2 0.408489 0.896409 0.748046
O O3 0.279807 0.482128 0.976614
O O4 0.046231 0.750555 0.532663
O O5 0.447498 0.424440 0.222673
O O6 0.412425 0.775274 0.091893
O O7 0.227931 0.783855 0.308927
O O8 0.751235 0.520289 0.501698
#
# Coordination Sequence:
#
# PCOD8051486 Si02
#       5
#     4   2   2   4   4
#     4  12  28  52  77 120 166 219 271 339 400 488
#     4  12  28  52  84 128 162 226 272 336 418 494
#     4  10  26  54  86 116 164 210 266 348 406 486
#     4  11  27  54  85 123 163 213 277 335 417 487
#     4  10  25  49  76 116 159 209 266 323 401 487
#
# _framework density 25.491016999999999
#
# number of rings (size 3 to 8) (size 9 to 14) (size 15 to 20)
#    0.000    1.000    2.500    0.750    7.000   10.000 
#    9.000    0.000    0.000    0.000    0.000    0.000 
#    0.000    0.000    0.000    0.000    0.000    0.000 
#
# Total GULP energy -99126.379541 kJ/mol
# GULP energy per Si atom -12390.797443 kJ/mol
# Density = 2.543300 g / cm^3
# Si number density = 25.491017 Si / 1000 Ang^3
#
#
#
# Elastic Constant Matrix: (Units=GPa)
#
#
# Indices 1 2 3 4 5 6 
#
# 1 219.1567 63.9409 60.9769 0.0001 -42.6860 0.0016
# 2 63.9409 167.0077 55.6846 -0.0005 -7.2535 0.0032
# 3 60.9769 55.6846 141.3341 -0.0008 -24.1889 -0.0003
# 4 0.0001 -0.0005 -0.0008 32.7338 -0.0002 -9.9088
# 5 -42.6860 -7.2535 -24.1889 -0.0002 49.0552 -0.0002
# 6 0.0016 0.0032 -0.0003 -9.9088 -0.0002 34.9898
#
#
#
# Elastic Compliance Matrix: (Units=1/GPa)
#
#
# Indices 1 2 3 4 5 6 
#
# 1 0.006338 -0.001817 -0.001224 0.000000 0.004643 0.000000
# 2 -0.001817 0.007420 -0.002427 0.000000 -0.001681 -0.000001
# 3 -0.001224 -0.002427 0.009083 0.000000 0.003055 0.000000
# 4 0.000000 0.000000 0.000000 0.033414 0.000000 0.009462
# 5 0.004643 -0.001681 0.003055 0.000000 0.025683 0.000000
# 6 0.000000 -0.000001 0.000000 0.009462 0.000000 0.031259
#
#
# Mechanical properties :
#
#
# Convention : Reuss Voigt Hill
#
# Bulk Modulus (GPa) = 84.00316 98.74481 91.37398
# Shear Modulus (GPa) = 39.03206 46.48217 42.75712
#
# Velocity S-wave (km/s) = 3.91731 4.27485 4.09998
# Velocity P-wave (km/s) = 7.31341 7.94902 7.63783
#
# Compressibility (1/GPa) = 0.01190431
#
# Stress axis : x y z
#
# Youngs Moduli (GPa) = 157.78210 134.77862 110.10135
#
# Poissons Ratio (x) = 0.24486 0.13476
# Poissons Ratio (y) = 0.28665 0.26722
# Poissons Ratio (z) = 0.19313 0.32712
#
# Static dielectric constant tensor:
#      x y z
#    x 5.483120 0.000000 -0.575520 
#    y 0.000000 4.542160 0.000000 
#    z -0.575520 0.000000 5.026320 
# 
# 
# High freq. dielectric constant tensor:
#      x y z
#    x 2.024680 0.000000 -0.022320 
#    y 0.000000 2.022650 0.000000 
#    z -0.022320 0.000000 2.024630 
# 
# From -- ./inp_files/17757.got.cif
#   From: 2010.03.12/outbox.cif.g09.slc.cpg/sg5_9_cif.got.tgz:17757.got - 2010.03.31 09:47:26.
