data_PCOD8051205
_publ_section_title
;
Structure prediction by ZEFSAII (Michael W. Deem and Ramdas Pophale) SiO2 
 PCOD8051205
Probable space group: C 2
;
_chemical_formula_sum "Si O2"
_cell_formula_units_Z 24
_cell_length_a 9.057808
_cell_length_b 5.079427
_cell_length_c 25.463520
_cell_angle_alpha 90.000000
_cell_angle_beta 117.294508
_cell_angle_gamma 90.000000
_cell_volume 1041.100098
_symmetry_space_group_name_H-M "C 2"
_symmetry_group_IT_number 5
_symmetry_cell_setting 'monoclinic'
loop_
_space_group_symop_operation_xyz
x,y,z
-x,y,-z
1/2+x,1/2+y,z
1/2-x,1/2+y,-z
loop_
_atom_site_type_symbol
_atom_site_label
_atom_site_fract_x
_atom_site_fract_y
_atom_site_fract_z
Si Si1 0.079732 0.490980 0.567902
Si Si2 0.195591 0.488310 0.388254
Si Si3 0.792680 0.998744 0.205728
Si Si4 0.417746 0.150382 0.741787
Si Si5 0.787165 0.493216 0.150960
Si Si6 0.194629 0.140177 0.021668
O O1 0.935254 0.450946 0.586607
O O2 0.000000 0.577122 0.500000
O O3 0.175513 0.217167 0.576166
O O4 0.206556 0.717754 0.606442
O O5 0.093188 0.562625 0.319829
O O6 0.759862 0.123731 0.258328
O O7 0.715222 0.203403 0.150343
O O8 0.702726 0.725073 0.172608
O O9 0.992564 0.937807 0.239558
O O10 0.525931 0.952254 0.795832
O O11 0.787092 0.559632 0.089912
O O12 0.274343 0.414393 0.016239
O O13 0.000000 0.175536 0.000000
#
# Coordination Sequence:
#
# PCOD8051205 Si02
#       6
#     4   4   4   4   4   4
#     4  12  26  47  71 103 142 189 231 285 341 405
#     4  12  26  43  74 100 143 178 241 283 343 413
#     4  10  24  38  67  90 137 167 224 266 360 399
#     4  10  26  40  68  99 134 176 223 284 348 401
#     4  10  26  42  69  94 138 172 227 280 351 402
#     4  12  28  46  73 101 138 181 237 285 344 415
#
# _framework density 23.052537999999998
#
# number of rings (size 3 to 8) (size 9 to 14) (size 15 to 20)
#    1.000    0.000    0.000    5.000   11.667    0.000 
#    0.000    0.000    0.000    0.000    0.000    0.000 
#    0.000    0.000    0.000    0.000    0.000    0.000 
#
# Total GULP energy -148664.191505 kJ/mol
# GULP energy per Si atom -12388.682625 kJ/mol
# Density = 2.300007 g / cm^3
# Si number density = 23.052538 Si / 1000 Ang^3
#
#
#
# Elastic Constant Matrix: (Units=GPa)
#
#
# Indices 1 2 3 4 5 6 
#
# 1 111.7164 38.8947 14.6165 0.0000 -17.5084 0.0000
# 2 38.8947 112.2448 -14.4500 0.0000 -3.0061 0.0000
# 3 14.6165 -14.4500 116.2008 0.0000 -6.1758 0.0000
# 4 0.0000 0.0000 0.0000 29.5615 0.0000 -1.7620
# 5 -17.5084 -3.0061 -6.1758 0.0000 31.8939 0.0000
# 6 0.0000 0.0000 0.0000 -1.7620 0.0000 22.2898
#
#
#
# Elastic Compliance Matrix: (Units=1/GPa)
#
#
# Indices 1 2 3 4 5 6 
#
# 1 0.011444 -0.004027 -0.001643 0.000000 0.005584 0.000000
# 2 -0.004027 0.010509 0.001767 0.000000 -0.000878 0.000000
# 3 -0.001643 0.001767 0.009087 0.000000 0.001024 0.000000
# 4 0.000000 0.000000 0.000000 0.033988 0.000000 0.002687
# 5 0.005584 -0.000878 0.001024 0.000000 0.034535 0.000000
# 6 0.000000 0.000000 0.000000 0.002687 0.000000 0.045076
#
#
# Mechanical properties :
#
#
# Convention : Reuss Voigt Hill
#
# Bulk Modulus (GPa) = 43.04707 46.47604 44.76155
# Shear Modulus (GPa) = 31.21305 36.82244 34.01774
#
# Velocity S-wave (km/s) = 3.68366 4.00099 3.84560
# Velocity P-wave (km/s) = 6.06683 6.44582 6.25920
#
# Compressibility (1/GPa) = 0.02323039
#
# Stress axis : x y z
#
# Youngs Moduli (GPa) = 87.38514 95.16027 110.05176
#
# Poissons Ratio (x) = 0.38325 0.18087
# Poissons Ratio (y) = 0.35194 -0.19443
# Poissons Ratio (z) = 0.14362 -0.16812
#
# Static dielectric constant tensor:
#      x y z
#    x 4.143290 0.000000 -0.040110 
#    y 0.000000 4.253040 0.000000 
#    z -0.040110 0.000000 4.126790 
# 
# 
# High freq. dielectric constant tensor:
#      x y z
#    x 1.903920 0.000000 -0.008440 
#    y 0.000000 1.925380 0.000000 
#    z -0.008440 0.000000 1.913340 
# 
# From -- ./inp_files/67848.got.cif
#   From: 2010.03.12/outbox.cif.g09.slc.cpg/sg5_34_cif.got.tgz:67848.got - 2010.03.31 09:47:26.
