data_PCOD8051913
_publ_section_title
;
Structure prediction by ZEFSAII (Michael W. Deem and Ramdas Pophale) SiO2 
 PCOD8051913
Probable space group: C 2
;
_chemical_formula_sum "Si O2"
_cell_formula_units_Z 18
_cell_length_a 8.384209
_cell_length_b 17.847824
_cell_length_c 5.196660
_cell_angle_alpha 90.000000
_cell_angle_beta 100.980277
_cell_angle_gamma 90.000000
_cell_volume 763.391435
_symmetry_space_group_name_H-M "C 2"
_symmetry_group_IT_number 5
_symmetry_cell_setting 'monoclinic'
loop_
_space_group_symop_operation_xyz
x,y,z
-x,y,-z
1/2+x,1/2+y,z
1/2-x,1/2+y,-z
loop_
_atom_site_type_symbol
_atom_site_label
_atom_site_fract_x
_atom_site_fract_y
_atom_site_fract_z
Si Si1 0.338073 0.090520 0.280669
Si Si2 0.000000 0.479610 0.000000
Si Si3 0.846384 0.363339 0.584003
Si Si4 0.389940 0.255303 0.216747
Si Si5 0.105707 0.969693 0.288990
O O1 0.500000 0.090522 0.500000
O O2 0.306404 0.173625 0.159408
O O3 0.181935 0.052828 0.370438
O O4 0.355156 0.033559 0.048097
O O5 0.924380 0.433669 0.747504
O O6 0.754948 0.313301 0.770127
O O7 0.734825 0.400043 0.324049
O O8 0.000000 0.318845 0.500000
O O9 0.500000 0.254371 0.500000
O O10 0.500000 0.275624 0.000000
O O11 0.000000 0.947944 0.500000
O O12 0.000000 0.966833 0.000000
#
# Coordination Sequence:
#
# PCOD8051913 Si02
#       5
#     4   2   4   4   4
#     4  11  23  47  75 102 142 202 245 291 367 450
#     4  12  20  44  82  96 142 190 256 288 354 442
#     4  12  27  45  75 110 147 198 247 303 370 441
#     4  11  28  48  74 106 153 194 243 303 372 435
#     4  12  26  43  73 111 148 183 248 311 361 427
#
# _framework density 23.578994000000002
#
# number of rings (size 3 to 8) (size 9 to 14) (size 15 to 20)
#    0.000    0.444    5.556    2.000    3.111    4.444 
#    2.000    0.000    0.000    0.000    0.000    0.000 
#    0.000    0.000    0.000    0.000    0.000    0.000 
#
# Total GULP energy -111534.291065 kJ/mol
# GULP energy per Si atom -12392.699007 kJ/mol
# Density = 2.352533 g / cm^3
# Si number density = 23.578994 Si / 1000 Ang^3
#
#
#
# Elastic Constant Matrix: (Units=GPa)
#
#
# Indices 1 2 3 4 5 6 
#
# 1 151.7371 70.8130 54.4720 0.0000 -18.6496 0.0000
# 2 70.8130 139.2043 28.8619 0.0000 -14.5192 0.0000
# 3 54.4720 28.8619 128.8992 0.0000 -3.0794 0.0000
# 4 0.0000 0.0000 0.0000 18.1396 0.0000 -19.4988
# 5 -18.6496 -14.5192 -3.0794 0.0000 41.8139 0.0000
# 6 0.0000 0.0000 0.0000 -19.4988 0.0000 43.1737
#
#
#
# Elastic Compliance Matrix: (Units=1/GPa)
#
#
# Indices 1 2 3 4 5 6 
#
# 1 0.010030 -0.004138 -0.003245 0.000000 0.002798 0.000000
# 2 -0.004138 0.009510 -0.000347 0.000000 0.001431 0.000000
# 3 -0.003245 -0.000347 0.009186 0.000000 -0.000891 0.000000
# 4 0.000000 0.000000 0.000000 0.107144 0.000000 0.048390
# 5 0.002798 0.001431 -0.000891 0.000000 0.025595 0.000000
# 6 0.000000 0.000000 0.000000 0.048390 0.000000 0.045017
#
#
# Mechanical properties :
#
#
# Convention : Reuss Voigt Hill
#
# Bulk Modulus (GPa) = 75.37844 80.90381 78.14113
# Shear Modulus (GPa) = 22.08839 38.33836 30.21337
#
# Velocity S-wave (km/s) = 3.06401 4.03669 3.58350
# Velocity P-wave (km/s) = 6.67498 7.49084 7.09465
#
# Compressibility (1/GPa) = 0.01326639
#
# Stress axis : x y z
#
# Youngs Moduli (GPa) = 99.69817 105.15649 108.86373
#
# Poissons Ratio (x) = 0.43510 0.35331
# Poissons Ratio (y) = 0.41252 0.03773
# Poissons Ratio (z) = 0.32356 0.03644
#
# Static dielectric constant tensor:
#      x y z
#    x 4.923060 0.000000 -0.243320 
#    y 0.000000 4.639010 0.000000 
#    z -0.243320 0.000000 3.680650 
# 
# 
# High freq. dielectric constant tensor:
#      x y z
#    x 1.940170 0.000000 -0.011010 
#    y 0.000000 1.931520 0.000000 
#    z -0.011010 0.000000 1.932510 
# 
# From -- ./inp_files/2113.got.cif
#   From: 2010.03.12/outbox.cif.g09.slc.cpg/sg5_2_cif.got.tgz:2113.got - 2010.03.31 09:47:26.
