data_PCOD8051733
_publ_section_title
;
Structure prediction by ZEFSAII (Michael W. Deem and Ramdas Pophale) SiO2 
 PCOD8051733
Probable space group: C 2
;
_chemical_formula_sum "Si O2"
_cell_formula_units_Z 28
_cell_length_a 24.794634
_cell_length_b 6.475853
_cell_length_c 9.173419
_cell_angle_alpha 90.000000
_cell_angle_beta 115.283415
_cell_angle_gamma 90.000000
_cell_volume 1331.844135
_symmetry_space_group_name_H-M "C 2"
_symmetry_group_IT_number 5
_symmetry_cell_setting 'monoclinic'
loop_
_space_group_symop_operation_xyz
x,y,z
-x,y,-z
1/2+x,1/2+y,z
1/2-x,1/2+y,-z
loop_
_atom_site_type_symbol
_atom_site_label
_atom_site_fract_x
_atom_site_fract_y
_atom_site_fract_z
Si Si1 0.500000 0.002330 0.000000
Si Si2 0.890150 0.315650 0.343385
Si Si3 0.180893 0.572240 0.537500
Si Si4 0.311673 0.728907 0.683489
Si Si5 0.387035 0.472555 0.555696
Si Si6 0.093803 0.207672 0.967876
Si Si7 0.491985 0.347187 0.215830
Si Si8 0.500000 0.087335 0.500000
O O1 0.514644 0.154485 0.148278
O O2 0.444851 0.857512 0.975979
O O3 0.829737 0.420115 0.336869
O O4 0.889980 0.081494 0.401626
O O5 0.893560 0.314046 0.173028
O O6 0.945827 0.436215 0.480011
O O7 0.242445 0.690352 0.632683
O O8 0.179568 0.453995 0.380030
O O9 0.126244 0.732321 0.480863
O O10 0.336003 0.561034 0.599601
O O11 0.343611 0.694849 0.875804
O O12 0.451837 0.502032 0.705243
O O13 0.062761 0.982004 0.912996
O O14 0.475114 0.243035 0.348901
#
# Coordination Sequence:
#
# PCOD8051733 Si02
#       8
#     2   4   4   4   4   4   4   2
#     4  12  24  42  64 100 138 168 222 274 342 408
#     4  11  25  43  64 100 139 174 225 273 337 399
#     4  11  23  46  70 100 125 185 234 272 332 404
#     4  11  24  44  71  95 133 172 231 284 331 396
#     4  11  22  42  72  96 130 179 226 277 323 413
#     4  12  26  44  63 103 141 172 218 290 340 395
#     4  12  24  41  69 100 134 178 221 270 349 397
#     4  12  22  44  66  96 138 180 218 272 330 420
#
# _framework density 21.023482000000001
#
# number of rings (size 3 to 8) (size 9 to 14) (size 15 to 20)
#    0.000    0.571    4.286    4.714    2.000    0.000 
#    2.571    0.000    0.000    0.000    0.000    0.000 
#    0.000    0.000    0.000    0.000    0.000    0.000 
#
# Total GULP energy -173574.896585 kJ/mol
# GULP energy per Si atom -12398.206899 kJ/mol
# Density = 2.097563 g / cm^3
# Si number density = 21.023482 Si / 1000 Ang^3
#
#
#
# Elastic Constant Matrix: (Units=GPa)
#
#
# Indices 1 2 3 4 5 6 
#
# 1 81.7420 38.7580 36.5183 0.0000 -0.1485 0.0000
# 2 38.7580 125.0249 51.7250 0.0000 -2.2368 0.0000
# 3 36.5183 51.7250 120.5554 0.0000 1.5325 0.0000
# 4 0.0000 0.0000 0.0000 33.4810 0.0000 -2.6010
# 5 -0.1485 -2.2368 1.5325 0.0000 31.1538 0.0000
# 6 0.0000 0.0000 0.0000 -2.6010 0.0000 40.5959
#
#
#
# Elastic Compliance Matrix: (Units=1/GPa)
#
#
# Indices 1 2 3 4 5 6 
#
# 1 0.015268 -0.003429 -0.003154 0.000000 -0.000018 0.000000
# 2 -0.003429 0.010520 -0.003487 0.000000 0.000911 0.000000
# 3 -0.003154 -0.003487 0.010756 0.000000 -0.000795 0.000000
# 4 0.000000 0.000000 0.000000 0.030017 0.000000 0.001923
# 5 -0.000018 0.000911 -0.000795 0.000000 0.032203 0.000000
# 6 0.000000 0.000000 0.000000 0.001923 0.000000 0.024756
#
#
# Mechanical properties :
#
#
# Convention : Reuss Voigt Hill
#
# Bulk Modulus (GPa) = 60.95149 64.59166 62.77157
# Shear Modulus (GPa) = 33.52821 34.40088 33.96454
#
# Velocity S-wave (km/s) = 3.99782 4.04952 4.02375
# Velocity P-wave (km/s) = 7.09684 7.25638 7.17706
#
# Compressibility (1/GPa) = 0.01640649
#
# Stress axis : x y z
#
# Youngs Moduli (GPa) = 65.49542 95.05593 92.96875
#
# Poissons Ratio (x) = 0.32593 0.29319
# Poissons Ratio (y) = 0.22457 0.32415
# Poissons Ratio (z) = 0.20655 0.33143
#
# Static dielectric constant tensor:
#      x y z
#    x 3.722580 0.000000 -0.074120 
#    y 0.000000 3.926990 0.000000 
#    z -0.074120 0.000000 3.562320 
# 
# 
# High freq. dielectric constant tensor:
#      x y z
#    x 1.827750 0.000000 -0.012920 
#    y 0.000000 1.839530 0.000000 
#    z -0.012920 0.000000 1.809140 
# 
# From -- ./inp_files/32213.got.cif
#   From: 2010.03.12/outbox.cif.g09.slc.cpg/sg5_17_cif.got.tgz:32213.got - 2010.03.31 09:47:26.
