data_PCOD8051007
_publ_section_title
;
Structure prediction by ZEFSAII (Michael W. Deem and Ramdas Pophale) SiO2 
 PCOD8051007
Probable space group: C 2
;
_chemical_formula_sum "Si O2"
_cell_formula_units_Z 28
_cell_length_a 12.204937
_cell_length_b 12.800896
_cell_length_c 9.098793
_cell_angle_alpha 90.000000
_cell_angle_beta 104.389538
_cell_angle_gamma 90.000000
_cell_volume 1376.946174
_symmetry_space_group_name_H-M "C 2"
_symmetry_group_IT_number 5
_symmetry_cell_setting 'monoclinic'
loop_
_space_group_symop_operation_xyz
x,y,z
-x,y,-z
1/2+x,1/2+y,z
1/2-x,1/2+y,-z
loop_
_atom_site_type_symbol
_atom_site_label
_atom_site_fract_x
_atom_site_fract_y
_atom_site_fract_z
Si Si1 0.543645 0.376230 0.357565
Si Si2 0.600733 0.795463 0.925164
Si Si3 0.801994 0.052638 0.703163
Si Si4 0.254653 0.771993 0.543715
Si Si5 0.394177 0.894704 0.384000
Si Si6 0.886586 0.062237 0.037570
Si Si7 0.307098 0.368905 0.178842
O O1 0.500000 0.414171 0.500000
O O2 0.585943 0.484588 0.297309
O O3 0.639046 0.286295 0.409401
O O4 0.437541 0.325566 0.230368
O O5 0.582111 0.862902 0.774451
O O6 0.500000 0.830799 0.000000
O O7 0.585645 0.673670 0.878814
O O8 0.727278 0.814446 0.031116
O O9 0.781490 0.155716 0.602261
O O10 0.800881 0.083678 0.873909
O O11 0.698244 0.981509 0.632287
O O12 0.358023 0.795802 0.470281
O O13 0.250520 0.852786 0.680812
O O14 0.500000 0.946126 0.500000
O O15 0.000000 0.013670 0.000000
O O16 0.824717 0.990073 0.137899
#
# Coordination Sequence:
#
# PCOD8051007 Si02
#       7
#     4   4   4   4   4   4   4
#     4   9  21  37  62  95 121 165 201 263 308 358
#     4  11  24  41  63  93 124 167 209 256 315 367
#     4  11  21  41  61  93 125 165 208 251 315 370
#     4  10  23  41  63  92 128 161 206 256 316 366
#     4  11  25  40  61  92 127 164 204 258 309 375
#     4  11  22  38  68  94 120 161 211 263 305 370
#     4  11  20  39  65  90 125 159 212 255 305 372
#
# _framework density 20.334854
#
# number of rings (size 3 to 8) (size 9 to 14) (size 15 to 20)
#    0.000    1.429    4.286    0.857    2.000    5.714 
#    0.000    0.000    0.000    5.143    0.000    0.000 
#    0.000    0.000    0.000    0.000    0.000    0.000 
#
# Total GULP energy -173469.486389 kJ/mol
# GULP energy per Si atom -12390.677599 kJ/mol
# Density = 2.028857 g / cm^3
# Si number density = 20.334854 Si / 1000 Ang^3
#
#
#
# Elastic Constant Matrix: (Units=GPa)
#
#
# Indices 1 2 3 4 5 6 
#
# 1 83.3877 27.1472 30.6464 0.0000 -2.9798 0.0000
# 2 27.1472 78.8393 24.0141 0.0000 -10.6544 0.0000
# 3 30.6464 24.0141 86.7345 0.0000 3.8983 0.0000
# 4 0.0000 0.0000 0.0000 32.4877 0.0000 3.6356
# 5 -2.9798 -10.6544 3.8983 0.0000 37.1123 0.0000
# 6 0.0000 0.0000 0.0000 3.6356 0.0000 -1.5417
#
#
#
# Elastic Compliance Matrix: (Units=1/GPa)
#
#
# Indices 1 2 3 4 5 6 
#
# 1 0.014774 -0.003729 -0.004213 0.000000 0.000558 0.000000
# 2 -0.003729 0.015547 -0.003189 0.000000 0.004499 0.000000
# 3 -0.004213 -0.003189 0.014024 0.000000 -0.002727 0.000000
# 4 0.000000 0.000000 0.000000 0.024354 0.000000 0.057432
# 5 0.000558 0.004499 -0.002727 0.000000 0.028568 0.000000
# 6 0.000000 0.000000 0.000000 0.057432 0.000000 -0.513208
#
#
# Mechanical properties :
#
#
# Convention : Reuss Voigt Hill
#
# Bulk Modulus (GPa) = 45.28295 45.84188 45.56241
# Shear Modulus (GPa) = -12.94272 24.75525 5.90626
#
# Velocity S-wave (km/s) = -2.52559 3.49288 1.70611
# Velocity P-wave (km/s) = 3.71647 6.23373 5.13184
#
# Compressibility (1/GPa) = 0.02208337
#
# Stress axis : x y z
#
# Youngs Moduli (GPa) = 67.68485 64.31943 71.30810
#
# Poissons Ratio (x) = 0.23982 0.30043
# Poissons Ratio (y) = 0.25237 0.22743
# Poissons Ratio (z) = 0.28516 0.20514
#
# Static dielectric constant tensor:
#      x y z
#    x 4.284480 0.000000 0.153950 
#    y 0.000000 3.526610 0.000000 
#    z 0.153950 0.000000 3.958270 
# 
# 
# High freq. dielectric constant tensor:
#      x y z
#    x 1.801520 0.000000 0.016210 
#    y 0.000000 1.767780 0.000000 
#    z 0.016210 0.000000 1.808460 
# 
# From -- ./inp_files/20130.got.cif
#   From: 2010.03.12/outbox.cif.g09.slc.cpg/sg5_11_cif.got.tgz:20130.got - 2010.03.31 09:47:26.
