data_PCOD8051399
_publ_section_title
;
Structure prediction by ZEFSAII (Michael W. Deem and Ramdas Pophale) SiO2 
 PCOD8051399
Probable space group: C 2
;
_chemical_formula_sum "Si O2"
_cell_formula_units_Z 26
_cell_length_a 9.078140
_cell_length_b 13.848004
_cell_length_c 14.533754
_cell_angle_alpha 90.000000
_cell_angle_beta 139.498950
_cell_angle_gamma 90.000000
_cell_volume 1186.630743
_symmetry_space_group_name_H-M "C 2"
_symmetry_group_IT_number 5
_symmetry_cell_setting 'monoclinic'
loop_
_space_group_symop_operation_xyz
x,y,z
-x,y,-z
1/2+x,1/2+y,z
1/2-x,1/2+y,-z
loop_
_atom_site_type_symbol
_atom_site_label
_atom_site_fract_x
_atom_site_fract_y
_atom_site_fract_z
Si Si1 0.578772 0.808100 0.135714
Si Si2 0.650282 0.472083 0.283854
Si Si3 0.711736 0.017467 0.168487
Si Si4 0.416431 0.152003 0.359804
Si Si5 0.161028 0.678932 0.288642
Si Si6 0.000000 0.326188 0.500000
Si Si7 0.408089 0.318250 0.052782
O O1 0.709386 0.723394 0.246665
O O2 0.730629 0.903798 0.198690
O O3 0.500000 0.769483 0.000000
O O4 0.356979 0.838348 0.087974
O O5 0.459406 0.538021 0.242402
O O6 0.831690 0.541602 0.320913
O O7 0.531690 0.415064 0.144461
O O8 0.786127 0.398734 0.419569
O O9 0.695287 0.077166 0.254645
O O10 0.500000 0.040554 0.000000
O O11 0.500000 0.181445 0.500000
O O12 0.611679 0.162472 0.374061
O O13 0.381827 0.748720 0.373661
O O14 0.941708 0.732068 0.142278
O O15 0.500000 0.280915 0.000000
#
# Coordination Sequence:
#
# PCOD8051399 Si02
#       7
#     4   4   4   4   4   2   4
#     4  11  22  47  71 101 144 184 238 292 357 415
#     4  11  24  45  72  99 142 185 239 290 357 421
#     4  11  24  46  73 106 141 181 233 304 352 422
#     4  12  28  46  70 103 143 193 239 297 353 428
#     4  11  26  45  69 104 139 186 238 290 358 420
#     4  10  24  48  72  90 146 182 232 290 356 422
#     4  11  24  42  71 107 140 185 231 300 354 420
#
# _framework density 21.910775999999998
#
# number of rings (size 3 to 8) (size 9 to 14) (size 15 to 20)
#    0.000    0.923    5.385    1.385    8.615    1.846 
#    1.385    0.000    0.000    0.000    0.000    0.000 
#    0.000    0.000    0.000    0.000    0.000    0.000 
#
# Total GULP energy -161044.969455 kJ/mol
# GULP energy per Si atom -12388.074573 kJ/mol
# Density = 2.186091 g / cm^3
# Si number density = 21.910776 Si / 1000 Ang^3
#
#
#
# Elastic Constant Matrix: (Units=GPa)
#
#
# Indices 1 2 3 4 5 6 
#
# 1 116.2530 27.1330 52.1129 -0.0004 -10.4774 -0.0001
# 2 27.1330 112.0971 62.8698 -0.0003 -8.6326 -0.0001
# 3 52.1129 62.8698 115.6107 -0.0014 3.2053 -0.0004
# 4 -0.0004 -0.0003 -0.0014 37.3125 -0.0004 -0.1727
# 5 -10.4774 -8.6326 3.2053 -0.0004 38.0176 -0.0001
# 6 -0.0001 -0.0001 -0.0004 -0.1727 -0.0001 28.9166
#
#
#
# Elastic Compliance Matrix: (Units=1/GPa)
#
#
# Indices 1 2 3 4 5 6 
#
# 1 0.011268 0.000671 -0.005547 0.000000 0.003725 0.000000
# 2 0.000671 0.013361 -0.007675 0.000000 0.003866 0.000000
# 3 -0.005547 -0.007675 0.015451 0.000000 -0.004574 0.000000
# 4 0.000000 0.000000 0.000000 0.026801 0.000000 0.000160
# 5 0.003725 0.003866 -0.004574 0.000000 0.028594 0.000000
# 6 0.000000 0.000000 0.000000 0.000160 0.000000 0.034583
#
#
# Mechanical properties :
#
#
# Convention : Reuss Voigt Hill
#
# Bulk Modulus (GPa) = 66.77296 69.79913 68.28604
# Shear Modulus (GPa) = 31.22019 34.30569 32.76294
#
# Velocity S-wave (km/s) = 3.77885 3.96118 3.87109
# Velocity P-wave (km/s) = 7.04136 7.26956 7.15637
#
# Compressibility (1/GPa) = 0.01497612
#
# Stress axis : x y z
#
# Youngs Moduli (GPa) = 88.74904 74.84550 64.72185
#
# Poissons Ratio (x) = -0.05019 0.35901
# Poissons Ratio (y) = -0.05951 0.49675
# Poissons Ratio (z) = 0.49229 0.57445
#
# Static dielectric constant tensor:
#      x y z
#    x 3.963010 0.000000 0.265760 
#    y 0.000000 4.006460 0.000000 
#    z 0.265760 0.000000 4.141260 
# 
# 
# High freq. dielectric constant tensor:
#      x y z
#    x 1.842210 0.000000 0.022800 
#    y 0.000000 1.871590 0.000000 
#    z 0.022800 0.000000 1.866800 
# 
# From -- ./inp_files/50837.got.cif
#   From: 2010.03.12/outbox.cif.g09.slc.cpg/sg5_26_cif.got.tgz:50837.got - 2010.03.31 09:47:26.
