data_PCOD8051285
_publ_section_title
;
Structure prediction by ZEFSAII (Michael W. Deem and Ramdas Pophale) SiO2 
 PCOD8051285
Probable space group: C 2
;
_chemical_formula_sum "Si O2"
_cell_formula_units_Z 24
_cell_length_a 11.630664
_cell_length_b 8.205756
_cell_length_c 24.058362
_cell_angle_alpha 90.000000
_cell_angle_beta 29.702882
_cell_angle_gamma 90.000000
_cell_volume 1137.718687
_symmetry_space_group_name_H-M "C 2"
_symmetry_group_IT_number 5
_symmetry_cell_setting 'monoclinic'
loop_
_space_group_symop_operation_xyz
x,y,z
-x,y,-z
1/2+x,1/2+y,z
1/2-x,1/2+y,-z
loop_
_atom_site_type_symbol
_atom_site_label
_atom_site_fract_x
_atom_site_fract_y
_atom_site_fract_z
Si Si1 0.550968 0.347160 0.746661
Si Si2 0.209968 0.809271 0.967587
Si Si3 0.515135 0.843608 0.363524
Si Si4 0.178390 0.181433 0.968919
Si Si5 0.214015 0.167488 0.174128
Si Si6 0.279374 0.641994 0.556925
O O1 0.770698 0.413840 0.689741
O O2 0.433503 0.213900 0.836912
O O3 0.370308 0.486542 0.805235
O O4 0.627785 0.263135 0.657681
O O5 0.355467 0.777729 0.850308
O O6 0.121579 0.993542 0.004545
O O7 0.369300 0.779123 0.954149
O O8 0.993124 0.682964 0.063477
O O9 0.592314 0.728722 0.280674
O O10 0.351924 0.736094 0.471058
O O11 0.374578 0.990820 0.396354
O O12 0.000000 0.254820 0.000000
O O13 0.500000 0.580006 0.500000
#
# Coordination Sequence:
#
# PCOD8051285 Si02
#       6
#     4   4   4   4   4   4
#     4  11  25  41  68  98 131 177 220 272 333 392
#     4  11  25  42  63  97 135 176 226 270 323 400
#     4  11  23  46  66  98 133 168 221 278 331 401
#     4  12  25  43  66  95 137 180 223 271 328 389
#     4  11  23  43  64  95 136 170 220 274 325 391
#     4  10  24  43  69  96 129 168 221 274 334 396
#
# _framework density 21.094847000000001
#
# number of rings (size 3 to 8) (size 9 to 14) (size 15 to 20)
#    0.000    1.000    3.333    3.000    4.667    1.333 
#    0.000    0.000    0.000    0.000    0.000    0.000 
#    0.000    0.000    0.000    0.000    0.000    0.000 
#
# Total GULP energy -148790.569965 kJ/mol
# GULP energy per Si atom -12399.214164 kJ/mol
# Density = 2.104683 g / cm^3
# Si number density = 21.094847 Si / 1000 Ang^3
#
#
#
# Elastic Constant Matrix: (Units=GPa)
#
#
# Indices 1 2 3 4 5 6 
#
# 1 148.6661 55.2855 30.3969 0.0003 18.4166 -0.0004
# 2 55.2855 96.9956 28.5944 -0.0004 -8.3687 0.0006
# 3 30.3969 28.5944 68.6231 0.0000 23.0147 -0.0015
# 4 0.0003 -0.0004 0.0000 37.4077 -0.0002 -9.4264
# 5 18.4166 -8.3687 23.0147 -0.0002 49.9379 0.0006
# 6 -0.0004 0.0006 -0.0015 -9.4264 0.0006 41.2508
#
#
#
# Elastic Compliance Matrix: (Units=1/GPa)
#
#
# Indices 1 2 3 4 5 6 
#
# 1 0.009422 -0.005611 -0.000420 0.000000 -0.004221 0.000000
# 2 -0.005611 0.016254 -0.006973 0.000000 0.008007 -0.000001
# 3 -0.000420 -0.006973 0.021295 0.000000 -0.010828 0.000001
# 4 0.000000 0.000000 0.000000 0.028366 0.000000 0.006482
# 5 -0.004221 0.008007 -0.010828 0.000000 0.027914 -0.000001
# 6 0.000000 -0.000001 0.000001 0.006482 -0.000001 0.025723
#
#
# Mechanical properties :
#
#
# Convention : Reuss Voigt Hill
#
# Bulk Modulus (GPa) = 47.69945 60.31538 54.00741
# Shear Modulus (GPa) = 30.87018 39.05316 34.96167
#
# Velocity S-wave (km/s) = 3.82959 4.30736 4.07548
# Velocity P-wave (km/s) = 6.49733 7.30700 6.91403
#
# Compressibility (1/GPa) = 0.02096460
#
# Stress axis : x y z
#
# Youngs Moduli (GPa) = 106.13752 61.52283 46.95884
#
# Poissons Ratio (x) = 0.34519 0.01971
# Poissons Ratio (y) = 0.59551 0.32744
# Poissons Ratio (z) = 0.04455 0.42899
#
# Static dielectric constant tensor:
#      x y z
#    x 3.946260 -0.000010 -0.207160 
#    y -0.000010 3.592430 -0.000020 
#    z -0.207160 -0.000020 3.279940 
# 
# 
# High freq. dielectric constant tensor:
#      x y z
#    x 1.851960 0.000000 0.018600 
#    y 0.000000 1.818560 0.000000 
#    z 0.018600 0.000000 1.826500 
# 
# From -- ./inp_files/38275.got.cif
#   From: 2010.03.12/outbox.cif.g09.slc.cpg/sg5_20_cif.got.tgz:38275.got - 2010.03.31 09:47:26.
