data_PCOD8051497
_publ_section_title
;
Structure prediction by ZEFSAII (Michael W. Deem and Ramdas Pophale) SiO2 
 PCOD8051497
Probable space group: C 2
;
_chemical_formula_sum "Si O2"
_cell_formula_units_Z 28
_cell_length_a 31.048754
_cell_length_b 5.174257
_cell_length_c 8.771138
_cell_angle_alpha 90.000000
_cell_angle_beta 124.050649
_cell_angle_gamma 90.000000
_cell_volume 1167.516778
_symmetry_space_group_name_H-M "C 2"
_symmetry_group_IT_number 5
_symmetry_cell_setting 'monoclinic'
loop_
_space_group_symop_operation_xyz
x,y,z
-x,y,-z
1/2+x,1/2+y,z
1/2-x,1/2+y,-z
loop_
_atom_site_type_symbol
_atom_site_label
_atom_site_fract_x
_atom_site_fract_y
_atom_site_fract_z
Si Si1 0.908579 0.339920 0.319467
Si Si2 0.853948 0.645349 0.968752
Si Si3 0.000000 0.649010 0.500000
Si Si4 0.000000 0.284488 0.000000
Si Si5 0.392181 0.014514 0.719554
Si Si6 0.751261 0.083744 0.103294
Si Si7 0.358326 0.527777 0.469979
Si Si8 0.446453 0.504010 0.157305
O O1 0.863105 0.507357 0.152372
O O2 0.951920 0.506279 0.493641
O O3 0.891098 0.088020 0.380171
O O4 0.944333 0.265562 0.246617
O O5 0.886457 0.910620 0.018280
O O6 0.869552 0.493157 0.846142
O O7 0.792063 0.682246 0.860017
O O8 0.978942 0.797553 0.313344
O O9 0.954403 0.468382 0.844579
O O10 0.025227 0.072658 0.940461
O O11 0.379604 0.281977 0.605633
O O12 0.362301 0.787894 0.574573
O O13 0.799351 0.987091 0.301591
O O14 0.766007 0.331025 0.028344
#
# Coordination Sequence:
#
# PCOD8051497 Si02
#       8
#     4   4   2   2   4   4   4   4
#     4  11  24  46  69 110 150 202 258 324 391 465
#     4  11  26  49  77 106 161 208 263 320 410 483
#     4  10  26  40  70 110 148 204 256 334 390 460
#     4  12  28  52  74 110 164 226 262 316 416 496
#     4  12  30  50  76 114 160 209 262 330 395 480
#     4  12  26  50  85 117 152 207 264 334 410 475
#     4  12  29  48  79 118 152 200 276 336 384 479
#     4  11  25  47  73 108 152 211 263 320 400 475
#
# _framework density 23.982526
#
# number of rings (size 3 to 8) (size 9 to 14) (size 15 to 20)
#    0.000    0.571    2.857    3.000    8.000    4.571 
#    0.000    0.000    0.000    0.000    0.000    0.000 
#    0.000    0.000    0.000    0.000    0.000    0.000 
#
# Total GULP energy -173441.704659 kJ/mol
# GULP energy per Si atom -12388.693190 kJ/mol
# Density = 2.392794 g / cm^3
# Si number density = 23.982526 Si / 1000 Ang^3
#
#
#
# Elastic Constant Matrix: (Units=GPa)
#
#
# Indices 1 2 3 4 5 6 
#
# 1 140.6953 39.1047 49.1238 0.0000 11.4667 0.0000
# 2 39.1047 121.8748 35.2880 0.0000 5.0266 0.0000
# 3 49.1238 35.2880 106.2540 0.0000 15.9356 0.0000
# 4 0.0000 0.0000 0.0000 18.8170 0.0000 -12.2619
# 5 11.4667 5.0266 15.9356 0.0000 40.3398 0.0000
# 6 0.0000 0.0000 0.0000 -12.2619 0.0000 40.3243
#
#
#
# Elastic Compliance Matrix: (Units=1/GPa)
#
#
# Indices 1 2 3 4 5 6 
#
# 1 0.008864 -0.001836 -0.003343 0.000000 -0.000970 0.000000
# 2 -0.001836 0.009459 -0.002332 0.000000 0.000265 0.000000
# 3 -0.003343 -0.002332 0.012272 0.000000 -0.003607 0.000000
# 4 0.000000 0.000000 0.000000 0.066276 0.000000 0.020154
# 5 -0.000970 0.000265 -0.003607 0.000000 0.026457 0.000000
# 6 0.000000 0.000000 0.000000 0.020154 0.000000 0.030927
#
#
# Mechanical properties :
#
#
# Convention : Reuss Voigt Hill
#
# Bulk Modulus (GPa) = 64.21360 68.42858 66.32109
# Shear Modulus (GPa) = 28.65838 36.25004 32.45421
#
# Velocity S-wave (km/s) = 3.46058 3.89204 3.68264
# Velocity P-wave (km/s) = 6.54223 6.98512 6.76730
#
# Compressibility (1/GPa) = 0.01557303
#
# Stress axis : x y z
#
# Youngs Moduli (GPa) = 112.81423 105.72344 81.48405
#
# Poissons Ratio (x) = 0.19414 0.27238
# Poissons Ratio (y) = 0.20716 0.19002
# Poissons Ratio (z) = 0.37711 0.24655
#
# Static dielectric constant tensor:
#      x y z
#    x 4.371380 0.000000 -0.058170 
#    y 0.000000 4.480660 0.000000 
#    z -0.058170 0.000000 4.843750 
# 
# 
# High freq. dielectric constant tensor:
#      x y z
#    x 1.956340 0.000000 0.000390 
#    y 0.000000 1.960870 0.000000 
#    z 0.000390 0.000000 1.960690 
# 
# From -- ./inp_files/32345.got.cif
#   From: 2010.03.12/outbox.cif.g09.slc.cpg/sg5_17_cif.got.tgz:32345.got - 2010.03.31 09:47:26.
