data_PCOD8051504
_publ_section_title
;
Structure prediction by ZEFSAII (Michael W. Deem and Ramdas Pophale) SiO2 
 PCOD8051504
Probable space group: C 2
;
_chemical_formula_sum "Si O2"
_cell_formula_units_Z 30
_cell_length_a 18.213025
_cell_length_b 5.448778
_cell_length_c 14.939526
_cell_angle_alpha 90.000000
_cell_angle_beta 112.319692
_cell_angle_gamma 90.000000
_cell_volume 1371.503609
_symmetry_space_group_name_H-M "C 2"
_symmetry_group_IT_number 5
_symmetry_cell_setting 'monoclinic'
loop_
_space_group_symop_operation_xyz
x,y,z
-x,y,-z
1/2+x,1/2+y,z
1/2-x,1/2+y,-z
loop_
_atom_site_type_symbol
_atom_site_label
_atom_site_fract_x
_atom_site_fract_y
_atom_site_fract_z
Si Si1 0.221228 0.609600 0.441490
Si Si2 0.283859 0.492319 0.133525
Si Si3 0.089489 0.045647 0.205462
Si Si4 0.942985 0.550678 0.705302
Si Si5 0.618766 0.097071 0.755108
Si Si6 0.000000 0.213206 0.000000
Si Si7 0.750718 0.321728 0.268802
Si Si8 0.640292 0.854219 0.949284
O O1 0.262875 0.367738 0.500710
O O2 0.126670 0.561298 0.400541
O O3 0.249014 0.638324 0.352039
O O4 0.231463 0.686150 0.166305
O O5 0.352132 0.597974 0.099834
O O6 0.335644 0.354007 0.233886
O O7 0.218374 0.350495 0.046530
O O8 0.062133 0.786161 0.233027
O O9 0.185718 0.040875 0.248303
O O10 0.060469 0.289456 0.244465
O O11 0.053684 0.046026 0.089433
O O12 0.025868 0.578225 0.691166
O O13 0.659878 0.921656 0.701137
O O14 0.637516 0.056539 0.870002
O O15 0.059694 0.378850 0.968852
#
# Coordination Sequence:
#
# PCOD8051504 Si02
#       8
#     4   4   4   4   4   2   4   4
#     4  11  25  49  80 103 133 169 230 291 368 444
#     4  11  23  40  64  93 143 192 240 275 342 403
#     4  11  25  42  65 102 140 189 236 280 336 410
#     4  11  25  47  71 101 139 180 226 291 360 409
#     4  11  23  42  67  95 145 182 235 279 342 405
#     4  12  24  36  62  98 146 180 250 282 334 376
#     4  10  26  42  72  98 134 186 232 287 355 427
#     4  11  23  38  57  97 136 192 234 285 314 397
#
# _framework density 21.873805000000001
#
# number of rings (size 3 to 8) (size 9 to 14) (size 15 to 20)
#    0.000    1.067    2.667    3.200   13.067    1.600 
#    0.000    0.667    0.000    0.000    0.000    0.000 
#    0.000    0.000    0.000    0.000    0.000    0.000 
#
# Total GULP energy -185845.098993 kJ/mol
# GULP energy per Si atom -12389.673266 kJ/mol
# Density = 2.182402 g / cm^3
# Si number density = 21.873805 Si / 1000 Ang^3
#
#
#
# Elastic Constant Matrix: (Units=GPa)
#
#
# Indices 1 2 3 4 5 6 
#
# 1 152.9783 23.0944 26.0146 0.0000 12.9508 0.0000
# 2 23.0944 104.9115 19.8777 0.0000 6.4169 0.0000
# 3 26.0146 19.8777 69.5936 0.0000 19.3814 0.0000
# 4 0.0000 0.0000 0.0000 20.6393 0.0000 4.1444
# 5 12.9508 6.4169 19.3814 0.0000 33.1664 0.0000
# 6 0.0000 0.0000 0.0000 4.1444 0.0000 25.2277
#
#
#
# Elastic Compliance Matrix: (Units=1/GPa)
#
#
# Indices 1 2 3 4 5 6 
#
# 1 0.007160 -0.001117 -0.001957 0.000000 -0.001436 0.000000
# 2 -0.001117 0.010254 -0.002485 0.000000 -0.000096 0.000000
# 3 -0.001957 -0.002485 0.018470 0.000000 -0.009548 0.000000
# 4 0.000000 0.000000 0.000000 0.050104 0.000000 -0.008231
# 5 -0.001436 -0.000096 -0.009548 0.000000 0.036310 0.000000
# 6 0.000000 0.000000 0.000000 -0.008231 0.000000 0.040991
#
#
# Mechanical properties :
#
#
# Convention : Reuss Voigt Hill
#
# Bulk Modulus (GPa) = 40.37938 51.71743 46.04840
# Shear Modulus (GPa) = 27.37283 33.03980 30.20631
#
# Velocity S-wave (km/s) = 3.54135 3.89070 3.72013
# Velocity P-wave (km/s) = 5.93479 6.62406 6.28888
#
# Compressibility (1/GPa) = 0.02476512
#
# Stress axis : x y z
#
# Youngs Moduli (GPa) = 139.66499 97.51881 54.14319
#
# Poissons Ratio (x) = 0.10897 0.10598
# Poissons Ratio (y) = 0.15607 0.13452
# Poissons Ratio (z) = 0.27339 0.24229
#
# Static dielectric constant tensor:
#      x y z
#    x 4.147510 0.000000 0.091240 
#    y 0.000000 3.965880 0.000000 
#    z 0.091240 0.000000 3.846770 
# 
# 
# High freq. dielectric constant tensor:
#      x y z
#    x 1.871060 0.000000 0.003860 
#    y 0.000000 1.864420 0.000000 
#    z 0.003860 0.000000 1.835880 
# 
# From -- ./inp_files/55445.got.cif
#   From: 2010.03.12/outbox.cif.g09.slc.cpg/sg5_28_cif.got.tgz:55445.got - 2010.03.31 09:47:26.
