data_PCOD8051311
_publ_section_title
;
Structure prediction by ZEFSAII (Michael W. Deem and Ramdas Pophale) SiO2 
 PCOD8051311
Probable space group: C 2
;
_chemical_formula_sum "Si O2"
_cell_formula_units_Z 14
_cell_length_a 6.908898
_cell_length_b 7.612444
_cell_length_c 11.688078
_cell_angle_alpha 90.000000
_cell_angle_beta 88.164522
_cell_angle_gamma 90.000000
_cell_volume 614.402689
_symmetry_space_group_name_H-M "C 2"
_symmetry_group_IT_number 5
_symmetry_cell_setting 'monoclinic'
loop_
_space_group_symop_operation_xyz
x,y,z
-x,y,-z
1/2+x,1/2+y,z
1/2-x,1/2+y,-z
loop_
_atom_site_type_symbol
_atom_site_label
_atom_site_fract_x
_atom_site_fract_y
_atom_site_fract_z
Si Si1 0.358601 0.356750 0.597579
Si Si2 0.500000 0.691713 0.500000
Si Si3 0.052503 0.778300 0.147938
Si Si4 0.198387 0.414627 0.036974
O O1 0.500000 0.268473 0.500000
O O2 0.383177 0.568225 0.592259
O O3 0.137807 0.313643 0.572527
O O4 0.412925 0.278913 0.718549
O O5 0.136069 0.599494 0.092544
O O6 0.822383 0.801436 0.127257
O O7 0.169004 0.934816 0.080629
O O8 0.000000 0.316374 0.000000
#
# Coordination Sequence:
#
# PCOD8051311 Si02
#       4
#     4   2   4   4
#     4  10  25  45  71 103 134 182 221 286 331 409
#     4  10  24  44  70 100 138 172 232 264 354 382
#     4  11  25  46  71 101 140 175 233 271 345 397
#     4  11  24  44  68 101 136 183 217 285 327 406
#
# _framework density 22.786359000000001
#
# number of rings (size 3 to 8) (size 9 to 14) (size 15 to 20)
#    0.857    0.571    2.857    1.714    6.000    4.571 
#    0.000    0.000    0.000    0.000    0.000    0.000 
#    0.000    0.000    0.000    0.000    0.000    0.000 
#
# Total GULP energy -86716.954078 kJ/mol
# GULP energy per Si atom -12388.136297 kJ/mol
# Density = 2.273450 g / cm^3
# Si number density = 22.786359 Si / 1000 Ang^3
#
#
#
# Elastic Constant Matrix: (Units=GPa)
#
#
# Indices 1 2 3 4 5 6 
#
# 1 180.3604 64.4847 88.4136 0.0000 50.3742 0.0000
# 2 64.4847 84.2256 30.6291 0.0000 6.1553 0.0000
# 3 88.4136 30.6291 207.1087 0.0000 25.7933 0.0000
# 4 0.0000 0.0000 0.0000 18.6807 0.0000 7.7992
# 5 50.3742 6.1553 25.7933 0.0000 43.8270 0.0000
# 6 0.0000 0.0000 0.0000 7.7992 0.0000 44.1736
#
#
#
# Elastic Compliance Matrix: (Units=1/GPa)
#
#
# Indices 1 2 3 4 5 6 
#
# 1 0.013492 -0.008334 -0.002959 0.000000 -0.012596 0.000000
# 2 -0.008334 0.017716 0.000059 0.000000 0.007056 0.000000
# 3 -0.002959 0.000059 0.006108 0.000000 -0.000202 0.000000
# 4 0.000000 0.000000 0.000000 0.057791 0.000000 -0.010203
# 5 -0.012596 0.007056 -0.000202 0.000000 0.036423 0.000000
# 6 0.000000 0.000000 0.000000 -0.010203 0.000000 0.024439
#
#
# Mechanical properties :
#
#
# Convention : Reuss Voigt Hill
#
# Bulk Modulus (GPa) = 67.34140 93.19439 80.26789
# Shear Modulus (GPa) = 27.26474 40.54743 33.90608
#
# Velocity S-wave (km/s) = 3.46285 4.22294 3.86164
# Velocity P-wave (km/s) = 6.75322 8.04771 7.42872
#
# Compressibility (1/GPa) = 0.01484971
#
# Stress axis : x y z
#
# Youngs Moduli (GPa) = 74.11544 56.44553 163.72204
#
# Poissons Ratio (x) = 0.47039 0.48440
# Poissons Ratio (y) = 0.61765 -0.00963
# Poissons Ratio (z) = 0.21928 -0.00332
#
# Static dielectric constant tensor:
#      x y z
#    x 4.485600 0.000000 0.221910 
#    y 0.000000 3.829700 0.000000 
#    z 0.221910 0.000000 4.213450 
# 
# 
# High freq. dielectric constant tensor:
#      x y z
#    x 1.913630 0.000000 0.020010 
#    y 0.000000 1.881940 0.000000 
#    z 0.020010 0.000000 1.892330 
# 
# From -- ./inp_files/32764.got.cif
#   From: 2010.03.12/outbox.cif.g09.slc.cpg/sg5_17_cif.got.tgz:32764.got - 2010.03.31 09:47:26.
