data_PCOD8051086
_publ_section_title
;
Structure prediction by ZEFSAII (Michael W. Deem and Ramdas Pophale) SiO2 
 PCOD8051086
Probable space group: C 2
;
_chemical_formula_sum "Si O2"
_cell_formula_units_Z 32
_cell_length_a 10.451649
_cell_length_b 9.213781
_cell_length_c 24.926279
_cell_angle_alpha 90.000000
_cell_angle_beta 33.923916
_cell_angle_gamma 90.000000
_cell_volume 1339.632193
_symmetry_space_group_name_H-M "C 2"
_symmetry_group_IT_number 5
_symmetry_cell_setting 'monoclinic'
loop_
_space_group_symop_operation_xyz
x,y,z
-x,y,-z
1/2+x,1/2+y,z
1/2-x,1/2+y,-z
loop_
_atom_site_type_symbol
_atom_site_label
_atom_site_fract_x
_atom_site_fract_y
_atom_site_fract_z
Si Si1 0.997697 0.704510 0.437283
Si Si2 0.168108 0.406097 0.485734
Si Si3 0.990894 0.242023 0.768609
Si Si4 0.815957 0.213812 0.161531
Si Si5 0.869291 0.906190 0.161607
Si Si6 0.975747 0.641028 0.834943
Si Si7 0.789582 0.374818 0.947696
Si Si8 0.902982 0.994280 0.722379
O O1 0.971071 0.531933 0.433895
O O2 0.784340 0.790133 0.484460
O O3 0.000000 0.737705 0.500000
O O4 0.233873 0.757599 0.327349
O O5 0.350475 0.504705 0.390063
O O6 0.000000 0.329310 0.500000
O O7 0.889055 0.356280 0.760619
O O8 0.881020 0.285149 0.864006
O O9 0.905433 0.083995 0.777582
O O10 0.687192 0.129374 0.159218
O O11 0.646665 0.324724 0.249790
O O12 0.048417 0.299660 0.062597
O O13 0.879556 0.073953 0.177256
O O14 0.987363 0.810683 0.166694
O O15 0.021618 0.868716 0.054636
O O16 0.221514 0.561277 0.742732
O O17 0.849121 0.546548 0.925056
#
# Coordination Sequence:
#
# PCOD8051086 Si02
#       8
#     4   4   4   4   4   4   4   4
#     4  11  24  48  73 105 144 186 236 294 360 435
#     4  11  24  48  72 105 147 185 230 302 360 429
#     4  11  22  46  72  98 143 189 228 292 356 413
#     4  11  24  42  69 102 134 184 240 291 351 420
#     4  11  24  41  69  99 139 190 235 291 352 408
#     4  10  23  43  65  98 142 183 234 296 343 419
#     4  11  23  42  67 101 143 186 238 289 347 417
#     4  10  23  46  69 101 143 183 234 295 354 423
#
# _framework density 23.887153999999999
#
# number of rings (size 3 to 8) (size 9 to 14) (size 15 to 20)
#    0.000    1.250    3.750    2.625    1.750    3.000 
#    4.500    0.000    2.750    0.000    0.000    0.000 
#    0.000    0.000    0.000    0.000    0.000    0.000 
#
# Total GULP energy -198239.639328 kJ/mol
# GULP energy per Si atom -12389.977458 kJ/mol
# Density = 2.383279 g / cm^3
# Si number density = 23.887154 Si / 1000 Ang^3
#
#
#
# Elastic Constant Matrix: (Units=GPa)
#
#
# Indices 1 2 3 4 5 6 
#
# 1 116.8084 45.7277 17.7390 0.0000 -29.2365 0.0000
# 2 45.7277 159.7977 14.2782 -0.0002 -10.5278 0.0000
# 3 17.7390 14.2782 78.1792 -0.0006 -19.4709 -0.0002
# 4 0.0000 -0.0002 -0.0006 24.8388 0.0001 -7.0493
# 5 -29.2365 -10.5278 -19.4709 0.0001 37.1618 -0.0001
# 6 0.0000 0.0000 -0.0002 -7.0493 -0.0001 33.8140
#
#
#
# Elastic Compliance Matrix: (Units=1/GPa)
#
#
# Indices 1 2 3 4 5 6 
#
# 1 0.011784 -0.002811 -0.000057 0.000000 0.008444 0.000000
# 2 -0.002811 0.007094 -0.000814 0.000000 -0.000628 0.000000
# 3 -0.000057 -0.000814 0.014818 0.000000 0.007488 0.000000
# 4 0.000000 0.000000 0.000000 0.042791 0.000000 0.008921
# 5 0.008444 -0.000628 0.007488 0.000000 0.037298 0.000000
# 6 0.000000 0.000000 0.000000 0.008921 0.000000 0.031433
#
#
# Mechanical properties :
#
#
# Convention : Reuss Voigt Hill
#
# Bulk Modulus (GPa) = 37.97862 56.69725 47.33793
# Shear Modulus (GPa) = 30.98685 37.63227 34.30956
#
# Velocity S-wave (km/s) = 3.60560 3.97346 3.79399
# Velocity P-wave (km/s) = 5.76780 6.69613 6.24923
#
# Compressibility (1/GPa) = 0.02633061
#
# Stress axis : x y z
#
# Youngs Moduli (GPa) = 84.86414 140.97335 67.48654
#
# Poissons Ratio (x) = 0.39621 0.00387
# Poissons Ratio (y) = 0.23851 0.05495
# Poissons Ratio (z) = 0.00486 0.11479
#
# Static dielectric constant tensor:
#      x y z
#    x 4.403340 0.000000 -0.460190 
#    y 0.000000 4.347780 0.000000 
#    z -0.460190 0.000000 4.187240 
# 
# 
# High freq. dielectric constant tensor:
#      x y z
#    x 1.947790 0.000000 -0.035690 
#    y 0.000000 1.960840 0.000000 
#    z -0.035690 0.000000 1.929550 
# 
# From -- ./inp_files/71750.got.cif
#   From: 2010.03.12/outbox.cif.g09.slc.cpg/sg5_36_cif.got.tgz:71750.got - 2010.03.31 09:47:26.
