data_PCOD8051746
_publ_section_title
;
Structure prediction by ZEFSAII (Michael W. Deem and Ramdas Pophale) SiO2 
 PCOD8051746
Probable space group: C 2
;
_chemical_formula_sum "Si O2"
_cell_formula_units_Z 26
_cell_length_a 25.299400
_cell_length_b 9.099462
_cell_length_c 11.015757
_cell_angle_alpha 90.000000
_cell_angle_beta 27.976244
_cell_angle_gamma 90.000000
_cell_volume 1189.626825
_symmetry_space_group_name_H-M "C 2"
_symmetry_group_IT_number 5
_symmetry_cell_setting 'monoclinic'
loop_
_space_group_symop_operation_xyz
x,y,z
-x,y,-z
1/2+x,1/2+y,z
1/2-x,1/2+y,-z
loop_
_atom_site_type_symbol
_atom_site_label
_atom_site_fract_x
_atom_site_fract_y
_atom_site_fract_z
Si Si1 0.000000 0.388891 0.000000
Si Si2 0.530248 0.032435 0.691484
Si Si3 0.706304 0.699506 0.584828
Si Si4 0.268140 0.214636 0.721626
Si Si5 0.023016 0.232380 0.314583
Si Si6 0.398206 0.504836 0.404199
Si Si7 0.428762 0.281675 0.027681
O O1 0.945656 0.473064 0.222322
O O2 0.898885 0.292123 0.152145
O O3 0.640134 0.104903 0.405529
O O4 0.488714 0.905478 0.686721
O O5 0.437960 0.161422 0.900172
O O6 0.764767 0.652834 0.590969
O O7 0.665021 0.562221 0.588147
O O8 0.796672 0.796785 0.325580
O O9 0.315107 0.383222 0.632207
O O10 0.151861 0.190715 0.026785
O O11 0.000000 0.196287 0.500000
O O12 0.929927 0.140172 0.427503
O O13 0.518761 0.435767 0.122032
O O14 0.500000 0.225304 0.000000
#
# Coordination Sequence:
#
# PCOD8051746 Si02
#       7
#     2   4   4   4   4   4   4
#     4  12  22  34  62 108 134 172 210 256 346 410
#     4  11  22  44  62 100 133 167 220 265 336 403
#     4  12  22  37  67 101 146 166 205 266 341 418
#     4  11  25  41  69  95 136 171 211 283 337 397
#     4  12  28  47  67  90 127 183 241 279 318 376
#     4  11  26  42  64 105 133 172 224 263 340 406
#     4  11  23  38  66 105 140 169 207 260 345 418
#
# _framework density 21.855594
#
# number of rings (size 3 to 8) (size 9 to 14) (size 15 to 20)
#    0.000    0.615    6.923    0.923    7.538    1.231 
#    0.000    3.077    0.000    0.000    0.000    0.000 
#    0.000    0.000    0.000    0.000    0.000    0.000 
#
# Total GULP energy -161119.235672 kJ/mol
# GULP energy per Si atom -12393.787359 kJ/mol
# Density = 2.180585 g / cm^3
# Si number density = 21.855594 Si / 1000 Ang^3
#
#
#
# Elastic Constant Matrix: (Units=GPa)
#
#
# Indices 1 2 3 4 5 6 
#
# 1 51.9521 30.7715 34.3043 0.0000 7.1860 0.0000
# 2 30.7715 90.8157 34.4690 0.0000 -3.1933 0.0000
# 3 34.3043 34.4690 141.9212 0.0000 -9.3101 0.0000
# 4 0.0000 0.0000 0.0000 21.2380 0.0000 -8.3977
# 5 7.1860 -3.1933 -9.3101 0.0000 28.8375 0.0000
# 6 0.0000 0.0000 0.0000 -8.3977 0.0000 21.7074
#
#
#
# Elastic Compliance Matrix: (Units=1/GPa)
#
#
# Indices 1 2 3 4 5 6 
#
# 1 0.029219 -0.008066 -0.005762 0.000000 -0.010034 0.000000
# 2 -0.008066 0.014361 -0.001330 0.000000 0.003171 0.000000
# 3 -0.005762 -0.001330 0.009038 0.000000 0.004206 0.000000
# 4 0.000000 0.000000 0.000000 0.055589 0.000000 0.021505
# 5 -0.010034 0.003171 0.004206 0.000000 0.038887 0.000000
# 6 0.000000 0.000000 0.000000 0.021505 0.000000 0.054387
#
#
# Mechanical properties :
#
#
# Convention : Reuss Voigt Hill
#
# Bulk Modulus (GPa) = 44.84093 53.75316 49.29705
# Shear Modulus (GPa) = 20.90045 26.69952 23.79998
#
# Velocity S-wave (km/s) = 3.09576 3.49898 3.30353
# Velocity P-wave (km/s) = 5.77406 6.40093 6.09556
#
# Compressibility (1/GPa) = 0.02230105
#
# Stress axis : x y z
#
# Youngs Moduli (GPa) = 34.22475 69.63411 110.64599
#
# Poissons Ratio (x) = 0.56169 0.63751
# Poissons Ratio (y) = 0.27607 0.14717
# Poissons Ratio (z) = 0.19719 0.09262
#
# Static dielectric constant tensor:
#      x y z
#    x 3.475540 0.000000 -0.150850 
#    y 0.000000 4.052440 0.000000 
#    z -0.150850 0.000000 4.020320 
# 
# 
# High freq. dielectric constant tensor:
#      x y z
#    x 1.807720 0.000000 -0.021460 
#    y 0.000000 1.871850 0.000000 
#    z -0.021460 0.000000 1.870400 
# 
# From -- ./inp_files/47914.got.cif
#   From: 2010.03.12/outbox.cif.g09.slc.cpg/sg5_24_cif.got.tgz:47914.got - 2010.03.31 09:47:26.
