data_PCOD8051581
_publ_section_title
;
Structure prediction by ZEFSAII (Michael W. Deem and Ramdas Pophale) SiO2 
 PCOD8051581
Probable space group: C 2
;
_chemical_formula_sum "Si O2"
_cell_formula_units_Z 24
_cell_length_a 10.553382
_cell_length_b 21.913199
_cell_length_c 10.185996
_cell_angle_alpha 90.000000
_cell_angle_beta 26.949768
_cell_angle_gamma 90.000000
_cell_volume 1067.578033
_symmetry_space_group_name_H-M "C 2"
_symmetry_group_IT_number 5
_symmetry_cell_setting 'monoclinic'
loop_
_space_group_symop_operation_xyz
x,y,z
-x,y,-z
1/2+x,1/2+y,z
1/2-x,1/2+y,-z
loop_
_atom_site_type_symbol
_atom_site_label
_atom_site_fract_x
_atom_site_fract_y
_atom_site_fract_z
Si Si1 0.789477 0.584800 0.904017
Si Si2 0.476856 0.310457 0.801043
Si Si3 0.140134 0.106603 0.511496
Si Si4 0.500000 0.686160 0.000000
Si Si5 0.000000 0.906147 0.000000
Si Si6 0.500000 0.272199 0.500000
Si Si7 0.500000 0.990109 0.500000
Si Si8 0.500790 0.737143 0.348428
O O1 0.704164 0.643613 0.897375
O O2 0.027391 0.598301 0.794165
O O3 0.912179 0.531111 0.703239
O O4 0.519483 0.561882 0.236783
O O5 0.421675 0.316809 0.695359
O O6 0.803298 0.295526 0.511436
O O7 0.391952 0.366324 0.974834
O O8 0.304437 0.251808 0.010059
O O9 0.000000 0.096620 0.500000
O O10 0.088109 0.172441 0.630016
O O11 0.723846 0.730999 0.718386
O O12 0.760952 0.946568 0.287271
O O13 0.500000 0.720969 0.500000
#
# Coordination Sequence:
#
# PCOD8051581 Si02
#       8
#     4   4   4   2   2   2   2   4
#     4  12  23  42  64  97 130 174 224 268 322 390
#     4  12  23  40  64  91 131 167 219 266 327 380
#     4  11  23  37  64  97 146 171 206 253 333 408
#     4  12  23  40  66 102 144 178 203 254 332 412
#     4  12  25  46  68  92 118 172 237 286 326 366
#     4  12  25  38  64 104 144 172 203 260 340 422
#     4  12  27  44  72  90 112 166 237 294 316 364
#     4  11  20  36  59  97 128 177 207 247 308 410
#
# _framework density 22.480792999999998
#
# number of rings (size 3 to 8) (size 9 to 14) (size 15 to 20)
#    0.000    0.333    1.667   10.500    0.000    2.667 
#    0.000    0.000   11.000    0.000    0.000    0.000 
#    0.000    0.000    0.000    0.000    0.000    0.000 
#
# Total GULP energy -148665.675734 kJ/mol
# GULP energy per Si atom -12388.806311 kJ/mol
# Density = 2.242963 g / cm^3
# Si number density = 22.480793 Si / 1000 Ang^3
#
#
#
# Elastic Constant Matrix: (Units=GPa)
#
#
# Indices 1 2 3 4 5 6 
#
# 1 103.6299 32.9378 34.4828 0.0066 7.8884 -0.0230
# 2 32.9378 75.1278 28.5635 0.0061 10.8305 -0.0098
# 3 34.4828 28.5635 121.4237 0.0446 5.3850 0.0775
# 4 0.0066 0.0061 0.0446 43.6559 0.0009 -23.3512
# 5 7.8884 10.8305 5.3850 0.0009 50.7056 -0.0014
# 6 -0.0230 -0.0098 0.0775 -23.3512 -0.0014 -52.6860
#
#
#
# Elastic Compliance Matrix: (Units=1/GPa)
#
#
# Indices 1 2 3 4 5 6 
#
# 1 0.011812 -0.004190 -0.002338 -0.000002 -0.000694 -0.000007
# 2 -0.004190 0.016502 -0.002577 -0.000001 -0.002599 -0.000004
# 3 -0.002338 -0.002577 0.009510 -0.000001 -0.000096 0.000016
# 4 -0.000002 -0.000001 -0.000001 0.018517 0.000000 -0.008207
# 5 -0.000694 -0.002599 -0.000096 0.000000 0.020395 0.000000
# 6 -0.000007 -0.000004 0.000016 -0.008207 0.000000 -0.015343
#
#
# Mechanical properties :
#
#
# Convention : Reuss Voigt Hill
#
# Bulk Modulus (GPa) = 50.98153 54.68327 52.83240
# Shear Modulus (GPa) = 58.04466 21.94826 39.99646
#
# Velocity S-wave (km/s) = 5.08682 3.12799 4.22256
# Velocity P-wave (km/s) = 7.56492 6.11743 6.87935
#
# Compressibility (1/GPa) = 0.01961495
#
# Stress axis : x y z
#
# Youngs Moduli (GPa) = 84.65779 60.59901 105.15214
#
# Poissons Ratio (x) = 0.25389 0.24586
# Poissons Ratio (y) = 0.35469 0.27095
# Poissons Ratio (z) = 0.19794 0.15615
#
# Static dielectric constant tensor:
#      x y z
#    x 4.006590 0.000040 0.000420 
#    y 0.000040 3.761770 0.000000 
#    z 0.000420 0.000000 4.447250 
# 
# 
# High freq. dielectric constant tensor:
#      x y z
#    x 1.893800 0.000000 0.007040 
#    y 0.000000 1.839570 0.000000 
#    z 0.007040 0.000000 1.916280 
# 
# From -- ./inp_files/40773.got.cif
#   From: 2010.03.12/outbox.cif.g09.slc.cpg/sg5_21_cif.got.tgz:40773.got - 2010.03.31 09:47:26.
