data_PCOD8051614
_publ_section_title
;
Structure prediction by ZEFSAII (Michael W. Deem and Ramdas Pophale) SiO2 
 PCOD8051614
Probable space group: C 2
;
_chemical_formula_sum "Si O2"
_cell_formula_units_Z 28
_cell_length_a 9.062726
_cell_length_b 10.421111
_cell_length_c 26.841387
_cell_angle_alpha 90.000000
_cell_angle_beta 30.341919
_cell_angle_gamma 90.000000
_cell_volume 1280.578089
_symmetry_space_group_name_H-M "C 2"
_symmetry_group_IT_number 5
_symmetry_cell_setting 'monoclinic'
loop_
_space_group_symop_operation_xyz
x,y,z
-x,y,-z
1/2+x,1/2+y,z
1/2-x,1/2+y,-z
loop_
_atom_site_type_symbol
_atom_site_label
_atom_site_fract_x
_atom_site_fract_y
_atom_site_fract_z
Si Si1 0.321436 0.453660 0.386089
Si Si2 0.308438 0.930643 0.894591
Si Si3 0.086273 0.583651 0.894734
Si Si4 0.071258 0.718543 0.715291
Si Si5 0.672576 0.947342 0.691529
Si Si6 0.596354 0.653202 0.108779
Si Si7 0.120480 0.219564 0.272463
O O1 0.321642 0.343654 0.344448
O O2 0.530976 0.400205 0.368678
O O3 0.425599 0.591539 0.335429
O O4 0.000000 0.472896 0.500000
O O5 0.420159 0.972138 0.807329
O O6 0.257747 0.779603 0.910541
O O7 0.556666 0.966633 0.863744
O O8 0.000000 0.997302 0.000000
O O9 0.328153 0.552508 0.867704
O O10 0.187353 0.707415 0.833476
O O11 0.763855 0.608410 0.010769
O O12 0.231232 0.587437 0.649563
O O13 0.157118 0.743159 0.747425
O O14 0.734775 0.682584 0.806096
O O15 0.584923 0.844178 0.675260
#
# Coordination Sequence:
#
# PCOD8051614 Si02
#       7
#     4   4   4   4   4   4   4
#     4  11  25  47  70  94 135 180 222 285 351 404
#     4  12  20  39  63  88 136 182 217 278 333 393
#     4  11  21  37  64  91 132 183 221 268 334 398
#     4  11  23  42  67 102 130 174 233 277 345 409
#     4  11  23  43  67  95 135 172 221 286 335 403
#     4  11  22  39  62  96 133 182 227 272 337 400
#     4  11  23  43  68 101 132 177 226 285 343 406
#
# _framework density 21.865126
#
# number of rings (size 3 to 8) (size 9 to 14) (size 15 to 20)
#    0.000    0.857    7.143    0.857    0.000    5.714 
#    0.000    3.571    0.000    0.000    0.000    0.000 
#    0.000    0.000    0.000    0.000    0.000    0.000 
#
# Total GULP energy -173476.766373 kJ/mol
# GULP energy per Si atom -12391.197598 kJ/mol
# Density = 2.181536 g / cm^3
# Si number density = 21.865126 Si / 1000 Ang^3
#
#
#
# Elastic Constant Matrix: (Units=GPa)
#
#
# Indices 1 2 3 4 5 6 
#
# 1 139.5027 52.2110 44.4491 -0.0140 -6.5079 0.0015
# 2 52.2110 95.9667 12.8428 -0.0192 7.3155 -0.0164
# 3 44.4491 12.8428 94.8672 0.0401 -9.0597 0.0113
# 4 -0.0140 -0.0192 0.0401 19.4240 -0.0013 -0.2408
# 5 -6.5079 7.3155 -9.0597 -0.0013 19.9779 -0.0057
# 6 0.0015 -0.0164 0.0113 -0.2408 -0.0057 42.3607
#
#
#
# Elastic Compliance Matrix: (Units=1/GPa)
#
#
# Indices 1 2 3 4 5 6 
#
# 1 0.010665 -0.005569 -0.003885 0.000010 0.003752 -0.000001
# 2 -0.005569 0.013968 0.000059 0.000009 -0.006902 0.000005
# 3 -0.003885 0.000059 0.012784 -0.000029 0.004510 -0.000003
# 4 0.000010 0.000009 -0.000029 0.051486 -0.000010 0.000293
# 5 0.003752 -0.006902 0.004510 -0.000010 0.055850 0.000003
# 6 -0.000001 0.000005 -0.000003 0.000293 0.000003 0.023608
#
#
# Mechanical properties :
#
#
# Convention : Reuss Voigt Hill
#
# Bulk Modulus (GPa) = 53.68156 61.03804 57.35980
# Shear Modulus (GPa) = 25.85831 31.07474 28.46653
#
# Velocity S-wave (km/s) = 3.44267 3.77397 3.61212
# Velocity P-wave (km/s) = 6.35666 6.85323 6.60961
#
# Compressibility (1/GPa) = 0.01862837
#
# Stress axis : x y z
#
# Youngs Moduli (GPa) = 93.76173 71.59147 78.22222
#
# Poissons Ratio (x) = 0.39866 0.30389
# Poissons Ratio (y) = 0.52212 -0.00462
# Poissons Ratio (z) = 0.36427 -0.00422
#
# Static dielectric constant tensor:
#      x y z
#    x 4.016890 0.000020 -0.098290 
#    y 0.000020 4.110770 0.000010 
#    z -0.098290 0.000010 3.695690 
# 
# 
# High freq. dielectric constant tensor:
#      x y z
#    x 1.872230 0.000000 -0.011550 
#    y 0.000000 1.860560 0.000000 
#    z -0.011550 0.000000 1.832600 
# 
# From -- ./inp_files/50264.got.cif
#   From: 2010.03.12/outbox.cif.g09.slc.cpg/sg5_26_cif.got.tgz:50264.got - 2010.03.31 09:47:26.
