data_PCOD8051279
_publ_section_title
;
Structure prediction by ZEFSAII (Michael W. Deem and Ramdas Pophale) SiO2 
 PCOD8051279
Probable space group: C 2
;
_chemical_formula_sum "Si O2"
_cell_formula_units_Z 32
_cell_length_a 29.430227
_cell_length_b 9.452722
_cell_length_c 10.935303
_cell_angle_alpha 90.000000
_cell_angle_beta 147.028554
_cell_angle_gamma 90.000000
_cell_volume 1655.604583
_symmetry_space_group_name_H-M "C 2"
_symmetry_group_IT_number 5
_symmetry_cell_setting 'monoclinic'
loop_
_space_group_symop_operation_xyz
x,y,z
-x,y,-z
1/2+x,1/2+y,z
1/2-x,1/2+y,-z
loop_
_atom_site_type_symbol
_atom_site_label
_atom_site_fract_x
_atom_site_fract_y
_atom_site_fract_z
Si Si1 0.528852 0.329390 0.194445
Si Si2 0.654068 0.146201 0.606968
Si Si3 0.611447 0.314357 0.927282
Si Si4 0.805236 0.302710 0.053152
Si Si5 0.556746 0.620863 0.745817
Si Si6 0.457331 0.652600 0.771386
Si Si7 0.697938 0.828630 0.669330
Si Si8 0.411880 0.059142 0.300282
O O1 0.603775 0.222475 0.387861
O O2 0.443917 0.310190 0.077506
O O3 0.566903 0.487609 0.283659
O O4 0.500000 0.280457 0.000000
O O5 0.588540 0.114367 0.563686
O O6 0.692955 0.999181 0.647316
O O7 0.714466 0.264890 0.801015
O O8 0.590963 0.461972 0.816311
O O9 0.580915 0.189387 0.773048
O O10 0.710414 0.293781 0.177811
O O11 0.863420 0.215321 0.095277
O O12 0.810765 0.272311 0.210871
O O13 0.829826 0.466353 0.086051
O O14 0.500000 0.645435 0.500000
O O15 0.516517 0.671371 0.784753
O O16 0.374580 0.750305 0.572151
O O17 0.500000 0.691119 0.000000
O O18 0.500000 0.971448 0.500000
#
# Coordination Sequence:
#
# PCOD8051279 Si02
#       8
#     4   4   4   4   4   4   4   4
#     4  10  24  45  63  84 121 170 214 253 310 375
#     4  11  23  39  61  89 127 162 199 261 313 367
#     4  11  22  38  62  92 123 158 206 255 314 373
#     4  11  23  36  59  96 132 153 202 260 320 360
#     4  11  21  38  66  92 125 166 206 255 314 373
#     4  10  24  43  66  88 126 171 212 252 314 377
#     4  11  23  39  62  94 128 159 206 260 308 374
#     4  11  22  36  59  93 126 159 199 249 319 374
#
# _framework density 19.328288000000001
#
# number of rings (size 3 to 8) (size 9 to 14) (size 15 to 20)
#    0.000    1.250    5.000    0.750    5.250    0.500 
#    2.250    0.000    0.000    0.000    0.000    0.000 
#    0.000    0.000    0.000    0.000    0.000    0.000 
#
# Total GULP energy -198228.086579 kJ/mol
# GULP energy per Si atom -12389.255411 kJ/mol
# Density = 1.928430 g / cm^3
# Si number density = 19.328288 Si / 1000 Ang^3
#
#
#
# Elastic Constant Matrix: (Units=GPa)
#
#
# Indices 1 2 3 4 5 6 
#
# 1 124.4263 67.7470 97.3666 0.0000 -6.0087 0.0000
# 2 67.7470 114.6055 84.6858 0.0000 -0.8798 0.0000
# 3 97.3666 84.6858 158.8287 0.0000 7.0209 0.0000
# 4 0.0000 0.0000 0.0000 39.1906 0.0000 -2.5866
# 5 -6.0087 -0.8798 7.0209 0.0000 34.4109 0.0000
# 6 0.0000 0.0000 0.0000 -2.5866 0.0000 22.7320
#
#
#
# Elastic Compliance Matrix: (Units=1/GPa)
#
#
# Indices 1 2 3 4 5 6 
#
# 1 0.017067 -0.003579 -0.008761 0.000000 0.004676 0.000000
# 2 -0.003579 0.015280 -0.005997 0.000000 0.000989 0.000000
# 3 -0.008761 -0.005997 0.015075 0.000000 -0.004759 0.000000
# 4 0.000000 0.000000 0.000000 0.025709 0.000000 0.002925
# 5 0.004676 0.000989 -0.004759 0.000000 0.030873 0.000000
# 6 0.000000 0.000000 0.000000 0.002925 0.000000 0.044324
#
#
# Mechanical properties :
#
#
# Convention : Reuss Voigt Hill
#
# Bulk Modulus (GPa) = 93.04091 99.71771 96.37931
# Shear Modulus (GPa) = 26.51321 29.13744 27.82533
#
# Velocity S-wave (km/s) = 3.70771 3.88687 3.79834
# Velocity P-wave (km/s) = 8.15911 8.47628 8.31921
#
# Compressibility (1/GPa) = 0.01074796
#
# Stress axis : x y z
#
# Youngs Moduli (GPa) = 58.59188 65.44399 66.33694
#
# Poissons Ratio (x) = 0.23425 0.58117
# Poissons Ratio (y) = 0.20972 0.39781
# Poissons Ratio (z) = 0.51332 0.39245
#
# Static dielectric constant tensor:
#      x y z
#    x 3.663670 0.000000 0.105450 
#    y 0.000000 3.659070 0.000000 
#    z 0.105450 0.000000 3.589740 
# 
# 
# High freq. dielectric constant tensor:
#      x y z
#    x 1.749130 0.000000 0.015690 
#    y 0.000000 1.759460 0.000000 
#    z 0.015690 0.000000 1.751240 
# 
# From -- ./inp_files/44190.got.cif
#   From: 2010.03.12/outbox.cif.g09.slc.cpg/sg5_23_cif.got.tgz:44190.got - 2010.03.31 09:47:26.
