data_PCOD8051186
_publ_section_title
;
Structure prediction by ZEFSAII (Michael W. Deem and Ramdas Pophale) SiO2 
 PCOD8051186
Probable space group: C 2
;
_chemical_formula_sum "Si O2"
_cell_formula_units_Z 26
_cell_length_a 20.732277
_cell_length_b 8.286684
_cell_length_c 9.456934
_cell_angle_alpha 90.000000
_cell_angle_beta 143.891527
_cell_angle_gamma 90.000000
_cell_volume 957.472373
_symmetry_space_group_name_H-M "C 2"
_symmetry_group_IT_number 5
_symmetry_cell_setting 'monoclinic'
loop_
_space_group_symop_operation_xyz
x,y,z
-x,y,-z
1/2+x,1/2+y,z
1/2-x,1/2+y,-z
loop_
_atom_site_type_symbol
_atom_site_label
_atom_site_fract_x
_atom_site_fract_y
_atom_site_fract_z
Si Si1 0.663875 0.103950 0.022025
Si Si2 0.730572 0.456989 0.054849
Si Si3 0.454553 0.961498 0.565490
Si Si4 0.600126 0.385762 0.278174
Si Si5 0.000000 0.332925 0.000000
Si Si6 0.524869 0.633985 0.781540
Si Si7 0.694141 0.060500 0.398726
O O1 0.717957 0.971872 0.011763
O O2 0.534877 0.054027 0.819306
O O3 0.679212 0.280533 0.983775
O O4 0.713214 0.095734 0.265853
O O5 0.823761 0.497340 0.340452
O O6 0.634885 0.586397 0.896752
O O7 0.500000 0.032435 0.500000
O O8 0.463520 0.766718 0.579182
O O9 0.554649 0.479200 0.335366
O O10 0.662303 0.220543 0.430549
O O11 0.687887 0.492390 0.343588
O O12 0.500000 0.338736 0.000000
O O13 0.096063 0.431679 0.251405
O O14 0.943546 0.215393 0.012881
#
# Coordination Sequence:
#
# PCOD8051186 Si02
#       7
#     4   4   4   4   2   4   4
#     4  11  24  49  75 109 143 195 249 304 375 443
#     4  11  25  47  77 106 150 188 245 313 370 440
#     4  10  23  48  76 107 146 193 245 307 371 438
#     4  12  27  49  73 110 148 200 250 304 369 450
#     4  12  26  46  76 106 148 202 246 302 374 440
#     4  12  25  47  72 110 149 189 250 298 376 442
#     4  12  27  52  76 104 157 197 253 310 371 449
#
# _framework density 27.154831000000001
#
# number of rings (size 3 to 8) (size 9 to 14) (size 15 to 20)
#    0.000    0.615    3.077    4.615    0.000    1.231 
#    5.538   10.000    0.000    0.000    0.000    0.000 
#    0.000    0.000    0.000    0.000    0.000    0.000 
#
# Total GULP energy -161199.866821 kJ/mol
# GULP energy per Si atom -12399.989755 kJ/mol
# Density = 2.709302 g / cm^3
# Si number density = 27.154831 Si / 1000 Ang^3
#
#
#
# Elastic Constant Matrix: (Units=GPa)
#
#
# Indices 1 2 3 4 5 6 
#
# 1 88.2314 30.4373 20.6974 0.0000 42.9075 0.0000
# 2 30.4373 131.7922 38.6825 0.0000 18.2155 0.0000
# 3 20.6974 38.6825 109.6909 0.0000 43.8159 0.0000
# 4 0.0000 0.0000 0.0000 40.7628 0.0000 2.8453
# 5 42.9075 18.2155 43.8159 0.0000 37.6922 0.0000
# 6 0.0000 0.0000 0.0000 2.8453 0.0000 49.0653
#
#
#
# Elastic Compliance Matrix: (Units=1/GPa)
#
#
# Indices 1 2 3 4 5 6 
#
# 1 0.045412 -0.007093 0.024667 0.000000 -0.076941 0.000000
# 2 -0.007093 0.009599 -0.006383 0.000000 0.010856 0.000000
# 3 0.024667 -0.006383 0.031172 0.000000 -0.061232 0.000000
# 4 0.000000 0.000000 0.000000 0.024632 0.000000 -0.001428
# 5 -0.076941 0.010856 -0.061232 0.000000 0.180051 0.000000
# 6 0.000000 0.000000 0.000000 -0.001428 0.000000 0.020464
#
#
# Mechanical properties :
#
#
# Convention : Reuss Voigt Hill
#
# Bulk Modulus (GPa) = 9.21120 56.59431 32.90276
# Shear Modulus (GPa) = 15.37815 41.49722 28.43769
#
# Velocity S-wave (km/s) = 2.38232 3.91342 3.23962
# Velocity P-wave (km/s) = 3.31160 6.42701 5.11239
#
# Compressibility (1/GPa) = 0.10856350
#
# Stress axis : x y z
#
# Youngs Moduli (GPa) = 22.02084 104.17785 32.07999
#
# Poissons Ratio (x) = 0.73898 -0.79132
# Poissons Ratio (y) = 0.15620 0.20477
# Poissons Ratio (z) = -0.54319 0.66498
#
# Static dielectric constant tensor:
#      x y z
#    x 5.171260 0.000000 0.233730 
#    y 0.000000 4.966700 0.000000 
#    z 0.233730 0.000000 4.993810 
# 
# 
# High freq. dielectric constant tensor:
#      x y z
#    x 2.110230 0.000000 0.021090 
#    y 0.000000 2.095270 0.000000 
#    z 0.021090 0.000000 2.087370 
# 
# From -- ./inp_files/47376.got.cif
#   From: 2010.03.12/outbox.cif.g09.slc.cpg/sg5_24_cif.got.tgz:47376.got - 2010.03.31 09:47:26.
