data_PCOD8051180
_publ_section_title
;
Structure prediction by ZEFSAII (Michael W. Deem and Ramdas Pophale) SiO2 
 PCOD8051180
Probable space group: C 2
;
_chemical_formula_sum "Si O2"
_cell_formula_units_Z 14
_cell_length_a 17.027040
_cell_length_b 8.383463
_cell_length_c 7.192048
_cell_angle_alpha 90.000000
_cell_angle_beta 35.158801
_cell_angle_gamma 90.000000
_cell_volume 591.181014
_symmetry_space_group_name_H-M "C 2"
_symmetry_group_IT_number 5
_symmetry_cell_setting 'monoclinic'
loop_
_space_group_symop_operation_xyz
x,y,z
-x,y,-z
1/2+x,1/2+y,z
1/2-x,1/2+y,-z
loop_
_atom_site_type_symbol
_atom_site_label
_atom_site_fract_x
_atom_site_fract_y
_atom_site_fract_z
Si Si1 0.500000 0.273800 0.000000
Si Si2 0.160206 0.938675 0.953470
Si Si3 0.147211 0.296399 0.126796
Si Si4 0.853778 0.467911 0.243062
O O1 0.490091 0.377376 0.824906
O O2 0.367302 0.158318 0.251263
O O3 0.232072 0.820214 0.958633
O O4 0.237320 0.916940 0.608451
O O5 0.150191 0.115629 0.050564
O O6 0.000000 0.337936 0.500000
O O7 0.183638 0.421233 0.894358
O O8 0.000000 0.381648 0.000000
#
# Coordination Sequence:
#
# PCOD8051180 Si02
#       4
#     2   4   4   4
#     4  10  24  42  66 100 134 176 222 276 336 398
#     4  12  26  44  71 103 138 178 229 279 341 407
#     4  12  26  45  71 103 137 181 228 282 339 404
#     4  10  23  47  71  92 140 179 225 278 338 394
#
# _framework density 23.681412000000002
#
# number of rings (size 3 to 8) (size 9 to 14) (size 15 to 20)
#    0.857    0.000    2.857    3.429    2.000    6.857 
#    0.000    0.000    0.000    0.000    0.000    0.000 
#    0.000    0.000    0.000    0.000    0.000    0.000 
#
# Total GULP energy -86718.243517 kJ/mol
# GULP energy per Si atom -12388.320502 kJ/mol
# Density = 2.362751 g / cm^3
# Si number density = 23.681412 Si / 1000 Ang^3
#
#
#
# Elastic Constant Matrix: (Units=GPa)
#
#
# Indices 1 2 3 4 5 6 
#
# 1 209.7637 91.7713 29.3645 0.0000 38.4930 0.0000
# 2 91.7713 159.8263 30.1707 0.0000 21.5104 0.0000
# 3 29.3645 30.1707 116.1026 0.0000 28.6463 0.0000
# 4 0.0000 0.0000 0.0000 16.2923 0.0000 6.3583
# 5 38.4930 21.5104 28.6463 0.0000 33.0739 0.0000
# 6 0.0000 0.0000 0.0000 6.3583 0.0000 55.0415
#
#
#
# Elastic Compliance Matrix: (Units=1/GPa)
#
#
# Indices 1 2 3 4 5 6 
#
# 1 0.007492 -0.003489 0.000767 0.000000 -0.007115 0.000000
# 2 -0.003489 0.008551 -0.001233 0.000000 -0.000433 0.000000
# 3 0.000767 -0.001233 0.011143 0.000000 -0.009743 0.000000
# 4 0.000000 0.000000 0.000000 0.064276 0.000000 -0.007425
# 5 -0.007115 -0.000433 -0.009743 0.000000 0.047236 0.000000
# 6 0.000000 0.000000 0.000000 -0.007425 0.000000 0.019026
#
#
# Mechanical properties :
#
#
# Convention : Reuss Voigt Hill
#
# Bulk Modulus (GPa) = 51.87534 87.58951 69.73242
# Shear Modulus (GPa) = 29.05973 43.17396 36.11684
#
# Velocity S-wave (km/s) = 3.50682 4.27443 3.90951
# Velocity P-wave (km/s) = 6.19274 7.83759 7.06321
#
# Compressibility (1/GPa) = 0.01927698
#
# Stress axis : x y z
#
# Youngs Moduli (GPa) = 133.47645 116.94248 89.74075
#
# Poissons Ratio (x) = 0.40803 -0.06886
# Poissons Ratio (y) = 0.46572 0.11064
# Poissons Ratio (z) = -0.10242 0.14418
#
# Static dielectric constant tensor:
#      x y z
#    x 4.665470 0.000000 0.054990 
#    y 0.000000 4.113190 0.000000 
#    z 0.054990 0.000000 4.051510 
# 
# 
# High freq. dielectric constant tensor:
#      x y z
#    x 1.960260 0.000000 0.006230 
#    y 0.000000 1.946220 0.000000 
#    z 0.006230 0.000000 1.920090 
# 
# From -- ./inp_files/4127.got.cif
#   From: 2010.03.12/outbox.cif.g09.slc.cpg/sg5_3_cif.got.tgz:4127.got - 2010.03.31 09:47:26.
