data_PCOD8051905
_publ_section_title
;
Structure prediction by ZEFSAII (Michael W. Deem and Ramdas Pophale) SiO2 
 PCOD8051905
Probable space group: C 2
;
_chemical_formula_sum "Si O2"
_cell_formula_units_Z 30
_cell_length_a 10.326344
_cell_length_b 9.384535
_cell_length_c 26.919253
_cell_angle_alpha 90.000000
_cell_angle_beta 29.336785
_cell_angle_gamma 90.000000
_cell_volume 1278.107052
_symmetry_space_group_name_H-M "C 2"
_symmetry_group_IT_number 5
_symmetry_cell_setting 'monoclinic'
loop_
_space_group_symop_operation_xyz
x,y,z
-x,y,-z
1/2+x,1/2+y,z
1/2-x,1/2+y,-z
loop_
_atom_site_type_symbol
_atom_site_label
_atom_site_fract_x
_atom_site_fract_y
_atom_site_fract_z
Si Si1 0.495283 0.587200 0.557514
Si Si2 0.085328 0.560468 0.212946
Si Si3 0.285959 0.278636 0.535710
Si Si4 0.409231 0.763577 0.749166
Si Si5 0.143884 0.760509 0.107473
Si Si6 0.698651 0.493002 0.169563
Si Si7 0.500000 0.181804 0.000000
Si Si8 0.510260 0.758999 0.103183
O O1 0.500000 0.644608 0.500000
O O2 0.580680 0.421420 0.530935
O O3 0.709875 0.675753 0.516589
O O4 0.203685 0.619290 0.675604
O O5 0.061186 0.389751 0.220766
O O6 0.161422 0.614706 0.132968
O O7 0.322282 0.617833 0.170578
O O8 0.500000 0.201711 0.500000
O O9 0.036739 0.311718 0.654462
O O10 0.511395 0.609743 0.737148
O O11 0.099041 0.743778 0.847780
O O12 0.082724 0.894881 0.164329
O O13 0.397507 0.775339 0.986180
O O14 0.936833 0.586312 0.068225
O O15 0.817004 0.395538 0.174534
O O16 0.240022 0.268798 0.067914
#
# Coordination Sequence:
#
# PCOD8051905 Si02
#       8
#     4   4   4   4   4   4   2   4
#     4  11  24  51  77 107 148 188 245 307 380 438
#     4  11  23  46  76 104 142 195 236 300 366 428
#     4  11  25  50  75 106 147 185 242 313 370 439
#     4  12  24  44  72 105 141 182 238 299 360 428
#     4  11  23  47  71 100 150 188 237 297 350 423
#     4  11  24  44  66 100 140 183 240 291 351 419
#     4  12  22  44  68 100 146 196 236 296 350 420
#     4  11  25  46  70 105 150 197 243 293 354 428
#
# _framework density 23.472211000000001
#
# number of rings (size 3 to 8) (size 9 to 14) (size 15 to 20)
#    0.000    0.800    6.667    2.000    0.000    2.667 
#    9.600    0.000    0.000    0.000    0.000    0.000 
#    0.000    0.000    0.000    0.000    0.000    0.000 
#
# Total GULP energy -185857.704965 kJ/mol
# GULP energy per Si atom -12390.513664 kJ/mol
# Density = 2.341879 g / cm^3
# Si number density = 23.472211 Si / 1000 Ang^3
#
#
#
# Elastic Constant Matrix: (Units=GPa)
#
#
# Indices 1 2 3 4 5 6 
#
# 1 117.6989 68.1195 30.5655 -0.0019 -12.6700 -0.0003
# 2 68.1195 128.7304 26.7947 -0.0109 3.0431 -0.0048
# 3 30.5655 26.7947 82.0205 -0.0092 -6.8071 -0.0099
# 4 -0.0019 -0.0109 -0.0092 27.4524 0.0107 1.7856
# 5 -12.6700 3.0431 -6.8071 0.0107 27.2265 -0.0032
# 6 -0.0003 -0.0048 -0.0099 1.7856 -0.0032 35.9647
#
#
#
# Elastic Compliance Matrix: (Units=1/GPa)
#
#
# Indices 1 2 3 4 5 6 
#
# 1 0.013879 -0.007017 -0.002327 -0.000005 0.006661 -0.000001
# 2 -0.007017 0.011956 -0.001708 0.000006 -0.005029 0.000000
# 3 -0.002327 -0.001708 0.013830 0.000003 0.002566 0.000004
# 4 -0.000005 0.000006 0.000003 0.036545 -0.000017 -0.001814
# 5 0.006661 -0.005029 0.002566 -0.000017 0.041032 0.000005
# 6 -0.000001 0.000000 0.000004 -0.001814 0.000005 0.027895
#
#
# Mechanical properties :
#
#
# Convention : Reuss Voigt Hill
#
# Bulk Modulus (GPa) = 56.94608 64.37878 60.66243
# Shear Modulus (GPa) = 28.88583 31.66006 30.27294
#
# Velocity S-wave (km/s) = 3.51185 3.67663 3.59518
# Velocity P-wave (km/s) = 6.38419 6.74616 6.56767
#
# Compressibility (1/GPa) = 0.01756047
#
# Stress axis : x y z
#
# Youngs Moduli (GPa) = 72.05151 83.64041 72.30595
#
# Poissons Ratio (x) = 0.58694 0.16824
# Poissons Ratio (y) = 0.50561 0.12350
# Poissons Ratio (z) = 0.16765 0.14286
#
# Static dielectric constant tensor:
#      x y z
#    x 4.216310 0.000020 -0.031520 
#    y 0.000020 4.277760 0.000070 
#    z -0.031520 0.000070 4.311320 
# 
# 
# High freq. dielectric constant tensor:
#      x y z
#    x 1.932750 0.000000 -0.002920 
#    y 0.000000 1.927200 0.000000 
#    z -0.002920 0.000000 1.918110 
# 
# From -- ./inp_files/71703.got.cif
#   From: 2010.03.12/outbox.cif.g09.slc.cpg/sg5_36_cif.got.tgz:71703.got - 2010.03.31 09:47:26.
