data_PCOD8051377
_publ_section_title
;
Structure prediction by ZEFSAII (Michael W. Deem and Ramdas Pophale) SiO2 
 PCOD8051377
Probable space group: C 2
;
_chemical_formula_sum "Si O2"
_cell_formula_units_Z 16
_cell_length_a 8.757436
_cell_length_b 4.589746
_cell_length_c 13.961526
_cell_angle_alpha 90.000000
_cell_angle_beta 86.806142
_cell_angle_gamma 90.000000
_cell_volume 560.303607
_symmetry_space_group_name_H-M "C 2"
_symmetry_group_IT_number 5
_symmetry_cell_setting 'monoclinic'
loop_
_space_group_symop_operation_xyz
x,y,z
-x,y,-z
1/2+x,1/2+y,z
1/2-x,1/2+y,-z
loop_
_atom_site_type_symbol
_atom_site_label
_atom_site_fract_x
_atom_site_fract_y
_atom_site_fract_z
Si Si1 0.587221 0.014820 0.116353
Si Si2 0.323987 0.248893 0.241019
Si Si3 0.722653 0.766689 0.626766
Si Si4 0.000000 0.581084 0.500000
Si Si5 0.000000 0.006231 0.000000
O O1 0.496657 0.175122 0.204532
O O2 0.746079 0.888681 0.149814
O O3 0.627191 0.262058 0.032001
O O4 0.478874 0.738575 0.087716
O O5 0.321138 0.445339 0.336292
O O6 0.239444 0.955765 0.279365
O O7 0.866125 0.780014 0.549795
O O8 0.570175 0.882631 0.580974
#
# Coordination Sequence:
#
# PCOD8051377 Si02
#       5
#     4   4   4   2   2
#     4  11  25  46  75 113 150 200 250 309 375 448
#     4  12  27  48  77 110 152 198 252 310 377 448
#     4  12  29  50  79 112 154 202 254 316 379 450
#     4  12  30  52  78 114 152 202 256 314 382 452
#     4  10  24  46  76 108 152 196 248 306 372 444
#
# _framework density 28.555951
#
# number of rings (size 3 to 8) (size 9 to 14) (size 15 to 20)
#    0.000    0.500    0.000    6.000    0.000   21.000 
#    0.000    0.000    0.000    0.000    0.000    0.000 
#    0.000    0.000    0.000    0.000    0.000    0.000 
#
# Total GULP energy -99108.341227 kJ/mol
# GULP energy per Si atom -12388.542653 kJ/mol
# Density = 2.849096 g / cm^3
# Si number density = 28.555951 Si / 1000 Ang^3
#
#
#
# Elastic Constant Matrix: (Units=GPa)
#
#
# Indices 1 2 3 4 5 6 
#
# 1 87.9629 28.5958 16.7003 0.0000 8.3686 0.0000
# 2 28.5958 142.6894 25.3248 0.0000 -4.0582 0.0000
# 3 16.7003 25.3248 78.1621 0.0000 11.8028 0.0000
# 4 0.0000 0.0000 0.0000 62.2386 0.0000 -7.1777
# 5 8.3686 -4.0582 11.8028 0.0000 21.2930 0.0000
# 6 0.0000 0.0000 0.0000 -7.1777 0.0000 29.7997
#
#
#
# Elastic Compliance Matrix: (Units=1/GPa)
#
#
# Indices 1 2 3 4 5 6 
#
# 1 0.012875 -0.002505 -0.001204 0.000000 -0.004870 0.000000
# 2 -0.002505 0.008104 -0.002698 0.000000 0.004025 0.000000
# 3 -0.001204 -0.002698 0.015204 0.000000 -0.008469 0.000000
# 4 0.000000 0.000000 0.000000 0.016526 0.000000 0.003981
# 5 -0.004870 0.004025 -0.008469 0.000000 0.054339 0.000000
# 6 0.000000 0.000000 0.000000 0.003981 0.000000 0.034516
#
#
# Mechanical properties :
#
#
# Convention : Reuss Voigt Hill
#
# Bulk Modulus (GPa) = 42.79241 50.00624 46.39933
# Shear Modulus (GPa) = 30.83237 38.54584 34.68911
#
# Velocity S-wave (km/s) = 3.28947 3.67800 3.48915
# Velocity P-wave (km/s) = 5.42637 5.96545 5.70228
#
# Compressibility (1/GPa) = 0.02336863
#
# Stress axis : x y z
#
# Youngs Moduli (GPa) = 77.67193 123.40234 65.77154
#
# Poissons Ratio (x) = 0.30913 0.07917
# Poissons Ratio (y) = 0.19457 0.17746
# Poissons Ratio (z) = 0.09350 0.33295
#
# Static dielectric constant tensor:
#      x y z
#    x 4.503920 0.000000 0.393690 
#    y 0.000000 5.714650 0.000000 
#    z 0.393690 0.000000 5.386020 
# 
# 
# High freq. dielectric constant tensor:
#      x y z
#    x 2.126300 0.000000 0.019330 
#    y 0.000000 2.189170 0.000000 
#    z 0.019330 0.000000 2.171550 
# 
# From -- ./inp_files/49691.got.cif
#   From: 2010.03.12/outbox.cif.g09.slc.cpg/sg5_25_cif.got.tgz:49691.got - 2010.03.31 09:47:26.
