data_PCOD8051140
_publ_section_title
;
Structure prediction by ZEFSAII (Michael W. Deem and Ramdas Pophale) SiO2 
 PCOD8051140
Probable space group: C 2
;
_chemical_formula_sum "Si O2"
_cell_formula_units_Z 26
_cell_length_a 13.652725
_cell_length_b 5.372983
_cell_length_c 16.183975
_cell_angle_alpha 90.000000
_cell_angle_beta 67.370973
_cell_angle_gamma 90.000000
_cell_volume 1095.794103
_symmetry_space_group_name_H-M "C 2"
_symmetry_group_IT_number 5
_symmetry_cell_setting 'monoclinic'
loop_
_space_group_symop_operation_xyz
x,y,z
-x,y,-z
1/2+x,1/2+y,z
1/2-x,1/2+y,-z
loop_
_atom_site_type_symbol
_atom_site_label
_atom_site_fract_x
_atom_site_fract_y
_atom_site_fract_z
Si Si1 0.886712 0.623180 0.221599
Si Si2 0.891680 0.537208 0.905812
Si Si3 0.494366 0.650125 0.600144
Si Si4 0.316720 0.324710 0.082816
Si Si5 0.324860 0.622624 0.335398
Si Si6 0.500000 0.681341 0.000000
Si Si7 0.085442 0.651098 0.399626
O O1 0.834246 0.613017 0.146524
O O2 0.858036 0.358831 0.270164
O O3 0.014540 0.661236 0.177905
O O4 0.841200 0.860463 0.284459
O O5 0.802987 0.429009 0.872412
O O6 0.947949 0.332293 0.943277
O O7 0.833038 0.733919 0.983755
O O8 0.500000 0.667947 0.500000
O O9 0.611425 0.629266 0.599716
O O10 0.427058 0.405979 0.649774
O O11 0.437665 0.906115 0.649209
O O12 0.407793 0.523818 0.073978
O O13 0.202153 0.640262 0.400195
O O14 0.000000 0.668594 0.500000
#
# Coordination Sequence:
#
# PCOD8051140 Si02
#       7
#     4   4   4   4   4   2   4
#     4  12  27  46  69 102 154 188 234 293 373 428
#     4  12  25  42  71  98 134 192 246 301 343 417
#     4  10  23  44  74 105 136 179 237 290 344 435
#     4  12  25  42  71  98 134 192 246 301 343 417
#     4  12  27  46  70 104 148 191 224 301 369 422
#     4  12  20  44  68 100 132 172 260 302 342 408
#     4  10  23  44  74 105 136 179 237 290 344 435
#
# _framework density 23.727083
#
# number of rings (size 3 to 8) (size 9 to 14) (size 15 to 20)
#    0.000    0.615    4.615    2.769    0.000    8.615 
#    0.000    3.077    0.000    0.000    0.000    0.000 
#    0.000    0.000    0.000    0.000    0.000    0.000 
#
# Total GULP energy -161180.999967 kJ/mol
# GULP energy per Si atom -12398.538459 kJ/mol
# Density = 2.367308 g / cm^3
# Si number density = 23.727083 Si / 1000 Ang^3
#
#
#
# Elastic Constant Matrix: (Units=GPa)
#
#
# Indices 1 2 3 4 5 6 
#
# 1 189.6926 19.1504 23.2836 0.0000 -14.6458 0.0003
# 2 19.1504 142.8379 0.4684 -0.0006 -3.1860 -0.0004
# 3 23.2836 0.4684 58.6964 -0.0001 -11.1782 0.0001
# 4 0.0000 -0.0006 -0.0001 15.6226 0.0001 2.7444
# 5 -14.6458 -3.1860 -11.1782 0.0001 24.9653 0.0002
# 6 0.0003 -0.0004 0.0001 2.7444 0.0002 38.4512
#
#
#
# Elastic Compliance Matrix: (Units=1/GPa)
#
#
# Indices 1 2 3 4 5 6 
#
# 1 0.005756 -0.000711 -0.001806 0.000000 0.002478 0.000000
# 2 -0.000711 0.007109 0.000348 0.000000 0.000646 0.000000
# 3 -0.001806 0.000348 0.019194 0.000000 0.007579 0.000000
# 4 0.000000 0.000000 0.000000 0.064823 0.000000 -0.004627
# 5 0.002478 0.000646 0.007579 0.000000 0.044985 0.000000
# 6 0.000000 0.000000 0.000000 -0.004627 0.000000 0.026337
#
#
# Mechanical properties :
#
#
# Convention : Reuss Voigt Hill
#
# Bulk Modulus (GPa) = 36.07100 53.00351 44.53725
# Shear Modulus (GPa) = 27.50544 39.02945 33.26744
#
# Velocity S-wave (km/s) = 3.40846 4.06018 3.74851
# Velocity P-wave (km/s) = 5.54307 6.66088 6.12752
#
# Compressibility (1/GPa) = 0.02772311
#
# Stress axis : x y z
#
# Youngs Moduli (GPa) = 173.72013 140.65711 52.10032
#
# Poissons Ratio (x) = 0.09995 0.09409
# Poissons Ratio (y) = 0.12344 -0.01814
# Poissons Ratio (z) = 0.31372 -0.04898
#
# Static dielectric constant tensor:
#      x y z
#    x 4.474120 0.000000 -0.118460 
#    y 0.000000 6.059930 0.000000 
#    z -0.118460 0.000000 4.009010 
# 
# 
# High freq. dielectric constant tensor:
#      x y z
#    x 1.956640 0.000000 -0.002280 
#    y 0.000000 1.963140 0.000000 
#    z -0.002280 0.000000 1.909600 
# 
# From -- ./inp_files/60961.got.cif
#   From: 2010.03.12/outbox.cif.g09.slc.cpg/sg5_31_cif.got.tgz:60961.got - 2010.03.31 09:47:26.
