data_PCOD8051564
_publ_section_title
;
Structure prediction by ZEFSAII (Michael W. Deem and Ramdas Pophale) SiO2 
 PCOD8051564
Probable space group: C 2
;
_chemical_formula_sum "Si O2"
_cell_formula_units_Z 32
_cell_length_a 14.845055
_cell_length_b 13.895276
_cell_length_c 9.903671
_cell_angle_alpha 90.000000
_cell_angle_beta 119.431212
_cell_angle_gamma 90.000000
_cell_volume 1779.248270
_symmetry_space_group_name_H-M "C 2"
_symmetry_group_IT_number 5
_symmetry_cell_setting 'monoclinic'
loop_
_space_group_symop_operation_xyz
x,y,z
-x,y,-z
1/2+x,1/2+y,z
1/2-x,1/2+y,-z
loop_
_atom_site_type_symbol
_atom_site_label
_atom_site_fract_x
_atom_site_fract_y
_atom_site_fract_z
Si Si1 0.940901 0.369970 0.322035
Si Si2 0.595176 0.391441 0.982597
Si Si3 0.090424 0.894323 0.675720
Si Si4 0.229549 0.522333 0.833813
Si Si5 0.223561 0.529026 0.149517
Si Si6 0.748380 0.230224 0.790757
Si Si7 0.769179 0.233409 0.114279
Si Si8 0.581999 0.874403 0.169513
O O1 0.861374 0.456594 0.292502
O O2 0.877218 0.273687 0.245710
O O3 0.000000 0.347175 0.500000
O O4 0.026496 0.391301 0.270778
O O5 0.652604 0.483604 0.090458
O O6 0.677300 0.307661 0.050405
O O7 0.500000 0.358974 0.000000
O O8 0.550267 0.407822 0.799062
O O9 0.141399 0.788708 0.700453
O O10 0.000000 0.906451 0.500000
O O11 0.175105 0.977028 0.717127
O O12 0.225209 0.618802 0.737238
O O13 0.205132 0.520307 0.976030
O O14 0.236054 0.642970 0.183850
O O15 0.128648 0.477822 0.156759
O O16 0.832564 0.288038 0.762667
O O17 0.789933 0.212513 0.972830
O O18 0.500000 0.839051 0.000000
#
# Coordination Sequence:
#
# PCOD8051564 Si02
#       8
#     4   4   4   4   4   4   4   4
#     4  11  22  37  55  80 116 144 170 224 282 315
#     4   9  18  34  53  74 102 140 175 207 257 319
#     4   9  18  34  53  75 106 136 167 217 268 305
#     4   9  18  36  55  78 108 138 175 222 267 309
#     4   9  18  34  58  80 102 136 183 224 255 313
#     4   9  18  34  58  80 102 136 183 224 255 313
#     4   9  18  36  55  78 108 138 175 222 267 309
#     4  11  18  35  59  84 102 140 194 217 253 329
#
# _framework density 17.985123000000002
#
# number of rings (size 3 to 8) (size 9 to 14) (size 15 to 20)
#    0.000    2.500    2.500    1.500    0.000    2.000 
#   13.500    1.250    0.000    0.000    0.000    0.000 
#    0.000    0.000    0.000    0.000    0.000    0.000 
#
# Total GULP energy -198214.605073 kJ/mol
# GULP energy per Si atom -12388.412817 kJ/mol
# Density = 1.794419 g / cm^3
# Si number density = 17.985123 Si / 1000 Ang^3
#
#
#
# Elastic Constant Matrix: (Units=GPa)
#
#
# Indices 1 2 3 4 5 6 
#
# 1 71.0182 -0.9446 20.6207 0.0000 -3.6580 0.0000
# 2 -0.9446 74.6082 -4.4370 0.0000 -2.6624 0.0000
# 3 20.6207 -4.4370 72.4569 0.0000 8.7446 0.0000
# 4 0.0000 0.0000 0.0000 11.4877 0.0000 -2.6402
# 5 -3.6580 -2.6624 8.7446 0.0000 18.5063 0.0000
# 6 0.0000 0.0000 0.0000 -2.6402 0.0000 8.4146
#
#
#
# Elastic Compliance Matrix: (Units=1/GPa)
#
#
# Indices 1 2 3 4 5 6 
#
# 1 0.015878 0.000092 -0.005189 0.000000 0.005604 0.000000
# 2 0.000092 0.013500 0.000598 0.000000 0.001678 0.000000
# 3 -0.005189 0.000598 0.016361 0.000000 -0.008671 0.000000
# 4 0.000000 0.000000 0.000000 0.093815 0.000000 0.029436
# 5 0.005604 0.001678 -0.008671 0.000000 0.059482 0.000000
# 6 0.000000 0.000000 0.000000 0.029436 0.000000 0.128078
#
#
# Mechanical properties :
#
#
# Convention : Reuss Voigt Hill
#
# Bulk Modulus (GPa) = 27.21778 27.61794 27.41786
# Shear Modulus (GPa) = 14.35303 21.20466 17.77884
#
# Velocity S-wave (km/s) = 2.82804 3.43740 3.14750
# Velocity P-wave (km/s) = 5.08233 5.58065 5.33731
#
# Compressibility (1/GPa) = 0.03674069
#
# Stress axis : x y z
#
# Youngs Moduli (GPa) = 62.98212 74.07436 61.12024
#
# Poissons Ratio (x) = -0.00684 0.31717
# Poissons Ratio (y) = -0.00582 -0.03654
# Poissons Ratio (z) = 0.32683 -0.04429
#
# Static dielectric constant tensor:
#      x y z
#    x 3.472430 0.000000 0.014920 
#    y 0.000000 3.609840 0.000000 
#    z 0.014920 0.000000 3.102150 
# 
# 
# High freq. dielectric constant tensor:
#      x y z
#    x 1.690350 0.000000 0.013670 
#    y 0.000000 1.700570 0.000000 
#    z 0.013670 0.000000 1.672200 
# 
# From -- ./inp_files/24665.got.cif
#   From: 2010.03.12/outbox.cif.g09.slc.cpg/sg5_13_cif.got.tgz:24665.got - 2010.03.31 09:47:26.
