data_PCOD8051538
_publ_section_title
;
Structure prediction by ZEFSAII (Michael W. Deem and Ramdas Pophale) SiO2 
 PCOD8051538
Probable space group: C 2
;
_chemical_formula_sum "Si O2"
_cell_formula_units_Z 28
_cell_length_a 26.319865
_cell_length_b 5.174255
_cell_length_c 18.498027
_cell_angle_alpha 90.000000
_cell_angle_beta 152.091484
_cell_angle_gamma 90.000000
_cell_volume 1179.124067
_symmetry_space_group_name_H-M "C 2"
_symmetry_group_IT_number 5
_symmetry_cell_setting 'monoclinic'
loop_
_space_group_symop_operation_xyz
x,y,z
-x,y,-z
1/2+x,1/2+y,z
1/2-x,1/2+y,-z
loop_
_atom_site_type_symbol
_atom_site_label
_atom_site_fract_x
_atom_site_fract_y
_atom_site_fract_z
Si Si1 0.579090 0.322750 0.965993
Si Si2 0.522207 0.245739 0.310052
Si Si3 0.202171 0.899576 0.911718
Si Si4 0.000000 0.156766 0.000000
Si Si5 0.500000 0.848657 0.500000
Si Si6 0.890497 0.233587 0.508129
Si Si7 0.308220 0.968256 0.789753
Si Si8 0.284308 0.154388 0.212147
O O1 0.682378 0.473838 0.061906
O O2 0.620579 0.056677 0.052139
O O3 0.494046 0.242469 0.796940
O O4 0.521370 0.486007 0.956362
O O5 0.407282 0.256879 0.203981
O O6 0.589963 0.499193 0.413205
O O7 0.586429 0.996719 0.420297
O O8 0.213457 0.899604 0.839156
O O9 0.292823 0.696411 0.056279
O O10 0.895092 0.333123 0.845969
O O11 0.460390 0.690636 0.521652
O O12 0.398294 0.014427 0.346485
O O13 0.760270 0.210152 0.327992
O O14 0.224397 0.753515 0.716083
#
# Coordination Sequence:
#
# PCOD8051538 Si02
#       8
#     4   4   4   2   2   4   4   4
#     4  11  24  48  78 109 144 196 263 319 378 456
#     4  12  27  44  71 111 157 199 244 314 382 440
#     4  12  24  39  62 102 150 200 245 292 357 441
#     4  10  26  48  88 108 136 194 274 334 390 444
#     4  12  24  44  66 110 154 218 242 290 360 462
#     4  12  28  45  73 109 163 202 249 300 377 461
#     4  11  25  47  79 106 143 200 259 320 376 460
#     4  11  24  39  68 105 152 200 259 295 360 451
#
# _framework density 23.746442999999999
#
# number of rings (size 3 to 8) (size 9 to 14) (size 15 to 20)
#    0.000    0.571    4.286    3.000    8.000    0.571 
#    0.000    0.000    6.286    0.000    0.000    0.000 
#    0.000    0.000    0.000    0.000    0.000    0.000 
#
# Total GULP energy -173544.154468 kJ/mol
# GULP energy per Si atom -12396.011033 kJ/mol
# Density = 2.369239 g / cm^3
# Si number density = 23.746443 Si / 1000 Ang^3
#
#
#
# Elastic Constant Matrix: (Units=GPa)
#
#
# Indices 1 2 3 4 5 6 
#
# 1 108.2761 19.4261 53.1338 0.0005 6.7444 -0.0001
# 2 19.4261 93.5083 41.2036 -0.0030 -4.4472 -0.0011
# 3 53.1338 41.2036 121.9668 -0.0008 -12.6336 -0.0007
# 4 0.0005 -0.0030 -0.0008 35.3499 0.0001 2.9470
# 5 6.7444 -4.4472 -12.6336 0.0001 38.9960 -0.0001
# 6 -0.0001 -0.0011 -0.0007 2.9470 -0.0001 29.6918
#
#
#
# Elastic Compliance Matrix: (Units=1/GPa)
#
#
# Indices 1 2 3 4 5 6 
#
# 1 0.012328 -0.000238 -0.005705 0.000000 -0.004008 0.000000
# 2 -0.000238 0.012569 -0.004129 0.000001 0.000137 0.000000
# 3 -0.005705 -0.004129 0.012554 0.000000 0.004583 0.000000
# 4 0.000000 0.000001 0.000000 0.028525 0.000000 -0.002831
# 5 -0.004008 0.000137 0.004583 0.000000 0.027837 0.000000
# 6 0.000000 0.000000 0.000000 -0.002831 0.000000 0.033960
#
#
# Mechanical properties :
#
#
# Convention : Reuss Voigt Hill
#
# Bulk Modulus (GPa) = 57.77700 61.25314 59.51507
# Shear Modulus (GPa) = 32.53407 34.80672 33.67039
#
# Velocity S-wave (km/s) = 3.70545 3.83269 3.76960
# Velocity P-wave (km/s) = 6.53382 6.74067 6.63805
#
# Compressibility (1/GPa) = 0.01730792
#
# Stress axis : x y z
#
# Youngs Moduli (GPa) = 81.11871 79.55875 79.65698
#
# Poissons Ratio (x) = 0.01891 0.45446
# Poissons Ratio (y) = 0.01928 0.32887
# Poissons Ratio (z) = 0.46280 0.32846
#
# Static dielectric constant tensor:
#      x y z
#    x 4.237640 0.000000 -0.032240 
#    y 0.000000 4.243310 0.000000 
#    z -0.032240 0.000000 4.557130 
# 
# 
# High freq. dielectric constant tensor:
#      x y z
#    x 1.925580 0.000000 -0.001260 
#    y 0.000000 1.948990 0.000000 
#    z -0.001260 0.000000 1.941780 
# 
# From -- ./inp_files/55340.got.cif
#   From: 2010.03.12/outbox.cif.g09.slc.cpg/sg5_28_cif.got.tgz:55340.got - 2010.03.31 09:47:26.
