data_PCOD8051684
_publ_section_title
;
Structure prediction by ZEFSAII (Michael W. Deem and Ramdas Pophale) SiO2 
 PCOD8051684
Probable space group: C 2
;
_chemical_formula_sum "Si O2"
_cell_formula_units_Z 32
_cell_length_a 19.844605
_cell_length_b 13.821157
_cell_length_c 14.472272
_cell_angle_alpha 90.000000
_cell_angle_beta 159.492124
_cell_angle_gamma 90.000000
_cell_volume 1390.620124
_symmetry_space_group_name_H-M "C 2"
_symmetry_group_IT_number 5
_symmetry_cell_setting 'monoclinic'
loop_
_space_group_symop_operation_xyz
x,y,z
-x,y,-z
1/2+x,1/2+y,z
1/2-x,1/2+y,-z
loop_
_atom_site_type_symbol
_atom_site_label
_atom_site_fract_x
_atom_site_fract_y
_atom_site_fract_z
Si Si1 0.191578 0.398680 0.503798
Si Si2 0.059875 0.025467 0.673297
Si Si3 0.663113 0.199106 0.353232
Si Si4 0.053689 0.184162 0.965560
Si Si5 0.880202 0.665180 0.147990
Si Si6 0.283072 0.833304 0.953167
Si Si7 0.645466 0.033901 0.610257
Si Si8 0.821189 0.505368 0.710390
O O1 0.342537 0.310116 0.689220
O O2 0.238926 0.460890 0.655783
O O3 0.180680 0.460621 0.395196
O O4 0.984941 0.354412 0.260989
O O5 0.183531 0.933380 0.800525
O O6 0.000000 0.076677 0.500000
O O7 0.881849 0.983886 0.502755
O O8 0.186051 0.101045 0.894223
O O9 0.472697 0.177719 0.166969
O O10 0.656510 0.121968 0.262080
O O11 0.857210 0.176005 0.657832
O O12 0.186613 0.272019 0.101289
O O13 0.171468 0.083822 0.104818
O O14 0.000000 0.209433 0.000000
O O15 0.838580 0.772192 0.130134
O O16 0.029826 0.616773 0.409168
O O17 0.500000 0.986523 0.500000
O O18 0.000000 0.462469 0.000000
#
# Coordination Sequence:
#
# PCOD8051684 Si02
#       8
#     4   4   4   4   4   4   4   4
#     4  11  24  47  70 108 142 184 239 296 346 431
#     4  12  26  42  71 103 136 182 234 290 353 421
#     4  11  24  44  72  99 142 184 236 289 352 424
#     4  11  22  38  66 103 133 183 227 290 351 416
#     4  12  23  46  70 102 144 181 230 298 351 417
#     4  11  24  40  68 101 137 178 239 285 356 414
#     4  12  24  44  72 102 147 185 233 297 359 410
#     4  12  25  48  71  99 144 187 232 294 360 424
#
# _framework density 23.011316999999998
#
# number of rings (size 3 to 8) (size 9 to 14) (size 15 to 20)
#    0.000    0.500    5.000    3.750    1.750    4.000 
#    0.000    5.625    0.000    0.000    0.000    0.000 
#    0.000    0.000    0.000    0.000    0.000    0.000 
#
# Total GULP energy -198414.475559 kJ/mol
# GULP energy per Si atom -12400.904722 kJ/mol
# Density = 2.295894 g / cm^3
# Si number density = 23.011317 Si / 1000 Ang^3
#
#
#
# Elastic Constant Matrix: (Units=GPa)
#
#
# Indices 1 2 3 4 5 6 
#
# 1 100.6311 15.1469 9.2426 0.0000 13.2476 0.0000
# 2 15.1469 94.2494 11.8506 0.0000 -1.7923 0.0000
# 3 9.2426 11.8506 61.3123 -0.0002 12.6071 -0.0002
# 4 0.0000 0.0000 -0.0002 21.2456 -0.0001 -1.3100
# 5 13.2476 -1.7923 12.6071 -0.0001 33.9540 -0.0001
# 6 0.0000 0.0000 -0.0002 -1.3100 -0.0001 42.9191
#
#
#
# Elastic Compliance Matrix: (Units=1/GPa)
#
#
# Indices 1 2 3 4 5 6 
#
# 1 0.010787 -0.001758 -0.000435 0.000000 -0.004140 0.000000
# 2 -0.001758 0.011229 -0.002347 0.000000 0.002150 0.000000
# 3 -0.000435 -0.002347 0.018210 0.000000 -0.006716 0.000000
# 4 0.000000 0.000000 0.000000 0.047157 0.000000 0.001439
# 5 -0.004140 0.002150 -0.006716 0.000000 0.033674 0.000000
# 6 0.000000 0.000000 0.000000 0.001439 0.000000 0.023344
#
#
# Mechanical properties :
#
#
# Convention : Reuss Voigt Hill
#
# Bulk Modulus (GPa) = 32.10762 36.51922 34.31342
# Shear Modulus (GPa) = 30.51343 34.28726 32.40035
#
# Velocity S-wave (km/s) = 3.64540 3.86426 3.75643
# Velocity P-wave (km/s) = 5.63044 5.98453 5.81018
#
# Compressibility (1/GPa) = 0.03114526
#
# Stress axis : x y z
#
# Youngs Moduli (GPa) = 92.70604 89.05784 54.91457
#
# Poissons Ratio (x) = 0.15652 0.02389
# Poissons Ratio (y) = 0.16294 0.12891
# Poissons Ratio (z) = 0.04034 0.20906
#
# Static dielectric constant tensor:
#      x y z
#    x 4.328960 0.000000 0.133960 
#    y 0.000000 4.270960 0.000000 
#    z 0.133960 0.000000 4.450750 
# 
# 
# High freq. dielectric constant tensor:
#      x y z
#    x 1.919420 0.000000 0.015490 
#    y 0.000000 1.904340 0.000000 
#    z 0.015490 0.000000 1.906820 
# 
# From -- ./inp_files/57187.got.cif
#   From: 2010.03.12/outbox.cif.g09.slc.cpg/sg5_29_cif.got.tgz:57187.got - 2010.03.31 09:47:26.
