data_PCOD8051551
_publ_section_title
;
Structure prediction by ZEFSAII (Michael W. Deem and Ramdas Pophale) SiO2 
 PCOD8051551
Probable space group: C 2
;
_chemical_formula_sum "Si O2"
_cell_formula_units_Z 26
_cell_length_a 20.515381
_cell_length_b 8.736768
_cell_length_c 8.178786
_cell_angle_alpha 90.000000
_cell_angle_beta 130.600638
_cell_angle_gamma 90.000000
_cell_volume 1113.043348
_symmetry_space_group_name_H-M "C 2"
_symmetry_group_IT_number 5
_symmetry_cell_setting 'monoclinic'
loop_
_space_group_symop_operation_xyz
x,y,z
-x,y,-z
1/2+x,1/2+y,z
1/2-x,1/2+y,-z
loop_
_atom_site_type_symbol
_atom_site_label
_atom_site_fract_x
_atom_site_fract_y
_atom_site_fract_z
Si Si1 0.611550 0.663790 0.857021
Si Si2 0.861687 0.826802 0.994585
Si Si3 0.788024 0.803342 0.212471
Si Si4 0.425003 0.740185 0.567864
Si Si5 0.733396 0.594068 0.621734
Si Si6 0.500000 0.195260 0.000000
Si Si7 0.857418 0.549131 0.559585
O O1 0.645860 0.509904 0.000827
O O2 0.522320 0.724808 0.792818
O O3 0.589072 0.655545 0.628311
O O4 0.688273 0.780755 0.008400
O O5 0.850315 0.767472 0.161228
O O6 0.788563 0.743732 0.767127
O O7 0.955144 0.795533 0.069451
O O8 0.827344 0.699175 0.416875
O O9 0.786593 0.980537 0.260863
O O10 0.359819 0.657697 0.588810
O O11 0.392810 0.916459 0.499032
O O12 0.776570 0.501235 0.542857
O O13 0.432618 0.085193 0.806915
#
# Coordination Sequence:
#
# PCOD8051551 Si02
#       7
#     4   4   4   4   4   2   4
#     4  11  26  43  72 109 139 190 246 300 364 428
#     4  11  23  47  73 100 151 183 251 297 368 437
#     4  12  24  44  79 105 139 201 241 301 375 446
#     4  11  24  45  70 103 151 184 247 302 354 441
#     4  11  24  47  72 105 148 191 246 302 368 444
#     4  10  28  46  72 112 144 188 246 314 366 432
#     4  11  27  46  73 105 153 193 244 301 373 435
#
# _framework density 23.359378
#
# number of rings (size 3 to 8) (size 9 to 14) (size 15 to 20)
#    0.000    0.923    3.077    1.846    8.615    3.077 
#    2.769    0.000    0.000    0.000    0.000    0.000 
#    0.000    0.000    0.000    0.000    0.000    0.000 
#
# Total GULP energy -161082.916639 kJ/mol
# GULP energy per Si atom -12390.993588 kJ/mol
# Density = 2.330621 g / cm^3
# Si number density = 23.359378 Si / 1000 Ang^3
#
#
#
# Elastic Constant Matrix: (Units=GPa)
#
#
# Indices 1 2 3 4 5 6 
#
# 1 177.8036 47.3254 46.1777 0.0000 15.0282 0.0000
# 2 47.3254 108.3684 25.4946 0.0000 13.5302 0.0000
# 3 46.1777 25.4946 78.3229 0.0000 18.3911 0.0000
# 4 0.0000 0.0000 0.0000 28.5654 0.0000 -4.7685
# 5 15.0282 13.5302 18.3911 0.0000 34.7881 0.0000
# 6 0.0000 0.0000 0.0000 -4.7685 0.0000 36.6674
#
#
#
# Elastic Compliance Matrix: (Units=1/GPa)
#
#
# Indices 1 2 3 4 5 6 
#
# 1 0.007140 -0.002273 -0.003372 0.000000 -0.000418 0.000000
# 2 -0.002273 0.010907 -0.001649 0.000000 -0.002388 0.000000
# 3 -0.003372 -0.001649 0.016897 0.000000 -0.006835 0.000000
# 4 0.000000 0.000000 0.000000 0.035784 0.000000 0.004654
# 5 -0.000418 -0.002388 -0.006835 0.000000 0.033468 0.000000
# 6 0.000000 0.000000 0.000000 0.004654 0.000000 0.027877
#
#
# Mechanical properties :
#
#
# Convention : Reuss Voigt Hill
#
# Bulk Modulus (GPa) = 49.12499 66.94337 58.03418
# Shear Modulus (GPa) = 32.58454 36.37066 34.47760
#
# Velocity S-wave (km/s) = 3.73892 3.95017 3.84600
# Velocity P-wave (km/s) = 6.30199 7.03743 6.67984
#
# Compressibility (1/GPa) = 0.02035624
#
# Stress axis : x y z
#
# Youngs Moduli (GPa) = 140.05363 91.68834 59.18073
#
# Poissons Ratio (x) = 0.20838 0.19954
# Poissons Ratio (y) = 0.31830 0.09761
# Poissons Ratio (z) = 0.47222 0.15123
#
# Static dielectric constant tensor:
#      x y z
#    x 4.879750 0.000000 0.280670 
#    y 0.000000 4.025990 0.000000 
#    z 0.280670 0.000000 3.992320 
# 
# 
# High freq. dielectric constant tensor:
#      x y z
#    x 1.948890 0.000000 0.012940 
#    y 0.000000 1.921220 0.000000 
#    z 0.012940 0.000000 1.908680 
# 
# From -- ./inp_files/29149.got.cif
#   From: 2010.03.12/outbox.cif.g09.slc.cpg/sg5_15_cif.got.tgz:29149.got - 2010.03.31 09:47:26.
