data_PCOD8051857
_publ_section_title
;
Structure prediction by ZEFSAII (Michael W. Deem and Ramdas Pophale) SiO2 
 PCOD8051857
Probable space group: C 2
;
_chemical_formula_sum "Si O2"
_cell_formula_units_Z 24
_cell_length_a 9.256526
_cell_length_b 9.877864
_cell_length_c 25.932673
_cell_angle_alpha 90.000000
_cell_angle_beta 151.232383
_cell_angle_gamma 90.000000
_cell_volume 1141.133881
_symmetry_space_group_name_H-M "C 2"
_symmetry_group_IT_number 5
_symmetry_cell_setting 'monoclinic'
loop_
_space_group_symop_operation_xyz
x,y,z
-x,y,-z
1/2+x,1/2+y,z
1/2-x,1/2+y,-z
loop_
_atom_site_type_symbol
_atom_site_label
_atom_site_fract_x
_atom_site_fract_y
_atom_site_fract_z
Si Si1 0.730958 0.274510 0.953746
Si Si2 0.959935 0.519358 0.925867
Si Si3 0.858114 0.667489 0.614930
Si Si4 0.371258 0.414527 0.690217
Si Si5 0.340874 0.189206 0.399662
Si Si6 0.357368 0.885570 0.277637
O O1 0.485532 0.362395 0.846069
O O2 0.598713 0.146870 0.940934
O O3 0.000000 0.226528 0.000000
O O4 0.864813 0.382532 0.036546
O O5 0.622020 0.496446 0.801266
O O6 0.000000 0.538206 0.000000
O O7 0.500000 0.649354 0.500000
O O8 0.969856 0.792625 0.684713
O O9 0.964759 0.701329 0.590923
O O10 0.018226 0.538215 0.691270
O O11 0.227883 0.531755 0.610125
O O12 0.132120 0.356767 0.657300
O O13 0.500000 0.249863 0.500000
O O14 0.045542 0.281233 0.301944
#
# Coordination Sequence:
#
# PCOD8051857 Si02
#       6
#     4   4   4   4   4   4
#     4  11  24  44  67  98 134 181 224 278 337 397
#     4  11  24  45  68  98 136 179 224 281 334 396
#     4  11  26  44  69 103 135 180 224 277 337 404
#     4  11  23  44  68  98 137 175 226 275 335 399
#     4  11  24  43  69  96 134 179 223 280 337 403
#     4  11  23  44  67  99 136 176 225 277 334 397
#
# _framework density 21.031713
#
# number of rings (size 3 to 8) (size 9 to 14) (size 15 to 20)
#    0.000    1.000    5.000    2.000    2.333    6.000 
#    3.000    0.000    0.000    0.000    0.000    0.000 
#    0.000    0.000    0.000    0.000    0.000    0.000 
#
# Total GULP energy -148703.990385 kJ/mol
# GULP energy per Si atom -12391.999199 kJ/mol
# Density = 2.098384 g / cm^3
# Si number density = 21.031713 Si / 1000 Ang^3
#
#
#
# Elastic Constant Matrix: (Units=GPa)
#
#
# Indices 1 2 3 4 5 6 
#
# 1 122.9541 84.3044 48.0725 -0.0001 11.4163 0.0000
# 2 84.3044 138.6285 23.9473 -0.0002 3.4435 -0.0001
# 3 48.0725 23.9473 86.1022 0.0001 8.2606 -0.0001
# 4 -0.0001 -0.0002 0.0001 35.1004 0.0000 3.3970
# 5 11.4163 3.4435 8.2606 0.0000 29.7523 -0.0001
# 6 0.0000 -0.0001 -0.0001 3.3970 -0.0001 43.3779
#
#
#
# Elastic Compliance Matrix: (Units=1/GPa)
#
#
# Indices 1 2 3 4 5 6 
#
# 1 0.017648 -0.009453 -0.006862 0.000000 -0.003772 0.000000
# 2 -0.009453 0.012644 0.001596 0.000000 0.001721 0.000000
# 3 -0.006862 0.001596 0.015171 0.000000 -0.001764 0.000000
# 4 0.000000 0.000000 0.000000 0.028707 0.000000 -0.002248
# 5 -0.003772 0.001721 -0.001764 0.000000 0.035349 0.000000
# 6 0.000000 0.000000 0.000000 -0.002248 0.000000 0.023229
#
#
# Mechanical properties :
#
#
# Convention : Reuss Voigt Hill
#
# Bulk Modulus (GPa) = 62.40528 73.37034 67.88781
# Shear Modulus (GPa) = 29.84586 34.40349 32.12468
#
# Velocity S-wave (km/s) = 3.77117 4.04888 3.91249
# Velocity P-wave (km/s) = 6.97844 7.53785 7.26353
#
# Compressibility (1/GPa) = 0.01602428
#
# Stress axis : x y z
#
# Youngs Moduli (GPa) = 56.66370 79.08997 65.91695
#
# Poissons Ratio (x) = 0.74765 0.45233
# Poissons Ratio (y) = 0.53565 -0.10522
# Poissons Ratio (z) = 0.38883 -0.12625
#
# Static dielectric constant tensor:
#      x y z
#    x 3.714520 0.000000 0.109700 
#    y 0.000000 3.847260 0.000000 
#    z 0.109700 0.000000 3.852330 
# 
# 
# High freq. dielectric constant tensor:
#      x y z
#    x 1.818800 0.000000 0.008810 
#    y 0.000000 1.835510 0.000000 
#    z 0.008810 0.000000 1.834370 
# 
# From -- ./inp_files/70208.got.cif
#   From: 2010.03.12/outbox.cif.g09.slc.cpg/sg5_36_cif.got.tgz:70208.got - 2010.03.31 09:47:26.
