data_PCOD8051827
_publ_section_title
;
Structure prediction by ZEFSAII (Michael W. Deem and Ramdas Pophale) SiO2 
 PCOD8051827
Probable space group: C 2
;
_chemical_formula_sum "Si O2"
_cell_formula_units_Z 20
_cell_length_a 5.023375
_cell_length_b 23.594411
_cell_length_c 8.894679
_cell_angle_alpha 90.000000
_cell_angle_beta 59.678672
_cell_angle_gamma 90.000000
_cell_volume 910.018701
_symmetry_space_group_name_H-M "C 2"
_symmetry_group_IT_number 5
_symmetry_cell_setting 'monoclinic'
loop_
_space_group_symop_operation_xyz
x,y,z
-x,y,-z
1/2+x,1/2+y,z
1/2-x,1/2+y,-z
loop_
_atom_site_type_symbol
_atom_site_label
_atom_site_fract_x
_atom_site_fract_y
_atom_site_fract_z
Si Si1 0.725223 0.310270 0.694777
Si Si2 0.106139 0.245831 0.806996
Si Si3 0.649861 0.630973 0.619076
Si Si4 0.860914 0.030805 0.879687
Si Si5 0.147224 0.931176 0.616718
O O1 0.442058 0.272916 0.719514
O O2 0.630905 0.376286 0.729652
O O3 0.000000 0.301210 0.500000
O O4 0.850618 0.290995 0.822217
O O5 0.117248 0.194261 0.688597
O O6 0.000000 0.224131 0.000000
O O7 0.500000 0.626062 0.500000
O O8 0.487656 0.590133 0.784024
O O9 0.000000 0.611829 0.500000
O O10 0.500000 0.036478 0.000000
O O11 0.941662 0.981187 0.741068
O O12 0.000000 0.015254 0.000000
O O13 0.500000 0.952089 0.500000
O O14 0.000000 0.913283 0.500000
#
# Coordination Sequence:
#
# PCOD8051827 Si02
#       5
#     4   4   4   4   4
#     4  11  23  42  66  94 129 172 215 256 308 378
#     4  12  25  41  64  97 133 165 208 265 322 373
#     4  12  25  44  69  92 125 171 217 258 312 384
#     4  12  26  44  67  97 131 163 209 269 325 373
#     4  11  23  43  68  94 128 171 217 258 307 378
#
# _framework density 21.977568000000002
#
# number of rings (size 3 to 8) (size 9 to 14) (size 15 to 20)
#    0.000    0.400    0.000   10.800    0.000    4.000 
#    0.000    0.000    0.000    0.000    0.000    0.000 
#    0.000    0.000    0.000    0.000    0.000    0.000 
#
# Total GULP energy -124083.044981 kJ/mol
# GULP energy per Si atom -12408.304498 kJ/mol
# Density = 2.192755 g / cm^3
# Si number density = 21.977568 Si / 1000 Ang^3
#
#
#
# Elastic Constant Matrix: (Units=GPa)
#
#
# Indices 1 2 3 4 5 6 
#
# 1 163.1076 33.0551 35.0996 0.0000 -6.9365 0.0000
# 2 33.0551 99.8194 28.6392 0.0000 -16.4436 0.0000
# 3 35.0996 28.6392 72.5073 0.0000 -5.6417 0.0000
# 4 0.0000 0.0000 0.0000 26.4975 0.0000 3.3046
# 5 -6.9365 -16.4436 -5.6417 0.0000 50.5743 0.0000
# 6 0.0000 0.0000 0.0000 3.3046 0.0000 30.7853
#
#
#
# Elastic Compliance Matrix: (Units=1/GPa)
#
#
# Indices 1 2 3 4 5 6 
#
# 1 0.007046 -0.001501 -0.002805 0.000000 0.000165 0.000000
# 2 -0.001501 0.012157 -0.003817 0.000000 0.003321 0.000000
# 3 -0.002805 -0.003817 0.016675 0.000000 0.000234 0.000000
# 4 0.000000 0.000000 0.000000 0.038251 0.000000 -0.004106
# 5 0.000165 0.003321 0.000234 0.000000 0.020902 0.000000
# 6 0.000000 0.000000 0.000000 -0.004106 0.000000 0.032924
#
#
# Mechanical properties :
#
#
# Convention : Reuss Voigt Hill
#
# Bulk Modulus (GPa) = 50.93571 58.78024 54.85797
# Shear Modulus (GPa) = 33.16847 37.48078 35.32462
#
# Velocity S-wave (km/s) = 3.88905 4.13414 4.01347
# Velocity P-wave (km/s) = 6.58732 7.04214 6.81853
#
# Compressibility (1/GPa) = 0.01963259
#
# Stress axis : x y z
#
# Youngs Moduli (GPa) = 141.92870 82.25436 59.96859
#
# Poissons Ratio (x) = 0.12348 0.16821
# Poissons Ratio (y) = 0.21306 0.22889
# Poissons Ratio (z) = 0.39810 0.31395
#
# Static dielectric constant tensor:
#      x y z
#    x 4.280400 0.000000 -0.071520 
#    y 0.000000 4.043300 0.000000 
#    z -0.071520 0.000000 4.048570 
# 
# 
# High freq. dielectric constant tensor:
#      x y z
#    x 1.889600 0.000000 0.000080 
#    y 0.000000 1.873000 0.000000 
#    z 0.000080 0.000000 1.868570 
# 
# From -- ./inp_files/12676.got.cif
#   From: 2010.03.12/outbox.cif.g09.slc.cpg/sg5_7_cif.got.tgz:12676.got - 2010.03.31 09:47:26.
