data_PCOD8051475
_publ_section_title
;
Structure prediction by ZEFSAII (Michael W. Deem and Ramdas Pophale) SiO2 
 PCOD8051475
Probable space group: C 2
;
_chemical_formula_sum "Si O2"
_cell_formula_units_Z 20
_cell_length_a 9.551797
_cell_length_b 11.703931
_cell_length_c 10.092087
_cell_angle_alpha 90.000000
_cell_angle_beta 138.713486
_cell_angle_gamma 90.000000
_cell_volume 744.434464
_symmetry_space_group_name_H-M "C 2"
_symmetry_group_IT_number 5
_symmetry_cell_setting 'monoclinic'
loop_
_space_group_symop_operation_xyz
x,y,z
-x,y,-z
1/2+x,1/2+y,z
1/2-x,1/2+y,-z
loop_
_atom_site_type_symbol
_atom_site_label
_atom_site_fract_x
_atom_site_fract_y
_atom_site_fract_z
Si Si1 0.761252 0.192890 0.804131
Si Si2 0.896002 0.302613 0.653524
Si Si3 0.182210 0.121673 0.734642
Si Si4 0.227752 0.474217 0.948475
Si Si5 0.953736 0.793254 0.785457
O O1 0.737625 0.222584 0.630439
O O2 0.610079 0.275688 0.774819
O O3 0.000000 0.233109 0.000000
O O4 0.724158 0.063043 0.823522
O O5 0.767897 0.340738 0.431060
O O6 0.100880 0.228827 0.761097
O O7 0.993281 0.416581 0.789116
O O8 0.398904 0.171826 0.819823
O O9 0.000000 0.080893 0.500000
O O10 0.228214 0.022897 0.873075
O O11 0.418671 0.388110 0.039540
#
# Coordination Sequence:
#
# PCOD8051475 Si02
#       5
#     4   4   4   4   4
#     4  12  25  48  74 110 147 194 243 300 366 435
#     4  11  26  50  73 111 148 193 245 302 369 435
#     4  10  25  47  72 110 150 191 244 303 368 435
#     4  12  26  48  80 105 147 193 253 294 370 436
#     4  11  27  49  75 105 155 191 240 310 361 434
#
# _framework density 26.866032000000001
#
# number of rings (size 3 to 8) (size 9 to 14) (size 15 to 20)
#    0.000    0.800    4.000    0.600    2.800   10.400 
#    3.600    2.000    0.000    0.000    0.000    0.000 
#    0.000    0.000    0.000    0.000    0.000    0.000 
#
# Total GULP energy -123920.631888 kJ/mol
# GULP energy per Si atom -12392.063189 kJ/mol
# Density = 2.680488 g / cm^3
# Si number density = 26.866032 Si / 1000 Ang^3
#
#
#
# Elastic Constant Matrix: (Units=GPa)
#
#
# Indices 1 2 3 4 5 6 
#
# 1 113.5556 9.8080 7.6005 0.0000 4.6108 0.0000
# 2 9.8080 110.7709 61.2529 -0.0001 2.6461 -0.0002
# 3 7.6005 61.2529 114.1552 -0.0002 -13.9078 -0.0004
# 4 0.0000 -0.0001 -0.0002 42.1707 -0.0001 -3.6000
# 5 4.6108 2.6461 -13.9078 -0.0001 34.0105 -0.0002
# 6 0.0000 -0.0002 -0.0004 -3.6000 -0.0002 33.3854
#
#
#
# Elastic Compliance Matrix: (Units=1/GPa)
#
#
# Indices 1 2 3 4 5 6 
#
# 1 0.008938 -0.000478 -0.000507 0.000000 -0.001382 0.000000
# 2 -0.000478 0.013405 -0.007662 0.000000 -0.004111 0.000000
# 3 -0.000507 -0.007662 0.013667 0.000000 0.006254 0.000000
# 4 0.000000 0.000000 0.000000 0.023933 0.000000 0.002581
# 5 -0.001382 -0.004111 0.006254 0.000000 0.032467 0.000000
# 6 0.000000 0.000000 0.000000 0.002581 0.000000 0.030231
#
#
# Mechanical properties :
#
#
# Convention : Reuss Voigt Hill
#
# Bulk Modulus (GPa) = 53.43093 55.08941 54.26017
# Shear Modulus (GPa) = 34.20595 39.23467 36.72031
#
# Velocity S-wave (km/s) = 3.57207 3.82564 3.70103
# Velocity P-wave (km/s) = 6.07816 6.32959 6.20515
#
# Compressibility (1/GPa) = 0.01871575
#
# Stress axis : x y z
#
# Youngs Moduli (GPa) = 111.88707 74.59949 73.17017
#
# Poissons Ratio (x) = 0.03566 0.03709
# Poissons Ratio (y) = 0.05349 0.56062
# Poissons Ratio (z) = 0.05672 0.57157
#
# Static dielectric constant tensor:
#      x y z
#    x 5.158040 0.000000 -0.058860 
#    y 0.000000 4.732090 0.000000 
#    z -0.058860 0.000000 5.105800 
# 
# 
# High freq. dielectric constant tensor:
#      x y z
#    x 2.097490 0.000000 0.002880 
#    y 0.000000 2.059600 0.000000 
#    z 0.002880 0.000000 2.096050 
# 
# From -- ./inp_files/38984.got.cif
#   From: 2010.03.12/outbox.cif.g09.slc.cpg/sg5_20_cif.got.tgz:38984.got - 2010.03.31 09:47:26.
