data_PCOD8051708
_publ_section_title
;
Structure prediction by ZEFSAII (Michael W. Deem and Ramdas Pophale) SiO2 
 PCOD8051708
Probable space group: C 2
;
_chemical_formula_sum "Si O2"
_cell_formula_units_Z 20
_cell_length_a 11.624967
_cell_length_b 15.955367
_cell_length_c 4.844347
_cell_angle_alpha 90.000000
_cell_angle_beta 88.868410
_cell_angle_gamma 90.000000
_cell_volume 898.357224
_symmetry_space_group_name_H-M "C 2"
_symmetry_group_IT_number 5
_symmetry_cell_setting 'monoclinic'
loop_
_space_group_symop_operation_xyz
x,y,z
-x,y,-z
1/2+x,1/2+y,z
1/2-x,1/2+y,-z
loop_
_atom_site_type_symbol
_atom_site_label
_atom_site_fract_x
_atom_site_fract_y
_atom_site_fract_z
Si Si1 0.268273 0.898320 0.586932
Si Si2 0.783908 0.670687 0.966586
Si Si3 0.574388 0.749608 0.248880
Si Si4 0.128311 0.855088 0.078475
Si Si5 0.866997 0.576200 0.457649
O O1 0.357220 0.821708 0.591526
O O2 0.161150 0.876116 0.390877
O O3 0.337479 0.979508 0.494766
O O4 0.213589 0.911659 0.890081
O O5 0.655107 0.681423 0.092661
O O6 0.846734 0.600334 0.142897
O O7 0.852317 0.757534 0.986522
O O8 0.787050 0.636178 0.653442
O O9 0.500000 0.706649 0.500000
O O10 0.500000 0.788785 0.000000
O O11 0.000000 0.880206 0.000000
O O12 0.000000 0.593197 0.500000
#
# Coordination Sequence:
#
# PCOD8051708 Si02
#       5
#     4   4   4   4   4
#     4  11  24  40  64  94 124 160 212 254 304 376
#     4  11  24  40  63  94 123 159 212 253 305 375
#     4  11  22  41  66  91 124 167 209 256 305 364
#     4  11  22  42  66  89 122 166 209 256 303 363
#     4  12  24  41  63  92 127 160 200 263 319 358
#
# _framework density 22.262861000000001
#
# number of rings (size 3 to 8) (size 9 to 14) (size 15 to 20)
#    0.000    0.800    0.000   10.200    0.000    1.600 
#    0.000   10.000    0.000    0.000    0.000    0.000 
#    0.000    0.000    0.000    0.000    0.000    0.000 
#
# Total GULP energy -124019.234381 kJ/mol
# GULP energy per Si atom -12401.923438 kJ/mol
# Density = 2.221219 g / cm^3
# Si number density = 22.262861 Si / 1000 Ang^3
#
#
#
# Elastic Constant Matrix: (Units=GPa)
#
#
# Indices 1 2 3 4 5 6 
#
# 1 101.5815 14.1467 19.8204 0.0000 1.5971 0.0000
# 2 14.1467 63.5395 12.8209 0.0000 -6.8589 0.0000
# 3 19.8204 12.8209 97.1596 0.0000 4.8133 0.0000
# 4 0.0000 0.0000 0.0000 31.9883 0.0000 -0.0401
# 5 1.5971 -6.8589 4.8133 0.0000 49.7071 0.0000
# 6 0.0000 0.0000 0.0000 -0.0401 0.0000 19.6679
#
#
#
# Elastic Compliance Matrix: (Units=1/GPa)
#
#
# Indices 1 2 3 4 5 6 
#
# 1 0.010493 -0.002009 -0.001854 0.000000 -0.000435 0.000000
# 2 -0.002009 0.016856 -0.001942 0.000000 0.002578 0.000000
# 3 -0.001854 -0.001942 0.010990 0.000000 -0.001273 0.000000
# 4 0.000000 0.000000 0.000000 0.031261 0.000000 0.000064
# 5 -0.000435 0.002578 -0.001273 0.000000 0.020611 0.000000
# 6 0.000000 0.000000 0.000000 0.000064 0.000000 0.050844
#
#
# Mechanical properties :
#
#
# Convention : Reuss Voigt Hill
#
# Bulk Modulus (GPa) = 37.41354 39.53962 38.47658
# Shear Modulus (GPa) = 30.94551 34.63884 32.79217
#
# Velocity S-wave (km/s) = 3.73232 3.94877 3.84207
# Velocity P-wave (km/s) = 5.95109 6.21203 6.08296
#
# Compressibility (1/GPa) = 0.02672829
#
# Stress axis : x y z
#
# Youngs Moduli (GPa) = 95.30480 59.32692 90.99305
#
# Poissons Ratio (x) = 0.11919 0.16869
# Poissons Ratio (y) = 0.19147 0.17672
# Poissons Ratio (z) = 0.17668 0.11522
#
# Static dielectric constant tensor:
#      x y z
#    x 4.105330 0.000000 -0.068250 
#    y 0.000000 3.661970 0.000000 
#    z -0.068250 0.000000 4.282840 
# 
# 
# High freq. dielectric constant tensor:
#      x y z
#    x 1.882980 0.000000 -0.002420 
#    y 0.000000 1.850430 0.000000 
#    z -0.002420 0.000000 1.901580 
# 
# From -- ./inp_files/4753.got.cif
#   From: 2010.03.12/outbox.cif.g09.slc.cpg/sg5_3_cif.got.tgz:4753.got - 2010.03.31 09:47:26.
