data_PCOD8051173
_publ_section_title
;
Structure prediction by ZEFSAII (Michael W. Deem and Ramdas Pophale) SiO2 
 PCOD8051173
Probable space group: C 2
;
_chemical_formula_sum "Si O2"
_cell_formula_units_Z 18
_cell_length_a 13.817154
_cell_length_b 4.865956
_cell_length_c 19.267856
_cell_angle_alpha 90.000000
_cell_angle_beta 147.602954
_cell_angle_gamma 90.000000
_cell_volume 694.079649
_symmetry_space_group_name_H-M "C 2"
_symmetry_group_IT_number 5
_symmetry_cell_setting 'monoclinic'
loop_
_space_group_symop_operation_xyz
x,y,z
-x,y,-z
1/2+x,1/2+y,z
1/2-x,1/2+y,-z
loop_
_atom_site_type_symbol
_atom_site_label
_atom_site_fract_x
_atom_site_fract_y
_atom_site_fract_z
Si Si1 0.303393 0.924710 0.493230
Si Si2 0.500000 0.066378 0.000000
Si Si3 0.004010 0.745612 0.782007
Si Si4 0.313265 0.982555 0.235318
Si Si5 0.977201 0.233051 0.856032
O O1 0.208525 0.746600 0.496468
O O2 0.194148 0.869120 0.356441
O O3 0.514570 0.838529 0.623611
O O4 0.669865 0.253719 0.123751
O O5 0.427776 0.867286 0.018501
O O6 0.967685 0.446274 0.788751
O O7 0.133012 0.694674 0.794109
O O8 0.081880 0.959593 0.888229
O O9 0.224275 0.160912 0.241999
#
# Coordination Sequence:
#
# PCOD8051173 Si02
#       5
#     4   2   4   4   4
#     4  10  23  46  81 112 148 196 248 314 387 445
#     4  12  28  56  74 114 164 206 258 316 386 450
#     4  11  26  50  80 114 147 203 259 310 393 452
#     4  11  27  54  77 109 164 198 248 329 373 460
#     4  12  27  51  75 116 151 201 263 307 383 460
#
# _framework density 25.933620999999999
#
# number of rings (size 3 to 8) (size 9 to 14) (size 15 to 20)
#    0.000    0.889    2.222    3.333    9.333    0.889 
#   12.000    0.000    0.000    0.000    0.000    0.000 
#    0.000    0.000    0.000    0.000    0.000    0.000 
#
# Total GULP energy -111507.530779 kJ/mol
# GULP energy per Si atom -12389.725642 kJ/mol
# Density = 2.587459 g / cm^3
# Si number density = 25.933621 Si / 1000 Ang^3
#
#
#
# Elastic Constant Matrix: (Units=GPa)
#
#
# Indices 1 2 3 4 5 6 
#
# 1 85.2821 25.7417 -33.7079 -0.0002 -9.5719 0.0009
# 2 25.7417 120.8239 2.4245 -0.0001 0.5402 0.0038
# 3 -33.7079 2.4245 99.9149 0.0001 13.6446 0.0005
# 4 -0.0002 -0.0001 0.0001 31.2604 0.0000 -5.3397
# 5 -9.5719 0.5402 13.6446 0.0000 25.1664 -0.0005
# 6 0.0009 0.0038 0.0005 -5.3397 -0.0005 45.8842
#
#
#
# Elastic Compliance Matrix: (Units=1/GPa)
#
#
# Indices 1 2 3 4 5 6 
#
# 1 0.014928 -0.003289 0.004677 0.000000 0.003212 0.000000
# 2 -0.003289 0.009005 -0.001221 0.000000 -0.000782 -0.000001
# 3 0.004677 -0.001221 0.012279 0.000000 -0.004852 0.000000
# 4 0.000000 0.000000 0.000000 0.032638 0.000000 0.003798
# 5 0.003212 -0.000782 -0.004852 0.000000 0.043605 0.000001
# 6 0.000000 -0.000001 0.000000 0.003798 0.000001 0.022236
#
#
# Mechanical properties :
#
#
# Convention : Reuss Voigt Hill
#
# Bulk Modulus (GPa) = 27.36255 32.77085 30.06670
# Shear Modulus (GPa) = 34.12094 41.23304 37.67699
#
# Velocity S-wave (km/s) = 3.63120 3.99174 3.81573
# Velocity P-wave (km/s) = 5.30610 5.82316 5.57063
#
# Compressibility (1/GPa) = 0.03654630
#
# Stress axis : x y z
#
# Youngs Moduli (GPa) = 66.98990 111.04765 81.44204
#
# Poissons Ratio (x) = 0.36519 -0.38092
# Poissons Ratio (y) = 0.22030 0.09946
# Poissons Ratio (z) = -0.31332 0.13561
#
# Static dielectric constant tensor:
#      x y z
#    x 4.756550 0.000000 0.009310 
#    y 0.000000 4.965050 0.000000 
#    z 0.009310 0.000000 4.983280 
# 
# 
# High freq. dielectric constant tensor:
#      x y z
#    x 2.029220 0.000000 -0.002260 
#    y 0.000000 2.054770 0.000000 
#    z -0.002260 0.000000 2.041570 
# 
# From -- ./inp_files/65590.got.cif
#   From: 2010.03.12/outbox.cif.g09.slc.cpg/sg5_33_cif.got.tgz:65590.got - 2010.03.31 09:47:26.
