data_PCOD8051145
_publ_section_title
;
Structure prediction by ZEFSAII (Michael W. Deem and Ramdas Pophale) SiO2 
 PCOD8051145
Probable space group: C 2
;
_chemical_formula_sum "Si O2"
_cell_formula_units_Z 32
_cell_length_a 11.931521
_cell_length_b 9.104637
_cell_length_c 13.895802
_cell_angle_alpha 90.000000
_cell_angle_beta 88.164854
_cell_angle_gamma 90.000000
_cell_volume 1508.756860
_symmetry_space_group_name_H-M "C 2"
_symmetry_group_IT_number 5
_symmetry_cell_setting 'monoclinic'
loop_
_space_group_symop_operation_xyz
x,y,z
-x,y,-z
1/2+x,1/2+y,z
1/2-x,1/2+y,-z
loop_
_atom_site_type_symbol
_atom_site_label
_atom_site_fract_x
_atom_site_fract_y
_atom_site_fract_z
Si Si1 0.222618 0.457470 0.720979
Si Si2 0.820598 0.545262 0.068770
Si Si3 0.455151 0.313546 0.124456
Si Si4 0.387487 0.714705 0.734218
Si Si5 0.777875 0.459961 0.865616
Si Si6 0.881084 0.693007 0.736193
Si Si7 0.070446 0.086953 0.082038
Si Si8 0.996830 0.448669 0.613341
O O1 0.176036 0.450799 0.832556
O O2 0.291153 0.606843 0.699456
O O3 0.303494 0.320960 0.694204
O O4 0.121233 0.463594 0.650316
O O5 0.916322 0.670600 0.065675
O O6 0.700681 0.629129 0.067184
O O7 0.830080 0.447006 0.972453
O O8 0.355330 0.433461 0.135335
O O9 0.501805 0.258612 0.226101
O O10 0.556217 0.408001 0.072379
O O11 0.337003 0.845729 0.796529
O O12 0.469383 0.631330 0.808636
O O13 0.453649 0.785407 0.643415
O O14 0.808693 0.620627 0.824289
O O15 0.914019 0.576492 0.653078
O O16 0.000000 0.168173 0.000000
O O17 0.000000 0.460562 0.500000
#
# Coordination Sequence:
#
# PCOD8051145 Si02
#       8
#     4   4   4   4   4   4   4   4
#     4  11  23  42  68  93 129 168 212 265 322 391
#     4  11  23  35  60  95 132 178 216 249 308 369
#     4  12  22  42  60  91 137 178 212 270 297 365
#     4  10  23  45  62  96 129 168 218 268 316 381
#     4  11  24  36  62  95 135 177 217 254 308 373
#     4  11  25  42  67  98 126 173 217 264 325 386
#     4  11  22  36  63  91 134 178 213 250 303 373
#     4  11  26  48  69  94 126 161 213 284 344 387
#
# _framework density 21.209513000000001
#
# number of rings (size 3 to 8) (size 9 to 14) (size 15 to 20)
#    0.000    1.000    7.500    0.000    5.250    2.000 
#    0.000    0.625    0.000    0.000    0.000    0.000 
#    0.000    0.000    0.000    0.000    0.000    0.000 
#
# Total GULP energy -198313.336661 kJ/mol
# GULP energy per Si atom -12394.583541 kJ/mol
# Density = 2.116124 g / cm^3
# Si number density = 21.209513 Si / 1000 Ang^3
#
#
#
# Elastic Constant Matrix: (Units=GPa)
#
#
# Indices 1 2 3 4 5 6 
#
# 1 93.8166 42.1152 56.4792 0.0000 15.7332 0.0000
# 2 42.1152 101.7362 42.5623 0.0000 1.3565 0.0000
# 3 56.4792 42.5623 141.2373 0.0000 10.8216 0.0000
# 4 0.0000 0.0000 0.0000 23.2369 0.0000 -1.6576
# 5 15.7332 1.3565 10.8216 0.0000 26.1708 0.0000
# 6 0.0000 0.0000 0.0000 -1.6576 0.0000 48.6084
#
#
#
# Elastic Compliance Matrix: (Units=1/GPa)
#
#
# Indices 1 2 3 4 5 6 
#
# 1 0.017091 -0.004997 -0.004711 0.000000 -0.008068 0.000000
# 2 -0.004997 0.012726 -0.002083 0.000000 0.003205 0.000000
# 3 -0.004711 -0.002083 0.009673 0.000000 -0.001060 0.000000
# 4 0.000000 0.000000 0.000000 0.043140 0.000000 0.001471
# 5 -0.008068 0.003205 -0.001060 0.000000 0.043333 0.000000
# 6 0.000000 0.000000 0.000000 0.001471 0.000000 0.020623
#
#
# Mechanical properties :
#
#
# Convention : Reuss Voigt Hill
#
# Bulk Modulus (GPa) = 62.85222 68.78926 65.82074
# Shear Modulus (GPa) = 28.49508 32.64546 30.57027
#
# Velocity S-wave (km/s) = 3.66936 3.92751 3.80063
# Velocity P-wave (km/s) = 6.90294 7.28496 7.09652
#
# Compressibility (1/GPa) = 0.01591034
#
# Stress axis : x y z
#
# Youngs Moduli (GPa) = 58.51022 78.57698 103.38301
#
# Poissons Ratio (x) = 0.39263 0.48699
# Poissons Ratio (y) = 0.29236 0.21530
# Poissons Ratio (z) = 0.27561 0.16364
#
# Static dielectric constant tensor:
#      x y z
#    x 3.895690 0.000000 -0.122790 
#    y 0.000000 4.202550 0.000000 
#    z -0.122790 0.000000 3.615150 
# 
# 
# High freq. dielectric constant tensor:
#      x y z
#    x 1.835900 0.000000 0.010700 
#    y 0.000000 1.842340 0.000000 
#    z 0.010700 0.000000 1.794830 
# 
# From -- ./inp_files/52465.got.cif
#   From: 2010.03.12/outbox.cif.g09.slc.cpg/sg5_27_cif.got.tgz:52465.got - 2010.03.31 09:47:26.
