data_PCOD8051474
_publ_section_title
;
Structure prediction by ZEFSAII (Michael W. Deem and Ramdas Pophale) SiO2 
 PCOD8051474
Probable space group: C 2
;
_chemical_formula_sum "Si O2"
_cell_formula_units_Z 14
_cell_length_a 13.754078
_cell_length_b 4.892430
_cell_length_c 8.696711
_cell_angle_alpha 90.000000
_cell_angle_beta 77.911774
_cell_angle_gamma 90.000000
_cell_volume 572.232938
_symmetry_space_group_name_H-M "C 2"
_symmetry_group_IT_number 5
_symmetry_cell_setting 'monoclinic'
loop_
_space_group_symop_operation_xyz
x,y,z
-x,y,-z
1/2+x,1/2+y,z
1/2-x,1/2+y,-z
loop_
_atom_site_type_symbol
_atom_site_label
_atom_site_fract_x
_atom_site_fract_y
_atom_site_fract_z
Si Si1 0.671070 0.620650 0.869659
Si Si2 0.000000 0.836594 0.500000
Si Si3 0.566990 0.120162 0.776162
Si Si4 0.874033 0.897339 0.810104
O O1 0.654129 0.312625 0.816393
O O2 0.781037 0.714353 0.788851
O O3 0.588068 0.809051 0.816299
O O4 0.659271 0.633858 0.060221
O O5 0.932705 0.645511 0.410498
O O6 0.926646 0.016035 0.636207
O O7 0.456193 0.206948 0.872152
#
# Coordination Sequence:
#
# PCOD8051474 Si02
#       4
#     4   2   4   4
#     4  12  24  44  78 101 147 185 245 282 375 406
#     4   8  24  54  66 110 150 182 246 296 364 416
#     4  10  26  47  72 106 142 193 230 307 345 433
#     4  10  25  47  71 114 138 190 242 302 340 455
#
# _framework density 24.465563
#
# number of rings (size 3 to 8) (size 9 to 14) (size 15 to 20)
#    1.714    0.000    0.000    2.571    0.000   14.857 
#    0.000    0.000    0.000    0.000    0.000    0.000 
#    0.000    0.000    0.000    0.000    0.000    0.000 
#
# Total GULP energy -86744.995047 kJ/mol
# GULP energy per Si atom -12392.142150 kJ/mol
# Density = 2.440988 g / cm^3
# Si number density = 24.465563 Si / 1000 Ang^3
#
#
#
# Elastic Constant Matrix: (Units=GPa)
#
#
# Indices 1 2 3 4 5 6 
#
# 1 121.0424 -5.4959 39.0047 0.0000 -5.8797 0.0000
# 2 -5.4959 47.5498 25.4448 0.0000 2.6537 0.0000
# 3 39.0047 25.4448 171.8552 0.0000 -17.6340 0.0000
# 4 0.0000 0.0000 0.0000 38.1491 0.0000 8.3652
# 5 -5.8797 2.6537 -17.6340 0.0000 46.7210 0.0000
# 6 0.0000 0.0000 0.0000 8.3652 0.0000 16.8541
#
#
#
# Elastic Compliance Matrix: (Units=1/GPa)
#
#
# Indices 1 2 3 4 5 6 
#
# 1 0.009151 0.002343 -0.002413 0.000000 0.000108 0.000000
# 2 0.002343 0.023767 -0.004326 0.000000 -0.002688 0.000000
# 3 -0.002413 -0.004326 0.007283 0.000000 0.002691 0.000000
# 4 0.000000 0.000000 0.000000 0.029414 0.000000 -0.014599
# 5 0.000108 -0.002688 0.002691 0.000000 0.022586 0.000000
# 6 0.000000 0.000000 0.000000 -0.014599 0.000000 0.066579
#
#
# Mechanical properties :
#
#
# Convention : Reuss Voigt Hill
#
# Bulk Modulus (GPa) = 31.83945 50.92830 41.38387
# Shear Modulus (GPa) = 28.08348 39.11109 33.59728
#
# Velocity S-wave (km/s) = 3.39171 4.00261 3.70976
# Velocity P-wave (km/s) = 5.32734 6.49790 5.94151
#
# Compressibility (1/GPa) = 0.03140758
#
# Stress axis : x y z
#
# Youngs Moduli (GPa) = 109.28214 42.07601 137.30390
#
# Poissons Ratio (x) = -0.09857 0.33126
# Poissons Ratio (y) = -0.25601 0.59403
# Poissons Ratio (z) = 0.26366 0.18204
#
# Static dielectric constant tensor:
#      x y z
#    x 4.294730 0.000000 0.134280 
#    y 0.000000 3.729990 0.000000 
#    z 0.134280 0.000000 4.386520 
# 
# 
# High freq. dielectric constant tensor:
#      x y z
#    x 1.981400 0.000000 0.014430 
#    y 0.000000 1.931190 0.000000 
#    z 0.014430 0.000000 1.975750 
# 
# From -- ./inp_files/22319.got.cif
#   From: 2010.03.12/outbox.cif.g09.slc.cpg/sg5_12_cif.got.tgz:22319.got - 2010.03.31 09:47:26.
