data_PCOD8051784
_publ_section_title
;
Structure prediction by ZEFSAII (Michael W. Deem and Ramdas Pophale) SiO2 
 PCOD8051784
Probable space group: C 2
;
_chemical_formula_sum "Si O2"
_cell_formula_units_Z 32
_cell_length_a 9.043333
_cell_length_b 11.351699
_cell_length_c 14.749212
_cell_angle_alpha 90.000000
_cell_angle_beta 82.154444
_cell_angle_gamma 90.000000
_cell_volume 1499.940049
_symmetry_space_group_name_H-M "C 2"
_symmetry_group_IT_number 5
_symmetry_cell_setting 'monoclinic'
loop_
_space_group_symop_operation_xyz
x,y,z
-x,y,-z
1/2+x,1/2+y,z
1/2-x,1/2+y,-z
loop_
_atom_site_type_symbol
_atom_site_label
_atom_site_fract_x
_atom_site_fract_y
_atom_site_fract_z
Si Si1 0.510962 0.166590 0.896666
Si Si2 0.091951 0.273981 0.730858
Si Si3 0.142088 0.918748 0.672048
Si Si4 0.637913 0.367205 0.182492
Si Si5 0.173475 0.656463 0.628292
Si Si6 0.135069 0.128816 0.551197
Si Si7 0.816486 0.120975 0.797339
Si Si8 0.571411 0.018145 0.263524
O O1 0.423065 0.290391 0.896108
O O2 0.681202 0.196192 0.851941
O O3 0.439442 0.065736 0.838498
O O4 0.500000 0.120769 0.000000
O O5 0.231236 0.288818 0.785557
O O6 0.151988 0.219502 0.632446
O O7 0.972896 0.189017 0.791862
O O8 0.020011 0.399070 0.716066
O O9 0.208454 0.794927 0.635613
O O10 0.990145 0.893134 0.735108
O O11 0.104481 0.996758 0.587814
O O12 0.257439 0.994480 0.724295
O O13 0.688355 0.497336 0.146614
O O14 0.215014 0.622800 0.522279
O O15 0.281639 0.594294 0.693870
O O16 0.002785 0.616777 0.663481
O O17 0.000000 0.172858 0.500000
#
# Coordination Sequence:
#
# PCOD8051784 Si02
#       8
#     4   4   4   4   4   4   4   4
#     4  11  25  49  72 103 139 167 227 292 338 418
#     4  12  23  42  74  96 136 192 223 274 345 410
#     4  12  24  43  70  94 140 189 227 284 343 404
#     4  12  23  45  73 100 131 186 226 270 359 411
#     4  11  23  42  63  98 137 185 234 288 325 395
#     4  12  25  39  61 101 139 178 241 285 324 393
#     4  11  22  47  67  97 142 178 222 276 347 406
#     4  11  23  46  69  95 137 184 223 280 357 404
#
# _framework density 21.334185999999999
#
# number of rings (size 3 to 8) (size 9 to 14) (size 15 to 20)
#    0.000    0.500    8.750    0.750    1.750    0.500 
#    4.500    0.625    0.000    0.000    0.000    0.000 
#    0.000    0.000    0.000    0.000    0.000    0.000 
#
# Total GULP energy -198396.512427 kJ/mol
# GULP energy per Si atom -12399.782027 kJ/mol
# Density = 2.128563 g / cm^3
# Si number density = 21.334186 Si / 1000 Ang^3
#
#
#
# Elastic Constant Matrix: (Units=GPa)
#
#
# Indices 1 2 3 4 5 6 
#
# 1 131.3333 27.9514 34.5158 0.0000 3.6884 0.0000
# 2 27.9514 119.5598 29.8872 0.0000 10.5207 0.0000
# 3 34.5158 29.8872 87.9963 0.0000 -5.9773 0.0000
# 4 0.0000 0.0000 0.0000 27.0241 0.0000 3.4537
# 5 3.6884 10.5207 -5.9773 0.0000 16.4696 0.0000
# 6 0.0000 0.0000 0.0000 3.4537 0.0000 40.4033
#
#
#
# Elastic Compliance Matrix: (Units=1/GPa)
#
#
# Indices 1 2 3 4 5 6 
#
# 1 0.008757 -0.001012 -0.003261 0.000000 -0.002498 0.000000
# 2 -0.001012 0.010157 -0.003566 0.000000 -0.007556 0.000000
# 3 -0.003261 -0.003566 0.014414 0.000000 0.008239 0.000000
# 4 0.000000 0.000000 0.000000 0.037413 0.000000 -0.003198
# 5 -0.002498 -0.007556 0.008239 0.000000 0.069094 0.000000
# 6 0.000000 0.000000 0.000000 -0.003198 0.000000 0.025024
#
#
# Mechanical properties :
#
#
# Convention : Reuss Voigt Hill
#
# Bulk Modulus (GPa) = 56.65751 58.17760 57.41755
# Shear Modulus (GPa) = 26.82129 33.21507 30.01818
#
# Velocity S-wave (km/s) = 3.54955 3.95003 3.75513
# Velocity P-wave (km/s) = 6.58892 6.93776 6.76559
#
# Compressibility (1/GPa) = 0.01764991
#
# Stress axis : x y z
#
# Youngs Moduli (GPa) = 114.19782 98.45492 69.37771
#
# Poissons Ratio (x) = 0.09967 0.22621
# Poissons Ratio (y) = 0.11561 0.24739
# Poissons Ratio (z) = 0.37235 0.35108
#
# Static dielectric constant tensor:
#      x y z
#    x 4.072300 0.000000 0.026930 
#    y 0.000000 4.584660 0.000000 
#    z 0.026930 0.000000 3.532910 
# 
# 
# High freq. dielectric constant tensor:
#      x y z
#    x 1.849980 0.000000 -0.001250 
#    y 0.000000 1.852770 0.000000 
#    z -0.001250 0.000000 1.797740 
# 
# From -- ./inp_files/50501.got.cif
#   From: 2010.03.12/outbox.cif.g09.slc.cpg/sg5_26_cif.got.tgz:50501.got - 2010.03.31 09:47:26.
