data_PCOD8051705
_publ_section_title
;
Structure prediction by ZEFSAII (Michael W. Deem and Ramdas Pophale) SiO2 
 PCOD8051705
Probable space group: C 2
;
_chemical_formula_sum "Si O2"
_cell_formula_units_Z 30
_cell_length_a 24.532397
_cell_length_b 9.897221
_cell_length_c 8.795360
_cell_angle_alpha 90.000000
_cell_angle_beta 141.595024
_cell_angle_gamma 90.000000
_cell_volume 1326.628714
_symmetry_space_group_name_H-M "C 2"
_symmetry_group_IT_number 5
_symmetry_cell_setting 'monoclinic'
loop_
_space_group_symop_operation_xyz
x,y,z
-x,y,-z
1/2+x,1/2+y,z
1/2-x,1/2+y,-z
loop_
_atom_site_type_symbol
_atom_site_label
_atom_site_fract_x
_atom_site_fract_y
_atom_site_fract_z
Si Si1 0.904353 0.740940 0.231161
Si Si2 0.206257 0.555351 0.545218
Si Si3 0.211021 0.575384 0.218410
Si Si4 0.595573 0.728907 0.708485
Si Si5 0.000000 0.137973 0.000000
Si Si6 0.853908 0.277323 0.510644
Si Si7 0.902712 0.002485 0.049958
Si Si8 0.278231 0.315615 0.229615
O O1 0.838978 0.806988 0.213481
O O2 0.000000 0.701402 0.500000
O O3 0.916066 0.846521 0.119846
O O4 0.863151 0.602948 0.071854
O O5 0.169871 0.541552 0.293255
O O6 0.155691 0.439221 0.530001
O O7 0.187417 0.699697 0.581064
O O8 0.309566 0.528750 0.769008
O O9 0.260533 0.716902 0.354186
O O10 0.281488 0.461410 0.318299
O O11 0.500000 0.804514 0.500000
O O12 0.620189 0.705676 0.588834
O O13 0.584464 0.584933 0.765979
O O14 0.674271 0.806757 0.964465
O O15 0.921603 0.239818 0.790068
O O16 0.023073 0.043347 0.908304
#
# Coordination Sequence:
#
# PCOD8051705 Si02
#       8
#     4   4   4   4   2   4   4   4
#     4  12  28  47  72 108 149 195 248 300 361 430
#     4  11  25  46  73 100 144 189 240 295 369 429
#     4  12  25  46  73 102 144 195 236 298 368 434
#     4  11  22  40  73 101 139 183 239 292 349 429
#     4  12  26  40  74 112 140 184 242 300 366 446
#     4  12  24  45  70 106 139 187 241 297 362 431
#     4  11  23  43  71 110 138 184 243 298 359 433
#     4  11  27  46  71 104 142 191 241 294 366 431
#
# _framework density 22.613712
#
# number of rings (size 3 to 8) (size 9 to 14) (size 15 to 20)
#    0.000    0.533    5.333    2.000    7.467    0.533 
#    2.400    0.000    0.000    0.000    0.000    0.000 
#    0.000    0.000    0.000    0.000    0.000    0.000 
#
# Total GULP energy -185998.997123 kJ/mol
# GULP energy per Si atom -12399.933142 kJ/mol
# Density = 2.256224 g / cm^3
# Si number density = 22.613712 Si / 1000 Ang^3
#
#
#
# Elastic Constant Matrix: (Units=GPa)
#
#
# Indices 1 2 3 4 5 6 
#
# 1 104.6268 47.7096 42.5821 0.0000 -11.4835 0.0000
# 2 47.7096 130.2052 35.8163 0.0000 -11.5455 0.0000
# 3 42.5821 35.8163 108.8371 0.0000 -0.7448 0.0000
# 4 0.0000 0.0000 0.0000 25.4833 0.0000 -2.7495
# 5 -11.4835 -11.5455 -0.7448 0.0000 42.7034 0.0000
# 6 0.0000 0.0000 0.0000 -2.7495 0.0000 29.5455
#
#
#
# Elastic Compliance Matrix: (Units=1/GPa)
#
#
# Indices 1 2 3 4 5 6 
#
# 1 0.013012 -0.003465 -0.003934 0.000000 0.002494 0.000000
# 2 -0.003465 0.009586 -0.001788 0.000000 0.001629 0.000000
# 3 -0.003934 -0.001788 0.011306 0.000000 -0.001344 0.000000
# 4 0.000000 0.000000 0.000000 0.039639 0.000000 0.003689
# 5 0.002494 0.001629 -0.001344 0.000000 0.024505 0.000000
# 6 0.000000 0.000000 0.000000 0.003689 0.000000 0.034189
#
#
# Mechanical properties :
#
#
# Convention : Reuss Voigt Hill
#
# Bulk Modulus (GPa) = 64.38385 66.20945 65.29665
# Shear Modulus (GPa) = 32.09479 34.05052 33.07265
#
# Velocity S-wave (km/s) = 3.77140 3.88460 3.82842
# Velocity P-wave (km/s) = 6.89185 7.03294 6.96275
#
# Compressibility (1/GPa) = 0.01553185
#
# Stress axis : x y z
#
# Youngs Moduli (GPa) = 76.84949 104.31929 88.44643
#
# Poissons Ratio (x) = 0.36144 0.34793
# Poissons Ratio (y) = 0.26627 0.15813
# Poissons Ratio (z) = 0.30231 0.18651
#
# Static dielectric constant tensor:
#      x y z
#    x 3.966320 0.000000 0.013680 
#    y 0.000000 3.907930 0.000000 
#    z 0.013680 0.000000 4.206670 
# 
# 
# High freq. dielectric constant tensor:
#      x y z
#    x 1.886360 0.000000 -0.008450 
#    y 0.000000 1.883820 0.000000 
#    z -0.008450 0.000000 1.898650 
# 
# From -- ./inp_files/31805.got.cif
#   From: 2010.03.12/outbox.cif.g09.slc.cpg/sg5_16_cif.got.tgz:31805.got - 2010.03.31 09:47:26.
