data_PCOD8051956
_publ_section_title
;
Structure prediction by ZEFSAII (Michael W. Deem and Ramdas Pophale) SiO2 
 PCOD8051956
Probable space group: C 2
;
_chemical_formula_sum "Si O2"
_cell_formula_units_Z 24
_cell_length_a 14.975034
_cell_length_b 8.635415
_cell_length_c 13.689780
_cell_angle_alpha 90.000000
_cell_angle_beta 143.966527
_cell_angle_gamma 90.000000
_cell_volume 1041.394279
_symmetry_space_group_name_H-M "C 2"
_symmetry_group_IT_number 5
_symmetry_cell_setting 'monoclinic'
loop_
_space_group_symop_operation_xyz
x,y,z
-x,y,-z
1/2+x,1/2+y,z
1/2-x,1/2+y,-z
loop_
_atom_site_type_symbol
_atom_site_label
_atom_site_fract_x
_atom_site_fract_y
_atom_site_fract_z
Si Si1 0.745892 0.358460 0.831196
Si Si2 0.065449 0.366209 0.808989
Si Si3 0.957849 0.688805 0.635656
Si Si4 0.154879 0.180222 0.262548
Si Si5 0.270344 0.213909 0.838899
Si Si6 0.075585 0.841382 0.199429
O O1 0.575548 0.293809 0.679686
O O2 0.847850 0.257396 0.847144
O O3 0.751710 0.533625 0.799700
O O4 0.807121 0.350408 0.995212
O O5 0.122139 0.272313 0.764678
O O6 0.042786 0.542501 0.757528
O O7 0.909973 0.297594 0.713760
O O8 0.826258 0.636722 0.445196
O O9 0.883281 0.793222 0.654635
O O10 0.051601 0.026183 0.170023
O O11 0.283133 0.295998 0.744952
O O12 0.422539 0.252702 0.033597
#
# Coordination Sequence:
#
# PCOD8051956 Si02
#       6
#     4   4   4   4   4   4
#     4  12  24  45  72 106 136 184 242 289 346 421
#     4  12  24  44  72 106 137 187 240 287 352 418
#     4  12  25  48  70 104 147 184 232 292 364 422
#     4  12  28  43  72 105 146 186 227 299 360 422
#     4  11  25  42  71 103 132 183 234 299 332 414
#     4  11  24  44  69 102 142 178 237 286 356 412
#
# _framework density 23.046025
#
# number of rings (size 3 to 8) (size 9 to 14) (size 15 to 20)
#    0.000    0.333    3.333    5.000    9.333    0.000 
#    0.000    7.500    0.000    0.000    0.000    0.000 
#    0.000    0.000    0.000    0.000    0.000    0.000 
#
# Total GULP energy -148873.598862 kJ/mol
# GULP energy per Si atom -12406.133238 kJ/mol
# Density = 2.299357 g / cm^3
# Si number density = 23.046025 Si / 1000 Ang^3
#
#
#
# Elastic Constant Matrix: (Units=GPa)
#
#
# Indices 1 2 3 4 5 6 
#
# 1 128.7599 29.5060 2.7283 0.0000 -3.4844 0.0000
# 2 29.5060 137.3402 4.2738 0.0000 -8.8339 0.0000
# 3 2.7283 4.2738 40.9223 0.0000 12.5560 0.0000
# 4 0.0000 0.0000 0.0000 24.6082 0.0000 1.4211
# 5 -3.4844 -8.8339 12.5560 0.0000 26.5756 0.0000
# 6 0.0000 0.0000 0.0000 1.4211 0.0000 50.2825
#
#
#
# Elastic Compliance Matrix: (Units=1/GPa)
#
#
# Indices 1 2 3 4 5 6 
#
# 1 0.008188 -0.001688 -0.000616 0.000000 0.000803 0.000000
# 2 -0.001688 0.007903 -0.001697 0.000000 0.003207 0.000000
# 3 -0.000616 -0.001697 0.029066 0.000000 -0.014378 0.000000
# 4 0.000000 0.000000 0.000000 0.040703 0.000000 -0.001150
# 5 0.000803 0.003207 -0.014378 0.000000 0.045593 0.000000
# 6 0.000000 0.000000 0.000000 -0.001150 0.000000 0.019920
#
#
# Mechanical properties :
#
#
# Convention : Reuss Voigt Hill
#
# Bulk Modulus (GPa) = 26.91440 42.22649 34.57045
# Shear Modulus (GPa) = 29.11018 38.32755 33.71887
#
# Velocity S-wave (km/s) = 3.55791 4.08252 3.82921
# Velocity P-wave (km/s) = 5.34623 6.37064 5.88079
#
# Compressibility (1/GPa) = 0.03715483
#
# Stress axis : x y z
#
# Youngs Moduli (GPa) = 122.12900 126.53427 34.40408
#
# Poissons Ratio (x) = 0.21362 0.02120
# Poissons Ratio (y) = 0.20619 0.05838
# Poissons Ratio (z) = 0.07524 0.21472
#
# Static dielectric constant tensor:
#      x y z
#    x 4.422900 0.000000 -0.078850 
#    y 0.000000 4.129600 0.000000 
#    z -0.078850 0.000000 3.760580 
# 
# 
# High freq. dielectric constant tensor:
#      x y z
#    x 1.931280 0.000000 -0.003350 
#    y 0.000000 1.920200 0.000000 
#    z -0.003350 0.000000 1.890120 
# 
# From -- ./inp_files/54256.got.cif
#   From: 2010.03.12/outbox.cif.g09.slc.cpg/sg5_28_cif.got.tgz:54256.got - 2010.03.31 09:47:26.
