data_PCOD8051605
_publ_section_title
;
Structure prediction by ZEFSAII (Michael W. Deem and Ramdas Pophale) SiO2 
 PCOD8051605
Probable space group: C 2
;
_chemical_formula_sum "Si O2"
_cell_formula_units_Z 32
_cell_length_a 10.263303
_cell_length_b 9.667905
_cell_length_c 13.763179
_cell_angle_alpha 90.000000
_cell_angle_beta 84.434331
_cell_angle_gamma 90.000000
_cell_volume 1359.208381
_symmetry_space_group_name_H-M "C 2"
_symmetry_group_IT_number 5
_symmetry_cell_setting 'monoclinic'
loop_
_space_group_symop_operation_xyz
x,y,z
-x,y,-z
1/2+x,1/2+y,z
1/2-x,1/2+y,-z
loop_
_atom_site_type_symbol
_atom_site_label
_atom_site_fract_x
_atom_site_fract_y
_atom_site_fract_z
Si Si1 0.068147 0.654330 0.757619
Si Si2 0.201902 0.633353 0.943848
Si Si3 0.788458 0.331099 0.083285
Si Si4 0.015735 0.375514 0.663242
Si Si5 0.213344 0.960912 0.444816
Si Si6 0.264304 0.758457 0.588824
Si Si7 0.014177 0.171384 0.162853
Si Si8 0.403836 0.410975 0.747536
O O1 0.091708 0.656843 0.870925
O O2 0.002659 0.511710 0.729762
O O3 0.201695 0.695672 0.691981
O O4 0.958331 0.760022 0.736376
O O5 0.187871 0.472750 0.980378
O O6 0.341635 0.685710 0.892118
O O7 0.179017 0.735623 0.037572
O O8 0.737707 0.396272 0.189167
O O9 0.912590 0.229491 0.090218
O O10 0.146753 0.390672 0.590527
O O11 0.893001 0.349976 0.600849
O O12 0.014409 0.247329 0.735158
O O13 0.165681 0.863078 0.537797
O O14 0.116796 0.964078 0.359811
O O15 0.214833 0.121104 0.479588
O O16 0.000209 0.009745 0.195491
#
# Coordination Sequence:
#
# PCOD8051605 Si02
#       8
#     4   4   4   4   4   4   4   4
#     4  11  25  42  65  96 136 171 216 270 325 396
#     4  11  24  43  66  98 129 172 224 267 327 394
#     4  11  24  44  67  95 132 171 220 274 324 391
#     4  11  20  44  71  88 125 177 217 266 329 383
#     4  11  24  43  66  98 129 172 224 267 327 394
#     4  11  24  44  67  95 132 171 220 274 324 391
#     4  11  20  44  71  88 125 177 217 266 329 383
#     4  11  25  42  65  96 136 171 216 270 325 396
#
# _framework density 23.543113999999999
#
# number of rings (size 3 to 8) (size 9 to 14) (size 15 to 20)
#    0.000    1.000    5.000    2.250    3.500    4.000 
#    4.500    0.000    0.000    0.000    0.000    0.000 
#    0.000    0.000    0.000    0.000    0.000    0.000 
#
# Total GULP energy -198282.025814 kJ/mol
# GULP energy per Si atom -12392.626613 kJ/mol
# Density = 2.348953 g / cm^3
# Si number density = 23.543114 Si / 1000 Ang^3
#
#
#
# Elastic Constant Matrix: (Units=GPa)
#
#
# Indices 1 2 3 4 5 6 
#
# 1 69.8325 36.7564 5.4810 0.0000 9.0260 0.0000
# 2 36.7564 134.1221 37.0282 0.0000 31.5382 0.0000
# 3 5.4810 37.0282 71.7660 0.0000 32.0258 0.0000
# 4 0.0000 0.0000 0.0000 49.8760 0.0000 7.7911
# 5 9.0260 31.5382 32.0258 0.0000 19.8649 0.0000
# 6 0.0000 0.0000 0.0000 7.7911 0.0000 44.3682
#
#
#
# Elastic Compliance Matrix: (Units=1/GPa)
#
#
# Indices 1 2 3 4 5 6 
#
# 1 0.017204 -0.003738 0.005185 0.000000 -0.010242 0.000000
# 2 -0.003738 0.014223 0.008076 0.000000 -0.033902 0.000000
# 3 0.005185 0.008076 0.057544 0.000000 -0.107949 0.000000
# 4 0.000000 0.000000 0.000000 0.020615 0.000000 -0.003620
# 5 -0.010242 -0.033902 -0.107949 0.000000 0.282852 0.000000
# 6 0.000000 0.000000 0.000000 -0.003620 0.000000 0.023174
#
#
# Mechanical properties :
#
#
# Convention : Reuss Voigt Hill
#
# Bulk Modulus (GPa) = 9.25775 48.25019 28.75397
# Shear Modulus (GPa) = 11.55879 35.91881 23.73880
#
# Velocity S-wave (km/s) = 2.21817 3.91021 3.17884
# Velocity P-wave (km/s) = 3.24055 6.39728 5.07082
#
# Compressibility (1/GPa) = 0.10801765
#
# Stress axis : x y z
#
# Youngs Moduli (GPa) = 58.12487 70.31086 17.37802
#
# Poissons Ratio (x) = 0.26282 -0.09011
# Poissons Ratio (y) = 0.21727 -0.14035
# Poissons Ratio (z) = -0.30140 -0.56784
#
# Static dielectric constant tensor:
#      x y z
#    x 3.990410 0.000000 0.091650 
#    y 0.000000 4.706280 0.000000 
#    z 0.091650 0.000000 4.393360 
# 
# 
# High freq. dielectric constant tensor:
#      x y z
#    x 1.907370 0.000000 0.010060 
#    y 0.000000 1.952710 0.000000 
#    z 0.010060 0.000000 1.934440 
# 
# From -- ./inp_files/52461.got.cif
#   From: 2010.03.12/outbox.cif.g09.slc.cpg/sg5_27_cif.got.tgz:52461.got - 2010.03.31 09:47:26.
