data_PCOD8051102
_publ_section_title
;
Structure prediction by ZEFSAII (Michael W. Deem and Ramdas Pophale) SiO2 
 PCOD8051102
Probable space group: C 2
;
_chemical_formula_sum "Si O2"
_cell_formula_units_Z 26
_cell_length_a 19.998053
_cell_length_b 9.001490
_cell_length_c 8.103320
_cell_angle_alpha 90.000000
_cell_angle_beta 51.790337
_cell_angle_gamma 90.000000
_cell_volume 1146.174989
_symmetry_space_group_name_H-M "C 2"
_symmetry_group_IT_number 5
_symmetry_cell_setting 'monoclinic'
loop_
_space_group_symop_operation_xyz
x,y,z
-x,y,-z
1/2+x,1/2+y,z
1/2-x,1/2+y,-z
loop_
_atom_site_type_symbol
_atom_site_label
_atom_site_fract_x
_atom_site_fract_y
_atom_site_fract_z
Si Si1 0.447851 0.582010 0.917626
Si Si2 0.329207 0.331803 0.706811
Si Si3 0.535117 0.926177 0.119875
Si Si4 0.362396 0.025896 0.494965
Si Si5 0.696504 0.053552 0.776300
Si Si6 0.500000 0.479070 0.500000
Si Si7 0.286159 0.365612 0.125533
O O1 0.432444 0.757369 0.950095
O O2 0.504326 0.569924 0.664903
O O3 0.500000 0.526968 0.000000
O O4 0.359310 0.490466 0.044094
O O5 0.345896 0.198703 0.555819
O O6 0.283791 0.470313 0.687453
O O7 0.419478 0.376707 0.638448
O O8 0.280472 0.292854 0.951375
O O9 0.460664 0.968141 0.365366
O O10 0.500000 0.985625 0.000000
O O11 0.621638 0.017317 0.024054
O O12 0.329341 0.991947 0.362581
O O13 0.306405 0.935981 0.710318
O O14 0.706197 0.230914 0.756809
#
# Coordination Sequence:
#
# PCOD8051102 Si02
#       7
#     4   4   4   4   4   2   4
#     4  10  23  43  71  95 143 181 235 287 349 412
#     4  11  25  46  65  98 146 174 236 283 345 415
#     4   9  22  43  66 102 134 178 232 285 346 418
#     4  11  24  43  72 100 135 183 233 283 347 413
#     4  11  24  42  72 100 138 177 231 287 344 419
#     4  10  26  42  68 106 132 186 228 290 342 420
#     4  11  25  43  66 102 135 186 224 288 354 404
#
# _framework density 22.684145999999998
#
# number of rings (size 3 to 8) (size 9 to 14) (size 15 to 20)
#    0.000    1.538    0.000    2.769   10.769    3.077 
#    2.769    0.000    0.000    0.000    0.000    0.000 
#    0.000    0.000    0.000    0.000    0.000    0.000 
#
# Total GULP energy -161118.747781 kJ/mol
# GULP energy per Si atom -12393.749829 kJ/mol
# Density = 2.263252 g / cm^3
# Si number density = 22.684146 Si / 1000 Ang^3
#
#
#
# Elastic Constant Matrix: (Units=GPa)
#
#
# Indices 1 2 3 4 5 6 
#
# 1 77.1192 30.1342 39.2526 0.0000 -5.8785 0.0000
# 2 30.1342 119.2580 29.8448 0.0000 -23.1446 0.0000
# 3 39.2526 29.8448 111.0884 0.0000 -11.8471 0.0000
# 4 0.0000 0.0000 0.0000 35.6475 0.0000 2.7762
# 5 -5.8785 -23.1446 -11.8471 0.0000 42.5698 0.0000
# 6 0.0000 0.0000 0.0000 2.7762 0.0000 15.9809
#
#
#
# Elastic Compliance Matrix: (Units=1/GPa)
#
#
# Indices 1 2 3 4 5 6 
#
# 1 0.016747 -0.003094 -0.005172 0.000000 -0.000809 0.000000
# 2 -0.003094 0.010415 -0.001181 0.000000 0.004906 0.000000
# 3 -0.005172 -0.001181 0.011339 0.000000 0.001799 0.000000
# 4 0.000000 0.000000 0.000000 0.028437 0.000000 -0.004940
# 5 -0.000809 0.004906 0.001799 0.000000 0.026547 0.000000
# 6 0.000000 0.000000 0.000000 -0.004940 0.000000 0.063433
#
#
# Mechanical properties :
#
#
# Convention : Reuss Voigt Hill
#
# Bulk Modulus (GPa) = 51.00924 56.21432 53.61178
# Shear Modulus (GPa) = 27.41993 32.72191 30.07092
#
# Velocity S-wave (km/s) = 3.48051 3.80215 3.64488
# Velocity P-wave (km/s) = 6.21993 6.64155 6.43419
#
# Compressibility (1/GPa) = 0.01960429
#
# Stress axis : x y z
#
# Youngs Moduli (GPa) = 59.71204 96.01648 88.19294
#
# Poissons Ratio (x) = 0.29710 0.45618
# Poissons Ratio (y) = 0.18476 0.10420
# Poissons Ratio (z) = 0.30886 0.11344
#
# Static dielectric constant tensor:
#      x y z
#    x 4.064160 0.000000 -0.040640 
#    y 0.000000 3.921570 0.000000 
#    z -0.040640 0.000000 4.567110 
# 
# 
# High freq. dielectric constant tensor:
#      x y z
#    x 1.892700 0.000000 -0.004860 
#    y 0.000000 1.889570 0.000000 
#    z -0.004860 0.000000 1.908310 
# 
# From -- ./inp_files/29107.got.cif
#   From: 2010.03.12/outbox.cif.g09.slc.cpg/sg5_15_cif.got.tgz:29107.got - 2010.03.31 09:47:26.
