data_PCOD8051967
_publ_section_title
;
Structure prediction by ZEFSAII (Michael W. Deem and Ramdas Pophale) SiO2 
 PCOD8051967
Probable space group: C 2
;
_chemical_formula_sum "Si O2"
_cell_formula_units_Z 22
_cell_length_a 13.287738
_cell_length_b 6.756712
_cell_length_c 20.006620
_cell_angle_alpha 90.000000
_cell_angle_beta 32.231678
_cell_angle_gamma 90.000000
_cell_volume 958.004691
_symmetry_space_group_name_H-M "C 2"
_symmetry_group_IT_number 5
_symmetry_cell_setting 'monoclinic'
loop_
_space_group_symop_operation_xyz
x,y,z
-x,y,-z
1/2+x,1/2+y,z
1/2-x,1/2+y,-z
loop_
_atom_site_type_symbol
_atom_site_label
_atom_site_fract_x
_atom_site_fract_y
_atom_site_fract_z
Si Si1 0.994279 0.427170 0.393181
Si Si2 0.054036 0.480339 0.039473
Si Si3 0.261173 0.277002 0.576474
Si Si4 0.000000 0.111453 0.500000
Si Si5 0.893177 0.883122 0.126843
Si Si6 0.448073 0.643280 0.850978
O O1 0.818425 0.352654 0.449108
O O2 0.936238 0.628580 0.464291
O O3 0.058180 0.253240 0.406810
O O4 0.179642 0.469968 0.244009
O O5 0.251399 0.601089 0.924221
O O6 0.057113 0.340117 0.101328
O O7 0.000000 0.366322 0.000000
O O8 0.890980 0.645907 0.136538
O O9 0.324239 0.470879 0.581379
O O10 0.103547 0.160763 0.706220
O O11 0.002567 0.960386 0.130159
O O12 0.000000 0.952889 0.000000
#
# Coordination Sequence:
#
# PCOD8051967 Si02
#       6
#     4   4   4   2   4   4
#     4  12  26  49  72 109 145 187 244 291 357 428
#     4  11  24  45  69 109 141 183 234 290 350 421
#     4  12  26  47  73 105 146 192 239 296 354 426
#     4  12  24  48  74 104 144 190 234 296 356 416
#     4  11  24  46  72 104 145 184 234 292 348 422
#     4  12  24  45  71 104 143 186 236 289 356 411
#
# _framework density 22.964399
#
# number of rings (size 3 to 8) (size 9 to 14) (size 15 to 20)
#    0.000    0.364    3.636    6.545    0.000    0.000 
#    6.545    0.000    0.000    0.000    0.000    0.000 
#    0.000    0.000    0.000    0.000    0.000    0.000 
#
# Total GULP energy -136434.203352 kJ/mol
# GULP energy per Si atom -12403.109396 kJ/mol
# Density = 2.291213 g / cm^3
# Si number density = 22.964399 Si / 1000 Ang^3
#
#
#
# Elastic Constant Matrix: (Units=GPa)
#
#
# Indices 1 2 3 4 5 6 
#
# 1 121.9301 38.6986 28.3146 0.0001 -2.9478 -0.0001
# 2 38.6986 98.3942 36.5474 -0.0002 2.0220 0.0002
# 3 28.3146 36.5474 134.2162 -0.0007 -1.3913 0.0004
# 4 0.0001 -0.0002 -0.0007 26.9328 0.0001 6.0915
# 5 -2.9478 2.0220 -1.3913 0.0001 35.2331 0.0000
# 6 -0.0001 0.0002 0.0004 6.0915 0.0000 16.7443
#
#
#
# Elastic Compliance Matrix: (Units=1/GPa)
#
#
# Indices 1 2 3 4 5 6 
#
# 1 0.009546 -0.003371 -0.001086 0.000000 0.000949 0.000000
# 2 -0.003371 0.012518 -0.002709 0.000000 -0.001107 0.000000
# 3 -0.001086 -0.002709 0.008422 0.000000 0.000397 0.000000
# 4 0.000000 0.000000 0.000000 0.040458 0.000000 -0.014719
# 5 0.000949 -0.001107 0.000397 0.000000 0.028541 0.000000
# 6 0.000000 0.000000 0.000000 -0.014719 0.000000 0.065076
#
#
# Mechanical properties :
#
#
# Convention : Reuss Voigt Hill
#
# Bulk Modulus (GPa) = 61.90414 62.40684 62.15549
# Shear Modulus (GPa) = 27.13286 32.51403 29.82344
#
# Velocity S-wave (km/s) = 3.44105 3.76685 3.60763
# Velocity P-wave (km/s) = 6.54239 6.79363 6.66919
#
# Compressibility (1/GPa) = 0.01615401
#
# Stress axis : x y z
#
# Youngs Moduli (GPa) = 104.75148 79.88572 118.74196
#
# Poissons Ratio (x) = 0.26927 0.12898
# Poissons Ratio (y) = 0.35308 0.32168
# Poissons Ratio (z) = 0.11379 0.21641
#
# Static dielectric constant tensor:
#      x y z
#    x 4.310750 0.000000 -0.042410 
#    y 0.000000 4.093880 0.000000 
#    z -0.042410 0.000000 3.983420 
# 
# 
# High freq. dielectric constant tensor:
#      x y z
#    x 1.925720 0.000000 -0.002310 
#    y 0.000000 1.909550 0.000000 
#    z -0.002310 0.000000 1.901620 
# 
# From -- ./inp_files/68543.got.cif
#   From: 2010.03.12/outbox.cif.g09.slc.cpg/sg5_35_cif.got.tgz:68543.got - 2010.03.31 09:47:26.
