data_PCOD8051240
_publ_section_title
;
Structure prediction by ZEFSAII (Michael W. Deem and Ramdas Pophale) SiO2 
 PCOD8051240
Probable space group: C 2
;
_chemical_formula_sum "Si O2"
_cell_formula_units_Z 32
_cell_length_a 29.700280
_cell_length_b 8.908992
_cell_length_c 11.441599
_cell_angle_alpha 90.000000
_cell_angle_beta 31.540655
_cell_angle_gamma 90.000000
_cell_volume 1583.665325
_symmetry_space_group_name_H-M "C 2"
_symmetry_group_IT_number 5
_symmetry_cell_setting 'monoclinic'
loop_
_space_group_symop_operation_xyz
x,y,z
-x,y,-z
1/2+x,1/2+y,z
1/2-x,1/2+y,-z
loop_
_atom_site_type_symbol
_atom_site_label
_atom_site_fract_x
_atom_site_fract_y
_atom_site_fract_z
Si Si1 0.512591 0.394060 0.717230
Si Si2 0.672393 0.302741 0.942953
Si Si3 0.150949 0.459554 0.398597
Si Si4 0.410656 0.184495 0.646201
Si Si5 0.793745 0.617599 0.357162
Si Si6 0.463616 0.725540 0.262298
Si Si7 0.074660 0.666563 0.762241
Si Si8 0.131548 0.285310 0.769506
O O1 0.566070 0.323279 0.491096
O O2 0.548111 0.557763 0.665859
O O3 0.529635 0.304227 0.798042
O O4 0.410789 0.395285 0.916159
O O5 0.751845 0.413928 0.787187
O O6 0.697887 0.169759 0.796334
O O7 0.652831 0.231953 0.111203
O O8 0.143965 0.556140 0.297003
O O9 0.083596 0.322563 0.532971
O O10 0.119716 0.554843 0.576284
O O11 0.500000 0.118612 0.500000
O O12 0.856245 0.723870 0.296016
O O13 0.819824 0.443954 0.319599
O O14 0.699338 0.648217 0.618085
O O15 0.415579 0.768254 0.249465
O O16 0.564865 0.762806 0.023749
O O17 0.000000 0.577680 0.000000
#
# Coordination Sequence:
#
# PCOD8051240 Si02
#       8
#     4   4   4   4   4   4   4   4
#     4  10  24  41  67  95 132 174 216 266 324 390
#     4  11  23  42  71  95 130 170 224 273 321 383
#     4  11  23  43  67  96 131 168 221 273 323 386
#     4   9  23  47  70  91 124 177 225 268 329 388
#     4  12  23  40  65  97 132 173 213 268 319 399
#     4  11  24  41  61  96 134 171 208 270 324 383
#     4  11  21  36  67  95 129 176 210 249 330 396
#     4  11  27  38  62  94 141 167 214 261 326 390
#
# _framework density 20.206289999999999
#
# number of rings (size 3 to 8) (size 9 to 14) (size 15 to 20)
#    0.000    1.250    3.750    0.750   10.500    1.000 
#    0.000    3.125    0.000    0.000    0.000    0.000 
#    0.000    0.000    0.000    0.000    0.000    0.000 
#
# Total GULP energy -198313.525131 kJ/mol
# GULP energy per Si atom -12394.595321 kJ/mol
# Density = 2.016030 g / cm^3
# Si number density = 20.206290 Si / 1000 Ang^3
#
#
#
# Elastic Constant Matrix: (Units=GPa)
#
#
# Indices 1 2 3 4 5 6 
#
# 1 98.6383 62.6668 46.9413 0.0000 0.9299 0.0000
# 2 62.6668 134.6869 55.9814 0.0000 -7.7808 0.0000
# 3 46.9413 55.9814 119.5524 0.0000 -10.2958 0.0000
# 4 0.0000 0.0000 0.0000 22.2095 0.0000 -11.4942
# 5 0.9299 -7.7808 -10.2958 0.0000 29.4367 0.0000
# 6 0.0000 0.0000 0.0000 -11.4942 0.0000 29.9976
#
#
#
# Elastic Compliance Matrix: (Units=1/GPa)
#
#
# Indices 1 2 3 4 5 6 
#
# 1 0.015712 -0.005985 -0.003656 0.000000 -0.003357 0.000000
# 2 -0.005985 0.011525 -0.002854 0.000000 0.002237 0.000000
# 3 -0.003656 -0.002854 0.011425 0.000000 0.003357 0.000000
# 4 0.000000 0.000000 0.000000 0.056163 0.000000 0.021520
# 5 -0.003357 0.002237 0.003357 0.000000 0.035843 0.000000
# 6 0.000000 0.000000 0.000000 0.021520 0.000000 0.041582
#
#
# Mechanical properties :
#
#
# Convention : Reuss Voigt Hill
#
# Bulk Modulus (GPa) = 73.13778 76.00629 74.57204
# Shear Modulus (GPa) = 24.77747 28.81464 26.79605
#
# Velocity S-wave (km/s) = 3.50555 3.78037 3.64555
# Velocity P-wave (km/s) = 7.25667 7.53338 7.39632
#
# Compressibility (1/GPa) = 0.01367282
#
# Stress axis : x y z
#
# Youngs Moduli (GPa) = 63.64697 86.77041 87.52370
#
# Poissons Ratio (x) = 0.51930 0.31997
# Poissons Ratio (y) = 0.38091 0.24979
# Poissons Ratio (z) = 0.23268 0.24764
#
# Static dielectric constant tensor:
#      x y z
#    x 3.899280 0.000000 -0.095730 
#    y 0.000000 3.731580 0.000000 
#    z -0.095730 0.000000 4.218150 
# 
# 
# High freq. dielectric constant tensor:
#      x y z
#    x 1.789400 0.000000 -0.007270 
#    y 0.000000 1.778720 0.000000 
#    z -0.007270 0.000000 1.803460 
# 
# From -- ./inp_files/48394.got.cif
#   From: 2010.03.12/outbox.cif.g09.slc.cpg/sg5_25_cif.got.tgz:48394.got - 2010.03.31 09:47:26.
