data_PCOD8051720
_publ_section_title
;
Structure prediction by ZEFSAII (Michael W. Deem and Ramdas Pophale) SiO2 
 PCOD8051720
Probable space group: C 2
;
_chemical_formula_sum "Si O2"
_cell_formula_units_Z 32
_cell_length_a 21.967998
_cell_length_b 6.457605
_cell_length_c 12.005835
_cell_angle_alpha 90.000000
_cell_angle_beta 121.304375
_cell_angle_gamma 90.000000
_cell_volume 1455.208775
_symmetry_space_group_name_H-M "C 2"
_symmetry_group_IT_number 5
_symmetry_cell_setting 'monoclinic'
loop_
_space_group_symop_operation_xyz
x,y,z
-x,y,-z
1/2+x,1/2+y,z
1/2-x,1/2+y,-z
loop_
_atom_site_type_symbol
_atom_site_label
_atom_site_fract_x
_atom_site_fract_y
_atom_site_fract_z
Si Si1 0.572282 0.103920 0.620955
Si Si2 0.629224 0.679593 0.946930
Si Si3 0.327372 0.412868 0.397342
Si Si4 0.605311 0.584898 0.323964
Si Si5 0.207681 0.103318 0.231178
Si Si6 0.506625 0.904905 0.133948
Si Si7 0.468005 0.314742 0.189924
Si Si8 0.189780 0.281017 0.776631
O O1 0.500000 0.020844 0.500000
O O2 0.603671 0.280141 0.569835
O O3 0.560603 0.199656 0.729803
O O4 0.619740 0.900101 0.670444
O O5 0.561575 0.825655 0.862384
O O6 0.599439 0.442881 0.921203
O O7 0.686624 0.729192 0.904994
O O8 0.665342 0.736473 0.098852
O O9 0.344403 0.559423 0.519810
O O10 0.262051 0.250883 0.351583
O O11 0.304532 0.560885 0.276293
O O12 0.653106 0.501459 0.267137
O O13 0.578791 0.818478 0.263987
O O14 0.533878 0.461113 0.280006
O O15 0.242984 0.920524 0.192170
O O16 0.501157 0.153025 0.132788
O O17 0.500000 0.826010 0.000000
#
# Coordination Sequence:
#
# PCOD8051720 Si02
#       8
#     4   4   4   4   4   4   4   4
#     4  11  22  42  65 104 132 166 228 278 340 408
#     4  11  24  45  67 102 135 171 234 281 340 406
#     4  11  26  45  65  95 138 185 226 276 335 399
#     4  11  26  46  67  99 139 179 229 278 335 418
#     4  11  28  45  65  98 139 180 231 274 326 422
#     4  11  24  43  70 103 136 175 224 286 352 403
#     4  11  24  40  73 100 135 173 215 292 348 397
#     4  11  26  42  70  94 131 183 222 280 337 396
#
# _framework density 21.98997
#
# number of rings (size 3 to 8) (size 9 to 14) (size 15 to 20)
#    0.000    1.000    5.000    0.000    7.000    2.500 
#    0.000    0.000    0.000    0.000    0.000    0.000 
#    0.000    0.000    0.000    0.000    0.000    0.000 
#
# Total GULP energy -198348.676627 kJ/mol
# GULP energy per Si atom -12396.792289 kJ/mol
# Density = 2.193992 g / cm^3
# Si number density = 21.989970 Si / 1000 Ang^3
#
#
#
# Elastic Constant Matrix: (Units=GPa)
#
#
# Indices 1 2 3 4 5 6 
#
# 1 92.6161 12.2972 18.8708 0.0000 -7.3020 0.0000
# 2 12.2972 80.4645 7.1820 0.0000 0.4802 0.0000
# 3 18.8708 7.1820 101.5630 0.0000 -5.6479 0.0000
# 4 0.0000 0.0000 0.0000 23.6817 0.0000 -7.0885
# 5 -7.3020 0.4802 -5.6479 0.0000 37.8658 0.0000
# 6 0.0000 0.0000 0.0000 -7.0885 0.0000 25.4790
#
#
#
# Elastic Compliance Matrix: (Units=1/GPa)
#
#
# Indices 1 2 3 4 5 6 
#
# 1 0.011557 -0.001606 -0.001925 0.000000 0.001962 0.000000
# 2 -0.001606 0.012733 -0.000633 0.000000 -0.000566 0.000000
# 3 -0.001925 -0.000633 0.010314 0.000000 0.001175 0.000000
# 4 0.000000 0.000000 0.000000 0.046062 0.000000 0.012815
# 5 0.001962 -0.000566 0.001175 0.000000 0.026970 0.000000
# 6 0.000000 0.000000 0.000000 0.012815 0.000000 0.042813
#
#
# Mechanical properties :
#
#
# Convention : Reuss Voigt Hill
#
# Bulk Modulus (GPa) = 38.05789 39.03816 38.54802
# Shear Modulus (GPa) = 29.84409 33.15822 31.50115
#
# Velocity S-wave (km/s) = 3.68797 3.88735 3.78898
# Velocity P-wave (km/s) = 5.95646 6.15954 6.05885
#
# Compressibility (1/GPa) = 0.02627576
#
# Stress axis : x y z
#
# Youngs Moduli (GPa) = 86.52479 78.53464 96.95673
#
# Poissons Ratio (x) = 0.12614 0.18661
# Poissons Ratio (y) = 0.13898 0.06142
# Poissons Ratio (z) = 0.16654 0.04975
#
# Static dielectric constant tensor:
#      x y z
#    x 4.116060 0.000000 -0.004920 
#    y 0.000000 3.994260 0.000000 
#    z -0.004920 0.000000 3.782030 
# 
# 
# High freq. dielectric constant tensor:
#      x y z
#    x 1.876280 0.000000 -0.004770 
#    y 0.000000 1.858480 0.000000 
#    z -0.004770 0.000000 1.859920 
# 
# From -- ./inp_files/47050.got.cif
#   From: 2010.03.12/outbox.cif.g09.slc.cpg/sg5_24_cif.got.tgz:47050.got - 2010.03.31 09:47:26.
