data_PCOD8051449
_publ_section_title
;
Structure prediction by ZEFSAII (Michael W. Deem and Ramdas Pophale) SiO2 
 PCOD8051449
Probable space group: C 2
;
_chemical_formula_sum "Si O2"
_cell_formula_units_Z 32
_cell_length_a 20.286692
_cell_length_b 15.070463
_cell_length_c 14.273573
_cell_angle_alpha 90.000000
_cell_angle_beta 161.232075
_cell_angle_gamma 90.000000
_cell_volume 1404.008640
_symmetry_space_group_name_H-M "C 2"
_symmetry_group_IT_number 5
_symmetry_cell_setting 'monoclinic'
loop_
_space_group_symop_operation_xyz
x,y,z
-x,y,-z
1/2+x,1/2+y,z
1/2-x,1/2+y,-z
loop_
_atom_site_type_symbol
_atom_site_label
_atom_site_fract_x
_atom_site_fract_y
_atom_site_fract_z
Si Si1 0.602928 0.491090 0.299333
Si Si2 0.227194 0.504675 0.273869
Si Si3 0.264907 0.327824 0.210961
Si Si4 0.696077 0.634181 0.144260
Si Si5 0.019368 0.418684 0.312059
Si Si6 0.152092 0.843635 0.120082
Si Si7 0.228571 0.166913 0.803802
Si Si8 0.394190 0.094050 0.213258
O O1 0.629355 0.518238 0.443206
O O2 0.817193 0.460940 0.541490
O O3 0.512892 0.577539 0.123000
O O4 0.430937 0.413247 0.068668
O O5 0.255578 0.405642 0.274007
O O6 0.280459 0.574841 0.265023
O O7 0.000000 0.523196 0.000000
O O8 0.500000 0.307462 0.500000
O O9 0.164167 0.238921 0.118896
O O10 0.126103 0.348554 0.934430
O O11 0.768448 0.618482 0.135402
O O12 0.862422 0.601464 0.442738
O O13 0.122938 0.370339 0.540206
O O14 0.862446 0.492616 0.139100
O O15 0.138075 0.742968 0.066166
O O16 0.000000 0.854850 0.000000
O O17 0.000000 0.204641 0.500000
O O18 0.322091 0.157097 0.032461
#
# Coordination Sequence:
#
# PCOD8051449 Si02
#       8
#     4   4   4   4   4   4   4   4
#     4  11  24  47  71 101 140 184 231 289 345 416
#     4  12  25  47  67 103 138 182 228 279 353 416
#     4  12  26  46  68 105 144 184 225 295 342 418
#     4  11  26  45  71 100 141 182 235 290 348 413
#     4  11  24  47  71 100 140 181 236 287 346 409
#     4  10  25  44  69 101 137 179 232 288 342 406
#     4  12  26  43  68 101 138 184 228 286 348 414
#     4  11  23  47  65 100 134 184 235 281 351 410
#
# _framework density 22.791882000000001
#
# number of rings (size 3 to 8) (size 9 to 14) (size 15 to 20)
#    0.000    0.750    5.000    1.500    7.000    1.000 
#    4.500    0.000    0.000    0.000    0.000    0.000 
#    0.000    0.000    0.000    0.000    0.000    0.000 
#
# Total GULP energy -198438.807088 kJ/mol
# GULP energy per Si atom -12402.425443 kJ/mol
# Density = 2.274001 g / cm^3
# Si number density = 22.791882 Si / 1000 Ang^3
#
#
#
# Elastic Constant Matrix: (Units=GPa)
#
#
# Indices 1 2 3 4 5 6 
#
# 1 58.9820 6.1034 23.7134 0.0000 -20.6057 0.0000
# 2 6.1034 129.8894 24.9869 0.0000 -2.5502 0.0000
# 3 23.7134 24.9869 122.2654 -0.0001 -23.1039 -0.0001
# 4 0.0000 0.0000 -0.0001 21.7390 0.0000 -2.0883
# 5 -20.6057 -2.5502 -23.1039 0.0000 38.3725 0.0000
# 6 0.0000 0.0000 -0.0001 -2.0883 0.0000 32.6640
#
#
#
# Elastic Compliance Matrix: (Units=1/GPa)
#
#
# Indices 1 2 3 4 5 6 
#
# 1 0.021416 -0.000393 -0.002150 0.000000 0.010179 0.000000
# 2 -0.000393 0.008030 -0.001697 0.000000 -0.000699 0.000000
# 3 -0.002150 -0.001697 0.009821 0.000000 0.004646 0.000000
# 4 0.000000 0.000000 0.000000 0.046285 0.000000 0.002959
# 5 0.010179 -0.000699 0.004646 0.000000 0.034277 0.000000
# 6 0.000000 0.000000 0.000000 0.002959 0.000000 0.030804
#
#
# Mechanical properties :
#
#
# Convention : Reuss Voigt Hill
#
# Bulk Modulus (GPa) = 32.48124 46.74936 39.61530
# Shear Modulus (GPa) = 29.52057 35.64397 32.58227
#
# Velocity S-wave (km/s) = 3.60283 3.95889 3.78505
# Velocity P-wave (km/s) = 5.62044 6.43840 6.04328
#
# Compressibility (1/GPa) = 0.03078700
#
# Stress axis : x y z
#
# Youngs Moduli (GPa) = 46.69515 124.53237 101.82728
#
# Poissons Ratio (x) = 0.04893 0.21890
# Poissons Ratio (y) = 0.01835 0.17280
# Poissons Ratio (z) = 0.10038 0.21133
#
# Static dielectric constant tensor:
#      x y z
#    x 4.126510 0.000000 -0.271260 
#    y 0.000000 4.157760 0.000000 
#    z -0.271260 0.000000 4.434270 
# 
# 
# High freq. dielectric constant tensor:
#      x y z
#    x 1.892780 0.000000 -0.015040 
#    y 0.000000 1.906470 0.000000 
#    z -0.015040 0.000000 1.913120 
# 
# From -- ./inp_files/57143.got.cif
#   From: 2010.03.12/outbox.cif.g09.slc.cpg/sg5_29_cif.got.tgz:57143.got - 2010.03.31 09:47:26.
