data_PCOD8051435
_publ_section_title
;
Structure prediction by ZEFSAII (Michael W. Deem and Ramdas Pophale) SiO2 
 PCOD8051435
Probable space group: C 2
;
_chemical_formula_sum "Si O2"
_cell_formula_units_Z 24
_cell_length_a 27.925544
_cell_length_b 5.078860
_cell_length_c 20.810218
_cell_angle_alpha 90.000000
_cell_angle_beta 157.553881
_cell_angle_gamma 90.000000
_cell_volume 1126.929816
_symmetry_space_group_name_H-M "C 2"
_symmetry_group_IT_number 5
_symmetry_cell_setting 'monoclinic'
loop_
_space_group_symop_operation_xyz
x,y,z
-x,y,-z
1/2+x,1/2+y,z
1/2-x,1/2+y,-z
loop_
_atom_site_type_symbol
_atom_site_label
_atom_site_fract_x
_atom_site_fract_y
_atom_site_fract_z
Si Si1 0.180100 0.646920 0.282510
Si Si2 0.492101 0.176376 0.811703
Si Si3 0.345847 0.678911 0.967470
Si Si4 0.581165 0.355046 0.414350
Si Si5 0.289451 0.652603 0.750971
Si Si6 0.801289 0.842528 0.096099
O O1 0.109247 0.729151 0.258836
O O2 0.329327 0.612669 0.483288
O O3 0.130218 0.376321 0.187675
O O4 0.154486 0.870217 0.197463
O O5 0.604720 0.386848 0.956238
O O6 0.423074 0.200089 0.658134
O O7 0.541641 0.881221 0.881219
O O8 0.291849 0.700508 0.829406
O O9 0.231410 0.745518 0.873084
O O10 0.644771 0.167006 0.547123
O O11 0.444334 0.441113 0.268952
O O12 0.784388 0.594473 0.027189
#
# Coordination Sequence:
#
# PCOD8051435 Si02
#       6
#     4   4   4   4   4   4
#     4  10  25  42  68 101 135 181 218 281 338 397
#     4  12  25  41  73  97 138 175 235 268 337 407
#     4  12  25  44  69 104 129 184 222 281 339 408
#     4  10  26  43  70  94 136 175 226 282 326 408
#     4  10  25  43  66  99 142 170 228 271 352 398
#     4  12  24  45  70 100 131 173 230 288 336 396
#
# _framework density 21.296802
#
# number of rings (size 3 to 8) (size 9 to 14) (size 15 to 20)
#    1.000    0.000    3.333    2.000    7.000    4.667 
#    0.000    0.000    3.667    0.000    0.000    0.000 
#    0.000    0.000    0.000    0.000    0.000    0.000 
#
# Total GULP energy -148785.424377 kJ/mol
# GULP energy per Si atom -12398.785365 kJ/mol
# Density = 2.124833 g / cm^3
# Si number density = 21.296802 Si / 1000 Ang^3
#
#
#
# Elastic Constant Matrix: (Units=GPa)
#
#
# Indices 1 2 3 4 5 6 
#
# 1 146.8588 22.3129 52.6741 0.0002 -6.7822 -0.0001
# 2 22.3129 106.5985 15.5101 0.0016 -8.0223 -0.0002
# 3 52.6741 15.5101 65.8447 0.0007 -21.0312 -0.0001
# 4 0.0002 0.0016 0.0007 18.1502 0.0000 1.4908
# 5 -6.7822 -8.0223 -21.0312 0.0000 51.3057 0.0000
# 6 -0.0001 -0.0002 -0.0001 1.4908 0.0000 34.2975
#
#
#
# Elastic Compliance Matrix: (Units=1/GPa)
#
#
# Indices 1 2 3 4 5 6 
#
# 1 0.009865 -0.001018 -0.008384 0.000000 -0.002292 0.000000
# 2 -0.001018 0.009839 -0.001214 -0.000001 0.000906 0.000000
# 3 -0.008384 -0.001214 0.025045 -0.000001 0.008968 0.000000
# 4 0.000000 -0.000001 -0.000001 0.055293 0.000000 -0.002403
# 5 -0.002292 0.000906 0.008968 0.000000 0.023006 0.000000
# 6 0.000000 0.000000 0.000000 -0.002403 0.000000 0.029261
#
#
# Mechanical properties :
#
#
# Convention : Reuss Voigt Hill
#
# Bulk Modulus (GPa) = 42.52223 55.58848 49.05536
# Shear Modulus (GPa) = 27.56640 36.00436 31.78538
#
# Velocity S-wave (km/s) = 3.60167 4.11615 3.86747
# Velocity P-wave (km/s) = 6.10785 6.98203 6.55952
#
# Compressibility (1/GPa) = 0.02351711
#
# Stress axis : x y z
#
# Youngs Moduli (GPa) = 101.36624 101.63803 39.92816
#
# Poissons Ratio (x) = 0.10342 0.33477
# Poissons Ratio (y) = 0.10314 0.04848
# Poissons Ratio (z) = 0.84988 0.12340
#
# Static dielectric constant tensor:
#      x y z
#    x 3.812150 0.000000 -0.081150 
#    y 0.000000 3.837250 0.000000 
#    z -0.081150 0.000000 3.661410 
# 
# 
# High freq. dielectric constant tensor:
#      x y z
#    x 1.840870 0.000000 -0.006370 
#    y 0.000000 1.842770 0.000000 
#    z -0.006370 0.000000 1.823560 
# 
# From -- ./inp_files/63182.got.cif
#   From: 2010.03.12/outbox.cif.g09.slc.cpg/sg5_32_cif.got.tgz:63182.got - 2010.03.31 09:47:26.
