data_PCOD8051730
_publ_section_title
;
Structure prediction by ZEFSAII (Michael W. Deem and Ramdas Pophale) SiO2 
 PCOD8051730
Probable space group: C 2
;
_chemical_formula_sum "Si O2"
_cell_formula_units_Z 26
_cell_length_a 19.093714
_cell_length_b 9.449205
_cell_length_c 8.487600
_cell_angle_alpha 90.000000
_cell_angle_beta 126.363110
_cell_angle_gamma 90.000000
_cell_volume 1233.147948
_symmetry_space_group_name_H-M "C 2"
_symmetry_group_IT_number 5
_symmetry_cell_setting 'monoclinic'
loop_
_space_group_symop_operation_xyz
x,y,z
-x,y,-z
1/2+x,1/2+y,z
1/2-x,1/2+y,-z
loop_
_atom_site_type_symbol
_atom_site_label
_atom_site_fract_x
_atom_site_fract_y
_atom_site_fract_z
Si Si1 0.091315 0.104760 0.171181
Si Si2 0.282999 0.773190 0.887025
Si Si3 0.204273 0.857828 0.462955
Si Si4 0.000000 0.494749 0.500000
Si Si5 0.157064 0.565657 0.906557
Si Si6 0.093788 0.634438 0.154247
Si Si7 0.895195 0.366949 0.628297
O O1 0.139944 0.183456 0.091716
O O2 0.063565 0.219814 0.263100
O O3 0.152990 0.995939 0.342275
O O4 0.000000 0.031422 0.000000
O O5 0.225453 0.853293 0.677126
O O6 0.228019 0.658268 0.910283
O O7 0.318380 0.897876 0.049244
O O8 0.147451 0.719844 0.354883
O O9 0.291271 0.855432 0.474733
O O10 0.937359 0.586498 0.303002
O O11 0.934216 0.398906 0.511036
O O12 0.149596 0.630225 0.070056
O O13 0.078005 0.479668 0.203254
O O14 0.000000 0.706002 0.000000
#
# Coordination Sequence:
#
# PCOD8051730 Si02
#       7
#     4   4   4   2   4   4   4
#     4  11  22  43  68  97 130 175 222 274 336 397
#     4  11  27  44  68 100 136 177 225 277 337 400
#     4  11  24  43  68  96 134 179 220 274 340 401
#     4  12  24  40  70 102 130 176 228 284 318 400
#     4  12  26  45  67 101 138 174 227 279 337 395
#     4  12  23  44  70  96 130 182 227 274 334 402
#     4  11  22  42  70  95 129 174 232 272 331 396
#
# _framework density 21.084249
#
# number of rings (size 3 to 8) (size 9 to 14) (size 15 to 20)
#    0.000    0.615    4.615    5.538    4.308    0.000 
#    0.000    0.000    0.000    0.000    0.000    0.000 
#    0.000    0.000    0.000    0.000    0.000    0.000 
#
# Total GULP energy -161188.114272 kJ/mol
# GULP energy per Si atom -12399.085713 kJ/mol
# Density = 2.103626 g / cm^3
# Si number density = 21.084249 Si / 1000 Ang^3
#
#
#
# Elastic Constant Matrix: (Units=GPa)
#
#
# Indices 1 2 3 4 5 6 
#
# 1 106.7954 32.6387 34.0888 0.0000 -2.7918 0.0000
# 2 32.6387 89.4758 35.2261 0.0000 1.6563 0.0000
# 3 34.0888 35.2261 112.1963 0.0000 15.4601 0.0000
# 4 0.0000 0.0000 0.0000 41.1642 0.0000 -9.5539
# 5 -2.7918 1.6563 15.4601 0.0000 37.7600 0.0000
# 6 0.0000 0.0000 0.0000 -9.5539 0.0000 31.6275
#
#
#
# Elastic Compliance Matrix: (Units=1/GPa)
#
#
# Indices 1 2 3 4 5 6 
#
# 1 0.011226 -0.003055 -0.002739 0.000000 0.002085 0.000000
# 2 -0.003055 0.013631 -0.003431 0.000000 0.000581 0.000000
# 3 -0.002739 -0.003431 0.011477 0.000000 -0.004751 0.000000
# 4 0.000000 0.000000 0.000000 0.026125 0.000000 0.007892
# 5 0.002085 0.000581 -0.004751 0.000000 0.028557 0.000000
# 6 0.000000 0.000000 0.000000 0.007892 0.000000 0.034002
#
#
# Mechanical properties :
#
#
# Convention : Reuss Voigt Hill
#
# Bulk Modulus (GPa) = 55.91967 56.93055 56.42511
# Shear Modulus (GPa) = 33.46044 35.87795 34.66920
#
# Velocity S-wave (km/s) = 3.98802 4.12958 4.05942
# Velocity P-wave (km/s) = 6.91270 7.05677 6.98510
#
# Compressibility (1/GPa) = 0.01788279
#
# Stress axis : x y z
#
# Youngs Moduli (GPa) = 89.07682 73.36269 87.12943
#
# Poissons Ratio (x) = 0.22415 0.23865
# Poissons Ratio (y) = 0.27216 0.29898
# Poissons Ratio (z) = 0.24398 0.25174
#
# Static dielectric constant tensor:
#      x y z
#    x 2.805800 0.000000 0.814190 
#    y 0.000000 3.764510 0.000000 
#    z 0.814190 0.000000 3.690970 
# 
# 
# High freq. dielectric constant tensor:
#      x y z
#    x 1.829610 0.000000 0.009510 
#    y 0.000000 1.819890 0.000000 
#    z 0.009510 0.000000 1.839530 
# 
# From -- ./inp_files/28899.got.cif
#   From: 2010.03.12/outbox.cif.g09.slc.cpg/sg5_15_cif.got.tgz:28899.got - 2010.03.31 09:47:26.
