data_PCOD8051933
_publ_section_title
;
Structure prediction by ZEFSAII (Michael W. Deem and Ramdas Pophale) SiO2 
 PCOD8051933
Probable space group: C 2
;
_chemical_formula_sum "Si O2"
_cell_formula_units_Z 32
_cell_length_a 9.892090
_cell_length_b 9.930652
_cell_length_c 33.545062
_cell_angle_alpha 90.000000
_cell_angle_beta 151.009871
_cell_angle_gamma 90.000000
_cell_volume 1597.094604
_symmetry_space_group_name_H-M "C 2"
_symmetry_group_IT_number 5
_symmetry_cell_setting 'monoclinic'
loop_
_space_group_symop_operation_xyz
x,y,z
-x,y,-z
1/2+x,1/2+y,z
1/2-x,1/2+y,-z
loop_
_atom_site_type_symbol
_atom_site_label
_atom_site_fract_x
_atom_site_fract_y
_atom_site_fract_z
Si Si1 0.147293 0.002950 0.795366
Si Si2 0.566174 0.251999 0.909274
Si Si3 0.328092 0.086865 0.272865
Si Si4 0.750889 0.375214 0.460226
Si Si5 0.486700 0.589568 0.452459
Si Si6 0.286718 0.995604 0.178116
Si Si7 0.681694 0.377335 0.720418
Si Si8 0.634471 0.763616 0.096630
O O1 0.335650 0.135930 0.846640
O O2 0.832681 0.022733 0.730876
O O3 0.081569 0.962396 0.732844
O O4 0.329051 0.895271 0.866828
O O5 0.425266 0.383699 0.892422
O O6 0.686137 0.282360 0.896713
O O7 0.816088 0.224407 0.004302
O O8 0.661037 0.101868 0.359394
O O9 0.199895 0.235647 0.232902
O O10 0.252649 0.991788 0.216762
O O11 0.632554 0.482522 0.460927
O O12 0.539934 0.336888 0.370591
O O13 0.000000 0.446462 0.500000
O O14 0.857313 0.236017 0.508995
O O15 0.500000 0.527724 0.500000
O O16 0.597293 0.964594 0.245703
O O17 0.237456 0.141555 0.149016
#
# Coordination Sequence:
#
# PCOD8051933 Si02
#       8
#     4   4   4   4   4   4   4   4
#     4  12  25  42  69 100 128 180 226 268 329 396
#     4  11  24  42  64  98 137 173 221 280 333 390
#     4  12  24  43  68  96 133 170 221 272 324 393
#     4  11  25  45  68  98 135 172 215 272 330 393
#     4  11  25  45  68  98 135 172 215 272 330 393
#     4  12  23  44  67  94 132 174 218 272 329 390
#     4  12  24  43  68  96 133 170 221 272 324 393
#     4  11  24  42  64  98 137 173 221 280 333 390
#
# _framework density 20.036384000000002
#
# number of rings (size 3 to 8) (size 9 to 14) (size 15 to 20)
#    0.000    0.500    8.750    0.750    1.750    0.500 
#    0.000    3.750    0.000    0.000    0.000    0.000 
#    0.000    0.000    0.000    0.000    0.000    0.000 
#
# Total GULP energy -198273.542485 kJ/mol
# GULP energy per Si atom -12392.096405 kJ/mol
# Density = 1.999078 g / cm^3
# Si number density = 20.036384 Si / 1000 Ang^3
#
#
#
# Elastic Constant Matrix: (Units=GPa)
#
#
# Indices 1 2 3 4 5 6 
#
# 1 191.4784 59.5909 46.0189 0.0000 -3.9483 0.0000
# 2 59.5909 101.9783 34.7321 0.0000 6.0143 0.0000
# 3 46.0189 34.7321 91.4122 0.0002 4.3322 0.0000
# 4 0.0000 0.0000 0.0002 34.6486 0.0000 0.9666
# 5 -3.9483 6.0143 4.3322 0.0000 25.8656 0.0000
# 6 0.0000 0.0000 0.0000 0.9666 0.0000 42.2383
#
#
#
# Elastic Compliance Matrix: (Units=1/GPa)
#
#
# Indices 1 2 3 4 5 6 
#
# 1 0.006863 -0.003364 -0.002282 0.000000 0.002212 0.000000
# 2 -0.003364 0.013007 -0.003106 0.000000 -0.003018 0.000000
# 3 -0.002282 -0.003106 0.013357 0.000000 -0.001863 0.000000
# 4 0.000000 0.000000 0.000000 0.028880 0.000000 -0.000661
# 5 0.002212 -0.003018 -0.001863 0.000000 0.040013 0.000000
# 6 0.000000 0.000000 0.000000 -0.000661 0.000000 0.023690
#
#
# Mechanical properties :
#
#
# Convention : Reuss Voigt Hill
#
# Bulk Modulus (GPa) = 63.59557 73.95028 68.77293
# Shear Modulus (GPa) = 33.65762 36.85231 35.25497
#
# Velocity S-wave (km/s) = 4.10301 4.29332 4.19925
# Velocity P-wave (km/s) = 7.36582 7.84633 7.60987
#
# Compressibility (1/GPa) = 0.01572437
#
# Stress axis : x y z
#
# Youngs Moduli (GPa) = 145.69905 76.87903 74.86975
#
# Poissons Ratio (x) = 0.25862 0.17085
# Poissons Ratio (y) = 0.49012 0.23252
# Poissons Ratio (z) = 0.33247 0.23876
#
# Static dielectric constant tensor:
#      x y z
#    x 3.760430 0.000000 0.017270 
#    y 0.000000 3.459340 0.000000 
#    z 0.017270 0.000000 3.692360 
# 
# 
# High freq. dielectric constant tensor:
#      x y z
#    x 1.794770 0.000000 0.004450 
#    y 0.000000 1.790280 0.000000 
#    z 0.004450 0.000000 1.784600 
# 
# From -- ./inp_files/71591.got.cif
#   From: 2010.03.12/outbox.cif.g09.slc.cpg/sg5_36_cif.got.tgz:71591.got - 2010.03.31 09:47:26.
