data_PCOD8051977
_publ_section_title
;
Structure prediction by ZEFSAII (Michael W. Deem and Ramdas Pophale) SiO2 
 PCOD8051977
Probable space group: C 2
;
_chemical_formula_sum "Si O2"
_cell_formula_units_Z 28
_cell_length_a 11.458296
_cell_length_b 9.371840
_cell_length_c 13.306221
_cell_angle_alpha 90.000000
_cell_angle_beta 120.985792
_cell_angle_gamma 90.000000
_cell_volume 1224.982604
_symmetry_space_group_name_H-M "C 2"
_symmetry_group_IT_number 5
_symmetry_cell_setting 'monoclinic'
loop_
_space_group_symop_operation_xyz
x,y,z
-x,y,-z
1/2+x,1/2+y,z
1/2-x,1/2+y,-z
loop_
_atom_site_type_symbol
_atom_site_label
_atom_site_fract_x
_atom_site_fract_y
_atom_site_fract_z
Si Si1 0.229671 0.857450 0.210771
Si Si2 0.175617 0.317688 0.203542
Si Si3 0.569681 0.663297 0.810258
Si Si4 0.647676 0.224774 0.535308
Si Si5 0.752284 0.610694 0.075070
Si Si6 0.456536 0.098617 0.872006
Si Si7 0.840019 0.979688 0.614999
O O1 0.364853 0.769409 0.242655
O O2 0.097324 0.758557 0.152219
O O3 0.246721 0.921130 0.329285
O O4 0.194245 0.982692 0.116847
O O5 0.286982 0.268578 0.331202
O O6 0.218339 0.263145 0.111598
O O7 0.163758 0.488502 0.210154
O O8 0.028936 0.251640 0.161996
O O9 0.487800 0.538774 0.715657
O O10 0.689102 0.601340 0.934961
O O11 0.500000 0.163988 0.500000
O O12 0.633835 0.358637 0.455062
O O13 0.743275 0.104234 0.525666
O O14 0.914947 0.592775 0.144986
O O15 0.500000 0.047027 0.000000
#
# Coordination Sequence:
#
# PCOD8051977 Si02
#       7
#     4   4   4   4   4   4   4
#     4  12  27  44  72 109 144 191 237 296 359 435
#     4  11  26  48  70 104 147 191 240 300 362 425
#     4  11  24  45  74 107 149 187 235 300 368 431
#     4  11  28  50  75 102 137 197 248 306 366 421
#     4  12  25  46  73 105 156 190 232 293 368 446
#     4  12  27  41  71 112 144 190 236 289 362 444
#     4  11  29  48  73 106 142 189 249 309 361 432
#
# _framework density 22.857465000000001
#
# number of rings (size 3 to 8) (size 9 to 14) (size 15 to 20)
#    0.000    0.571    5.714    1.286    8.000    2.286 
#    0.000    0.000    0.000    0.000    0.000    0.000 
#    0.000    0.000    0.000    0.000    0.000    0.000 
#
# Total GULP energy -173650.565484 kJ/mol
# GULP energy per Si atom -12403.611820 kJ/mol
# Density = 2.280544 g / cm^3
# Si number density = 22.857465 Si / 1000 Ang^3
#
#
#
# Elastic Constant Matrix: (Units=GPa)
#
#
# Indices 1 2 3 4 5 6 
#
# 1 101.7783 44.9805 36.6968 0.0000 12.5749 0.0000
# 2 44.9805 118.9896 31.3375 0.0000 1.4376 0.0000
# 3 36.6968 31.3375 72.5541 0.0000 4.1128 0.0000
# 4 0.0000 0.0000 0.0000 38.9684 0.0000 -6.6174
# 5 12.5749 1.4376 4.1128 0.0000 24.8379 0.0000
# 6 0.0000 0.0000 0.0000 -6.6174 0.0000 48.8223
#
#
#
# Elastic Compliance Matrix: (Units=1/GPa)
#
#
# Indices 1 2 3 4 5 6 
#
# 1 0.014162 -0.003932 -0.005119 0.000000 -0.006094 0.000000
# 2 -0.003932 0.010575 -0.002682 0.000000 0.001823 0.000000
# 3 -0.005119 -0.002682 0.017539 0.000000 -0.000157 0.000000
# 4 0.000000 0.000000 0.000000 0.026266 0.000000 0.003560
# 5 -0.006094 0.001823 -0.000157 0.000000 0.043267 0.000000
# 6 0.000000 0.000000 0.000000 0.003560 0.000000 0.020965
#
#
# Mechanical properties :
#
#
# Convention : Reuss Voigt Hill
#
# Bulk Modulus (GPa) = 53.16349 57.70575 55.43462
# Shear Modulus (GPa) = 30.76738 34.54619 32.65678
#
# Velocity S-wave (km/s) = 3.67284 3.89186 3.78393
# Velocity P-wave (km/s) = 6.42616 6.74508 6.58755
#
# Compressibility (1/GPa) = 0.01880990
#
# Stress axis : x y z
#
# Youngs Moduli (GPa) = 70.61395 94.56562 57.01442
#
# Poissons Ratio (x) = 0.37179 0.29186
# Poissons Ratio (y) = 0.27762 0.15292
# Poissons Ratio (z) = 0.36148 0.25365
#
# Static dielectric constant tensor:
#      x y z
#    x 4.278680 0.000000 0.091030 
#    y 0.000000 4.347630 0.000000 
#    z 0.091030 0.000000 4.000180 
# 
# 
# High freq. dielectric constant tensor:
#      x y z
#    x 1.916170 0.000000 0.001770 
#    y 0.000000 1.913680 0.000000 
#    z 0.001770 0.000000 1.887940 
# 
# From -- ./inp_files/52509.got.cif
#   From: 2010.03.12/outbox.cif.g09.slc.cpg/sg5_27_cif.got.tgz:52509.got - 2010.03.31 09:47:26.
