data_PCOD8051274
_publ_section_title
;
Structure prediction by ZEFSAII (Michael W. Deem and Ramdas Pophale) SiO2 
 PCOD8051274
Probable space group: C 2
;
_chemical_formula_sum "Si O2"
_cell_formula_units_Z 26
_cell_length_a 10.815943
_cell_length_b 9.331341
_cell_length_c 11.740561
_cell_angle_alpha 90.000000
_cell_angle_beta 72.661409
_cell_angle_gamma 90.000000
_cell_volume 1131.099115
_symmetry_space_group_name_H-M "C 2"
_symmetry_group_IT_number 5
_symmetry_cell_setting 'monoclinic'
loop_
_space_group_symop_operation_xyz
x,y,z
-x,y,-z
1/2+x,1/2+y,z
1/2-x,1/2+y,-z
loop_
_atom_site_type_symbol
_atom_site_label
_atom_site_fract_x
_atom_site_fract_y
_atom_site_fract_z
Si Si1 0.990230 0.438720 0.328582
Si Si2 0.458230 0.745768 0.139314
Si Si3 0.787709 0.987785 0.624586
Si Si4 0.624769 0.321949 0.038244
Si Si5 0.661770 0.208556 0.264750
Si Si6 0.797092 0.091141 0.871349
Si Si7 0.000000 0.193608 0.500000
O O1 0.978480 0.397035 0.198707
O O2 0.846531 0.484204 0.409399
O O3 0.026415 0.292646 0.383889
O O4 0.096489 0.560792 0.325370
O O5 0.312175 0.685944 0.189080
O O6 0.550291 0.626761 0.169839
O O7 0.500000 0.776859 0.000000
O O8 0.755786 0.056219 0.755386
O O9 0.878260 0.086527 0.521121
O O10 0.848016 0.828739 0.632490
O O11 0.583951 0.255329 0.171938
O O12 0.719052 0.456024 0.039367
O O13 0.500000 0.369827 0.000000
O O14 0.707556 0.217596 0.938044
#
# Coordination Sequence:
#
# PCOD8051274 Si02
#       7
#     4   4   4   4   4   4   2
#     4  11  26  45  72 103 132 183 229 282 339 407
#     4  11  22  42  69 101 147 183 217 276 338 403
#     4  10  25  48  68 100 135 176 225 293 342 399
#     4  11  24  38  63  98 136 185 222 271 335 406
#     4  10  24  43  65 102 140 177 227 279 338 401
#     4  11  23  43  64 100 139 179 229 272 341 402
#     4  12  26  48  74  98 130 180 234 286 350 400
#
# _framework density 22.986491000000001
#
# number of rings (size 3 to 8) (size 9 to 14) (size 15 to 20)
#    0.000    1.231    3.077    1.385    2.154    4.923 
#    5.538    0.000    0.000    0.000    0.000    0.000 
#    0.000    0.000    0.000    0.000    0.000    0.000 
#
# Total GULP energy -161176.351460 kJ/mol
# GULP energy per Si atom -12398.180882 kJ/mol
# Density = 2.293417 g / cm^3
# Si number density = 22.986491 Si / 1000 Ang^3
#
#
#
# Elastic Constant Matrix: (Units=GPa)
#
#
# Indices 1 2 3 4 5 6 
#
# 1 79.8658 32.1472 22.0463 0.0000 -15.1293 0.0000
# 2 32.1472 125.1915 44.2201 0.0000 -26.0022 0.0000
# 3 22.0463 44.2201 57.0983 0.0000 -12.3491 0.0000
# 4 0.0000 0.0000 0.0000 40.3211 0.0000 -14.2768
# 5 -15.1293 -26.0022 -12.3491 0.0000 29.0064 0.0000
# 6 0.0000 0.0000 0.0000 -14.2768 0.0000 39.3572
#
#
#
# Elastic Compliance Matrix: (Units=1/GPa)
#
#
# Indices 1 2 3 4 5 6 
#
# 1 0.015070 -0.001607 -0.003508 0.000000 0.004925 0.000000
# 2 -0.001607 0.012565 -0.007551 0.000000 0.007211 0.000000
# 3 -0.003508 -0.007551 0.025175 0.000000 0.002119 0.000000
# 4 0.000000 0.000000 0.000000 0.028456 0.000000 0.010322
# 5 0.004925 0.007211 0.002119 0.000000 0.044410 0.000000
# 6 0.000000 0.000000 0.000000 0.010322 0.000000 0.029153
#
#
# Mechanical properties :
#
#
# Convention : Reuss Voigt Hill
#
# Bulk Modulus (GPa) = 36.39596 50.99810 43.69703
# Shear Modulus (GPa) = 26.41018 32.65306 29.53162
#
# Velocity S-wave (km/s) = 3.39328 3.77308 3.58821
# Velocity P-wave (km/s) = 5.58753 6.41996 6.01815
#
# Compressibility (1/GPa) = 0.02747558
#
# Stress axis : x y z
#
# Youngs Moduli (GPa) = 66.35914 79.58337 39.72252
#
# Poissons Ratio (x) = 0.12792 0.13936
# Poissons Ratio (y) = 0.10666 0.29995
# Poissons Ratio (z) = 0.23282 0.60095
#
# Static dielectric constant tensor:
#      x y z
#    x 4.325450 0.000000 0.049020 
#    y 0.000000 4.275970 0.000000 
#    z 0.049020 0.000000 3.864850 
# 
# 
# High freq. dielectric constant tensor:
#      x y z
#    x 1.914090 0.000000 0.004730 
#    y 0.000000 1.914720 0.000000 
#    z 0.004730 0.000000 1.889690 
# 
# From -- ./inp_files/52201.got.cif
#   From: 2010.03.12/outbox.cif.g09.slc.cpg/sg5_27_cif.got.tgz:52201.got - 2010.03.31 09:47:26.
