data_PCOD8051543
_publ_section_title
;
Structure prediction by ZEFSAII (Michael W. Deem and Ramdas Pophale) SiO2 
 PCOD8051543
Probable space group: C 2
;
_chemical_formula_sum "Si O2"
_cell_formula_units_Z 14
_cell_length_a 5.212484
_cell_length_b 21.164767
_cell_length_c 5.017181
_cell_angle_alpha 90.000000
_cell_angle_beta 89.310804
_cell_angle_gamma 90.000000
_cell_volume 553.460429
_symmetry_space_group_name_H-M "C 2"
_symmetry_group_IT_number 5
_symmetry_cell_setting 'monoclinic'
loop_
_space_group_symop_operation_xyz
x,y,z
-x,y,-z
1/2+x,1/2+y,z
1/2-x,1/2+y,-z
loop_
_atom_site_type_symbol
_atom_site_label
_atom_site_fract_x
_atom_site_fract_y
_atom_site_fract_z
Si Si1 0.000000 0.198910 0.000000
Si Si2 0.500000 0.489115 0.500000
Si Si3 0.740478 0.807047 0.674618
Si Si4 0.500000 0.404898 0.000000
Si Si5 0.759163 0.078925 0.844311
O O1 0.819341 0.154132 0.812801
O O2 0.185880 0.239826 0.812928
O O3 0.592051 0.445112 0.743242
O O4 0.262157 0.537401 0.573027
O O5 0.500000 0.827710 0.500000
O O6 0.000000 0.800723 0.500000
O O7 0.768033 0.859635 0.905201
O O8 0.500000 0.066319 0.000000
O O9 0.000000 0.047899 0.000000
#
# Coordination Sequence:
#
# PCOD8051543 Si02
#       5
#     2   2   4   2   4
#     4  10  27  46  84 124 161 210 270 340 420 492
#     4  12  26  58  80 124 162 224 278 338 408 490
#     4  12  28  50  81 126 168 216 269 338 414 492
#     4  12  27  58  82 124 167 224 274 342 406 500
#     4  10  26  50  79 119 160 210 269 341 404 480
#
# _framework density 25.295394000000002
#
# number of rings (size 3 to 8) (size 9 to 14) (size 15 to 20)
#    0.857    0.000    2.857    1.714    8.000    1.143 
#   12.857    0.000    0.000    0.000    0.000    0.000 
#    0.000    0.000    0.000    0.000    0.000    0.000 
#
# Total GULP energy -86718.344547 kJ/mol
# GULP energy per Si atom -12388.334935 kJ/mol
# Density = 2.523782 g / cm^3
# Si number density = 25.295394 Si / 1000 Ang^3
#
#
#
# Elastic Constant Matrix: (Units=GPa)
#
#
# Indices 1 2 3 4 5 6 
#
# 1 176.8433 70.9303 85.2902 0.0000 -24.2357 0.0000
# 2 70.9303 208.9361 115.5379 0.0000 -8.2166 0.0000
# 3 85.2902 115.5379 179.0872 0.0000 -15.0554 0.0000
# 4 0.0000 0.0000 0.0000 74.1182 0.0000 -27.0109
# 5 -24.2357 -8.2166 -15.0554 0.0000 54.5848 0.0000
# 6 0.0000 0.0000 0.0000 -27.0109 0.0000 2.9050
#
#
#
# Elastic Compliance Matrix: (Units=1/GPa)
#
#
# Indices 1 2 3 4 5 6 
#
# 1 0.007766 -0.000947 -0.002876 0.000000 0.002512 0.000000
# 2 -0.000947 0.007558 -0.004469 0.000000 -0.000515 0.000000
# 3 -0.002876 -0.004469 0.009902 0.000000 0.000781 0.000000
# 4 0.000000 0.000000 0.000000 -0.005649 0.000000 -0.052522
# 5 0.002512 -0.000515 0.000781 0.000000 0.019574 0.000000
# 6 0.000000 0.000000 0.000000 -0.052522 0.000000 -0.144122
#
#
# Mechanical properties :
#
#
# Convention : Reuss Voigt Hill
#
# Bulk Modulus (GPa) = 115.70338 123.15371 119.42854
# Shear Modulus (GPa) = -58.47600 45.86214 -6.30693
#
# Velocity S-wave (km/s) = -4.81326 4.26263 -1.58074
# Velocity P-wave (km/s) = 3.86656 8.54509 6.63207
#
# Compressibility (1/GPa) = 0.00864279
#
# Stress axis : x y z
#
# Youngs Moduli (GPa) = 128.76376 132.30195 100.98576
#
# Poissons Ratio (x) = 0.12530 0.29048
# Poissons Ratio (y) = 0.12195 0.45127
# Poissons Ratio (z) = 0.37038 0.59121
#
# Static dielectric constant tensor:
#      x y z
#    x 4.214540 0.000000 0.084840 
#    y 0.000000 4.963370 0.000000 
#    z 0.084840 0.000000 4.819950 
# 
# 
# High freq. dielectric constant tensor:
#      x y z
#    x 1.986290 0.000000 -0.010560 
#    y 0.000000 2.034230 0.000000 
#    z -0.010560 0.000000 2.015270 
# 
# From -- ./inp_files/617.got.cif
#   From: 2010.03.12/outbox.cif.g09.slc.cpg/sg5_1_cif.got.tgz:617.got - 2010.03.31 09:47:26.
