data_PCOD8051632
_publ_section_title
;
Structure prediction by ZEFSAII (Michael W. Deem and Ramdas Pophale) SiO2 
 PCOD8051632
Probable space group: C 2
;
_chemical_formula_sum "Si O2"
_cell_formula_units_Z 32
_cell_length_a 29.003087
_cell_length_b 11.364849
_cell_length_c 9.707018
_cell_angle_alpha 90.000000
_cell_angle_beta 30.643591
_cell_angle_gamma 90.000000
_cell_volume 1630.816374
_symmetry_space_group_name_H-M "C 2"
_symmetry_group_IT_number 5
_symmetry_cell_setting 'monoclinic'
loop_
_space_group_symop_operation_xyz
x,y,z
-x,y,-z
1/2+x,1/2+y,z
1/2-x,1/2+y,-z
loop_
_atom_site_type_symbol
_atom_site_label
_atom_site_fract_x
_atom_site_fract_y
_atom_site_fract_z
Si Si1 0.672013 0.250000 0.777418
Si Si2 0.408450 0.490912 0.059711
Si Si3 0.884697 0.971270 0.440967
Si Si4 0.020883 0.567161 0.100684
Si Si5 0.215096 0.616591 0.935218
Si Si6 0.155314 0.705227 0.374337
Si Si7 0.419275 0.916126 0.809063
Si Si8 0.198315 0.205708 0.789706
O O1 0.620534 0.371234 0.941715
O O2 0.713446 0.205531 0.812698
O O3 0.755055 0.269895 0.459795
O O4 0.604122 0.157569 0.880984
O O5 0.374331 0.480460 0.303656
O O6 0.363650 0.599892 0.100071
O O7 0.515444 0.509037 0.770696
O O8 0.864631 0.839884 0.539930
O O9 0.813843 0.058525 0.694648
O O10 0.044495 0.455163 0.133991
O O11 0.936177 0.631842 0.385576
O O12 0.000000 0.522701 0.000000
O O13 0.196615 0.694194 0.116652
O O14 0.138670 0.518330 0.112786
O O15 0.226610 0.653138 0.300190
O O16 0.500000 0.883028 0.500000
O O17 0.359563 0.800775 0.979252
#
# Coordination Sequence:
#
# PCOD8051632 Si02
#       8
#     4   4   4   4   4   4   4   4
#     4  11  22  40  69  99 131 168 228 279 324 392
#     4  11  23  43  70  99 129 173 227 280 329 392
#     4  11  22  44  68  96 137 172 220 278 332 389
#     4  11  21  40  69 102 124 170 235 277 314 395
#     4  11  24  43  68  99 135 177 218 276 338 392
#     4  12  23  41  70 100 131 177 226 268 334 400
#     4  11  24  44  65  95 145 173 209 277 344 391
#     4  12  25  42  68 100 135 177 216 273 347 396
#
# _framework density 19.622073
#
# number of rings (size 3 to 8) (size 9 to 14) (size 15 to 20)
#    0.000    0.750    7.500    0.000    1.750    2.000 
#    2.250    3.750    0.000    0.000    0.000    0.000 
#    0.000    0.000    0.000    0.000    0.000    0.000 
#
# Total GULP energy -198493.147864 kJ/mol
# GULP energy per Si atom -12405.821742 kJ/mol
# Density = 1.957741 g / cm^3
# Si number density = 19.622073 Si / 1000 Ang^3
#
#
#
# Elastic Constant Matrix: (Units=GPa)
#
#
# Indices 1 2 3 4 5 6 
#
# 1 94.5421 27.5433 32.5459 0.0000 2.0680 0.0000
# 2 27.5433 40.9015 5.4064 0.0000 2.8181 0.0000
# 3 32.5459 5.4064 113.2918 0.0000 5.0323 0.0000
# 4 0.0000 0.0000 0.0000 16.4097 0.0000 -8.8825
# 5 2.0680 2.8181 5.0323 0.0000 27.6202 0.0000
# 6 0.0000 0.0000 0.0000 -8.8825 0.0000 16.2085
#
#
#
# Elastic Compliance Matrix: (Units=1/GPa)
#
#
# Indices 1 2 3 4 5 6 
#
# 1 0.014591 -0.009365 -0.003769 0.000000 0.000550 0.000000
# 2 -0.009365 0.030763 0.001342 0.000000 -0.002682 0.000000
# 3 -0.003769 0.001342 0.009919 0.000000 -0.001662 0.000000
# 4 0.000000 0.000000 0.000000 0.086640 0.000000 0.047480
# 5 0.000550 -0.002682 -0.001662 0.000000 0.036741 0.000000
# 6 0.000000 0.000000 0.000000 0.047480 0.000000 0.087716
#
#
# Mechanical properties :
#
#
# Convention : Reuss Voigt Hill
#
# Bulk Modulus (GPa) = 31.55815 42.19184 36.87499
# Shear Modulus (GPa) = 16.63789 24.26368 20.45079
#
# Velocity S-wave (km/s) = 2.91506 3.52028 3.23187
# Velocity P-wave (km/s) = 5.23908 6.17025 5.72364
#
# Compressibility (1/GPa) = 0.03168754
#
# Stress axis : x y z
#
# Youngs Moduli (GPa) = 68.53405 32.50640 100.81291
#
# Poissons Ratio (x) = 0.30444 0.37998
# Poissons Ratio (y) = 0.64186 -0.13525
# Poissons Ratio (z) = 0.25832 -0.04361
#
# Static dielectric constant tensor:
#      x y z
#    x 3.870200 0.000000 -0.137120 
#    y 0.000000 3.442660 0.000000 
#    z -0.137120 0.000000 3.701310 
# 
# 
# High freq. dielectric constant tensor:
#      x y z
#    x 1.769710 0.000000 -0.007920 
#    y 0.000000 1.753890 0.000000 
#    z -0.007920 0.000000 1.778880 
# 
# From -- ./inp_files/29601.got.cif
#   From: 2010.03.12/outbox.cif.g09.slc.cpg/sg5_15_cif.got.tgz:29601.got - 2010.03.31 09:47:26.
