data_PCOD8051278
_publ_section_title
;
Structure prediction by ZEFSAII (Michael W. Deem and Ramdas Pophale) SiO2 
 PCOD8051278
Probable space group: C 2
;
_chemical_formula_sum "Si O2"
_cell_formula_units_Z 30
_cell_length_a 12.011239
_cell_length_b 8.820433
_cell_length_c 13.164953
_cell_angle_alpha 90.000000
_cell_angle_beta 108.228840
_cell_angle_gamma 90.000000
_cell_volume 1324.756080
_symmetry_space_group_name_H-M "C 2"
_symmetry_group_IT_number 5
_symmetry_cell_setting 'monoclinic'
loop_
_space_group_symop_operation_xyz
x,y,z
-x,y,-z
1/2+x,1/2+y,z
1/2-x,1/2+y,-z
loop_
_atom_site_type_symbol
_atom_site_label
_atom_site_fract_x
_atom_site_fract_y
_atom_site_fract_z
Si Si1 0.032487 0.692210 0.229466
Si Si2 0.000000 0.822107 0.000000
Si Si3 0.708461 0.139731 0.720428
Si Si4 0.209660 0.893710 0.397887
Si Si5 0.635375 0.899085 0.021973
Si Si6 0.191653 0.066193 0.049994
Si Si7 0.221493 0.457459 0.264027
Si Si8 0.133040 0.119139 0.544033
O O1 0.106542 0.831699 0.296314
O O2 0.099951 0.532768 0.266521
O O3 0.912307 0.678772 0.256919
O O4 0.023800 0.717979 0.105237
O O5 0.893549 0.929603 0.003638
O O6 0.806337 0.086873 0.828928
O O7 0.759381 0.291324 0.681291
O O8 0.700917 0.006440 0.635955
O O9 0.287588 0.760025 0.466609
O O10 0.150279 0.978630 0.474129
O O11 0.651740 0.725543 0.988487
O O12 0.719186 0.935335 0.141937
O O13 0.500000 0.932499 0.000000
O O14 0.677884 0.017755 0.948839
O O15 0.328824 0.565872 0.331013
O O16 0.000000 0.172785 0.500000
#
# Coordination Sequence:
#
# PCOD8051278 Si02
#       8
#     4   2   4   4   4   4   4   4
#     4  11  25  43  70  97 142 187 227 288 344 407
#     4  12  22  44  68 100 146 188 236 284 344 420
#     4  11  23  45  65 100 139 180 230 286 345 406
#     4  11  25  45  71 103 138 176 236 285 344 420
#     4  11  24  42  64  97 138 183 234 289 345 413
#     4  11  24  40  64  95 135 187 231 281 346 414
#     4  10  24  43  66 101 132 178 236 277 342 412
#     4  11  25  46  72 102 135 184 227 292 349 401
#
# _framework density 22.645676000000002
#
# number of rings (size 3 to 8) (size 9 to 14) (size 15 to 20)
#    0.000    1.067    2.000    4.000    4.667    3.200 
#    0.000    2.000    0.000    0.000    0.000    0.000 
#    0.000    0.000    0.000    0.000    0.000    0.000 
#
# Total GULP energy -185983.727502 kJ/mol
# GULP energy per Si atom -12398.915167 kJ/mol
# Density = 2.259413 g / cm^3
# Si number density = 22.645676 Si / 1000 Ang^3
#
#
#
# Elastic Constant Matrix: (Units=GPa)
#
#
# Indices 1 2 3 4 5 6 
#
# 1 116.2935 47.1748 34.2847 0.0000 8.6619 0.0000
# 2 47.1748 122.9350 31.4603 0.0000 0.1801 0.0000
# 3 34.2847 31.4603 80.9068 0.0000 8.8248 0.0000
# 4 0.0000 0.0000 0.0000 32.5893 0.0000 -8.6931
# 5 8.6619 0.1801 8.8248 0.0000 31.5614 0.0000
# 6 0.0000 0.0000 0.0000 -8.6931 0.0000 38.4861
#
#
#
# Elastic Compliance Matrix: (Units=1/GPa)
#
#
# Indices 1 2 3 4 5 6 
#
# 1 0.011078 -0.003450 -0.003118 0.000000 -0.002149 0.000000
# 2 -0.003450 0.010136 -0.002657 0.000000 0.001632 0.000000
# 3 -0.003118 -0.002657 0.015080 0.000000 -0.003345 0.000000
# 4 0.000000 0.000000 0.000000 0.032652 0.000000 0.007375
# 5 -0.002149 0.001632 -0.003345 0.000000 0.033200 0.000000
# 6 0.000000 0.000000 0.000000 0.007375 0.000000 0.027649
#
#
# Mechanical properties :
#
#
# Convention : Reuss Voigt Hill
#
# Bulk Modulus (GPa) = 56.04796 60.66386 58.35591
# Shear Modulus (GPa) = 32.42681 34.34173 33.38427
#
# Velocity S-wave (km/s) = 3.78818 3.89843 3.84370
# Velocity P-wave (km/s) = 6.62853 6.86368 6.74713
#
# Compressibility (1/GPa) = 0.01784186
#
# Stress axis : x y z
#
# Youngs Moduli (GPa) = 90.27119 98.65963 66.31482
#
# Poissons Ratio (x) = 0.34035 0.20680
# Poissons Ratio (y) = 0.31141 0.17623
# Poissons Ratio (z) = 0.28151 0.26218
#
# Static dielectric constant tensor:
#      x y z
#    x 3.818680 0.000000 0.196500 
#    y 0.000000 4.346340 0.000000 
#    z 0.196500 0.000000 4.083030 
# 
# 
# High freq. dielectric constant tensor:
#      x y z
#    x 1.880540 0.000000 0.010890 
#    y 0.000000 1.915850 0.000000 
#    z 0.010890 0.000000 1.888340 
# 
# From -- ./inp_files/52476.got.cif
#   From: 2010.03.12/outbox.cif.g09.slc.cpg/sg5_27_cif.got.tgz:52476.got - 2010.03.31 09:47:26.
