data_PCOD8051751
_publ_section_title
;
Structure prediction by ZEFSAII (Michael W. Deem and Ramdas Pophale) SiO2 
 PCOD8051751
Probable space group: C 2
;
_chemical_formula_sum "Si O2"
_cell_formula_units_Z 26
_cell_length_a 11.287997
_cell_length_b 11.090757
_cell_length_c 9.273536
_cell_angle_alpha 90.000000
_cell_angle_beta 92.047452
_cell_angle_gamma 90.000000
_cell_volume 1160.235333
_symmetry_space_group_name_H-M "C 2"
_symmetry_group_IT_number 5
_symmetry_cell_setting 'monoclinic'
loop_
_space_group_symop_operation_xyz
x,y,z
-x,y,-z
1/2+x,1/2+y,z
1/2-x,1/2+y,-z
loop_
_atom_site_type_symbol
_atom_site_label
_atom_site_fract_x
_atom_site_fract_y
_atom_site_fract_z
Si Si1 0.147793 0.880980 0.707347
Si Si2 0.367796 0.205368 0.045106
Si Si3 0.224119 0.524035 0.752970
Si Si4 0.201479 0.574301 0.418559
Si Si5 0.500000 0.210010 0.500000
Si Si6 0.812936 0.242017 0.212497
Si Si7 0.511763 0.572801 0.161526
O O1 0.180405 0.814524 0.857168
O O2 0.097574 0.790882 0.584862
O O3 0.267792 0.946301 0.654777
O O4 0.047069 0.980284 0.729467
O O5 0.369080 0.084449 0.141579
O O6 0.500000 0.234431 0.000000
O O7 0.280854 0.188667 0.906170
O O8 0.204561 0.562748 0.589798
O O9 0.208379 0.382595 0.772463
O O10 0.350990 0.580313 0.797077
O O11 0.067536 0.624356 0.385307
O O12 0.290359 0.677244 0.364747
O O13 0.946230 0.203983 0.169970
O O14 0.500000 0.521544 0.000000
#
# Coordination Sequence:
#
# PCOD8051751 Si02
#       7
#     4   4   4   4   2   4   4
#     4  11  23  42  73  98 142 190 239 295 359 427
#     4  12  25  45  72 103 142 195 237 297 369 428
#     4  12  25  46  70 104 148 184 241 299 363 428
#     4  11  25  44  72 107 138 191 241 295 363 433
#     4  12  22  46  68 104 144 188 236 298 358 432
#     4  11  26  45  72 105 141 185 248 296 358 436
#     4  11  22  44  69 101 138 185 240 299 357 423
#
# _framework density 22.409248000000002
#
# number of rings (size 3 to 8) (size 9 to 14) (size 15 to 20)
#    0.000    0.615    3.077    6.000    2.154    2.462 
#    2.769    0.000    0.000    0.000    0.000    0.000 
#    0.000    0.000    0.000    0.000    0.000    0.000 
#
# Total GULP energy -161160.379274 kJ/mol
# GULP energy per Si atom -12396.952252 kJ/mol
# Density = 2.235824 g / cm^3
# Si number density = 22.409248 Si / 1000 Ang^3
#
#
#
# Elastic Constant Matrix: (Units=GPa)
#
#
# Indices 1 2 3 4 5 6 
#
# 1 91.1910 66.6379 14.1395 0.0000 -16.8539 0.0000
# 2 66.6379 146.9657 59.0768 0.0000 -18.3150 0.0000
# 3 14.1395 59.0768 104.4953 0.0000 -17.1099 0.0000
# 4 0.0000 0.0000 0.0000 24.4930 0.0000 3.2088
# 5 -16.8539 -18.3150 -17.1099 0.0000 30.0292 0.0000
# 6 0.0000 0.0000 0.0000 3.2088 0.0000 27.4530
#
#
#
# Elastic Compliance Matrix: (Units=1/GPa)
#
#
# Indices 1 2 3 4 5 6 
#
# 1 0.018125 -0.008836 0.003669 0.000000 0.006873 0.000000
# 2 -0.008836 0.013331 -0.006421 0.000000 -0.000487 0.000000
# 3 0.003669 -0.006421 0.013675 0.000000 0.005935 0.000000
# 4 0.000000 0.000000 0.000000 0.041463 0.000000 -0.004846
# 5 0.006873 -0.000487 0.005935 0.000000 0.040243 0.000000
# 6 0.000000 0.000000 0.000000 -0.004846 0.000000 0.036992
#
#
# Mechanical properties :
#
#
# Convention : Reuss Voigt Hill
#
# Bulk Modulus (GPa) = 45.55020 69.15117 57.35068
# Shear Modulus (GPa) = 25.73014 29.91489 27.82252
#
# Velocity S-wave (km/s) = 3.39218 3.65764 3.52741
# Velocity P-wave (km/s) = 5.97605 6.98306 6.49908
#
# Compressibility (1/GPa) = 0.02195380
#
# Stress axis : x y z
#
# Youngs Moduli (GPa) = 55.17360 75.01161 73.12485
#
# Poissons Ratio (x) = 0.66282 -0.26826
# Poissons Ratio (y) = 0.48753 0.46953
# Poissons Ratio (z) = -0.20241 0.48165
#
# Static dielectric constant tensor:
#      x y z
#    x 5.033770 0.000000 -0.030330 
#    y 0.000000 4.194590 0.000000 
#    z -0.030330 0.000000 4.326700 
# 
# 
# High freq. dielectric constant tensor:
#      x y z
#    x 1.874700 0.000000 -0.018390 
#    y 0.000000 1.888240 0.000000 
#    z -0.018390 0.000000 1.896500 
# 
# From -- ./inp_files/19397.got.cif
#   From: 2010.03.12/outbox.cif.g09.slc.cpg/sg5_10_cif.got.tgz:19397.got - 2010.03.31 09:47:26.
