data_PCOD8051127
_publ_section_title
;
Structure prediction by ZEFSAII (Michael W. Deem and Ramdas Pophale) SiO2 
 PCOD8051127
Probable space group: C 2
;
_chemical_formula_sum "Si O2"
_cell_formula_units_Z 24
_cell_length_a 10.270165
_cell_length_b 9.567101
_cell_length_c 11.874930
_cell_angle_alpha 90.000000
_cell_angle_beta 75.571755
_cell_angle_gamma 90.000000
_cell_volume 1129.979921
_symmetry_space_group_name_H-M "C 2"
_symmetry_group_IT_number 5
_symmetry_cell_setting 'monoclinic'
loop_
_space_group_symop_operation_xyz
x,y,z
-x,y,-z
1/2+x,1/2+y,z
1/2-x,1/2+y,-z
loop_
_atom_site_type_symbol
_atom_site_label
_atom_site_fract_x
_atom_site_fract_y
_atom_site_fract_z
Si Si1 0.421645 0.852180 0.398575
Si Si2 0.123946 0.835945 0.545817
Si Si3 0.647145 0.133905 0.968578
Si Si4 0.533042 0.566493 0.313896
Si Si5 0.320815 0.105385 0.297939
Si Si6 0.615385 0.445103 0.057753
O O1 0.500000 0.878006 0.500000
O O2 0.264699 0.823645 0.451904
O O3 0.488368 0.727816 0.311483
O O4 0.426876 0.986418 0.314370
O O5 0.133348 0.746902 0.655992
O O6 0.000000 0.774341 0.500000
O O7 0.087741 0.992730 0.592938
O O8 0.687508 0.148143 0.830397
O O9 0.644923 0.280175 0.037128
O O10 0.750438 0.028951 0.006202
O O11 0.500000 0.064685 0.000000
O O12 0.667794 0.558962 0.362634
O O13 0.564251 0.484465 0.192501
O O14 0.500000 0.496494 0.000000
#
# Coordination Sequence:
#
# PCOD8051127 Si02
#       6
#     4   4   4   4   4   4
#     4  12  24  43  67  97 137 177 219 267 325 391
#     4  12  22  41  69  93 137 178 216 270 324 387
#     4  10  23  44  67  96 131 166 224 281 322 391
#     4  11  24  44  64  97 138 171 218 277 327 388
#     4  11  24  43  65  98 134 173 221 271 328 393
#     4  10  23  44  68  94 131 173 216 277 336 387
#
# _framework density 21.239315000000001
#
# number of rings (size 3 to 8) (size 9 to 14) (size 15 to 20)
#    0.000    1.000    3.333    4.000    0.000    6.000 
#    6.000    0.000    0.000    0.000    0.000    0.000 
#    0.000    0.000    0.000    0.000    0.000    0.000 
#
# Total GULP energy -148736.330237 kJ/mol
# GULP energy per Si atom -12394.694186 kJ/mol
# Density = 2.119097 g / cm^3
# Si number density = 21.239315 Si / 1000 Ang^3
#
#
#
# Elastic Constant Matrix: (Units=GPa)
#
#
# Indices 1 2 3 4 5 6 
#
# 1 151.5276 28.4583 19.8614 0.0000 2.3210 0.0000
# 2 28.4583 84.8657 24.5939 0.0000 -0.6028 0.0000
# 3 19.8614 24.5939 61.6760 0.0000 0.0626 0.0000
# 4 0.0000 0.0000 0.0000 30.2727 0.0000 -12.1010
# 5 2.3210 -0.6028 0.0626 0.0000 33.6905 0.0000
# 6 0.0000 0.0000 0.0000 -12.1010 0.0000 31.4413
#
#
#
# Elastic Compliance Matrix: (Units=1/GPa)
#
#
# Indices 1 2 3 4 5 6 
#
# 1 0.007177 -0.001968 -0.001526 0.000000 -0.000527 0.000000
# 2 -0.001968 0.013865 -0.004895 0.000000 0.000393 0.000000
# 3 -0.001526 -0.004895 0.018657 0.000000 -0.000017 0.000000
# 4 0.000000 0.000000 0.000000 0.039039 0.000000 0.015025
# 5 -0.000527 0.000393 -0.000017 0.000000 0.029725 0.000000
# 6 0.000000 0.000000 0.000000 0.015025 0.000000 0.037588
#
#
# Mechanical properties :
#
#
# Convention : Reuss Voigt Hill
#
# Bulk Modulus (GPa) = 43.62940 49.32184 46.47562
# Shear Modulus (GPa) = 29.33054 34.09128 31.71091
#
# Velocity S-wave (km/s) = 3.72015 4.01072 3.86817
# Velocity P-wave (km/s) = 6.24813 6.68732 6.47145
#
# Compressibility (1/GPa) = 0.02292032
#
# Stress axis : x y z
#
# Youngs Moduli (GPa) = 139.33024 72.12519 53.59870
#
# Poissons Ratio (x) = 0.14196 0.08178
# Poissons Ratio (y) = 0.27424 0.26238
# Poissons Ratio (z) = 0.21260 0.35307
#
# Static dielectric constant tensor:
#      x y z
#    x 4.513690 0.000000 0.081800 
#    y 0.000000 3.887780 0.000000 
#    z 0.081800 0.000000 3.786710 
# 
# 
# High freq. dielectric constant tensor:
#      x y z
#    x 1.851750 0.000000 0.001710 
#    y 0.000000 1.833420 0.000000 
#    z 0.001710 0.000000 1.828600 
# 
# From -- ./inp_files/49871.got.cif
#   From: 2010.03.12/outbox.cif.g09.slc.cpg/sg5_25_cif.got.tgz:49871.got - 2010.03.31 09:47:26.
