data_PCOD8051369
_publ_section_title
;
Structure prediction by ZEFSAII (Michael W. Deem and Ramdas Pophale) SiO2 
 PCOD8051369
Probable space group: C 2
;
_chemical_formula_sum "Si O2"
_cell_formula_units_Z 18
_cell_length_a 11.807295
_cell_length_b 9.003988
_cell_length_c 7.554025
_cell_angle_alpha 90.000000
_cell_angle_beta 72.425124
_cell_angle_gamma 90.000000
_cell_volume 765.603456
_symmetry_space_group_name_H-M "C 2"
_symmetry_group_IT_number 5
_symmetry_cell_setting 'monoclinic'
loop_
_space_group_symop_operation_xyz
x,y,z
-x,y,-z
1/2+x,1/2+y,z
1/2-x,1/2+y,-z
loop_
_atom_site_type_symbol
_atom_site_label
_atom_site_fract_x
_atom_site_fract_y
_atom_site_fract_z
Si Si1 0.866804 0.690710 0.111781
Si Si2 0.244705 0.998986 0.893310
Si Si3 0.500000 0.661844 0.000000
Si Si4 0.589578 0.766327 0.606763
Si Si5 0.217732 0.552035 0.510480
O O1 0.864572 0.653047 0.322956
O O2 0.771618 0.820816 0.112774
O O3 0.825648 0.544494 0.021996
O O4 0.000000 0.738206 0.000000
O O5 0.309022 0.066969 0.687421
O O6 0.113083 0.060304 0.979679
O O7 0.482852 0.767024 0.177326
O O8 0.500000 0.823564 0.500000
O O9 0.644512 0.604576 0.530494
O O10 0.700221 0.880337 0.572855
#
# Coordination Sequence:
#
# PCOD8051369 Si02
#       5
#     4   4   2   4   4
#     4  12  28  46  72 104 140 185 236 284 346 415
#     4  11  26  49  71 103 142 184 232 289 348 410
#     4  10  24  46  74 100 142 182 230 290 348 404
#     4  11  25  46  70 100 139 182 228 286 346 406
#     4  11  26  46  70 104 141 178 237 283 341 417
#
# _framework density 23.510866
#
# number of rings (size 3 to 8) (size 9 to 14) (size 15 to 20)
#    0.000    0.889    3.333    1.333   10.889    0.000 
#    0.000    1.111    0.000    0.000    0.000    0.000 
#    0.000    0.000    0.000    0.000    0.000    0.000 
#
# Total GULP energy -111567.304838 kJ/mol
# GULP energy per Si atom -12396.367204 kJ/mol
# Density = 2.345735 g / cm^3
# Si number density = 23.510866 Si / 1000 Ang^3
#
#
#
# Elastic Constant Matrix: (Units=GPa)
#
#
# Indices 1 2 3 4 5 6 
#
# 1 68.9205 41.8756 45.5282 0.0000 1.8413 0.0000
# 2 41.8756 118.3970 57.2569 0.0000 2.5280 0.0000
# 3 45.5282 57.2569 196.8075 0.0000 -4.9449 0.0000
# 4 0.0000 0.0000 0.0000 31.8344 0.0000 -5.3120
# 5 1.8413 2.5280 -4.9449 0.0000 25.6282 0.0000
# 6 0.0000 0.0000 0.0000 -5.3120 0.0000 34.1691
#
#
#
# Elastic Compliance Matrix: (Units=1/GPa)
#
#
# Indices 1 2 3 4 5 6 
#
# 1 0.019923 -0.005549 -0.003031 0.000000 -0.001469 0.000000
# 2 -0.005549 0.011435 -0.002071 0.000000 -0.001129 0.000000
# 3 -0.003031 -0.002071 0.006427 0.000000 0.001662 0.000000
# 4 0.000000 0.000000 0.000000 0.032249 0.000000 0.005014
# 5 -0.001469 -0.001129 0.001662 0.000000 0.039557 0.000000
# 6 0.000000 0.000000 0.000000 0.005014 0.000000 0.030046
#
#
# Mechanical properties :
#
#
# Convention : Reuss Voigt Hill
#
# Bulk Modulus (GPa) = 60.67746 74.82736 67.75241
# Shear Modulus (GPa) = 30.04208 34.29061 32.16635
#
# Velocity S-wave (km/s) = 3.57850 3.82318 3.70286
# Velocity P-wave (km/s) = 6.55275 7.16831 6.86743
#
# Compressibility (1/GPa) = 0.01648058
#
# Stress axis : x y z
#
# Youngs Moduli (GPa) = 50.19373 87.45368 155.60032
#
# Poissons Ratio (x) = 0.48529 0.47167
# Poissons Ratio (y) = 0.27853 0.32230
# Poissons Ratio (z) = 0.15215 0.18114
#
# Static dielectric constant tensor:
#      x y z
#    x 3.849660 0.000000 -0.078740 
#    y 0.000000 4.151280 0.000000 
#    z -0.078740 0.000000 4.629690 
# 
# 
# High freq. dielectric constant tensor:
#      x y z
#    x 1.899490 0.000000 -0.009010 
#    y 0.000000 1.924990 0.000000 
#    z -0.009010 0.000000 1.961270 
# 
# From -- ./inp_files/18225.got.cif
#   From: 2010.03.12/outbox.cif.g09.slc.cpg/sg5_10_cif.got.tgz:18225.got - 2010.03.31 09:47:26.
