data_PCOD8051577
_publ_section_title
;
Structure prediction by ZEFSAII (Michael W. Deem and Ramdas Pophale) SiO2 
 PCOD8051577
Probable space group: C 2
;
_chemical_formula_sum "Si O2"
_cell_formula_units_Z 22
_cell_length_a 21.938250
_cell_length_b 6.467460
_cell_length_c 8.527597
_cell_angle_alpha 90.000000
_cell_angle_beta 46.644072
_cell_angle_gamma 90.000000
_cell_volume 879.748057
_symmetry_space_group_name_H-M "C 2"
_symmetry_group_IT_number 5
_symmetry_cell_setting 'monoclinic'
loop_
_space_group_symop_operation_xyz
x,y,z
-x,y,-z
1/2+x,1/2+y,z
1/2-x,1/2+y,-z
loop_
_atom_site_type_symbol
_atom_site_label
_atom_site_fract_x
_atom_site_fract_y
_atom_site_fract_z
Si Si1 0.201125 0.493010 0.974057
Si Si2 0.780786 0.149080 0.295494
Si Si3 0.000000 0.588998 0.000000
Si Si4 0.091582 0.865616 0.081936
Si Si5 0.359644 0.841614 0.429239
Si Si6 0.121949 0.145905 0.285329
O O1 0.165462 0.713582 0.996199
O O2 0.129071 0.374909 0.199202
O O3 0.226355 0.368793 0.775229
O O4 0.287673 0.541340 0.911737
O O5 0.791504 0.198465 0.460768
O O6 0.695418 0.028389 0.402406
O O7 0.867476 0.036136 0.101395
O O8 0.072551 0.435998 0.810962
O O9 0.978507 0.737070 0.889650
O O10 0.058593 0.993595 0.298057
O O11 0.400915 0.693700 0.492007
#
# Coordination Sequence:
#
# PCOD8051577 Si02
#       6
#     4   4   2   4   4   4
#     4  11  19  42  74 111 139 182 242 320 358 436
#     4  11  23  43  78 106 142 192 259 296 370 437
#     4  12  28  50  74 102 166 204 246 294 382 450
#     4  11  24  47  76 104 146 199 240 309 371 444
#     4  12  24  44  76 112 148 197 247 311 362 453
#     4  11  22  39  78 112 145 179 253 309 375 423
#
# _framework density 25.007162000000001
#
# number of rings (size 3 to 8) (size 9 to 14) (size 15 to 20)
#    0.000    0.727    5.455    3.273    0.000    0.727 
#    0.000    0.909    8.000    0.000    0.000    0.000 
#    0.000    0.000    0.000    0.000    0.000    0.000 
#
# Total GULP energy -136279.760448 kJ/mol
# GULP energy per Si atom -12389.069132 kJ/mol
# Density = 2.495024 g / cm^3
# Si number density = 25.007162 Si / 1000 Ang^3
#
#
#
# Elastic Constant Matrix: (Units=GPa)
#
#
# Indices 1 2 3 4 5 6 
#
# 1 99.1355 33.1967 16.7442 0.0000 21.5356 0.0000
# 2 33.1967 110.5141 21.3977 0.0000 20.2587 0.0000
# 3 16.7442 21.3977 75.4903 0.0000 17.6185 0.0000
# 4 0.0000 0.0000 0.0000 26.2299 0.0000 16.8795
# 5 21.5356 20.2587 17.6185 0.0000 39.3734 0.0000
# 6 0.0000 0.0000 0.0000 16.8795 0.0000 40.8553
#
#
#
# Elastic Compliance Matrix: (Units=1/GPa)
#
#
# Indices 1 2 3 4 5 6 
#
# 1 0.012169 -0.002589 -0.000807 0.000000 -0.004962 0.000000
# 2 -0.002589 0.010772 -0.001693 0.000000 -0.003369 0.000000
# 3 -0.000807 -0.001693 0.015185 0.000000 -0.005483 0.000000
# 4 0.000000 0.000000 0.000000 0.051932 0.000000 -0.021456
# 5 -0.004962 -0.003369 -0.005483 0.000000 0.032299 0.000000
# 6 0.000000 0.000000 0.000000 -0.021456 0.000000 0.033341
#
#
# Mechanical properties :
#
#
# Convention : Reuss Voigt Hill
#
# Bulk Modulus (GPa) = 35.78164 47.53524 41.65844
# Shear Modulus (GPa) = 28.54036 35.54515 32.04276
#
# Velocity S-wave (km/s) = 3.38196 3.77423 3.58347
# Velocity P-wave (km/s) = 5.43965 6.16790 5.81519
#
# Compressibility (1/GPa) = 0.02794729
#
# Stress axis : x y z
#
# Youngs Moduli (GPa) = 82.17898 92.83615 65.85409
#
# Poissons Ratio (x) = 0.24038 0.05314
# Poissons Ratio (y) = 0.21279 0.11147
# Poissons Ratio (z) = 0.06632 0.15714
#
# Static dielectric constant tensor:
#      x y z
#    x 4.496370 0.000000 0.398080 
#    y 0.000000 4.696220 0.000000 
#    z 0.398080 0.000000 4.222620 
# 
# 
# High freq. dielectric constant tensor:
#      x y z
#    x 1.988500 0.000000 0.027640 
#    y 0.000000 2.019080 0.000000 
#    z 0.027640 0.000000 1.979720 
# 
# From -- ./inp_files/31346.got.cif
#   From: 2010.03.12/outbox.cif.g09.slc.cpg/sg5_16_cif.got.tgz:31346.got - 2010.03.31 09:47:26.
