data_PCOD8051353
_publ_section_title
;
Structure prediction by ZEFSAII (Michael W. Deem and Ramdas Pophale) SiO2 
 PCOD8051353
Probable space group: C 2
;
_chemical_formula_sum "Si O2"
_cell_formula_units_Z 28
_cell_length_a 17.853723
_cell_length_b 7.021267
_cell_length_c 10.474784
_cell_angle_alpha 90.000000
_cell_angle_beta 104.528482
_cell_angle_gamma 90.000000
_cell_volume 1271.086359
_symmetry_space_group_name_H-M "C 2"
_symmetry_group_IT_number 5
_symmetry_cell_setting 'monoclinic'
loop_
_space_group_symop_operation_xyz
x,y,z
-x,y,-z
1/2+x,1/2+y,z
1/2-x,1/2+y,-z
loop_
_atom_site_type_symbol
_atom_site_label
_atom_site_fract_x
_atom_site_fract_y
_atom_site_fract_z
Si Si1 0.832654 0.273170 0.161852
Si Si2 0.852397 0.038510 0.625976
Si Si3 0.167658 0.632794 0.022650
Si Si4 0.817201 0.396115 0.443583
Si Si5 0.914488 0.747808 0.477254
Si Si6 0.445669 0.364838 0.866567
Si Si7 0.595235 0.389606 0.797316
O O1 0.752016 0.157078 0.120090
O O2 0.841143 0.359452 0.307325
O O3 0.901155 0.117932 0.179090
O O4 0.842614 0.429031 0.053146
O O5 0.843781 0.245031 0.561649
O O6 0.773858 0.920216 0.585160
O O7 0.916856 0.924061 0.574766
O O8 0.886013 0.027034 0.786118
O O9 0.101634 0.677783 0.102896
O O10 0.159679 0.798593 0.915804
O O11 0.859076 0.585866 0.508085
O O12 0.879076 0.831261 0.332291
O O13 0.000000 0.662867 0.500000
O O14 0.509108 0.304426 0.787041
O O15 0.500000 0.457410 0.000000
#
# Coordination Sequence:
#
# PCOD8051353 Si02
#       7
#     4   4   4   4   4   4   4
#     4  12  23  40  75 107 138 189 249 297 357 435
#     4  12  24  45  71 107 148 189 243 306 367 435
#     4  11  23  42  69 103 142 187 240 297 356 436
#     4  12  26  42  73 111 143 192 249 299 367 437
#     4  12  25  43  71 104 143 188 236 309 367 432
#     4  10  24  46  69  98 150 194 232 298 368 435
#     4  11  23  43  68 102 141 188 241 299 364 428
#
# _framework density 22.028400000000001
#
# number of rings (size 3 to 8) (size 9 to 14) (size 15 to 20)
#    0.000    0.571    8.571    0.000    0.000    1.714 
#    0.000   13.571    0.000    0.000    0.000    0.000 
#    0.000    0.000    0.000    0.000    0.000    0.000 
#
# Total GULP energy -173489.131505 kJ/mol
# GULP energy per Si atom -12392.080822 kJ/mol
# Density = 2.197826 g / cm^3
# Si number density = 22.028400 Si / 1000 Ang^3
#
#
#
# Elastic Constant Matrix: (Units=GPa)
#
#
# Indices 1 2 3 4 5 6 
#
# 1 95.3311 36.0305 25.2193 0.0000 -0.8029 0.0000
# 2 36.0305 124.9955 43.1837 0.0000 -7.3273 0.0000
# 3 25.2193 43.1837 94.3706 0.0000 4.8301 0.0000
# 4 0.0000 0.0000 0.0000 27.1371 0.0000 -10.0188
# 5 -0.8029 -7.3273 4.8301 0.0000 32.5851 0.0000
# 6 0.0000 0.0000 0.0000 -10.0188 0.0000 28.4135
#
#
#
# Elastic Compliance Matrix: (Units=1/GPa)
#
#
# Indices 1 2 3 4 5 6 
#
# 1 0.012064 -0.002812 -0.001935 0.000000 -0.000048 0.000000
# 2 -0.002812 0.010419 -0.004164 0.000000 0.002891 0.000000
# 3 -0.001935 -0.004164 0.013169 0.000000 -0.002936 0.000000
# 4 0.000000 0.000000 0.000000 0.042365 0.000000 0.014938
# 5 -0.000048 0.002891 -0.002936 0.000000 0.031773 0.000000
# 6 0.000000 0.000000 0.000000 0.014938 0.000000 0.040462
#
#
# Mechanical properties :
#
#
# Convention : Reuss Voigt Hill
#
# Bulk Modulus (GPa) = 56.08346 58.17381 57.12863
# Shear Modulus (GPa) = 28.73281 31.64472 30.18877
#
# Velocity S-wave (km/s) = 3.61550 3.79429 3.70597
# Velocity P-wave (km/s) = 6.55317 6.75732 6.65603
#
# Compressibility (1/GPa) = 0.01783057
#
# Stress axis : x y z
#
# Youngs Moduli (GPa) = 82.89164 95.97901 75.93384
#
# Poissons Ratio (x) = 0.26988 0.14691
# Poissons Ratio (y) = 0.23308 0.31620
# Poissons Ratio (z) = 0.16037 0.39967
#
# Static dielectric constant tensor:
#      x y z
#    x 3.992670 0.000000 -0.048300 
#    y 0.000000 3.721880 0.000000 
#    z -0.048300 0.000000 4.380120 
# 
# 
# High freq. dielectric constant tensor:
#      x y z
#    x 1.871220 0.000000 0.005480 
#    y 0.000000 1.841990 0.000000 
#    z 0.005480 0.000000 1.886150 
# 
# From -- ./inp_files/45499.got.cif
#   From: 2010.03.12/outbox.cif.g09.slc.cpg/sg5_23_cif.got.tgz:45499.got - 2010.03.31 09:47:26.
