data_PCOD8051408
_publ_section_title
;
Structure prediction by ZEFSAII (Michael W. Deem and Ramdas Pophale) SiO2 
 PCOD8051408
Probable space group: C 2
;
_chemical_formula_sum "Si O2"
_cell_formula_units_Z 20
_cell_length_a 8.009902
_cell_length_b 12.006938
_cell_length_c 11.718310
_cell_angle_alpha 90.000000
_cell_angle_beta 134.331830
_cell_angle_gamma 90.000000
_cell_volume 806.149312
_symmetry_space_group_name_H-M "C 2"
_symmetry_group_IT_number 5
_symmetry_cell_setting 'monoclinic'
loop_
_space_group_symop_operation_xyz
x,y,z
-x,y,-z
1/2+x,1/2+y,z
1/2-x,1/2+y,-z
loop_
_atom_site_type_symbol
_atom_site_label
_atom_site_fract_x
_atom_site_fract_y
_atom_site_fract_z
Si Si1 0.631780 0.146700 0.285050
Si Si2 0.748769 0.463816 0.057516
Si Si3 0.470540 0.376178 0.256668
Si Si4 0.064853 0.269429 0.164157
Si Si5 0.091381 0.097835 0.369113
O O1 0.578274 0.276565 0.231493
O O2 0.834232 0.103364 0.301103
O O3 0.712527 0.149914 0.456033
O O4 0.397584 0.074061 0.157963
O O5 0.892043 0.350123 0.152963
O O6 0.500000 0.466152 0.000000
O O7 0.702463 0.455664 0.900245
O O8 0.320598 0.325427 0.288670
O O9 0.660060 0.465949 0.391892
O O10 0.085447 0.153858 0.241762
O O11 0.000000 0.245405 0.000000
#
# Coordination Sequence:
#
# PCOD8051408 Si02
#       5
#     4   4   4   4   4
#     4  11  27  48  74 115 147 199 249 302 384 438
#     4  11  25  46  76 106 150 195 254 306 364 441
#     4  11  26  46  72 110 147 197 247 303 373 439
#     4  10  24  48  76 109 148 198 251 306 371 439
#     4  11  26  49  77 105 159 190 245 316 371 446
#
# _framework density 24.809303
#
# number of rings (size 3 to 8) (size 9 to 14) (size 15 to 20)
#    0.000    1.200    2.000    1.200   11.200    0.800 
#    0.000    0.000    0.000    0.000    0.000    0.000 
#    0.000    0.000    0.000    0.000    0.000    0.000 
#
# Total GULP energy -123941.180231 kJ/mol
# GULP energy per Si atom -12394.118023 kJ/mol
# Density = 2.475284 g / cm^3
# Si number density = 24.809303 Si / 1000 Ang^3
#
#
#
# Elastic Constant Matrix: (Units=GPa)
#
#
# Indices 1 2 3 4 5 6 
#
# 1 106.9545 52.3123 29.1811 0.0000 2.1734 0.0000
# 2 52.3123 193.5740 52.6429 0.0000 -6.5610 0.0000
# 3 29.1811 52.6429 95.0744 0.0000 -10.3081 0.0000
# 4 0.0000 0.0000 0.0000 34.2363 0.0000 -1.6382
# 5 2.1734 -6.5610 -10.3081 0.0000 33.5386 0.0000
# 6 0.0000 0.0000 0.0000 -1.6382 0.0000 35.4956
#
#
#
# Elastic Compliance Matrix: (Units=1/GPa)
#
#
# Indices 1 2 3 4 5 6 
#
# 1 0.011223 -0.002478 -0.002280 0.000000 -0.001913 0.000000
# 2 -0.002478 0.006630 -0.002847 0.000000 0.000582 0.000000
# 3 -0.002280 -0.002847 0.013190 0.000000 0.003645 0.000000
# 4 0.000000 0.000000 0.000000 0.029273 0.000000 0.001351
# 5 -0.001913 0.000582 0.003645 0.000000 0.031174 0.000000
# 6 0.000000 0.000000 0.000000 0.001351 0.000000 0.028235
#
#
# Mechanical properties :
#
#
# Convention : Reuss Voigt Hill
#
# Bulk Modulus (GPa) = 63.16350 73.76395 68.46372
# Shear Modulus (GPa) = 35.66044 38.08521 36.87282
#
# Velocity S-wave (km/s) = 3.79539 3.92231 3.85937
# Velocity P-wave (km/s) = 6.68742 7.09293 6.89315
#
# Compressibility (1/GPa) = 0.01583193
#
# Stress axis : x y z
#
# Youngs Moduli (GPa) = 89.10642 150.83889 75.81758
#
# Poissons Ratio (x) = 0.37372 0.17287
# Poissons Ratio (y) = 0.22077 0.21587
# Poissons Ratio (z) = 0.20317 0.42947
#
# Static dielectric constant tensor:
#      x y z
#    x 4.336690 0.000000 0.138180 
#    y 0.000000 4.751510 0.000000 
#    z 0.138180 0.000000 4.415030 
# 
# 
# High freq. dielectric constant tensor:
#      x y z
#    x 1.981740 0.000000 0.004120 
#    y 0.000000 2.009210 0.000000 
#    z 0.004120 0.000000 1.975090 
# 
# From -- ./inp_files/35518.got.cif
#   From: 2010.03.12/outbox.cif.g09.slc.cpg/sg5_18_cif.got.tgz:35518.got - 2010.03.31 09:47:26.
