data_PCOD8051923
_publ_section_title
;
Structure prediction by ZEFSAII (Michael W. Deem and Ramdas Pophale) SiO2 
 PCOD8051923
Probable space group: C 2
;
_chemical_formula_sum "Si O2"
_cell_formula_units_Z 28
_cell_length_a 17.051025
_cell_length_b 7.702451
_cell_length_c 22.819406
_cell_angle_alpha 90.000000
_cell_angle_beta 23.541701
_cell_angle_gamma 90.000000
_cell_volume 1197.042811
_symmetry_space_group_name_H-M "C 2"
_symmetry_group_IT_number 5
_symmetry_cell_setting 'monoclinic'
loop_
_space_group_symop_operation_xyz
x,y,z
-x,y,-z
1/2+x,1/2+y,z
1/2-x,1/2+y,-z
loop_
_atom_site_type_symbol
_atom_site_label
_atom_site_fract_x
_atom_site_fract_y
_atom_site_fract_z
Si Si1 0.744170 0.615770 0.519881
Si Si2 0.928049 0.454764 0.166694
Si Si3 0.479355 0.963035 0.581562
Si Si4 0.574428 0.603043 0.884965
Si Si5 0.914563 0.432092 0.306777
Si Si6 0.169886 0.771483 0.959903
Si Si7 0.146296 0.128612 0.275801
O O1 0.899821 0.604605 0.358117
O O2 0.731710 0.808236 0.555485
O O3 0.527884 0.554921 0.645639
O O4 0.817895 0.494888 0.522584
O O5 0.001833 0.257943 0.105367
O O6 0.838728 0.471735 0.293394
O O7 0.756602 0.478814 0.235851
O O8 0.101612 0.596661 0.040184
O O9 0.500000 0.010360 0.500000
O O10 0.433868 0.760760 0.620651
O O11 0.309961 0.086990 0.723802
O O12 0.509735 0.420215 0.080540
O O13 0.500000 0.650428 0.000000
O O14 0.126900 0.345566 0.153800
O O15 0.196277 0.730810 0.872776
#
# Coordination Sequence:
#
# PCOD8051923 Si02
#       7
#     4   4   4   4   4   4   4
#     4  11  24  49  70 101 154 200 244 303 386 456
#     4  12  27  43  76 118 142 194 262 315 370 455
#     4  12  25  45  73 108 148 198 255 314 377 450
#     4  12  23  44  77 106 149 200 252 310 386 452
#     4  11  27  48  72 112 150 198 254 312 383 456
#     4  11  23  52  72 108 153 196 249 314 386 450
#     4  11  24  46  74 101 155 199 245 309 384 448
#
# _framework density 23.390975999999998
#
# number of rings (size 3 to 8) (size 9 to 14) (size 15 to 20)
#    0.000    0.571    5.714    2.143    6.000    0.000 
#    7.714    0.000    0.000    0.000    0.000    0.000 
#    0.000    0.000    0.000    0.000    0.000    0.000 
#
# Total GULP energy -173568.155408 kJ/mol
# GULP energy per Si atom -12397.725386 kJ/mol
# Density = 2.333774 g / cm^3
# Si number density = 23.390976 Si / 1000 Ang^3
#
#
#
# Elastic Constant Matrix: (Units=GPa)
#
#
# Indices 1 2 3 4 5 6 
#
# 1 154.0058 37.9813 66.3557 0.0038 19.1817 0.0002
# 2 37.9813 110.2387 50.6152 -0.0018 1.5862 -0.0015
# 3 66.3557 50.6152 118.3561 -0.0040 1.7318 -0.0018
# 4 0.0038 -0.0018 -0.0040 32.2650 -0.0018 0.2924
# 5 19.1817 1.5862 1.7318 -0.0018 44.4025 0.0007
# 6 0.0002 -0.0015 -0.0018 0.2924 0.0007 26.2734
#
#
#
# Elastic Compliance Matrix: (Units=1/GPa)
#
#
# Indices 1 2 3 4 5 6 
#
# 1 0.009228 -0.000964 -0.004706 -0.000002 -0.003769 0.000000
# 2 -0.000964 0.011390 -0.004333 0.000000 0.000179 0.000000
# 3 -0.004706 -0.004333 0.012916 0.000002 0.001684 0.000001
# 4 -0.000002 0.000000 0.000002 0.030996 0.000002 -0.000345
# 5 -0.003769 0.000179 0.001684 0.000002 0.024077 -0.000001
# 6 0.000000 0.000000 0.000001 -0.000345 -0.000001 0.038065
#
#
# Mechanical properties :
#
#
# Convention : Reuss Voigt Hill
#
# Bulk Modulus (GPa) = 73.92457 76.94500 75.43479
# Shear Modulus (GPa) = 33.07100 35.76473 34.41787
#
# Velocity S-wave (km/s) = 3.76418 3.91448 3.84007
# Velocity P-wave (km/s) = 7.11088 7.30736 7.20979
#
# Compressibility (1/GPa) = 0.01352730
#
# Stress axis : x y z
#
# Youngs Moduli (GPa) = 108.36331 87.79310 77.42362
#
# Poissons Ratio (x) = 0.08467 0.36437
# Poissons Ratio (y) = 0.10451 0.33548
# Poissons Ratio (z) = 0.50997 0.38041
#
# Static dielectric constant tensor:
#      x y z
#    x 4.145720 0.000000 -0.007600 
#    y 0.000000 4.239760 0.000020 
#    z -0.007600 0.000020 4.199630 
# 
# 
# High freq. dielectric constant tensor:
#      x y z
#    x 1.926160 0.000000 0.000530 
#    y 0.000000 1.924180 0.000000 
#    z 0.000530 0.000000 1.919860 
# 
# From -- ./inp_files/65950.got.cif
#   From: 2010.03.12/outbox.cif.g09.slc.cpg/sg5_33_cif.got.tgz:65950.got - 2010.03.31 09:47:26.
