data_PCOD8051163
_publ_section_title
;
Structure prediction by ZEFSAII (Michael W. Deem and Ramdas Pophale) SiO2 
 PCOD8051163
Probable space group: C 2
;
_chemical_formula_sum "Si O2"
_cell_formula_units_Z 22
_cell_length_a 13.970584
_cell_length_b 5.087175
_cell_length_c 13.032503
_cell_angle_alpha 90.000000
_cell_angle_beta 81.849092
_cell_angle_gamma 90.000000
_cell_volume 916.873777
_symmetry_space_group_name_H-M "C 2"
_symmetry_group_IT_number 5
_symmetry_cell_setting 'monoclinic'
loop_
_space_group_symop_operation_xyz
x,y,z
-x,y,-z
1/2+x,1/2+y,z
1/2-x,1/2+y,-z
loop_
_atom_site_type_symbol
_atom_site_label
_atom_site_fract_x
_atom_site_fract_y
_atom_site_fract_z
Si Si1 0.288756 0.404820 0.045888
Si Si2 0.091254 0.716066 0.681075
Si Si3 0.289975 0.858080 0.731244
Si Si4 0.306912 0.099861 0.521499
Si Si5 0.987677 0.218601 0.777846
Si Si6 0.500000 0.533402 0.000000
O O1 0.250790 0.507924 0.161860
O O2 0.260841 0.626092 0.968287
O O3 0.404324 0.355376 0.028717
O O4 0.202917 0.678456 0.700565
O O5 0.095545 0.680199 0.556330
O O6 0.021830 0.510905 0.745925
O O7 0.057438 0.007499 0.714962
O O8 0.326441 0.068919 0.640421
O O9 0.380249 0.674996 0.749429
O O10 0.274926 0.818221 0.481352
O O11 0.987569 0.211886 0.901116
#
# Coordination Sequence:
#
# PCOD8051163 Si02
#       6
#     4   4   4   4   4   2
#     4  12  29  46  74 107 144 190 240 297 356 426
#     4  11  26  48  71 107 148 186 237 303 350 421
#     4  11  26  48  76 105 147 188 243 291 360 424
#     4  10  23  45  76 105 142 191 236 294 361 418
#     4  12  28  44  76 108 142 192 242 288 363 425
#     4  12  28  48  74 108 146 190 240 296 358 426
#
# _framework density 23.994577
#
# number of rings (size 3 to 8) (size 9 to 14) (size 15 to 20)
#    0.000    0.727    3.636    2.182    5.091    8.000 
#    0.000    5.455    0.000    0.000    0.000    0.000 
#    0.000    0.000    0.000    0.000    0.000    0.000 
#
# Total GULP energy -136394.183739 kJ/mol
# GULP energy per Si atom -12399.471249 kJ/mol
# Density = 2.393996 g / cm^3
# Si number density = 23.994577 Si / 1000 Ang^3
#
#
#
# Elastic Constant Matrix: (Units=GPa)
#
#
# Indices 1 2 3 4 5 6 
#
# 1 151.7192 28.3935 41.5524 0.0000 1.9232 0.0000
# 2 28.3935 80.6511 25.0493 0.0000 2.9847 0.0000
# 3 41.5524 25.0493 190.3888 0.0000 -20.2434 0.0000
# 4 0.0000 0.0000 0.0000 25.8927 0.0000 -4.5936
# 5 1.9232 2.9847 -20.2434 0.0000 32.5672 0.0000
# 6 0.0000 0.0000 0.0000 -4.5936 0.0000 22.2833
#
#
#
# Elastic Compliance Matrix: (Units=1/GPa)
#
#
# Indices 1 2 3 4 5 6 
#
# 1 0.007400 -0.002109 -0.001460 0.000000 -0.001151 0.000000
# 2 -0.002109 0.013706 -0.001567 0.000000 -0.002106 0.000000
# 3 -0.001460 -0.001567 0.006212 0.000000 0.004091 0.000000
# 4 0.000000 0.000000 0.000000 0.040087 0.000000 0.008264
# 5 -0.001151 -0.002106 0.004091 0.000000 0.033510 0.000000
# 6 0.000000 0.000000 0.000000 0.008264 0.000000 0.046580
#
#
# Mechanical properties :
#
#
# Convention : Reuss Voigt Hill
#
# Bulk Modulus (GPa) = 58.66291 68.08329 63.37310
# Shear Modulus (GPa) = 30.59034 37.99954 34.29494
#
# Velocity S-wave (km/s) = 3.57443 3.98385 3.78468
# Velocity P-wave (km/s) = 6.44491 7.04255 6.75035
#
# Compressibility (1/GPa) = 0.01704655
#
# Stress axis : x y z
#
# Youngs Moduli (GPa) = 135.12930 72.95954 160.97311
#
# Poissons Ratio (x) = 0.15389 0.23502
# Poissons Ratio (y) = 0.28502 0.25222
# Poissons Ratio (z) = 0.19729 0.11432
#
# Static dielectric constant tensor:
#      x y z
#    x 4.378510 0.000000 -0.073420 
#    y 0.000000 3.770810 0.000000 
#    z -0.073420 0.000000 4.884100 
# 
# 
# High freq. dielectric constant tensor:
#      x y z
#    x 1.951860 0.000000 -0.013080 
#    y 0.000000 1.924730 0.000000 
#    z -0.013080 0.000000 1.981230 
# 
# From -- ./inp_files/41077.got.cif
#   From: 2010.03.12/outbox.cif.g09.slc.cpg/sg5_21_cif.got.tgz:41077.got - 2010.03.31 09:47:26.
