data_PCOD8051842
_publ_section_title
;
Structure prediction by ZEFSAII (Michael W. Deem and Ramdas Pophale) SiO2 
 PCOD8051842
Probable space group: C 2
;
_chemical_formula_sum "Si O2"
_cell_formula_units_Z 20
_cell_length_a 7.437571
_cell_length_b 20.504371
_cell_length_c 7.800376
_cell_angle_alpha 90.000000
_cell_angle_beta 130.049277
_cell_angle_gamma 90.000000
_cell_volume 910.612046
_symmetry_space_group_name_H-M "C 2"
_symmetry_group_IT_number 5
_symmetry_cell_setting 'monoclinic'
loop_
_space_group_symop_operation_xyz
x,y,z
-x,y,-z
1/2+x,1/2+y,z
1/2-x,1/2+y,-z
loop_
_atom_site_type_symbol
_atom_site_label
_atom_site_fract_x
_atom_site_fract_y
_atom_site_fract_z
Si Si1 0.675347 0.324020 0.947924
Si Si2 0.015205 0.425446 0.315172
Si Si3 0.500000 0.383237 0.500000
Si Si4 0.238320 0.682947 0.043063
Si Si5 0.500000 0.621898 0.500000
Si Si6 0.504460 0.063641 0.202405
O O1 0.794826 0.252702 0.992744
O O2 0.875779 0.377344 0.104063
O O3 0.500000 0.325987 0.000000
O O4 0.539941 0.338054 0.689609
O O5 0.280031 0.429207 0.407195
O O6 0.915572 0.499518 0.248866
O O7 0.000000 0.399167 0.500000
O O8 0.447456 0.666339 0.301822
O O9 0.000000 0.691341 0.000000
O O10 0.180907 0.623485 0.873560
O O11 0.273080 0.580050 0.416550
O O12 0.500000 0.046426 0.000000
#
# Coordination Sequence:
#
# PCOD8051842 Si02
#       6
#     4   4   2   4   2   4
#     4  11  23  43  67 100 134 176 225 268 334 394
#     4  12  25  42  67  99 137 175 219 276 330 394
#     4  12  25  44  68  96 135 176 220 278 325 394
#     4   8  18  34  62  93 126 168 218 268 320 393
#     4   8  15  32  62  90 121 172 212 270 327 376
#     4   9  18  36  59  93 128 167 218 267 325 388
#
# _framework density 21.963251
#
# number of rings (size 3 to 8) (size 9 to 14) (size 15 to 20)
#    0.000    2.400    2.000    2.400    1.400    3.200 
#    1.800    0.000    0.000    0.000    0.000    0.000 
#    0.000    0.000    0.000    0.000    0.000    0.000 
#
# Total GULP energy -123938.055272 kJ/mol
# GULP energy per Si atom -12393.805527 kJ/mol
# Density = 2.191326 g / cm^3
# Si number density = 21.963251 Si / 1000 Ang^3
#
#
#
# Elastic Constant Matrix: (Units=GPa)
#
#
# Indices 1 2 3 4 5 6 
#
# 1 66.8497 15.8953 30.7828 0.0000 -2.3207 0.0000
# 2 15.8953 194.3675 70.8272 0.0000 6.1518 0.0000
# 3 30.7828 70.8272 153.5248 0.0000 2.9595 0.0000
# 4 0.0000 0.0000 0.0000 25.1418 0.0000 -5.3187
# 5 -2.3207 6.1518 2.9595 0.0000 35.7760 0.0000
# 6 0.0000 0.0000 0.0000 -5.3187 0.0000 13.4473
#
#
#
# Elastic Compliance Matrix: (Units=1/GPa)
#
#
# Indices 1 2 3 4 5 6 
#
# 1 0.016553 -0.000214 -0.003247 0.000000 0.001379 0.000000
# 2 -0.000214 0.006212 -0.002807 0.000000 -0.000850 0.000000
# 3 -0.003247 -0.002807 0.008468 0.000000 -0.000428 0.000000
# 4 0.000000 0.000000 0.000000 0.043406 0.000000 0.017168
# 5 0.001379 -0.000850 -0.000428 0.000000 0.028223 0.000000
# 6 0.000000 0.000000 0.000000 0.017168 0.000000 0.081155
#
#
# Mechanical properties :
#
#
# Convention : Reuss Voigt Hill
#
# Bulk Modulus (GPa) = 53.48309 72.19474 62.83891
# Shear Modulus (GPa) = 24.65685 34.68881 29.67283
#
# Velocity S-wave (km/s) = 3.35422 3.97848 3.67961
# Velocity P-wave (km/s) = 6.27735 7.35163 6.83563
#
# Compressibility (1/GPa) = 0.01869750
#
# Stress axis : x y z
#
# Youngs Moduli (GPa) = 60.41283 160.97876 118.09714
#
# Poissons Ratio (x) = 0.03449 0.38343
# Poissons Ratio (y) = 0.01294 0.33144
# Poissons Ratio (z) = 0.19614 0.45179
#
# Static dielectric constant tensor:
#      x y z
#    x 3.523300 0.000000 0.106780 
#    y 0.000000 4.634330 0.000000 
#    z 0.106780 0.000000 4.301060 
# 
# 
# High freq. dielectric constant tensor:
#      x y z
#    x 1.829820 0.000000 0.005670 
#    y 0.000000 1.874470 0.000000 
#    z 0.005670 0.000000 1.873590 
# 
# From -- ./inp_files/16615.got.cif
#   From: 2010.03.12/outbox.cif.g09.slc.cpg/sg5_9_cif.got.tgz:16615.got - 2010.03.31 09:47:26.
