data_PCOD8051766
_publ_section_title
;
Structure prediction by ZEFSAII (Michael W. Deem and Ramdas Pophale) SiO2 
 PCOD8051766
Probable space group: C 2
;
_chemical_formula_sum "Si O2"
_cell_formula_units_Z 24
_cell_length_a 22.309935
_cell_length_b 8.564420
_cell_length_c 11.046752
_cell_angle_alpha 90.000000
_cell_angle_beta 31.347764
_cell_angle_gamma 90.000000
_cell_volume 1098.063095
_symmetry_space_group_name_H-M "C 2"
_symmetry_group_IT_number 5
_symmetry_cell_setting 'monoclinic'
loop_
_space_group_symop_operation_xyz
x,y,z
-x,y,-z
1/2+x,1/2+y,z
1/2-x,1/2+y,-z
loop_
_atom_site_type_symbol
_atom_site_label
_atom_site_fract_x
_atom_site_fract_y
_atom_site_fract_z
Si Si1 0.011575 0.170000 0.116458
Si Si2 0.219608 0.045458 0.463045
Si Si3 0.422670 0.016037 0.937680
Si Si4 0.152451 0.698438 0.545099
Si Si5 0.374948 0.870078 0.772265
Si Si6 0.721322 0.603895 0.901708
O O1 0.045405 0.350943 0.057630
O O2 0.886626 0.155621 0.393628
O O3 0.104236 0.065249 0.029703
O O4 0.000000 0.106983 0.000000
O O5 0.267683 0.085847 0.512616
O O6 0.168861 0.872558 0.563384
O O7 0.311922 0.076944 0.199716
O O8 0.394894 0.994708 0.844687
O O9 0.520960 0.144808 0.785315
O O10 0.191450 0.694129 0.337933
O O11 0.500000 0.829834 0.500000
O O12 0.285259 0.946610 0.833005
O O13 0.313861 0.712997 0.924642
#
# Coordination Sequence:
#
# PCOD8051766 Si02
#       6
#     4   4   4   4   4   4
#     4  11  22  45  69  98 143 178 223 288 341 403
#     4  12  24  43  69 102 140 179 225 284 350 407
#     4  11  24  44  69  99 136 185 229 281 341 403
#     4  12  23  44  70 100 142 177 225 286 343 409
#     4  11  24  47  71  96 139 185 232 282 336 397
#     4  11  25  47  70 101 136 182 232 281 338 404
#
# _framework density 21.856667999999999
#
# number of rings (size 3 to 8) (size 9 to 14) (size 15 to 20)
#    0.000    0.667    6.667    2.500    0.000    5.333 
#    6.000    0.000    0.000    0.000    0.000    0.000 
#    0.000    0.000    0.000    0.000    0.000    0.000 
#
# Total GULP energy -148820.576322 kJ/mol
# GULP energy per Si atom -12401.714694 kJ/mol
# Density = 2.180692 g / cm^3
# Si number density = 21.856668 Si / 1000 Ang^3
#
#
#
# Elastic Constant Matrix: (Units=GPa)
#
#
# Indices 1 2 3 4 5 6 
#
# 1 94.9780 16.8408 41.7295 0.0000 -5.0067 0.0000
# 2 16.8408 21.9732 26.0619 0.0000 -2.4069 0.0000
# 3 41.7295 26.0619 170.6228 0.0000 -19.1582 0.0000
# 4 0.0000 0.0000 0.0000 38.6452 0.0000 1.3898
# 5 -5.0067 -2.4069 -19.1582 0.0000 39.7460 0.0000
# 6 0.0000 0.0000 0.0000 1.3898 0.0000 -4.8230
#
#
#
# Elastic Compliance Matrix: (Units=1/GPa)
#
#
# Indices 1 2 3 4 5 6 
#
# 1 0.012711 -0.007400 -0.001955 0.000000 0.000211 0.000000
# 2 -0.007400 0.059910 -0.007441 0.000000 -0.000891 0.000000
# 3 -0.001955 -0.007441 0.007821 0.000000 0.003073 0.000000
# 4 0.000000 0.000000 0.000000 0.025611 0.000000 0.007380
# 5 0.000211 -0.000891 0.003073 0.000000 0.026614 0.000000
# 6 0.000000 0.000000 0.000000 0.007380 0.000000 -0.205212
#
#
# Mechanical properties :
#
#
# Convention : Reuss Voigt Hill
#
# Bulk Modulus (GPa) = 21.34519 50.75984 36.05251
# Shear Modulus (GPa) = -214.24347 28.24309 -93.00019
#
# Velocity S-wave (km/s) = -9.91135 3.59861 -6.53011
# Velocity P-wave (km/s) = 11.00875 6.36719 6.35026
#
# Compressibility (1/GPa) = 0.04684896
#
# Stress axis : x y z
#
# Youngs Moduli (GPa) = 78.67288 16.69173 127.86815
#
# Poissons Ratio (x) = 0.12353 0.24994
# Poissons Ratio (y) = 0.58221 0.95148
# Poissons Ratio (z) = 0.15378 0.12420
#
# Static dielectric constant tensor:
#      x y z
#    x 4.128750 0.000000 -0.147640 
#    y 0.000000 3.641040 0.000000 
#    z -0.147640 0.000000 4.220280 
# 
# 
# High freq. dielectric constant tensor:
#      x y z
#    x 1.864910 0.000000 -0.005110 
#    y 0.000000 1.837560 0.000000 
#    z -0.005110 0.000000 1.881930 
# 
# From -- ./inp_files/38271.got.cif
#   From: 2010.03.12/outbox.cif.g09.slc.cpg/sg5_20_cif.got.tgz:38271.got - 2010.03.31 09:47:26.
