data_PCOD8051578
_publ_section_title
;
Structure prediction by ZEFSAII (Michael W. Deem and Ramdas Pophale) SiO2 
 PCOD8051578
Probable space group: C 2
;
_chemical_formula_sum "Si O2"
_cell_formula_units_Z 32
_cell_length_a 13.126154
_cell_length_b 15.608266
_cell_length_c 15.278401
_cell_angle_alpha 90.000000
_cell_angle_beta 25.897939
_cell_angle_gamma 90.000000
_cell_volume 1367.169280
_symmetry_space_group_name_H-M "C 2"
_symmetry_group_IT_number 5
_symmetry_cell_setting 'monoclinic'
loop_
_space_group_symop_operation_xyz
x,y,z
-x,y,-z
1/2+x,1/2+y,z
1/2-x,1/2+y,-z
loop_
_atom_site_type_symbol
_atom_site_label
_atom_site_fract_x
_atom_site_fract_y
_atom_site_fract_z
Si Si1 0.152605 0.319060 0.131929
Si Si2 0.996388 0.642266 0.770389
Si Si3 0.518495 0.714168 0.080298
Si Si4 0.190719 0.038947 0.780183
Si Si5 0.203514 0.559059 0.907096
Si Si6 0.498616 0.422414 0.777731
Si Si7 0.950825 0.474986 0.366096
Si Si8 0.988371 0.200354 0.407101
O O1 0.980466 0.278129 0.191718
O O2 0.129599 0.419376 0.170938
O O3 0.139735 0.267910 0.232733
O O4 0.407826 0.329973 0.886279
O O5 0.108533 0.555868 0.646629
O O6 0.214066 0.707100 0.596617
O O7 0.777551 0.672688 0.882205
O O8 0.899360 0.627831 0.943654
O O9 0.321852 0.639742 0.236546
O O10 0.500000 0.761720 0.000000
O O11 0.117580 0.986667 0.753242
O O12 0.443368 0.009132 0.622725
O O13 0.000000 0.018616 0.000000
O O14 0.299837 0.472848 0.877411
O O15 0.404763 0.606766 0.695640
O O16 0.000000 0.528686 0.000000
O O17 0.730622 0.408716 0.540083
O O18 0.000000 0.224299 0.500000
#
# Coordination Sequence:
#
# PCOD8051578 Si02
#       8
#     4   4   4   4   4   4   4   4
#     4  12  27  47  68 109 156 194 240 325 394 437
#     4  12  22  46  74 105 139 197 259 304 369 471
#     4  11  23  45  77 104 150 199 249 307 388 457
#     4  11  19  45  74 105 134 194 248 302 371 457
#     4  12  23  44  76 102 137 195 248 314 366 456
#     4  12  25  45  73 103 145 191 250 318 384 448
#     4  12  25  44  77 105 144 195 258 312 378 458
#     4  12  27  45  73 111 146 197 255 309 385 463
#
# _framework density 23.406026000000001
#
# number of rings (size 3 to 8) (size 9 to 14) (size 15 to 20)
#    0.000    0.250   10.000    0.375    1.750    1.500 
#    4.500    0.625    2.750    0.000    0.000    0.000 
#    0.000    0.000    0.000    0.000    0.000    0.000 
#
# Total GULP energy -198259.287132 kJ/mol
# GULP energy per Si atom -12391.205446 kJ/mol
# Density = 2.335275 g / cm^3
# Si number density = 23.406026 Si / 1000 Ang^3
#
#
#
# Elastic Constant Matrix: (Units=GPa)
#
#
# Indices 1 2 3 4 5 6 
#
# 1 145.6298 44.3178 47.8324 0.0170 3.1630 0.0138
# 2 44.3178 66.8062 29.2706 0.3437 -1.9701 -0.1139
# 3 47.8324 29.2706 98.0478 0.2273 -13.7484 -0.0941
# 4 0.0170 0.3437 0.2273 36.8898 -0.0581 10.3948
# 5 3.1630 -1.9701 -13.7484 -0.0581 43.1979 0.0076
# 6 0.0138 -0.1139 -0.0941 10.3948 0.0076 26.8780
#
#
#
# Elastic Compliance Matrix: (Units=1/GPa)
#
#
# Indices 1 2 3 4 5 6 
#
# 1 0.009534 -0.004858 -0.003486 0.000078 -0.002029 -0.000067
# 2 -0.004858 0.019730 -0.003500 -0.000203 0.000141 0.000152
# 3 -0.003486 -0.003500 0.013563 -0.000058 0.004412 0.000056
# 4 0.000078 -0.000203 -0.000058 0.030426 0.000010 -0.011768
# 5 -0.002029 0.000141 0.004412 0.000010 0.024709 0.000006
# 6 -0.000067 0.000152 0.000056 -0.011768 0.000006 0.041757
#
#
# Mechanical properties :
#
#
# Convention : Reuss Voigt Hill
#
# Bulk Modulus (GPa) = 52.24427 61.48059 56.86243
# Shear Modulus (GPa) = 29.44886 33.99734 31.72310
#
# Velocity S-wave (km/s) = 3.55092 3.81531 3.68549
# Velocity P-wave (km/s) = 6.25950 6.76260 6.51591
#
# Compressibility (1/GPa) = 0.01914086
#
# Stress axis : x y z
#
# Youngs Moduli (GPa) = 104.88808 50.68396 73.72849
#
# Poissons Ratio (x) = 0.24621 0.25699
# Poissons Ratio (y) = 0.50952 0.25804
# Poissons Ratio (z) = 0.36560 0.17739
#
# Static dielectric constant tensor:
#      x y z
#    x 4.304900 0.000020 0.157890 
#    y 0.000020 3.952890 0.000230 
#    z 0.157890 0.000230 4.788020 
# 
# 
# High freq. dielectric constant tensor:
#      x y z
#    x 1.926690 0.000000 0.012240 
#    y 0.000000 1.909180 0.000020 
#    z 0.012240 0.000020 1.942270 
# 
# From -- ./inp_files/53447.got.cif
#   From: 2010.03.12/outbox.cif.g09.slc.cpg/sg5_27_cif.got.tgz:53447.got - 2010.03.31 09:47:26.
