data_PCOD8051066
_publ_section_title
;
Structure prediction by ZEFSAII (Michael W. Deem and Ramdas Pophale) SiO2 
 PCOD8051066
Probable space group: C 2
;
_chemical_formula_sum "Si O2"
_cell_formula_units_Z 22
_cell_length_a 10.906261
_cell_length_b 8.700087
_cell_length_c 11.327848
_cell_angle_alpha 90.000000
_cell_angle_beta 70.765853
_cell_angle_gamma 90.000000
_cell_volume 1014.849837
_symmetry_space_group_name_H-M "C 2"
_symmetry_group_IT_number 5
_symmetry_cell_setting 'monoclinic'
loop_
_space_group_symop_operation_xyz
x,y,z
-x,y,-z
1/2+x,1/2+y,z
1/2-x,1/2+y,-z
loop_
_atom_site_type_symbol
_atom_site_label
_atom_site_fract_x
_atom_site_fract_y
_atom_site_fract_z
Si Si1 0.377783 0.923090 0.472392
Si Si2 0.278206 0.440921 0.066548
Si Si3 0.351496 0.245708 0.572243
Si Si4 0.000000 0.716560 0.000000
Si Si5 0.786985 0.282836 0.143844
Si Si6 0.503391 0.964819 0.192438
O O1 0.500000 0.836276 0.500000
O O2 0.253262 0.816920 0.486743
O O3 0.427947 0.003838 0.335923
O O4 0.334979 0.062778 0.568942
O O5 0.313738 0.618158 0.076590
O O6 0.145080 0.396113 0.176631
O O7 0.384860 0.324925 0.082598
O O8 0.263988 0.410897 0.930970
O O9 0.500000 0.300766 0.500000
O O10 0.317547 0.284653 0.717560
O O11 0.964971 0.616081 0.896245
O O12 0.926968 0.336782 0.144149
#
# Coordination Sequence:
#
# PCOD8051066 Si02
#       6
#     4   4   4   2   4   4
#     4  10  23  42  68  95 129 176 219 265 328 381
#     4  12  23  40  63  96 128 173 215 262 327 392
#     4  10  23  44  67  96 132 171 219 273 320 389
#     4  12  26  36  66  96 130 176 212 260 340 376
#     4  11  23  43  66  94 135 172 214 269 327 385
#     4  11  23  45  62  91 139 170 213 275 315 392
#
# _framework density 21.678087000000001
#
# number of rings (size 3 to 8) (size 9 to 14) (size 15 to 20)
#    0.000    1.091    3.636    2.182    2.545    3.636 
#    0.000    3.636    0.000    0.000    0.000    0.000 
#    0.000    0.000    0.000    0.000    0.000    0.000 
#
# Total GULP energy -136364.569102 kJ/mol
# GULP energy per Si atom -12396.779009 kJ/mol
# Density = 2.162875 g / cm^3
# Si number density = 21.678087 Si / 1000 Ang^3
#
#
#
# Elastic Constant Matrix: (Units=GPa)
#
#
# Indices 1 2 3 4 5 6 
#
# 1 155.5137 60.4962 22.8421 0.0000 -15.6560 0.0000
# 2 60.4962 101.7764 35.9811 0.0000 -8.7672 0.0000
# 3 22.8421 35.9811 66.3746 0.0000 -4.1815 0.0000
# 4 0.0000 0.0000 0.0000 32.7494 0.0000 0.8149
# 5 -15.6560 -8.7672 -4.1815 0.0000 34.5357 0.0000
# 6 0.0000 0.0000 0.0000 0.8149 0.0000 31.8059
#
#
#
# Elastic Compliance Matrix: (Units=1/GPa)
#
#
# Indices 1 2 3 4 5 6 
#
# 1 0.008598 -0.004819 -0.000180 0.000000 0.002653 0.000000
# 2 -0.004819 0.015040 -0.006441 0.000000 0.000854 0.000000
# 3 -0.000180 -0.006441 0.018654 0.000000 0.000542 0.000000
# 4 0.000000 0.000000 0.000000 0.030554 0.000000 -0.000783
# 5 0.002653 0.000854 0.000542 0.000000 0.030441 0.000000
# 6 0.000000 0.000000 0.000000 -0.000783 0.000000 0.031461
#
#
# Mechanical properties :
#
#
# Convention : Reuss Voigt Hill
#
# Bulk Modulus (GPa) = 51.51146 62.47816 56.99481
# Shear Modulus (GPa) = 30.46949 33.44121 31.95535
#
# Velocity S-wave (km/s) = 3.75312 3.93189 3.84355
# Velocity P-wave (km/s) = 6.52647 7.03537 6.78569
#
# Compressibility (1/GPa) = 0.01941315
#
# Stress axis : x y z
#
# Youngs Moduli (GPa) = 116.30171 66.48718 53.60877
#
# Poissons Ratio (x) = 0.32039 0.00963
# Poissons Ratio (y) = 0.56044 0.34530
# Poissons Ratio (z) = 0.02089 0.42826
#
# Static dielectric constant tensor:
#      x y z
#    x 4.383480 0.000000 0.099030 
#    y 0.000000 3.796880 0.000000 
#    z 0.099030 0.000000 3.968790 
# 
# 
# High freq. dielectric constant tensor:
#      x y z
#    x 1.874630 0.000000 -0.000460 
#    y 0.000000 1.832060 0.000000 
#    z -0.000460 0.000000 1.854770 
# 
# From -- ./inp_files/38076.got.cif
#   From: 2010.03.12/outbox.cif.g09.slc.cpg/sg5_20_cif.got.tgz:38076.got - 2010.03.31 09:47:26.
