data_PCOD8051869
_publ_section_title
;
Structure prediction by ZEFSAII (Michael W. Deem and Ramdas Pophale) SiO2 
 PCOD8051869
Probable space group: C 2
;
_chemical_formula_sum "Si O2"
_cell_formula_units_Z 18
_cell_length_a 12.067555
_cell_length_b 8.478969
_cell_length_c 9.281778
_cell_angle_alpha 90.000000
_cell_angle_beta 128.183731
_cell_angle_gamma 90.000000
_cell_volume 746.507182
_symmetry_space_group_name_H-M "C 2"
_symmetry_group_IT_number 5
_symmetry_cell_setting 'monoclinic'
loop_
_space_group_symop_operation_xyz
x,y,z
-x,y,-z
1/2+x,1/2+y,z
1/2-x,1/2+y,-z
loop_
_atom_site_type_symbol
_atom_site_label
_atom_site_fract_x
_atom_site_fract_y
_atom_site_fract_z
Si Si1 0.143523 0.871630 0.352774
Si Si2 0.159536 0.392546 0.990108
Si Si3 0.652269 0.021123 0.273699
Si Si4 0.000000 0.743821 0.500000
Si Si5 0.278005 0.571752 0.831943
O O1 0.173988 0.706409 0.302082
O O2 0.019819 0.852926 0.372714
O O3 0.285681 0.924980 0.544028
O O4 0.114582 0.001638 0.203477
O O5 0.246650 0.427248 0.915811
O O6 0.010247 0.476215 0.855556
O O7 0.231409 0.467635 0.190870
O O8 0.147096 0.206061 0.011880
O O9 0.863642 0.634435 0.361658
#
# Coordination Sequence:
#
# PCOD8051869 Si02
#       5
#     4   4   4   2   4
#     4  12  23  48  75 104 148 202 238 306 362 443
#     4  11  24  46  67 112 148 192 244 313 358 443
#     4  11  23  44  72 104 155 189 249 299 364 437
#     4  12  24  48  76 108 144 190 252 296 350 456
#     4  12  24  48  76 106 152 196 241 304 377 422
#
# _framework density 24.112293000000001
#
# number of rings (size 3 to 8) (size 9 to 14) (size 15 to 20)
#    0.000    0.444    6.667    1.333    0.000    0.000 
#   12.000    1.111    0.000    0.000    0.000    0.000 
#    0.000    0.000    0.000    0.000    0.000    0.000 
#
# Total GULP energy -111556.335620 kJ/mol
# GULP energy per Si atom -12395.148402 kJ/mol
# Density = 2.405741 g / cm^3
# Si number density = 24.112293 Si / 1000 Ang^3
#
#
#
# Elastic Constant Matrix: (Units=GPa)
#
#
# Indices 1 2 3 4 5 6 
#
# 1 111.4371 55.9585 25.5674 0.0000 -63.4338 0.0000
# 2 55.9585 167.8920 57.6434 0.0000 -23.8777 0.0000
# 3 25.5674 57.6434 79.5901 0.0000 -32.9382 0.0000
# 4 0.0000 0.0000 0.0000 50.0610 0.0000 -22.9358
# 5 -63.4338 -23.8777 -32.9382 0.0000 46.6050 0.0000
# 6 0.0000 0.0000 0.0000 -22.9358 0.0000 41.1617
#
#
#
# Elastic Compliance Matrix: (Units=1/GPa)
#
#
# Indices 1 2 3 4 5 6 
#
# 1 0.134866 -0.039992 0.075093 0.000000 0.216149 0.000000
# 2 -0.039992 0.019787 -0.028007 0.000000 -0.064090 0.000000
# 3 0.075093 -0.028007 0.063725 0.000000 0.132898 0.000000
# 4 0.000000 0.000000 0.000000 0.026823 0.000000 0.014946
# 5 0.216149 -0.064090 0.132898 0.000000 0.376746 0.000000
# 6 0.000000 0.000000 0.000000 0.014946 0.000000 0.032623
#
#
# Mechanical properties :
#
#
# Convention : Reuss Voigt Hill
#
# Bulk Modulus (GPa) = 4.29986 70.80641 37.55313
# Shear Modulus (GPa) = 6.96471 42.21553 24.59012
#
# Velocity S-wave (km/s) = 1.70139 4.18878 3.19692
# Velocity P-wave (km/s) = 2.37629 7.26798 5.40695
#
# Compressibility (1/GPa) = 0.23256588
#
# Stress axis : x y z
#
# Youngs Moduli (GPa) = 7.41474 50.53933 15.69237
#
# Poissons Ratio (x) = 2.02119 -1.17839
# Poissons Ratio (y) = 0.29653 0.43950
# Poissons Ratio (z) = -0.55680 1.41545
#
# Static dielectric constant tensor:
#      x y z
#    x 4.410330 0.000000 -0.535820 
#    y 0.000000 4.344150 0.000000 
#    z -0.535820 0.000000 4.889020 
# 
# 
# High freq. dielectric constant tensor:
#      x y z
#    x 1.946760 0.000000 -0.021800 
#    y 0.000000 1.957980 0.000000 
#    z -0.021800 0.000000 1.974600 
# 
# From -- ./inp_files/18222.got.cif
#   From: 2010.03.12/outbox.cif.g09.slc.cpg/sg5_10_cif.got.tgz:18222.got - 2010.03.31 09:47:26.
