data_PCOD8051002
_publ_section_title
;
Structure prediction by ZEFSAII (Michael W. Deem and Ramdas Pophale) SiO2 
 PCOD8051002
Probable space group: C 2
;
_chemical_formula_sum "Si O2"
_cell_formula_units_Z 28
_cell_length_a 19.884386
_cell_length_b 8.211348
_cell_length_c 14.051411
_cell_angle_alpha 90.000000
_cell_angle_beta 147.502657
_cell_angle_gamma 90.000000
_cell_volume 1232.626470
_symmetry_space_group_name_H-M "C 2"
_symmetry_group_IT_number 5
_symmetry_cell_setting 'monoclinic'
loop_
_space_group_symop_operation_xyz
x,y,z
-x,y,-z
1/2+x,1/2+y,z
1/2-x,1/2+y,-z
loop_
_atom_site_type_symbol
_atom_site_label
_atom_site_fract_x
_atom_site_fract_y
_atom_site_fract_z
Si Si1 0.768442 0.551340 0.497752
Si Si2 0.708513 0.218444 0.071958
Si Si3 0.996206 0.500033 0.103745
Si Si4 0.792397 0.262203 0.842059
Si Si5 0.354504 0.416273 0.175876
Si Si6 0.857836 0.882765 0.507038
Si Si7 0.651856 0.420568 0.174631
O O1 0.815639 0.724434 0.518762
O O2 0.657208 0.544867 0.444620
O O3 0.718687 0.428146 0.356621
O O4 0.874098 0.465502 0.689266
O O5 0.821232 0.099533 0.172112
O O6 0.717867 0.275499 0.193456
O O7 0.580450 0.115527 0.915700
O O8 0.693717 0.379230 0.988766
O O9 0.933686 0.322964 0.024119
O O10 0.000000 0.574638 0.000000
O O11 0.712060 0.276931 0.841537
O O12 0.728848 0.383224 0.689334
O O13 0.802140 0.078558 0.825095
O O14 0.500727 0.380916 0.359609
O O15 0.500000 0.406667 0.000000
#
# Coordination Sequence:
#
# PCOD8051002 Si02
#       7
#     4   4   4   4   4   4   4
#     4  11  25  41  72 100 143 176 230 285 351 402
#     4  11  24  42  70  97 135 183 229 287 340 414
#     4  11  21  42  69 100 139 181 225 285 341 406
#     4  10  23  40  70  95 138 180 229 272 346 408
#     4  11  23  43  69  95 140 185 232 276 349 408
#     4  11  23  44  65 103 134 183 224 287 339 415
#     4  11  24  43  68 107 137 178 229 290 344 408
#
# _framework density 22.715722
#
# number of rings (size 3 to 8) (size 9 to 14) (size 15 to 20)
#    0.000    1.143    2.857    3.000    4.000    0.000 
#    2.571    0.000    6.286    0.000    0.000    0.000 
#    0.000    0.000    0.000    0.000    0.000    0.000 
#
# Total GULP energy -173436.135071 kJ/mol
# GULP energy per Si atom -12388.295362 kJ/mol
# Density = 2.266402 g / cm^3
# Si number density = 22.715722 Si / 1000 Ang^3
#
#
#
# Elastic Constant Matrix: (Units=GPa)
#
#
# Indices 1 2 3 4 5 6 
#
# 1 107.7104 21.7145 41.1434 0.0000 2.6400 0.0000
# 2 21.7145 57.9129 21.7631 0.0000 6.2982 0.0000
# 3 41.1434 21.7631 129.6495 0.0000 -12.1315 0.0000
# 4 0.0000 0.0000 0.0000 18.1276 0.0000 -1.7943
# 5 2.6400 6.2982 -12.1315 0.0000 35.1138 0.0000
# 6 0.0000 0.0000 0.0000 -1.7943 0.0000 43.4862
#
#
#
# Elastic Compliance Matrix: (Units=1/GPa)
#
#
# Indices 1 2 3 4 5 6 
#
# 1 0.011103 -0.002810 -0.003186 0.000000 -0.001431 0.000000
# 2 -0.002810 0.019863 -0.002848 0.000000 -0.004335 0.000000
# 3 -0.003186 -0.002848 0.009582 0.000000 0.004061 0.000000
# 4 0.000000 0.000000 0.000000 0.055391 0.000000 0.002285
# 5 -0.001431 -0.004335 0.004061 0.000000 0.030767 0.000000
# 6 0.000000 0.000000 0.000000 0.002285 0.000000 0.023090
#
#
# Mechanical properties :
#
#
# Convention : Reuss Voigt Hill
#
# Bulk Modulus (GPa) = 43.74482 51.61275 47.67878
# Shear Modulus (GPa) = 28.55467 33.38898 30.97182
#
# Velocity S-wave (km/s) = 3.54933 3.83804 3.69650
# Velocity P-wave (km/s) = 6.00802 6.51239 6.26528
#
# Compressibility (1/GPa) = 0.02285985
#
# Stress axis : x y z
#
# Youngs Moduli (GPa) = 90.06909 50.34555 104.36167
#
# Poissons Ratio (x) = 0.14148 0.33245
# Poissons Ratio (y) = 0.25311 0.29723
# Poissons Ratio (z) = 0.28692 0.14339
#
# Static dielectric constant tensor:
#      x y z
#    x 4.439090 0.000000 -0.114620 
#    y 0.000000 3.840200 0.000000 
#    z -0.114620 0.000000 4.173460 
# 
# 
# High freq. dielectric constant tensor:
#      x y z
#    x 1.920150 0.000000 -0.007580 
#    y 0.000000 1.887730 0.000000 
#    z -0.007580 0.000000 1.888420 
# 
# From -- ./inp_files/56882.got.cif
#   From: 2010.03.12/outbox.cif.g09.slc.cpg/sg5_29_cif.got.tgz:56882.got - 2010.03.31 09:47:26.
