data_PCOD8051378
_publ_section_title
;
Structure prediction by ZEFSAII (Michael W. Deem and Ramdas Pophale) SiO2 
 PCOD8051378
Probable space group: C 2
;
_chemical_formula_sum "Si O2"
_cell_formula_units_Z 22
_cell_length_a 28.908864
_cell_length_b 5.809008
_cell_length_c 5.083963
_cell_angle_alpha 90.000000
_cell_angle_beta 89.047822
_cell_angle_gamma 90.000000
_cell_volume 853.641278
_symmetry_space_group_name_H-M "C 2"
_symmetry_group_IT_number 5
_symmetry_cell_setting 'monoclinic'
loop_
_space_group_symop_operation_xyz
x,y,z
-x,y,-z
1/2+x,1/2+y,z
1/2-x,1/2+y,-z
loop_
_atom_site_type_symbol
_atom_site_label
_atom_site_fract_x
_atom_site_fract_y
_atom_site_fract_z
Si Si1 0.559948 0.778460 0.816657
Si Si2 0.347960 0.290708 0.768316
Si Si3 0.057270 0.006192 0.318398
Si Si4 0.652869 0.998141 0.742459
Si Si5 0.000000 0.657730 0.000000
Si Si6 0.250883 0.418116 0.642732
O O1 0.540370 0.588216 0.611187
O O2 0.614838 0.797334 0.761089
O O3 0.547677 0.710431 0.115227
O O4 0.534220 0.021443 0.797796
O O5 0.387647 0.465097 0.674881
O O6 0.298516 0.419856 0.802676
O O7 0.345539 0.085049 0.557251
O O8 0.361655 0.197232 0.053719
O O9 0.030408 0.787575 0.213634
O O10 0.703780 0.901848 0.820300
O O11 0.248818 0.676033 0.517338
#
# Coordination Sequence:
#
# PCOD8051378 Si02
#       6
#     4   4   4   4   2   4
#     4  12  28  50  79 110 151 205 262 325 401 477
#     4  11  24  47  76 111 153 199 252 323 391 473
#     4  12  28  50  79 110 151 205 262 325 401 477
#     4  11  24  47  76 111 153 199 252 323 391 473
#     4  12  30  54  72 116 160 202 266 346 400 482
#     4  10  24  46  76 116 158 208 262 322 400 484
#
# _framework density 25.771948999999999
#
# number of rings (size 3 to 8) (size 9 to 14) (size 15 to 20)
#    0.000    0.727    1.818    3.818    0.000   14.545 
#    0.000    0.000    0.000    0.000    0.000    0.000 
#    0.000    0.000    0.000    0.000    0.000    0.000 
#
# Total GULP energy -136337.660495 kJ/mol
# GULP energy per Si atom -12394.332772 kJ/mol
# Density = 2.571329 g / cm^3
# Si number density = 25.771949 Si / 1000 Ang^3
#
#
#
# Elastic Constant Matrix: (Units=GPa)
#
#
# Indices 1 2 3 4 5 6 
#
# 1 134.1475 42.3458 37.0250 0.0000 5.0168 0.0000
# 2 42.3458 127.1587 34.1624 0.0000 1.3460 0.0000
# 3 37.0250 34.1624 106.9548 0.0000 -5.3026 0.0000
# 4 0.0000 0.0000 0.0000 38.9482 0.0000 -7.8925
# 5 5.0168 1.3460 -5.3026 0.0000 37.5309 0.0000
# 6 0.0000 0.0000 0.0000 -7.8925 0.0000 50.5335
#
#
#
# Elastic Compliance Matrix: (Units=1/GPa)
#
#
# Indices 1 2 3 4 5 6 
#
# 1 0.008902 -0.002299 -0.002419 0.000000 -0.001449 0.000000
# 2 -0.002299 0.009215 -0.002164 0.000000 -0.000329 0.000000
# 3 -0.002419 -0.002164 0.010975 0.000000 0.001952 0.000000
# 4 0.000000 0.000000 0.000000 0.026514 0.000000 0.004141
# 5 -0.001449 -0.000329 0.001952 0.000000 0.027126 0.000000
# 6 0.000000 0.000000 0.000000 0.004141 0.000000 0.020436
#
#
# Mechanical properties :
#
#
# Convention : Reuss Voigt Hill
#
# Bulk Modulus (GPa) = 65.24102 66.14750 65.69426
# Shear Modulus (GPa) = 40.96983 42.38437 41.67710
#
# Velocity S-wave (km/s) = 3.99144 4.05976 4.02574
# Velocity P-wave (km/s) = 6.82728 6.90635 6.86693
#
# Compressibility (1/GPa) = 0.01532778
#
# Stress axis : x y z
#
# Youngs Moduli (GPa) = 112.33201 108.52298 91.11605
#
# Poissons Ratio (x) = 0.24953 0.22042
# Poissons Ratio (y) = 0.25828 0.19714
# Poissons Ratio (z) = 0.27175 0.23480
#
# Static dielectric constant tensor:
#      x y z
#    x 5.586470 0.000000 0.025250 
#    y 0.000000 4.526660 0.000000 
#    z 0.025250 0.000000 4.345110 
# 
# 
# High freq. dielectric constant tensor:
#      x y z
#    x 2.073790 0.000000 -0.002560 
#    y 0.000000 2.026340 0.000000 
#    z -0.002560 0.000000 2.011910 
# 
# From -- ./inp_files/11025.got.cif
#   From: 2010.03.12/outbox.cif.g09.slc.cpg/sg5_6_cif.got.tgz:11025.got - 2010.03.31 09:47:26.
