data_PCOD8051688
_publ_section_title
;
Structure prediction by ZEFSAII (Michael W. Deem and Ramdas Pophale) SiO2 
 PCOD8051688
Probable space group: C 2
;
_chemical_formula_sum "Si O2"
_cell_formula_units_Z 24
_cell_length_a 9.037450
_cell_length_b 27.239851
_cell_length_c 7.941987
_cell_angle_alpha 90.000000
_cell_angle_beta 34.126498
_cell_angle_gamma 90.000000
_cell_volume 1096.881261
_symmetry_space_group_name_H-M "C 2"
_symmetry_group_IT_number 5
_symmetry_cell_setting 'monoclinic'
loop_
_space_group_symop_operation_xyz
x,y,z
-x,y,-z
1/2+x,1/2+y,z
1/2-x,1/2+y,-z
loop_
_atom_site_type_symbol
_atom_site_label
_atom_site_fract_x
_atom_site_fract_y
_atom_site_fract_z
Si Si1 0.555275 0.294530 0.136359
Si Si2 0.774500 0.697180 0.837831
Si Si3 0.273921 0.615495 0.837706
Si Si4 0.948843 0.349541 0.244576
Si Si5 0.476853 0.961762 0.220396
Si Si6 0.474722 0.510978 0.719166
O O1 0.653226 0.249583 0.155024
O O2 0.299599 0.317538 0.464890
O O3 0.500000 0.275867 0.000000
O O4 0.789047 0.334122 0.902404
O O5 0.000000 0.679161 0.500000
O O6 0.500000 0.701442 0.000000
O O7 0.769515 0.657601 0.988314
O O8 0.500000 0.635107 0.500000
O O9 0.388231 0.567346 0.823241
O O10 0.000000 0.602918 0.000000
O O11 0.895369 0.406176 0.338093
O O12 0.000000 0.341271 0.000000
O O13 0.500000 0.971941 0.000000
O O14 0.267153 0.997917 0.511491
O O15 0.766725 0.976473 0.015081
O O16 0.500000 0.496193 0.500000
#
# Coordination Sequence:
#
# PCOD8051688 Si02
#       6
#     4   4   4   4   4   4
#     4  12  25  42  63  89 123 160 203 253 309 367
#     4  12  26  44  65  89 122 160 203 252 309 371
#     4  11  22  39  65  95 125 158 203 254 304 357
#     4  11  22  39  64  93 124 161 205 252 301 356
#     4   9  17  30  54  88 120 154 198 244 287 341
#     4   9  16  30  54  88 122 153 194 245 290 340
#
# _framework density 21.880216000000001
#
# number of rings (size 3 to 8) (size 9 to 14) (size 15 to 20)
#    0.000    1.333    0.000    8.500    0.000    4.000 
#    0.000    0.000    0.000   10.000    0.000    0.000 
#    0.000    0.000    0.000    0.000    0.000    0.000 
#
# Total GULP energy -148775.877676 kJ/mol
# GULP energy per Si atom -12397.989806 kJ/mol
# Density = 2.183042 g / cm^3
# Si number density = 21.880216 Si / 1000 Ang^3
#
#
#
# Elastic Constant Matrix: (Units=GPa)
#
#
# Indices 1 2 3 4 5 6 
#
# 1 47.2781 25.8608 26.4247 0.0000 -5.5605 0.0000
# 2 25.8608 105.5709 64.3799 0.0000 11.7809 0.0000
# 3 26.4247 64.3799 161.5467 0.0000 -20.9903 0.0000
# 4 0.0000 0.0000 0.0000 -16.4730 0.0000 -26.5610
# 5 -5.5605 11.7809 -20.9903 0.0000 26.7085 0.0000
# 6 0.0000 0.0000 0.0000 -26.5610 0.0000 10.1339
#
#
#
# Elastic Compliance Matrix: (Units=1/GPa)
#
#
# Indices 1 2 3 4 5 6 
#
# 1 0.026236 -0.007129 -0.000370 0.000000 0.008316 0.000000
# 2 -0.007129 0.017813 -0.007959 0.000000 -0.015597 0.000000
# 3 -0.000370 -0.007959 0.010991 0.000000 0.012072 0.000000
# 4 0.000000 0.000000 0.000000 -0.011616 0.000000 -0.030445
# 5 0.008316 -0.015597 0.012072 0.000000 0.055539 0.000000
# 6 0.000000 0.000000 0.000000 -0.030445 0.000000 0.018882
#
#
# Mechanical properties :
#
#
# Convention : Reuss Voigt Hill
#
# Bulk Modulus (GPa) = 41.45362 60.85849 51.15606
# Shear Modulus (GPa) = 31.88717 17.25589 24.57153
#
# Velocity S-wave (km/s) = 3.82167 2.81134 3.35476
# Velocity P-wave (km/s) = 6.20164 6.19782 6.19973
#
# Compressibility (1/GPa) = 0.02412334
#
# Stress axis : x y z
#
# Youngs Moduli (GPa) = 38.11577 56.13915 90.98305
#
# Poissons Ratio (x) = 0.40023 0.03364
# Poissons Ratio (y) = 0.27174 0.72415
# Poissons Ratio (z) = 0.01409 0.44682
#
# Static dielectric constant tensor:
#      x y z
#    x 3.801450 0.000000 -0.258500 
#    y 0.000000 3.887110 0.000000 
#    z -0.258500 0.000000 4.480060 
# 
# 
# High freq. dielectric constant tensor:
#      x y z
#    x 1.828450 0.000000 -0.017960 
#    y 0.000000 1.866150 0.000000 
#    z -0.017960 0.000000 1.888610 
# 
# From -- ./inp_files/17606.got.cif
#   From: 2010.03.12/outbox.cif.g09.slc.cpg/sg5_9_cif.got.tgz:17606.got - 2010.03.31 09:47:26.
