data_PCOD8051350
_publ_section_title
;
Structure prediction by ZEFSAII (Michael W. Deem and Ramdas Pophale) SiO2 
 PCOD8051350
Probable space group: C 2
;
_chemical_formula_sum "Si O2"
_cell_formula_units_Z 28
_cell_length_a 15.333170
_cell_length_b 8.213467
_cell_length_c 21.204940
_cell_angle_alpha 90.000000
_cell_angle_beta 151.698514
_cell_angle_gamma 90.000000
_cell_volume 1266.122095
_symmetry_space_group_name_H-M "C 2"
_symmetry_group_IT_number 5
_symmetry_cell_setting 'monoclinic'
loop_
_space_group_symop_operation_xyz
x,y,z
-x,y,-z
1/2+x,1/2+y,z
1/2-x,1/2+y,-z
loop_
_atom_site_type_symbol
_atom_site_label
_atom_site_fract_x
_atom_site_fract_y
_atom_site_fract_z
Si Si1 0.760645 0.954980 0.588439
Si Si2 0.194451 0.394005 0.312758
Si Si3 0.510028 0.404498 0.862141
Si Si4 0.500000 0.936149 0.000000
Si Si5 0.267427 0.148528 0.766821
Si Si6 0.500000 0.142724 0.500000
Si Si7 0.132717 0.249780 0.960368
Si Si8 0.655501 0.609496 0.485451
O O1 0.774220 0.768236 0.576440
O O2 0.885863 0.980991 0.728692
O O3 0.559171 0.025503 0.479406
O O4 0.838272 0.071447 0.583989
O O5 0.190053 0.557687 0.270554
O O6 0.334222 0.260872 0.372724
O O7 0.261642 0.451269 0.425158
O O8 0.992139 0.315188 0.177685
O O9 0.379884 0.317772 0.831656
O O10 0.613004 0.557001 0.959534
O O11 0.657553 0.280877 0.925919
O O12 0.420647 0.831989 0.007165
O O13 0.666320 0.050021 0.129688
O O14 0.049415 0.166430 0.628706
#
# Coordination Sequence:
#
# PCOD8051350 Si02
#       8
#     4   4   4   2   4   2   4   4
#     4  12  27  43  70 108 142 184 233 287 350 419
#     4  11  22  42  74  98 142 188 224 290 352 407
#     4  12  25  46  74 101 139 190 233 284 352 421
#     4  10  24  46  68 104 138 184 234 292 346 406
#     4  11  23  45  72 100 142 185 230 290 350 413
#     4  12  22  44  68 104 138 182 228 278 354 410
#     4  11  25  46  71 104 141 184 239 284 351 415
#     4  12  25  44  69 107 143 181 237 286 350 416
#
# _framework density 22.114771000000001
#
# number of rings (size 3 to 8) (size 9 to 14) (size 15 to 20)
#    0.000    0.571    4.286    4.286    0.000    0.571 
#    0.000    0.000    0.000    0.000    0.000    0.000 
#    0.000    0.000    0.000    0.000    0.000    0.000 
#
# Total GULP energy -173572.329917 kJ/mol
# GULP energy per Si atom -12398.023565 kJ/mol
# Density = 2.206444 g / cm^3
# Si number density = 22.114771 Si / 1000 Ang^3
#
#
#
# Elastic Constant Matrix: (Units=GPa)
#
#
# Indices 1 2 3 4 5 6 
#
# 1 73.8299 49.0558 31.0611 -0.0046 5.6330 0.0026
# 2 49.0558 128.9567 28.7315 -0.0080 -3.4786 0.0060
# 3 31.0611 28.7315 76.3411 -0.0171 2.4003 0.0106
# 4 -0.0046 -0.0080 -0.0171 37.4885 0.0014 6.3442
# 5 5.6330 -3.4786 2.4003 0.0014 35.1043 0.0000
# 6 0.0026 0.0060 0.0106 6.3442 0.0000 34.4583
#
#
#
# Elastic Compliance Matrix: (Units=1/GPa)
#
#
# Indices 1 2 3 4 5 6 
#
# 1 0.020692 -0.006677 -0.005793 -0.000002 -0.003586 0.000002
# 2 -0.006677 0.010659 -0.001364 0.000001 0.002221 -0.000001
# 3 -0.005793 -0.001364 0.015979 0.000007 -0.000298 -0.000006
# 4 -0.000002 0.000001 0.000007 0.027533 -0.000001 -0.005069
# 5 -0.003586 0.002221 -0.000298 -0.000001 0.029302 0.000000
# 6 0.000002 -0.000001 -0.000006 -0.005069 0.000000 0.029954
#
#
# Mechanical properties :
#
#
# Convention : Reuss Voigt Hill
#
# Bulk Modulus (GPa) = 50.86534 55.20273 53.03404
# Shear Modulus (GPa) = 29.70133 32.76217 31.23175
#
# Velocity S-wave (km/s) = 3.66875 3.85315 3.76208
# Velocity P-wave (km/s) = 6.40288 6.69416 6.55014
#
# Compressibility (1/GPa) = 0.01965975
#
# Stress axis : x y z
#
# Youngs Moduli (GPa) = 48.32699 93.82110 62.58172
#
# Poissons Ratio (x) = 0.62649 0.36255
# Poissons Ratio (y) = 0.32270 0.08539
# Poissons Ratio (z) = 0.27997 0.12801
#
# Static dielectric constant tensor:
#      x y z
#    x 3.749330 0.000000 0.013740 
#    y 0.000000 4.112380 0.000000 
#    z 0.013740 0.000000 4.115120 
# 
# 
# High freq. dielectric constant tensor:
#      x y z
#    x 1.852650 0.000000 0.007240 
#    y 0.000000 1.890980 0.000000 
#    z 0.007240 0.000000 1.872880 
# 
# From -- ./inp_files/41728.got.cif
#   From: 2010.03.12/outbox.cif.g09.slc.cpg/sg5_21_cif.got.tgz:41728.got - 2010.03.31 09:47:26.
