data_PCOD8051897
_publ_section_title
;
Structure prediction by ZEFSAII (Michael W. Deem and Ramdas Pophale) SiO2 
 PCOD8051897
Probable space group: C 2
;
_chemical_formula_sum "Si O2"
_cell_formula_units_Z 22
_cell_length_a 16.447736
_cell_length_b 8.851616
_cell_length_c 7.137596
_cell_angle_alpha 90.000000
_cell_angle_beta 97.802835
_cell_angle_gamma 90.000000
_cell_volume 1029.534358
_symmetry_space_group_name_H-M "C 2"
_symmetry_group_IT_number 5
_symmetry_cell_setting 'monoclinic'
loop_
_space_group_symop_operation_xyz
x,y,z
-x,y,-z
1/2+x,1/2+y,z
1/2-x,1/2+y,-z
loop_
_atom_site_type_symbol
_atom_site_label
_atom_site_fract_x
_atom_site_fract_y
_atom_site_fract_z
Si Si1 0.411790 0.895020 0.539048
Si Si2 0.720276 0.786879 0.751615
Si Si3 0.340553 0.215829 0.465759
Si Si4 0.234825 0.096329 0.111084
Si Si5 0.000000 0.917044 0.500000
Si Si6 0.558486 0.632298 0.192289
O O1 0.500000 0.949497 0.500000
O O2 0.368371 0.779035 0.378393
O O3 0.423206 0.802494 0.733129
O O4 0.358240 0.046123 0.545521
O O5 0.790869 0.795681 0.616508
O O6 0.718898 0.937154 0.876750
O O7 0.732315 0.648036 0.894999
O O8 0.284587 0.211606 0.261283
O O9 0.421484 0.310368 0.440594
O O10 0.144415 0.061683 0.158546
O O11 0.014446 0.024122 0.327425
O O12 0.500000 0.649423 0.000000
#
# Coordination Sequence:
#
# PCOD8051897 Si02
#       6
#     4   4   4   4   2   4
#     4  11  23  46  69  97 133 176 224 280 334 397
#     4  11  25  44  69 100 135 180 226 276 340 406
#     4  11  25  47  70  96 139 178 228 277 338 401
#     4  11  26  42  70 101 132 181 224 278 338 399
#     4  12  26  46  72  98 140 180 226 284 336 406
#     4  12  26  43  69 102 136 176 226 280 341 402
#
# _framework density 21.368884000000001
#
# number of rings (size 3 to 8) (size 9 to 14) (size 15 to 20)
#    0.000    0.727    5.455    1.091    5.091    0.000 
#    0.000    0.909    0.000    0.000    0.000    0.000 
#    0.000    0.000    0.000    0.000    0.000    0.000 
#
# Total GULP energy -136420.898946 kJ/mol
# GULP energy per Si atom -12401.899904 kJ/mol
# Density = 2.132025 g / cm^3
# Si number density = 21.368884 Si / 1000 Ang^3
#
#
#
# Elastic Constant Matrix: (Units=GPa)
#
#
# Indices 1 2 3 4 5 6 
#
# 1 122.5422 18.7559 52.6890 0.0000 14.9321 0.0000
# 2 18.7559 68.7588 38.0632 0.0000 16.0105 0.0000
# 3 52.6890 38.0632 124.2714 0.0000 24.3907 0.0000
# 4 0.0000 0.0000 0.0000 29.6908 0.0000 3.9513
# 5 14.9321 16.0105 24.3907 0.0000 37.5708 0.0000
# 6 0.0000 0.0000 0.0000 3.9513 0.0000 34.0363
#
#
#
# Elastic Compliance Matrix: (Units=1/GPa)
#
#
# Indices 1 2 3 4 5 6 
#
# 1 0.010048 -0.000260 -0.003918 0.000000 -0.001339 0.000000
# 2 -0.000260 0.018230 -0.004548 0.000000 -0.004712 0.000000
# 3 -0.003918 -0.004548 0.011936 0.000000 -0.004253 0.000000
# 4 0.000000 0.000000 0.000000 0.034209 0.000000 -0.003971
# 5 -0.001339 -0.004712 -0.004253 0.000000 0.031918 0.000000
# 6 0.000000 0.000000 0.000000 -0.003971 0.000000 0.029841
#
#
# Mechanical properties :
#
#
# Convention : Reuss Voigt Hill
#
# Bulk Modulus (GPa) = 43.93491 59.39872 51.66682
# Shear Modulus (GPa) = 31.01326 33.99719 32.50523
#
# Velocity S-wave (km/s) = 3.81376 3.99302 3.90442
# Velocity P-wave (km/s) = 6.32439 7.00829 6.67510
#
# Compressibility (1/GPa) = 0.02276094
#
# Stress axis : x y z
#
# Youngs Moduli (GPa) = 99.52322 54.85555 83.78150
#
# Poissons Ratio (x) = 0.01428 0.32822
# Poissons Ratio (y) = 0.02591 0.38107
# Poissons Ratio (z) = 0.38989 0.24950
#
# Static dielectric constant tensor:
#      x y z
#    x 3.992520 0.000000 0.202520 
#    y 0.000000 3.763900 0.000000 
#    z 0.202520 0.000000 3.813130 
# 
# 
# High freq. dielectric constant tensor:
#      x y z
#    x 1.852960 0.000000 0.013590 
#    y 0.000000 1.841420 0.000000 
#    z 0.013590 0.000000 1.837370 
# 
# From -- ./inp_files/22762.got.cif
#   From: 2010.03.12/outbox.cif.g09.slc.cpg/sg5_12_cif.got.tgz:22762.got - 2010.03.31 09:47:26.
