data_PCOD8051947
_publ_section_title
;
Structure prediction by ZEFSAII (Michael W. Deem and Ramdas Pophale) SiO2 
 PCOD8051947
Probable space group: C 2
;
_chemical_formula_sum "Si O2"
_cell_formula_units_Z 16
_cell_length_a 9.894994
_cell_length_b 4.816566
_cell_length_c 16.079759
_cell_angle_alpha 90.000000
_cell_angle_beta 54.981686
_cell_angle_gamma 90.000000
_cell_volume 627.624475
_symmetry_space_group_name_H-M "C 2"
_symmetry_group_IT_number 5
_symmetry_cell_setting 'monoclinic'
loop_
_space_group_symop_operation_xyz
x,y,z
-x,y,-z
1/2+x,1/2+y,z
1/2-x,1/2+y,-z
loop_
_atom_site_type_symbol
_atom_site_label
_atom_site_fract_x
_atom_site_fract_y
_atom_site_fract_z
Si Si1 0.662980 0.498170 0.520170
Si Si2 0.333366 0.645085 0.192719
Si Si3 0.814219 0.133930 0.671184
Si Si4 0.693072 0.363654 0.067247
O O1 0.795576 0.685222 0.523663
O O2 0.493100 0.504869 0.631496
O O3 0.674794 0.684505 0.431261
O O4 0.205448 0.420607 0.273249
O O5 0.514574 0.510658 0.132910
O O6 0.268430 0.742582 0.125645
O O7 0.329838 0.918917 0.251850
O O8 0.819000 0.603365 0.991645
#
# Coordination Sequence:
#
# PCOD8051947 Si02
#       4
#     4   4   4   4
#     4  11  24  43  72 100 160 195 246 313 376 454
#     4  12  27  47  82 110 152 198 264 317 383 482
#     4  11  26  44  69 116 144 202 253 308 380 451
#     4  12  28  52  80 112 156 202 256 332 406 464
#
# _framework density 25.492951000000001
#
# number of rings (size 3 to 8) (size 9 to 14) (size 15 to 20)
#    0.000    0.500    0.000    6.750   10.500    6.000 
#    0.000    0.000    0.000    0.000    0.000    0.000 
#    0.000    0.000    0.000    0.000    0.000    0.000 
#
# Total GULP energy -99108.156394 kJ/mol
# GULP energy per Si atom -12388.519549 kJ/mol
# Density = 2.543493 g / cm^3
# Si number density = 25.492951 Si / 1000 Ang^3
#
#
#
# Elastic Constant Matrix: (Units=GPa)
#
#
# Indices 1 2 3 4 5 6 
#
# 1 86.9596 21.9131 35.1949 0.0001 -3.1657 0.0006
# 2 21.9131 158.4993 38.4221 0.0002 18.2897 0.0016
# 3 35.1949 38.4221 109.7155 -0.0001 17.5487 0.0002
# 4 0.0001 0.0002 -0.0001 63.7926 -0.0001 -1.6626
# 5 -3.1657 18.2897 17.5487 -0.0001 28.1868 -0.0002
# 6 0.0006 0.0016 0.0002 -1.6626 -0.0002 42.1683
#
#
#
# Elastic Compliance Matrix: (Units=1/GPa)
#
#
# Indices 1 2 3 4 5 6 
#
# 1 0.014034 -0.001391 -0.004899 0.000000 0.005529 0.000000
# 2 -0.001391 0.007320 -0.001480 0.000000 -0.003984 0.000000
# 3 -0.004899 -0.001480 0.012371 0.000000 -0.007292 0.000000
# 4 0.000000 0.000000 0.000000 0.015692 0.000000 0.000619
# 5 0.005529 -0.003984 -0.007292 0.000000 0.043224 0.000000
# 6 0.000000 0.000000 0.000000 0.000619 0.000000 0.023739
#
#
# Mechanical properties :
#
#
# Convention : Reuss Voigt Hill
#
# Bulk Modulus (GPa) = 54.99035 60.69272 57.84154
# Shear Modulus (GPa) = 36.23691 44.13916 40.18803
#
# Velocity S-wave (km/s) = 3.77430 4.16555 3.97474
# Velocity P-wave (km/s) = 6.37271 6.85530 6.61840
#
# Compressibility (1/GPa) = 0.01818501
#
# Stress axis : x y z
#
# Youngs Moduli (GPa) = 71.25473 136.61207 80.83627
#
# Poissons Ratio (x) = 0.18997 0.39604
# Poissons Ratio (y) = 0.09909 0.11964
# Poissons Ratio (z) = 0.34909 0.20219
#
# Static dielectric constant tensor:
#      x y z
#    x 4.520110 0.000000 -0.031100 
#    y 0.000000 5.037870 0.000000 
#    z -0.031100 0.000000 4.831710 
# 
# 
# High freq. dielectric constant tensor:
#      x y z
#    x 2.002600 0.000000 0.000240 
#    y 0.000000 2.049560 0.000000 
#    z 0.000240 0.000000 2.034210 
# 
# From -- ./inp_files/59112.got.cif
#   From: 2010.03.12/outbox.cif.g09.slc.cpg/sg5_30_cif.got.tgz:59112.got - 2010.03.31 09:47:26.
