data_PCOD8051559
_publ_section_title
;
Structure prediction by ZEFSAII (Michael W. Deem and Ramdas Pophale) SiO2 
 PCOD8051559
Probable space group: C 2
;
_chemical_formula_sum "Si O2"
_cell_formula_units_Z 26
_cell_length_a 11.142296
_cell_length_b 8.652379
_cell_length_c 13.876928
_cell_angle_alpha 90.000000
_cell_angle_beta 62.207748
_cell_angle_gamma 90.000000
_cell_volume 1183.510499
_symmetry_space_group_name_H-M "C 2"
_symmetry_group_IT_number 5
_symmetry_cell_setting 'monoclinic'
loop_
_space_group_symop_operation_xyz
x,y,z
-x,y,-z
1/2+x,1/2+y,z
1/2-x,1/2+y,-z
loop_
_atom_site_type_symbol
_atom_site_label
_atom_site_fract_x
_atom_site_fract_y
_atom_site_fract_z
Si Si1 0.486178 0.384600 0.605868
Si Si2 0.714029 0.979314 0.661940
Si Si3 0.792614 0.734432 0.189690
Si Si4 0.133536 0.569467 0.491464
Si Si5 0.121983 0.028373 0.734931
Si Si6 0.000000 0.518766 0.000000
Si Si7 0.533926 0.819566 0.163459
O O1 0.500000 0.484160 0.500000
O O2 0.321760 0.355655 0.666396
O O3 0.574034 0.228491 0.560002
O O4 0.522240 0.479497 0.686061
O O5 0.749653 0.145199 0.696737
O O6 0.718378 0.982672 0.543212
O O7 0.559577 0.936475 0.741611
O O8 0.867046 0.890054 0.193694
O O9 0.666499 0.783999 0.173576
O O10 0.886868 0.625730 0.089795
O O11 0.236752 0.587552 0.363678
O O12 0.000000 0.479025 0.500000
O O13 0.051321 0.163555 0.822287
O O14 0.927530 0.404900 0.950364
#
# Coordination Sequence:
#
# PCOD8051559 Si02
#       7
#     4   4   4   4   4   2   4
#     4  11  21  39  64  94 144 190 214 264 317 385
#     4  11  22  43  67  98 148 179 226 267 333 395
#     4  11  25  47  70 102 130 175 226 288 343 402
#     4  11  23  39  62 100 144 187 223 261 315 396
#     4  12  24  40  69 105 135 181 230 268 327 404
#     4  10  28  50  70  96 130 168 224 296 358 404
#     4  11  25  45  71 101 128 175 222 286 348 403
#
# _framework density 21.968541999999999
#
# number of rings (size 3 to 8) (size 9 to 14) (size 15 to 20)
#    0.000    0.923    4.615    2.769    0.000    3.077 
#    0.000    0.000    0.000    0.000    0.000    0.000 
#    0.000    0.000    0.000    0.000    0.000    0.000 
#
# Total GULP energy -161078.754531 kJ/mol
# GULP energy per Si atom -12390.673425 kJ/mol
# Density = 2.191854 g / cm^3
# Si number density = 21.968542 Si / 1000 Ang^3
#
#
#
# Elastic Constant Matrix: (Units=GPa)
#
#
# Indices 1 2 3 4 5 6 
#
# 1 171.1086 57.5243 48.6419 0.0000 6.8533 0.0000
# 2 57.5243 117.2101 45.9238 0.0000 14.6556 0.0000
# 3 48.6419 45.9238 99.4178 0.0000 10.8716 0.0000
# 4 0.0000 0.0000 0.0000 38.8968 0.0000 1.1630
# 5 6.8533 14.6556 10.8716 0.0000 24.1624 0.0000
# 6 0.0000 0.0000 0.0000 1.1630 0.0000 33.8786
#
#
#
# Elastic Compliance Matrix: (Units=1/GPa)
#
#
# Indices 1 2 3 4 5 6 
#
# 1 0.007444 -0.002786 -0.002429 0.000000 0.000671 0.000000
# 2 -0.002786 0.011917 -0.003616 0.000000 -0.004811 0.000000
# 3 -0.002429 -0.003616 0.013254 0.000000 -0.003082 0.000000
# 4 0.000000 0.000000 0.000000 0.025735 0.000000 -0.000883
# 5 0.000671 -0.004811 -0.003082 0.000000 0.045501 0.000000
# 6 0.000000 0.000000 0.000000 -0.000883 0.000000 0.029548
#
#
# Mechanical properties :
#
#
# Convention : Reuss Voigt Hill
#
# Bulk Modulus (GPa) = 66.86781 76.87962 71.87372
# Shear Modulus (GPa) = 32.04196 35.09732 33.56964
#
# Velocity S-wave (km/s) = 3.82322 4.00136 3.91330
# Velocity P-wave (km/s) = 7.07061 7.51126 7.29426
#
# Compressibility (1/GPa) = 0.01495488
#
# Stress axis : x y z
#
# Youngs Moduli (GPa) = 134.32966 83.91253 75.44846
#
# Poissons Ratio (x) = 0.23377 0.18325
# Poissons Ratio (y) = 0.37422 0.27280
# Poissons Ratio (z) = 0.32626 0.30340
#
# Static dielectric constant tensor:
#      x y z
#    x 4.270240 0.000000 0.033730 
#    y 0.000000 3.952540 0.000000 
#    z 0.033730 0.000000 3.957800 
# 
# 
# High freq. dielectric constant tensor:
#      x y z
#    x 1.885570 0.000000 -0.000210 
#    y 0.000000 1.858810 0.000000 
#    z -0.000210 0.000000 1.849450 
# 
# From -- ./inp_files/52193.got.cif
#   From: 2010.03.12/outbox.cif.g09.slc.cpg/sg5_27_cif.got.tgz:52193.got - 2010.03.31 09:47:26.
