data_PCOD8051477
_publ_section_title
;
Structure prediction by ZEFSAII (Michael W. Deem and Ramdas Pophale) SiO2 
 PCOD8051477
Probable space group: C 2
;
_chemical_formula_sum "Si O2"
_cell_formula_units_Z 18
_cell_length_a 8.901435
_cell_length_b 18.057685
_cell_length_c 5.194926
_cell_angle_alpha 90.000000
_cell_angle_beta 119.009207
_cell_angle_gamma 90.000000
_cell_volume 730.267597
_symmetry_space_group_name_H-M "C 2"
_symmetry_group_IT_number 5
_symmetry_cell_setting 'monoclinic'
loop_
_space_group_symop_operation_xyz
x,y,z
-x,y,-z
1/2+x,1/2+y,z
1/2-x,1/2+y,-z
loop_
_atom_site_type_symbol
_atom_site_label
_atom_site_fract_x
_atom_site_fract_y
_atom_site_fract_z
Si Si1 0.500000 0.293221 0.500000
Si Si2 0.832662 0.313518 0.039731
Si Si3 0.689334 0.532090 0.581452
Si Si4 0.819097 0.690778 0.738122
Si Si5 0.336435 0.970682 0.222334
O O1 0.363617 0.243375 0.539895
O O2 0.643413 0.340374 0.771012
O O3 0.800679 0.236814 0.163566
O O4 0.872536 0.382808 0.254086
O O5 0.000000 0.300629 0.000000
O O6 0.500000 0.514213 0.500000
O O7 0.715886 0.619420 0.559627
O O8 0.690910 0.490469 0.307589
O O9 0.813580 0.501344 0.912662
O O10 0.000000 0.663497 0.000000
O O11 0.500000 0.009425 0.500000
#
# Coordination Sequence:
#
# PCOD8051477 Si02
#       5
#     2   4   4   4   4
#     4  10  26  46  76 108 158 196 256 330 376 466
#     4  11  27  47  80 114 151 207 260 321 390 469
#     4  12  29  47  78 113 155 203 259 322 385 466
#     4  10  25  47  74 110 152 202 254 319 387 461
#     4  12  28  51  74 111 155 207 255 316 392 466
#
# _framework density 24.648499999999999
#
# number of rings (size 3 to 8) (size 9 to 14) (size 15 to 20)
#    0.000    0.889    0.000    4.000   18.667    3.556 
#    0.000    0.000    0.000    0.000    0.000    0.000 
#    0.000    0.000    0.000    0.000    0.000    0.000 
#
# Total GULP energy -111495.392060 kJ/mol
# GULP energy per Si atom -12388.376896 kJ/mol
# Density = 2.459240 g / cm^3
# Si number density = 24.648500 Si / 1000 Ang^3
#
#
#
# Elastic Constant Matrix: (Units=GPa)
#
#
# Indices 1 2 3 4 5 6 
#
# 1 166.8479 62.6546 10.6326 0.0000 -12.2902 0.0000
# 2 62.6546 99.3682 20.8125 0.0000 -7.6721 0.0000
# 3 10.6326 20.8125 87.5548 0.0000 -6.5700 0.0000
# 4 0.0000 0.0000 0.0000 -56.8336 0.0000 37.5178
# 5 -12.2902 -7.6721 -6.5700 0.0000 44.5091 0.0000
# 6 0.0000 0.0000 0.0000 37.5178 0.0000 10.3951
#
#
#
# Elastic Compliance Matrix: (Units=1/GPa)
#
#
# Indices 1 2 3 4 5 6 
#
# 1 0.007940 -0.004967 0.000320 0.000000 0.001384 0.000000
# 2 -0.004967 0.013794 -0.002629 0.000000 0.000618 0.000000
# 3 0.000320 -0.002629 0.012114 0.000000 0.001423 0.000000
# 4 0.000000 0.000000 0.000000 -0.005202 0.000000 0.018774
# 5 0.001384 0.000618 0.001423 0.000000 0.023166 0.000000
# 6 0.000000 0.000000 0.000000 0.018774 0.000000 0.028440
#
#
# Mechanical properties :
#
#
# Convention : Reuss Voigt Hill
#
# Bulk Modulus (GPa) = 51.82299 60.21893 56.02096
# Shear Modulus (GPa) = 49.38953 16.92553 33.15753
#
# Velocity S-wave (km/s) = 4.48119 2.62329 3.67170
# Velocity P-wave (km/s) = 6.91702 5.80170 6.38376
#
# Compressibility (1/GPa) = 0.01929646
#
# Stress axis : x y z
#
# Youngs Moduli (GPa) = 125.94313 72.49702 82.54668
#
# Poissons Ratio (x) = 0.36007 -0.02643
# Poissons Ratio (y) = 0.62552 0.21704
# Poissons Ratio (z) = -0.04033 0.19062
#
# Static dielectric constant tensor:
#      x y z
#    x 4.794720 0.000000 -0.241760 
#    y 0.000000 4.143470 0.000000 
#    z -0.241760 0.000000 5.022670 
# 
# 
# High freq. dielectric constant tensor:
#      x y z
#    x 2.001970 0.000000 0.006460 
#    y 0.000000 1.974270 0.000000 
#    z 0.006460 0.000000 1.985160 
# 
# From -- ./inp_files/2288.got.cif
#   From: 2010.03.12/outbox.cif.g09.slc.cpg/sg5_2_cif.got.tgz:2288.got - 2010.03.31 09:47:26.
