data_PCOD8051540
_publ_section_title
;
Structure prediction by ZEFSAII (Michael W. Deem and Ramdas Pophale) SiO2 
 PCOD8051540
Probable space group: C 2
;
_chemical_formula_sum "Si O2"
_cell_formula_units_Z 18
_cell_length_a 19.029072
_cell_length_b 8.198238
_cell_length_c 5.063537
_cell_angle_alpha 90.000000
_cell_angle_beta 88.843689
_cell_angle_gamma 90.000000
_cell_volume 789.775525
_symmetry_space_group_name_H-M "C 2"
_symmetry_group_IT_number 5
_symmetry_cell_setting 'monoclinic'
loop_
_space_group_symop_operation_xyz
x,y,z
-x,y,-z
1/2+x,1/2+y,z
1/2-x,1/2+y,-z
loop_
_atom_site_type_symbol
_atom_site_label
_atom_site_fract_x
_atom_site_fract_y
_atom_site_fract_z
Si Si1 0.637036 0.617420 0.231350
Si Si2 0.199115 0.618752 0.801302
Si Si3 0.000000 0.696966 0.500000
Si Si4 0.393463 0.417386 0.251321
Si Si5 0.126757 0.482929 0.306666
O O1 0.718666 0.626790 0.152484
O O2 0.623621 0.492611 0.465370
O O3 0.607621 0.792208 0.325094
O O4 0.595591 0.553535 0.975086
O O5 0.171880 0.803646 0.824956
O O6 0.183443 0.536596 0.520646
O O7 0.160518 0.509250 0.019647
O O8 0.036634 0.808229 0.720689
O O9 0.055690 0.585281 0.342641
#
# Coordination Sequence:
#
# PCOD8051540 Si02
#       5
#     4   4   2   4   4
#     4  12  23  41  68 105 127 164 221 274 324 374
#     4  11  22  42  67 100 135 170 206 264 339 390
#     4  10  26  50  62  92 132 184 222 250 332 386
#     4  11  25  42  69  94 135 174 212 269 317 392
#     4  11  25  42  69  94 135 174 212 270 318 391
#
# _framework density 22.791287000000001
#
# number of rings (size 3 to 8) (size 9 to 14) (size 15 to 20)
#    0.000    0.889    0.000    8.000    0.000    8.889 
#    0.000    4.444    0.000    0.000    0.000    0.000 
#    0.000    0.000    0.000    0.000    0.000    0.000 
#
# Total GULP energy -111668.526975 kJ/mol
# GULP energy per Si atom -12407.614108 kJ/mol
# Density = 2.273941 g / cm^3
# Si number density = 22.791287 Si / 1000 Ang^3
#
#
#
# Elastic Constant Matrix: (Units=GPa)
#
#
# Indices 1 2 3 4 5 6 
#
# 1 118.5176 50.9029 24.9399 0.0000 12.5733 0.0000
# 2 50.9029 124.4964 18.2507 0.0000 10.2095 0.0000
# 3 24.9399 18.2507 89.0065 0.0000 8.3619 0.0000
# 4 0.0000 0.0000 0.0000 38.6677 0.0000 5.8689
# 5 12.5733 10.2095 8.3619 0.0000 18.8709 0.0000
# 6 0.0000 0.0000 0.0000 5.8689 0.0000 21.6243
#
#
#
# Elastic Compliance Matrix: (Units=1/GPa)
#
#
# Indices 1 2 3 4 5 6 
#
# 1 0.010946 -0.003842 -0.001867 0.000000 -0.004387 0.000000
# 2 -0.003842 0.009913 -0.000723 0.000000 -0.002483 0.000000
# 3 -0.001867 -0.000723 0.012263 0.000000 -0.003799 0.000000
# 4 0.000000 0.000000 0.000000 0.026972 0.000000 -0.007320
# 5 -0.004387 -0.002483 -0.003799 0.000000 0.058941 0.000000
# 6 0.000000 0.000000 0.000000 -0.007320 0.000000 0.048231
#
#
# Mechanical properties :
#
#
# Convention : Reuss Voigt Hill
#
# Bulk Modulus (GPa) = 49.36242 57.80085 53.58164
# Shear Modulus (GPa) = 26.75456 31.69437 29.22446
#
# Velocity S-wave (km/s) = 3.42993 3.73317 3.58476
# Velocity P-wave (km/s) = 6.11485 6.63310 6.37924
#
# Compressibility (1/GPa) = 0.02025832
#
# Stress axis : x y z
#
# Youngs Moduli (GPa) = 91.35727 100.87941 81.54331
#
# Poissons Ratio (x) = 0.38758 0.15225
# Poissons Ratio (y) = 0.35100 0.05894
# Poissons Ratio (z) = 0.17058 0.07292
#
# Static dielectric constant tensor:
#      x y z
#    x 4.161590 0.000000 0.153540 
#    y 0.000000 4.327000 0.000000 
#    z 0.153540 0.000000 4.072220 
# 
# 
# High freq. dielectric constant tensor:
#      x y z
#    x 1.896230 0.000000 0.003090 
#    y 0.000000 1.914070 0.000000 
#    z 0.003090 0.000000 1.909950 
# 
# From -- ./inp_files/7942.got.cif
#   From: 2010.03.12/outbox.cif.g09.slc.cpg/sg5_4_cif.got.tgz:7942.got - 2010.03.31 09:47:26.
