data_PCOD8051686
_publ_section_title
;
Structure prediction by ZEFSAII (Michael W. Deem and Ramdas Pophale) SiO2 
 PCOD8051686
Probable space group: C 2
;
_chemical_formula_sum "Si O2"
_cell_formula_units_Z 26
_cell_length_a 14.422532
_cell_length_b 15.372960
_cell_length_c 8.097687
_cell_angle_alpha 90.000000
_cell_angle_beta 139.549630
_cell_angle_gamma 90.000000
_cell_volume 1164.832725
_symmetry_space_group_name_H-M "C 2"
_symmetry_group_IT_number 5
_symmetry_cell_setting 'monoclinic'
loop_
_space_group_symop_operation_xyz
x,y,z
-x,y,-z
1/2+x,1/2+y,z
1/2-x,1/2+y,-z
loop_
_atom_site_type_symbol
_atom_site_label
_atom_site_fract_x
_atom_site_fract_y
_atom_site_fract_z
Si Si1 0.199111 0.868900 0.908916
Si Si2 0.000000 0.731745 0.500000
Si Si3 0.599420 0.199385 0.284752
Si Si4 0.499272 0.828702 0.192712
Si Si5 0.706770 0.374350 0.298794
Si Si6 0.000000 0.013209 0.500000
Si Si7 0.500000 0.526610 0.000000
Si Si8 0.407510 0.644149 0.612869
O O1 0.139396 0.789881 0.720130
O O2 0.098514 0.953708 0.752580
O O3 0.359959 0.882078 0.060575
O O4 0.202893 0.841271 0.104989
O O5 0.031845 0.677705 0.374260
O O6 0.620668 0.304082 0.292996
O O7 0.753009 0.153855 0.486945
O O8 0.500000 0.164367 0.000000
O O9 0.633360 0.889255 0.419347
O O10 0.521048 0.738284 0.324020
O O11 0.500000 0.807311 0.000000
O O12 0.637590 0.468273 0.223793
O O13 0.888177 0.080640 0.430794
O O14 0.478061 0.591055 0.122911
#
# Coordination Sequence:
#
# PCOD8051686 Si02
#       8
#     4   2   4   4   4   2   2   4
#     4  11  22  42  69 100 136 182 240 283 344 426
#     4  11  22  38  74 102 135 180 240 281 342 420
#     4  11  23  45  69 104 136 185 236 289 342 426
#     4  11  25  42  69 100 135 184 242 287 344 423
#     4  11  22  41  71  98 134 188 234 281 343 421
#     4  11  26  44  68 102 135 188 230 291 364 412
#     4  12  22  46  66  92 140 176 224 286 348 422
#     4  11  26  43  67 100 140 180 227 291 358 406
#
# _framework density 22.320802
#
# number of rings (size 3 to 8) (size 9 to 14) (size 15 to 20)
#    0.000    0.923    4.615    2.308    8.615    0.000 
#    2.769    0.000    0.000    0.000    0.000    0.000 
#    0.000    0.000    0.000    0.000    0.000    0.000 
#
# Total GULP energy -161141.961125 kJ/mol
# GULP energy per Si atom -12395.535471 kJ/mol
# Density = 2.227000 g / cm^3
# Si number density = 22.320802 Si / 1000 Ang^3
#
#
#
# Elastic Constant Matrix: (Units=GPa)
#
#
# Indices 1 2 3 4 5 6 
#
# 1 124.5701 27.9068 37.8541 0.0000 -3.3612 0.0000
# 2 27.9068 83.2053 29.9711 0.0000 10.9451 0.0000
# 3 37.8541 29.9711 123.7996 0.0000 9.8168 0.0000
# 4 0.0000 0.0000 0.0000 21.9944 0.0000 -5.6658
# 5 -3.3612 10.9451 9.8168 0.0000 48.0305 0.0000
# 6 0.0000 0.0000 0.0000 -5.6658 0.0000 27.8132
#
#
#
# Elastic Compliance Matrix: (Units=1/GPa)
#
#
# Indices 1 2 3 4 5 6 
#
# 1 0.009362 -0.002504 -0.002392 0.000000 0.001715 0.000000
# 2 -0.002504 0.014111 -0.002421 0.000000 -0.002896 0.000000
# 3 -0.002392 -0.002421 0.009519 0.000000 -0.001561 0.000000
# 4 0.000000 0.000000 0.000000 0.047984 0.000000 0.009775
# 5 0.001715 -0.002896 -0.001561 0.000000 0.021919 0.000000
# 6 0.000000 0.000000 0.000000 0.009775 0.000000 0.037945
#
#
# Mechanical properties :
#
#
# Convention : Reuss Voigt Hill
#
# Bulk Modulus (GPa) = 54.47292 58.11547 56.29419
# Shear Modulus (GPa) = 30.94172 35.29048 33.11610
#
# Velocity S-wave (km/s) = 3.72725 3.98057 3.85599
# Velocity P-wave (km/s) = 6.55597 6.87165 6.71566
#
# Compressibility (1/GPa) = 0.01835775
#
# Stress axis : x y z
#
# Youngs Moduli (GPa) = 106.81761 70.86556 105.05299
#
# Poissons Ratio (x) = 0.17743 0.25133
# Poissons Ratio (y) = 0.26744 0.25434
# Poissons Ratio (z) = 0.25555 0.17157
#
# Static dielectric constant tensor:
#      x y z
#    x 4.077870 0.000000 -0.126430 
#    y 0.000000 3.712190 0.000000 
#    z -0.126430 0.000000 4.262090 
# 
# 
# High freq. dielectric constant tensor:
#      x y z
#    x 1.877930 0.000000 -0.006170 
#    y 0.000000 1.850480 0.000000 
#    z -0.006170 0.000000 1.893850 
# 
# From -- ./inp_files/24805.got.cif
#   From: 2010.03.12/outbox.cif.g09.slc.cpg/sg5_13_cif.got.tgz:24805.got - 2010.03.31 09:47:26.
