data_PCOD8051623
_publ_section_title
;
Structure prediction by ZEFSAII (Michael W. Deem and Ramdas Pophale) SiO2 
 PCOD8051623
Probable space group: C 2
;
_chemical_formula_sum "Si O2"
_cell_formula_units_Z 24
_cell_length_a 17.082876
_cell_length_b 14.126162
_cell_length_c 9.703642
_cell_angle_alpha 90.000000
_cell_angle_beta 29.402184
_cell_angle_gamma 90.000000
_cell_volume 1149.597121
_symmetry_space_group_name_H-M "C 2"
_symmetry_group_IT_number 5
_symmetry_cell_setting 'monoclinic'
loop_
_space_group_symop_operation_xyz
x,y,z
-x,y,-z
1/2+x,1/2+y,z
1/2-x,1/2+y,-z
loop_
_atom_site_type_symbol
_atom_site_label
_atom_site_fract_x
_atom_site_fract_y
_atom_site_fract_z
Si Si1 0.301118 0.896970 0.541634
Si Si2 0.349749 0.391054 0.937368
Si Si3 0.748836 0.194679 0.959331
Si Si4 0.620214 0.998447 0.099203
Si Si5 0.431495 0.698603 0.392378
Si Si6 0.338839 0.495221 0.503867
O O1 0.377166 0.793216 0.394893
O O2 0.202941 0.929032 0.559725
O O3 0.178761 0.894251 0.855470
O O4 0.435451 0.974541 0.367565
O O5 0.195083 0.426783 0.093549
O O6 0.503751 0.453118 0.663006
O O7 0.372504 0.283108 0.851763
O O8 0.638079 0.102759 0.135365
O O9 0.852722 0.198088 0.662352
O O10 0.875692 0.196772 0.890799
O O11 0.697534 0.991226 0.830171
O O12 0.373400 0.603382 0.402451
#
# Coordination Sequence:
#
# PCOD8051623 Si02
#       6
#     4   4   4   4   4   4
#     4  11  23  39  60  89 121 154 192 243 297 348
#     4  11  21  39  63  87 114 156 202 238 285 347
#     4   9  18  35  62  86 111 156 204 234 275 358
#     4  11  21  39  63  87 114 156 202 238 285 347
#     4   9  18  37  60  82 117 162 192 226 297 362
#     4  11  23  39  60  89 121 154 192 243 297 348
#
# _framework density 20.87688
#
# number of rings (size 3 to 8) (size 9 to 14) (size 15 to 20)
#    0.000    1.667    3.333    2.000    0.000    1.333 
#    0.000   15.000    0.000    0.000    0.000    0.000 
#    0.000    0.000    0.000    0.000    0.000    0.000 
#
# Total GULP energy -148823.321647 kJ/mol
# GULP energy per Si atom -12401.943471 kJ/mol
# Density = 2.082936 g / cm^3
# Si number density = 20.876880 Si / 1000 Ang^3
#
#
#
# Elastic Constant Matrix: (Units=GPa)
#
#
# Indices 1 2 3 4 5 6 
#
# 1 79.4186 31.2659 1.5206 -0.0001 0.3837 0.0001
# 2 31.2659 166.5594 18.7830 -0.0001 -5.7141 0.0001
# 3 1.5206 18.7830 26.8817 -0.0003 -11.8628 0.0002
# 4 -0.0001 -0.0001 -0.0003 24.1329 0.0001 -6.3279
# 5 0.3837 -5.7141 -11.8628 0.0001 29.6571 -0.0001
# 6 0.0001 0.0001 0.0002 -6.3279 -0.0001 39.6106
#
#
#
# Elastic Compliance Matrix: (Units=1/GPa)
#
#
# Indices 1 2 3 4 5 6 
#
# 1 0.013629 -0.002678 0.000965 0.000000 -0.000306 0.000000
# 2 -0.002678 0.007055 -0.005055 0.000000 -0.000628 0.000000
# 3 0.000965 -0.005055 0.048869 0.000001 0.018561 0.000000
# 4 0.000000 0.000000 0.000001 0.043249 0.000000 0.006909
# 5 -0.000306 -0.000628 0.018561 0.000000 0.041026 0.000000
# 6 0.000000 0.000000 0.000000 0.006909 0.000000 0.026349
#
#
# Mechanical properties :
#
#
# Convention : Reuss Voigt Hill
#
# Bulk Modulus (GPa) = 17.85199 41.77761 29.81480
# Shear Modulus (GPa) = 23.54217 33.43280 28.48748
#
# Velocity S-wave (km/s) = 3.36172 4.00612 3.69799
# Velocity P-wave (km/s) = 4.86188 6.43845 5.70488
#
# Compressibility (1/GPa) = 0.05601617
#
# Stress axis : x y z
#
# Youngs Moduli (GPa) = 73.37476 141.74267 20.46305
#
# Poissons Ratio (x) = 0.37954 -0.01974
# Poissons Ratio (y) = 0.19647 0.10345
# Poissons Ratio (z) = -0.07080 0.71655
#
# Static dielectric constant tensor:
#      x y z
#    x 3.536230 0.000000 -0.080970 
#    y 0.000000 4.173600 0.000000 
#    z -0.080970 0.000000 3.437280 
# 
# 
# High freq. dielectric constant tensor:
#      x y z
#    x 1.804970 0.000000 -0.012310 
#    y 0.000000 1.835610 0.000000 
#    z -0.012310 0.000000 1.794060 
# 
# From -- ./inp_files/24490.got.cif
#   From: 2010.03.12/outbox.cif.g09.slc.cpg/sg5_13_cif.got.tgz:24490.got - 2010.03.31 09:47:26.
