data_PCOD8051776
_publ_section_title
;
Structure prediction by ZEFSAII (Michael W. Deem and Ramdas Pophale) SiO2 
 PCOD8051776
Probable space group: C 2
;
_chemical_formula_sum "Si O2"
_cell_formula_units_Z 32
_cell_length_a 26.054742
_cell_length_b 13.401773
_cell_length_c 9.270723
_cell_angle_alpha 90.000000
_cell_angle_beta 28.356341
_cell_angle_gamma 90.000000
_cell_volume 1537.495992
_symmetry_space_group_name_H-M "C 2"
_symmetry_group_IT_number 5
_symmetry_cell_setting 'monoclinic'
loop_
_space_group_symop_operation_xyz
x,y,z
-x,y,-z
1/2+x,1/2+y,z
1/2-x,1/2+y,-z
loop_
_atom_site_type_symbol
_atom_site_label
_atom_site_fract_x
_atom_site_fract_y
_atom_site_fract_z
Si Si1 0.116448 0.682180 0.142702
Si Si2 0.234084 0.888009 0.905837
Si Si3 0.872126 0.885739 0.300422
Si Si4 0.027737 0.134715 0.594589
Si Si5 0.282723 0.504735 0.789657
Si Si6 0.895704 0.273460 0.348319
Si Si7 0.322161 0.530403 0.182242
Si Si8 0.293151 0.190187 0.374910
O O1 0.000000 0.661681 0.500000
O O2 0.158574 0.789749 0.093705
O O3 0.196471 0.593280 0.990702
O O4 0.110002 0.682248 0.983057
O O5 0.336508 0.873679 0.546301
O O6 0.184128 0.990571 0.965661
O O7 0.265297 0.915090 0.992977
O O8 0.818380 0.776266 0.429339
O O9 0.814612 0.956865 0.558402
O O10 0.847089 0.930889 0.207890
O O11 0.000000 0.877911 0.000000
O O12 0.108595 0.041105 0.399107
O O13 0.080760 0.222073 0.556684
O O14 0.000000 0.168938 0.500000
O O15 0.919489 0.108607 0.948713
O O16 0.817041 0.205675 0.445266
O O17 0.000000 0.303556 0.000000
O O18 0.218262 0.588935 0.503699
#
# Coordination Sequence:
#
# PCOD8051776 Si02
#       8
#     4   4   4   4   4   4   4   4
#     4  11  25  45  67  92 140 183 217 276 352 398
#     4  11  26  44  69  98 136 178 227 277 340 408
#     4  12  25  41  73 105 127 183 236 276 338 404
#     4  12  23  38  72 105 130 171 228 286 338 393
#     4  12  25  44  67 100 142 174 223 289 336 405
#     4  11  22  46  69  95 136 181 216 282 344 396
#     4  12  22  42  70  99 134 176 228 279 336 400
#     4  11  24  44  69 103 137 174 230 290 331 404
#
# _framework density 20.813064000000001
#
# number of rings (size 3 to 8) (size 9 to 14) (size 15 to 20)
#    0.000    0.500   10.000    0.000    3.500    2.000 
#    4.500    0.000    0.000    0.000    0.000    0.000 
#    0.000    0.000    0.000    0.000    0.000    0.000 
#
# Total GULP energy -198326.596531 kJ/mol
# GULP energy per Si atom -12395.412283 kJ/mol
# Density = 2.076569 g / cm^3
# Si number density = 20.813064 Si / 1000 Ang^3
#
#
#
# Elastic Constant Matrix: (Units=GPa)
#
#
# Indices 1 2 3 4 5 6 
#
# 1 79.6029 42.8467 38.3875 0.0000 12.1454 0.0000
# 2 42.8467 100.5688 32.3960 0.0000 -1.4239 0.0000
# 3 38.3875 32.3960 128.7738 0.0000 5.6624 0.0000
# 4 0.0000 0.0000 0.0000 30.1165 0.0000 25.8555
# 5 12.1454 -1.4239 5.6624 0.0000 22.5660 0.0000
# 6 0.0000 0.0000 0.0000 25.8555 0.0000 119.3812
#
#
#
# Elastic Compliance Matrix: (Units=1/GPa)
#
#
# Indices 1 2 3 4 5 6 
#
# 1 0.019876 -0.007454 -0.003598 0.000000 -0.010265 0.000000
# 2 -0.007454 0.013659 -0.001444 0.000000 0.005236 0.000000
# 3 -0.003598 -0.001444 0.009222 0.000000 -0.000468 0.000000
# 4 0.000000 0.000000 0.000000 0.040788 0.000000 -0.008834
# 5 -0.010265 0.005236 -0.000468 0.000000 0.050287 0.000000
# 6 0.000000 0.000000 0.000000 -0.008834 0.000000 0.010290
#
#
# Mechanical properties :
#
#
# Convention : Reuss Voigt Hill
#
# Bulk Modulus (GPa) = 56.29666 59.57843 57.93755
# Shear Modulus (GPa) = 28.56532 47.43378 37.99955
#
# Velocity S-wave (km/s) = 3.70871 4.77911 4.27752
# Velocity P-wave (km/s) = 6.74142 7.69030 7.23144
#
# Compressibility (1/GPa) = 0.01776304
#
# Stress axis : x y z
#
# Youngs Moduli (GPa) = 50.31160 73.21356 108.43422
#
# Poissons Ratio (x) = 0.54576 0.39019
# Poissons Ratio (y) = 0.37504 0.15661
# Poissons Ratio (z) = 0.18104 0.10574
#
# Static dielectric constant tensor:
#      x y z
#    x 2.746650 0.000000 0.306800 
#    y 0.000000 3.625650 0.000000 
#    z 0.306800 0.000000 3.798700 
# 
# 
# High freq. dielectric constant tensor:
#      x y z
#    x 1.812170 0.000000 0.020020 
#    y 0.000000 1.812350 0.000000 
#    z 0.020020 0.000000 1.816880 
# 
# From -- ./inp_files/31056.got.cif
#   From: 2010.03.12/outbox.cif.g09.slc.cpg/sg5_16_cif.got.tgz:31056.got - 2010.03.31 09:47:26.
