data_PCOD8051397
_publ_section_title
;
Structure prediction by ZEFSAII (Michael W. Deem and Ramdas Pophale) SiO2 
 PCOD8051397
Probable space group: C 2
;
_chemical_formula_sum "Si O2"
_cell_formula_units_Z 30
_cell_length_a 15.337912
_cell_length_b 8.161145
_cell_length_c 11.132632
_cell_angle_alpha 90.000000
_cell_angle_beta 97.973690
_cell_angle_gamma 90.000000
_cell_volume 1380.053571
_symmetry_space_group_name_H-M "C 2"
_symmetry_group_IT_number 5
_symmetry_cell_setting 'monoclinic'
loop_
_space_group_symop_operation_xyz
x,y,z
-x,y,-z
1/2+x,1/2+y,z
1/2-x,1/2+y,-z
loop_
_atom_site_type_symbol
_atom_site_label
_atom_site_fract_x
_atom_site_fract_y
_atom_site_fract_z
Si Si1 0.185835 0.627540 0.082727
Si Si2 0.482708 0.712498 0.130284
Si Si3 0.535289 0.380754 0.758498
Si Si4 0.853192 0.386805 0.739023
Si Si5 0.500000 0.234876 0.000000
Si Si6 0.688139 0.194772 0.664063
Si Si7 0.923127 0.648760 0.576120
Si Si8 0.309906 0.925073 0.142700
O O1 0.210796 0.498474 0.190631
O O2 0.228568 0.799914 0.127933
O O3 0.217104 0.565968 0.958210
O O4 0.079711 0.629507 0.068237
O O5 0.473816 0.577501 0.235355
O O6 0.569973 0.813781 0.167434
O O7 0.398521 0.832211 0.120687
O O8 0.500000 0.637864 0.000000
O O9 0.540506 0.336266 0.899020
O O10 0.627297 0.329230 0.717947
O O11 0.453993 0.297080 0.670296
O O12 0.790229 0.243258 0.679362
O O13 0.898163 0.486530 0.641516
O O14 0.661285 0.195943 0.519093
O O15 0.677754 0.016818 0.727030
O O16 0.000000 0.599147 0.500000
#
# Coordination Sequence:
#
# PCOD8051397 Si02
#       8
#     4   4   4   4   2   4   4   4
#     4  12  25  40  69  99 141 181 218 284 340 408
#     4  12  25  40  69 102 140 177 222 277 340 413
#     4  11  23  43  69 103 135 179 224 274 342 403
#     4  12  25  44  69 102 133 178 236 276 342 404
#     4  12  22  38  70  94 138 172 214 270 336 396
#     4  11  26  46  68  98 139 183 229 285 332 400
#     4  10  24  48  71  92 135 185 229 283 339 396
#     4  12  26  43  65 102 145 180 224 275 345 406
#
# _framework density 21.738288000000001
#
# number of rings (size 3 to 8) (size 9 to 14) (size 15 to 20)
#    0.000    0.533    4.667    4.000    3.733    2.133 
#    0.000    7.333    0.000    0.000    0.000    0.000 
#    0.000    0.000    0.000    0.000    0.000    0.000 
#
# Total GULP energy -185970.112526 kJ/mol
# GULP energy per Si atom -12398.007502 kJ/mol
# Density = 2.168881 g / cm^3
# Si number density = 21.738288 Si / 1000 Ang^3
#
#
#
# Elastic Constant Matrix: (Units=GPa)
#
#
# Indices 1 2 3 4 5 6 
#
# 1 87.4481 39.3449 31.6376 0.0000 24.3870 0.0000
# 2 39.3449 114.1831 42.4256 0.0000 3.4052 0.0000
# 3 31.6376 42.4256 120.4836 0.0000 5.0964 0.0000
# 4 0.0000 0.0000 0.0000 16.2086 0.0000 -4.5748
# 5 24.3870 3.4052 5.0964 0.0000 26.5968 0.0000
# 6 0.0000 0.0000 0.0000 -4.5748 0.0000 38.1984
#
#
#
# Elastic Compliance Matrix: (Units=1/GPa)
#
#
# Indices 1 2 3 4 5 6 
#
# 1 0.019320 -0.005222 -0.002534 0.000000 -0.016560 0.000000
# 2 -0.005222 0.011498 -0.002841 0.000000 0.003860 0.000000
# 3 -0.002534 -0.002841 0.009932 0.000000 0.000784 0.000000
# 4 0.000000 0.000000 0.000000 0.063854 0.000000 0.007647
# 5 -0.016560 0.003860 0.000784 0.000000 0.052139 0.000000
# 6 0.000000 0.000000 0.000000 0.007647 0.000000 0.027095
#
#
# Mechanical properties :
#
#
# Convention : Reuss Voigt Hill
#
# Bulk Modulus (GPa) = 51.13291 60.99234 56.06262
# Shear Modulus (GPa) = 23.63519 30.11455 26.87487
#
# Velocity S-wave (km/s) = 3.30094 3.72603 3.51991
# Velocity P-wave (km/s) = 6.17263 6.82858 6.50888
#
# Compressibility (1/GPa) = 0.01955688
#
# Stress axis : x y z
#
# Youngs Moduli (GPa) = 51.76044 86.97521 100.68068
#
# Poissons Ratio (x) = 0.45417 0.25512
# Poissons Ratio (y) = 0.27028 0.28600
# Poissons Ratio (z) = 0.13116 0.24707
#
# Static dielectric constant tensor:
#      x y z
#    x 3.866240 0.000000 0.075780 
#    y 0.000000 3.894800 0.000000 
#    z 0.075780 0.000000 4.116250 
# 
# 
# High freq. dielectric constant tensor:
#      x y z
#    x 1.856160 0.000000 0.006710 
#    y 0.000000 1.851250 0.000000 
#    z 0.006710 0.000000 1.858260 
# 
# From -- ./inp_files/42005.got.cif
#   From: 2010.03.12/outbox.cif.g09.slc.cpg/sg5_22_cif.got.tgz:42005.got - 2010.03.31 09:47:26.
