data_PCOD8051565
_publ_section_title
;
Structure prediction by ZEFSAII (Michael W. Deem and Ramdas Pophale) SiO2 
 PCOD8051565
Probable space group: C 2
;
_chemical_formula_sum "Si O2"
_cell_formula_units_Z 30
_cell_length_a 11.053316
_cell_length_b 19.144888
_cell_length_c 13.473966
_cell_angle_alpha 90.000000
_cell_angle_beta 145.119726
_cell_angle_gamma 90.000000
_cell_volume 1630.546626
_symmetry_space_group_name_H-M "C 2"
_symmetry_group_IT_number 5
_symmetry_cell_setting 'monoclinic'
loop_
_space_group_symop_operation_xyz
x,y,z
-x,y,-z
1/2+x,1/2+y,z
1/2-x,1/2+y,-z
loop_
_atom_site_type_symbol
_atom_site_label
_atom_site_fract_x
_atom_site_fract_y
_atom_site_fract_z
Si Si1 0.213536 0.929350 0.689600
Si Si2 0.309515 0.787506 0.643734
Si Si3 0.335222 0.763570 0.977066
Si Si4 0.745994 0.617061 0.153574
Si Si5 0.088653 0.477892 0.820241
Si Si6 0.000000 0.673887 0.500000
Si Si7 0.626073 0.885472 0.486905
Si Si8 0.896050 0.903270 0.166668
O O1 0.233881 0.849213 0.666666
O O2 0.408656 0.975304 0.783000
O O3 0.206252 0.935748 0.803039
O O4 0.000000 0.961393 0.500000
O O5 0.335907 0.815388 0.550335
O O6 0.145310 0.723945 0.530295
O O7 0.535211 0.759516 0.833334
O O8 0.223748 0.689733 0.883665
O O9 0.151825 0.820733 0.863628
O O10 0.500000 0.781999 0.000000
O O11 0.859767 0.557842 0.166667
O O12 0.855855 0.624102 0.334978
O O13 0.500000 0.598088 0.000000
O O14 0.009752 0.441168 0.666670
O O15 0.295267 0.438601 0.001647
O O16 0.500000 0.864742 0.500000
O O17 0.853811 0.917723 0.668308
#
# Coordination Sequence:
#
# PCOD8051565 Si02
#       8
#     4   4   4   4   4   2   4   4
#     4  11  18  36  64  97 118 146 204 264 312 356
#     4  11  18  36  64  97 118 146 204 264 312 356
#     4  11  18  36  64  97 118 146 204 264 312 356
#     4  11  25  38  57  91 129 163 206 250 315 380
#     4  11  25  38  57  91 129 163 206 250 315 380
#     4  12  20  38  72  88 120 162 204 270 312 356
#     4  11  25  38  57  91 129 163 206 250 315 380
#     4  12  20  38  72  88 120 162 204 270 312 356
#
# _framework density 18.398738000000002
#
# number of rings (size 3 to 8) (size 9 to 14) (size 15 to 20)
#    0.000    0.800   10.000    1.200    2.800    0.000 
#    0.000    0.000    0.000    9.600    0.000    0.000 
#    0.000    0.000    0.000    0.000    0.000    0.000 
#
# Total GULP energy -186015.444060 kJ/mol
# GULP energy per Si atom -12401.029604 kJ/mol
# Density = 1.835686 g / cm^3
# Si number density = 18.398738 Si / 1000 Ang^3
#
#
#
# Elastic Constant Matrix: (Units=GPa)
#
#
# Indices 1 2 3 4 5 6 
#
# 1 94.3418 38.2275 46.3035 0.0001 1.8581 0.0000
# 2 38.2275 94.6470 45.7377 0.0001 -1.0654 0.0001
# 3 46.3035 45.7377 152.5547 -0.0001 -4.9180 -0.0002
# 4 0.0001 0.0001 -0.0001 13.8778 -0.0001 0.3084
# 5 1.8581 -1.0654 -4.9180 -0.0001 14.3573 -0.0001
# 6 0.0000 0.0001 -0.0002 0.3084 -0.0001 28.2792
#
#
#
# Elastic Compliance Matrix: (Units=1/GPa)
#
#
# Indices 1 2 3 4 5 6 
#
# 1 0.013845 -0.004149 -0.003060 0.000000 -0.003148 0.000000
# 2 -0.004149 0.013601 -0.002800 0.000000 0.000587 0.000000
# 3 -0.003060 -0.002800 0.008422 0.000000 0.003073 0.000000
# 4 0.000000 0.000000 0.000000 0.072075 0.000000 -0.000786
# 5 -0.003148 0.000587 0.003073 0.000000 0.071155 0.000000
# 6 0.000000 0.000000 0.000000 -0.000786 0.000000 0.035370
#
#
# Mechanical properties :
#
#
# Convention : Reuss Voigt Hill
#
# Bulk Modulus (GPa) = 63.08529 66.89787 64.99158
# Shear Modulus (GPa) = 20.85360 25.38784 23.12072
#
# Velocity S-wave (km/s) = 3.37029 3.71869 3.54877
# Velocity P-wave (km/s) = 7.03615 7.40791 7.22442
#
# Compressibility (1/GPa) = 0.01585156
#
# Stress axis : x y z
#
# Youngs Moduli (GPa) = 72.23080 73.52599 118.73465
#
# Poissons Ratio (x) = 0.30503 0.36330
# Poissons Ratio (y) = 0.29965 0.33240
# Poissons Ratio (z) = 0.22101 0.20584
#
# Static dielectric constant tensor:
#      x y z
#    x 3.134540 0.000000 -0.042710 
#    y 0.000000 3.131870 0.000000 
#    z -0.042710 0.000000 3.815940 
# 
# 
# High freq. dielectric constant tensor:
#      x y z
#    x 1.684890 0.000000 -0.003810 
#    y 0.000000 1.684650 0.000000 
#    z -0.003810 0.000000 1.745740 
# 
# From -- ./inp_files/53528.got.cif
#   From: 2010.03.12/outbox.cif.g09.slc.cpg/sg5_27_cif.got.tgz:53528.got - 2010.03.31 09:47:26.
