data_PCOD8051530
_publ_section_title
;
Structure prediction by ZEFSAII (Michael W. Deem and Ramdas Pophale) SiO2 
 PCOD8051530
Probable space group: C 2
;
_chemical_formula_sum "Si O2"
_cell_formula_units_Z 22
_cell_length_a 21.526529
_cell_length_b 6.735602
_cell_length_c 13.678364
_cell_angle_alpha 90.000000
_cell_angle_beta 153.297499
_cell_angle_gamma 90.000000
_cell_volume 891.203852
_symmetry_space_group_name_H-M "C 2"
_symmetry_group_IT_number 5
_symmetry_cell_setting 'monoclinic'
loop_
_space_group_symop_operation_xyz
x,y,z
-x,y,-z
1/2+x,1/2+y,z
1/2-x,1/2+y,-z
loop_
_atom_site_type_symbol
_atom_site_label
_atom_site_fract_x
_atom_site_fract_y
_atom_site_fract_z
Si Si1 0.952961 0.265980 0.779212
Si Si2 0.634936 0.320312 0.789412
Si Si3 0.000000 0.573702 0.000000
Si Si4 0.883330 0.588996 0.435905
Si Si5 0.571967 0.746683 0.733757
Si Si6 0.812665 0.925291 0.686552
O O1 0.804649 0.370258 0.555757
O O2 0.035574 0.428937 0.958949
O O3 0.031737 0.219837 0.790546
O O4 0.934117 0.054991 0.807966
O O5 0.507770 0.208822 0.666643
O O6 0.660922 0.199523 0.725323
O O7 0.580060 0.539210 0.689127
O O8 0.772777 0.340811 0.049079
O O9 0.867751 0.715501 0.802913
O O10 0.748779 0.562755 0.312813
O O11 0.953929 0.374498 0.513159
#
# Coordination Sequence:
#
# PCOD8051530 Si02
#       6
#     4   4   2   4   4   4
#     4  11  26  47  74 109 149 195 242 307 366 434
#     4  11  24  48  72 103 141 198 238 301 364 431
#     4  12  26  46  74 110 148 198 236 296 384 432
#     4  10  26  47  70 109 144 188 244 302 364 432
#     4  11  25  49  72 105 148 191 249 301 360 438
#     4  11  25  49  73 110 149 187 249 306 365 439
#
# _framework density 24.685708999999999
#
# number of rings (size 3 to 8) (size 9 to 14) (size 15 to 20)
#    0.000    1.091    3.636    0.545    7.636    2.909 
#   13.091    0.000    0.000    0.000    0.000    0.000 
#    0.000    0.000    0.000    0.000    0.000    0.000 
#
# Total GULP energy -136363.790700 kJ/mol
# GULP energy per Si atom -12396.708245 kJ/mol
# Density = 2.462952 g / cm^3
# Si number density = 24.685709 Si / 1000 Ang^3
#
#
#
# Elastic Constant Matrix: (Units=GPa)
#
#
# Indices 1 2 3 4 5 6 
#
# 1 87.4140 29.2355 13.7556 0.0000 -8.0689 0.0000
# 2 29.2355 147.6816 22.4292 0.0000 -11.8096 0.0000
# 3 13.7556 22.4292 58.3723 0.0000 2.6541 0.0000
# 4 0.0000 0.0000 0.0000 49.9880 0.0000 -0.5771
# 5 -8.0689 -11.8096 2.6541 0.0000 36.7156 0.0000
# 6 0.0000 0.0000 0.0000 -0.5771 0.0000 34.5095
#
#
#
# Elastic Compliance Matrix: (Units=1/GPa)
#
#
# Indices 1 2 3 4 5 6 
#
# 1 0.012681 -0.001970 -0.002337 0.000000 0.002322 0.000000
# 2 -0.001970 0.007737 -0.002611 0.000000 0.002245 0.000000
# 3 -0.002337 -0.002611 0.018809 0.000000 -0.002713 0.000000
# 4 0.000000 0.000000 0.000000 0.020009 0.000000 0.000335
# 5 0.002322 0.002245 -0.002713 0.000000 0.028665 0.000000
# 6 0.000000 0.000000 0.000000 0.000335 0.000000 0.028983
#
#
# Mechanical properties :
#
#
# Convention : Reuss Voigt Hill
#
# Bulk Modulus (GPa) = 39.38320 47.14539 43.26429
# Shear Modulus (GPa) = 35.92411 39.44578 37.68495
#
# Velocity S-wave (km/s) = 3.81892 4.00174 3.91140
# Velocity P-wave (km/s) = 5.95265 6.36330 6.16140
#
# Compressibility (1/GPa) = 0.02539154
#
# Stress axis : x y z
#
# Youngs Moduli (GPa) = 78.86015 129.24454 53.16680
#
# Poissons Ratio (x) = 0.25457 0.12425
# Poissons Ratio (y) = 0.15533 0.13881
# Poissons Ratio (z) = 0.18430 0.33744
#
# Static dielectric constant tensor:
#      x y z
#    x 4.184600 0.000000 0.066600 
#    y 0.000000 4.618950 0.000000 
#    z 0.066600 0.000000 4.550600 
# 
# 
# High freq. dielectric constant tensor:
#      x y z
#    x 1.962070 0.000000 0.003370 
#    y 0.000000 2.000830 0.000000 
#    z 0.003370 0.000000 1.992020 
# 
# From -- ./inp_files/57488.got.cif
#   From: 2010.03.12/outbox.cif.g09.slc.cpg/sg5_29_cif.got.tgz:57488.got - 2010.03.31 09:47:26.
