data_PCOD8051961
_publ_section_title
;
Structure prediction by ZEFSAII (Michael W. Deem and Ramdas Pophale) SiO2 
 PCOD8051961
Probable space group: C 2
;
_chemical_formula_sum "Si O2"
_cell_formula_units_Z 30
_cell_length_a 11.284425
_cell_length_b 11.486696
_cell_length_c 11.029554
_cell_angle_alpha 90.000000
_cell_angle_beta 69.595765
_cell_angle_gamma 90.000000
_cell_volume 1339.956950
_symmetry_space_group_name_H-M "C 2"
_symmetry_group_IT_number 5
_symmetry_cell_setting 'monoclinic'
loop_
_space_group_symop_operation_xyz
x,y,z
-x,y,-z
1/2+x,1/2+y,z
1/2-x,1/2+y,-z
loop_
_atom_site_type_symbol
_atom_site_label
_atom_site_fract_x
_atom_site_fract_y
_atom_site_fract_z
Si Si1 0.740173 0.993830 0.704676
Si Si2 0.363187 0.501959 0.906831
Si Si3 0.109832 0.105935 0.756028
Si Si4 0.108138 0.921757 0.557939
Si Si5 0.660220 0.038357 0.162093
Si Si6 0.520009 0.847404 0.853665
Si Si7 0.500000 0.314161 0.000000
Si Si8 0.579377 0.200830 0.741567
O O1 0.852290 0.989367 0.764482
O O2 0.767446 0.919508 0.572993
O O3 0.619553 0.951129 0.822627
O O4 0.704218 0.124028 0.674095
O O5 0.491404 0.573598 0.884206
O O6 0.239586 0.564068 0.009600
O O7 0.391252 0.379864 0.961980
O O8 0.239019 0.054480 0.766281
O O9 0.090759 0.245279 0.752189
O O10 0.104010 0.044652 0.628469
O O11 0.094159 0.811542 0.649414
O O12 0.000000 0.923083 0.500000
O O13 0.552600 0.132441 0.231737
O O14 0.603037 0.905724 0.169358
O O15 0.500000 0.808470 0.000000
O O16 0.416377 0.238593 0.120618
#
# Coordination Sequence:
#
# PCOD8051961 Si02
#       8
#     4   4   4   4   4   4   2   4
#     4  11  26  46  70 103 139 185 239 298 356 439
#     4  12  21  43  68 105 146 179 228 297 360 432
#     4  12  26  44  69 108 142 195 235 298 366 431
#     4  12  26  50  68  98 139 189 248 283 363 445
#     4  11  24  44  71 109 146 178 243 300 366 434
#     4  11  25  45  72 109 144 187 235 302 371 425
#     4  12  22  40  68 110 138 178 238 276 370 422
#     4  11  26  44  75 103 137 191 234 305 359 433
#
# _framework density 22.388780000000001
#
# number of rings (size 3 to 8) (size 9 to 14) (size 15 to 20)
#    0.000    0.533    5.333    1.600    7.467    3.200 
#    0.000    2.000    0.000    0.000    0.000    0.000 
#    0.000    0.000    0.000    0.000    0.000    0.000 
#
# Total GULP energy -185825.541267 kJ/mol
# GULP energy per Si atom -12388.369418 kJ/mol
# Density = 2.233782 g / cm^3
# Si number density = 22.388780 Si / 1000 Ang^3
#
#
#
# Elastic Constant Matrix: (Units=GPa)
#
#
# Indices 1 2 3 4 5 6 
#
# 1 114.4491 52.2482 33.9098 0.0000 -1.4657 0.0000
# 2 52.2482 115.0815 52.1335 0.0000 12.5533 0.0000
# 3 33.9098 52.1335 134.3975 0.0000 -1.1477 0.0000
# 4 0.0000 0.0000 0.0000 13.6232 0.0000 -8.5243
# 5 -1.4657 12.5533 -1.1477 0.0000 22.2803 0.0000
# 6 0.0000 0.0000 0.0000 -8.5243 0.0000 29.0806
#
#
#
# Elastic Compliance Matrix: (Units=1/GPa)
#
#
# Indices 1 2 3 4 5 6 
#
# 1 0.011403 -0.005198 -0.000830 0.000000 0.003636 0.000000
# 2 -0.005198 0.013828 -0.004124 0.000000 -0.008345 0.000000
# 3 -0.000830 -0.004124 0.009273 0.000000 0.002746 0.000000
# 4 0.000000 0.000000 0.000000 0.089891 0.000000 0.026350
# 5 0.003636 -0.008345 0.002746 0.000000 0.049965 0.000000
# 6 0.000000 0.000000 0.000000 0.026350 0.000000 0.042111
#
#
# Mechanical properties :
#
#
# Convention : Reuss Voigt Hill
#
# Bulk Modulus (GPa) = 70.41651 71.16792 70.79221
# Shear Modulus (GPa) = 20.70333 28.03927 24.37130
#
# Velocity S-wave (km/s) = 3.04422 3.54274 3.30290
# Velocity P-wave (km/s) = 6.62392 6.97072 6.79953
#
# Compressibility (1/GPa) = 0.01420122
#
# Stress axis : x y z
#
# Youngs Moduli (GPa) = 87.69801 72.31863 107.83973
#
# Poissons Ratio (x) = 0.37589 0.08948
# Poissons Ratio (y) = 0.45583 0.44470
# Poissons Ratio (z) = 0.07277 0.29822
#
# Static dielectric constant tensor:
#      x y z
#    x 4.243900 0.000000 -0.217860 
#    y 0.000000 4.106690 0.000000 
#    z -0.217860 0.000000 5.231870 
# 
# 
# High freq. dielectric constant tensor:
#      x y z
#    x 1.888530 0.000000 -0.007680 
#    y 0.000000 1.878190 0.000000 
#    z -0.007680 0.000000 1.882540 
# 
# From -- ./inp_files/39134.got.cif
#   From: 2010.03.12/outbox.cif.g09.slc.cpg/sg5_20_cif.got.tgz:39134.got - 2010.03.31 09:47:26.
