data_PCOD8051702
_publ_section_title
;
Structure prediction by ZEFSAII (Michael W. Deem and Ramdas Pophale) SiO2 
 PCOD8051702
Probable space group: C 2
;
_chemical_formula_sum "Si O2"
_cell_formula_units_Z 30
_cell_length_a 12.197546
_cell_length_b 16.804341
_cell_length_c 15.378903
_cell_angle_alpha 90.000000
_cell_angle_beta 26.642209
_cell_angle_gamma 90.000000
_cell_volume 1413.520245
_symmetry_space_group_name_H-M "C 2"
_symmetry_group_IT_number 5
_symmetry_cell_setting 'monoclinic'
loop_
_space_group_symop_operation_xyz
x,y,z
-x,y,-z
1/2+x,1/2+y,z
1/2-x,1/2+y,-z
loop_
_atom_site_type_symbol
_atom_site_label
_atom_site_fract_x
_atom_site_fract_y
_atom_site_fract_z
Si Si1 0.995451 0.674780 0.728512
Si Si2 0.293735 0.263429 0.571231
Si Si3 0.747194 0.435876 0.468317
Si Si4 0.741264 0.511783 0.883733
Si Si5 0.717479 0.473310 0.091656
Si Si6 0.890187 0.298774 0.986186
Si Si7 0.000000 0.027215 0.500000
Si Si8 0.583361 0.115058 0.855438
O O1 0.811110 0.604999 0.830624
O O2 0.181521 0.689585 0.514907
O O3 0.108120 0.656205 0.743331
O O4 0.874283 0.760136 0.828710
O O5 0.500000 0.264969 0.500000
O O6 0.292632 0.342434 0.513378
O O7 0.037777 0.257976 0.802663
O O8 0.539144 0.470264 0.677482
O O9 0.709059 0.475627 0.400167
O O10 0.016489 0.459818 0.313517
O O11 0.500000 0.493872 0.000000
O O12 0.644956 0.484537 0.044309
O O13 0.878025 0.393434 0.987534
O O14 0.880438 0.546503 0.006496
O O15 0.000000 0.273630 0.000000
O O16 0.855105 0.078952 0.674792
O O17 0.500000 0.168585 0.000000
#
# Coordination Sequence:
#
# PCOD8051702 Si02
#       8
#     4   4   4   4   4   4   2   4
#     4  11  25  41  63 100 137 175 223 276 349 409
#     4  12  23  39  68 102 135 170 222 294 345 389
#     4  12  22  40  73 101 129 170 227 285 334 404
#     4  11  26  46  64  97 141 184 225 270 334 422
#     4  11  22  40  70 100 127 172 224 283 336 396
#     4  12  22  39  67  99 136 171 220 288 346 397
#     4  12  20  38  68 104 126 156 224 278 344 396
#     4  11  23  40  66  96 134 173 215 279 341 408
#
# _framework density 21.223610000000001
#
# number of rings (size 3 to 8) (size 9 to 14) (size 15 to 20)
#    0.000    0.533    8.667    0.800    0.000    3.733 
#    0.000    0.667    2.933    0.000    0.000    0.000 
#    0.000    0.000    0.000    0.000    0.000    0.000 
#
# Total GULP energy -185845.636837 kJ/mol
# GULP energy per Si atom -12389.709122 kJ/mol
# Density = 2.117530 g / cm^3
# Si number density = 21.223610 Si / 1000 Ang^3
#
#
#
# Elastic Constant Matrix: (Units=GPa)
#
#
# Indices 1 2 3 4 5 6 
#
# 1 102.1692 26.2503 57.6220 0.1033 4.4786 -0.2040
# 2 26.2503 67.0498 23.8821 0.5815 10.5821 -0.4880
# 3 57.6220 23.8821 135.5857 0.9020 24.6731 -0.8195
# 4 0.1033 0.5815 0.9020 55.7010 -0.3299 -1.6437
# 5 4.4786 10.5821 24.6731 -0.3299 42.3696 0.3704
# 6 -0.2040 -0.4880 -0.8195 -1.6437 0.3704 25.1763
#
#
#
# Elastic Compliance Matrix: (Units=1/GPa)
#
#
# Indices 1 2 3 4 5 6 
#
# 1 0.013890 -0.003842 -0.005745 0.000119 0.002839 -0.000183
# 2 -0.003842 0.017243 -0.000773 -0.000171 -0.003455 0.000318
# 3 -0.005745 -0.000773 0.010975 -0.000181 -0.005595 0.000366
# 4 0.000119 -0.000171 -0.000181 0.017993 0.000266 0.001163
# 5 0.002839 -0.003455 -0.005595 0.000266 0.027430 -0.000612
# 6 -0.000183 0.000318 0.000366 0.001163 -0.000612 0.039821
#
#
# Mechanical properties :
#
#
# Convention : Reuss Voigt Hill
#
# Bulk Modulus (GPa) = 46.75517 57.81262 52.28389
# Shear Modulus (GPa) = 32.21632 37.78604 35.00118
#
# Velocity S-wave (km/s) = 3.90031 4.22403 4.06539
# Velocity P-wave (km/s) = 6.50852 7.14764 6.83556
#
# Compressibility (1/GPa) = 0.02138801
#
# Stress axis : x y z
#
# Youngs Moduli (GPa) = 71.99455 57.99550 91.11970
#
# Poissons Ratio (x) = 0.22283 0.52347
# Poissons Ratio (y) = 0.27662 0.07039
# Poissons Ratio (z) = 0.41360 0.04480
#
# Static dielectric constant tensor:
#      x y z
#    x 3.572630 0.000830 0.214160 
#    y 0.000830 3.739790 0.000250 
#    z 0.214160 0.000250 4.061510 
# 
# 
# High freq. dielectric constant tensor:
#      x y z
#    x 1.817350 0.000000 0.018580 
#    y 0.000000 1.812160 0.000020 
#    z 0.018580 0.000020 1.858370 
# 
# From -- ./inp_files/53404.got.cif
#   From: 2010.03.12/outbox.cif.g09.slc.cpg/sg5_27_cif.got.tgz:53404.got - 2010.03.31 09:47:26.
