data_PCOD8051182
_publ_section_title
;
Structure prediction by ZEFSAII (Michael W. Deem and Ramdas Pophale) SiO2 
 PCOD8051182
Probable space group: C 2
;
_chemical_formula_sum "Si O2"
_cell_formula_units_Z 20
_cell_length_a 9.594079
_cell_length_b 7.617025
_cell_length_c 11.514950
_cell_angle_alpha 90.000000
_cell_angle_beta 97.401319
_cell_angle_gamma 90.000000
_cell_volume 834.482269
_symmetry_space_group_name_H-M "C 2"
_symmetry_group_IT_number 5
_symmetry_cell_setting 'monoclinic'
loop_
_space_group_symop_operation_xyz
x,y,z
-x,y,-z
1/2+x,1/2+y,z
1/2-x,1/2+y,-z
loop_
_atom_site_type_symbol
_atom_site_label
_atom_site_fract_x
_atom_site_fract_y
_atom_site_fract_z
Si Si1 0.124779 0.955040 0.259872
Si Si2 0.343382 0.030380 0.474773
Si Si3 0.146618 0.656731 0.075973
Si Si4 0.613699 0.424548 0.598426
Si Si5 0.638363 0.763842 0.090077
O O1 0.166612 0.804515 0.174440
O O2 0.960707 0.934048 0.283055
O O3 0.239825 0.929383 0.374314
O O4 0.132822 0.148716 0.205953
O O5 0.500000 0.942734 0.500000
O O6 0.362334 0.223982 0.431035
O O7 0.263750 0.023743 0.592879
O O8 0.170293 0.463338 0.134048
O O9 0.248551 0.678853 0.980033
O O10 0.000000 0.678624 0.000000
O O11 0.500000 0.513109 0.500000
O O12 0.500000 0.757732 0.000000
#
# Coordination Sequence:
#
# PCOD8051182 Si02
#       5
#     4   4   4   4   4
#     4  11  24  46  75 102 145 193 227 288 364 407
#     4  10  23  48  70 103 139 180 240 298 348 419
#     4  11  25  46  70 104 151 181 237 292 339 425
#     4   9  22  46  66  99 141 178 236 295 346 419
#     4  11  25  46  69 107 146 186 236 287 346 421
#
# _framework density 23.966957000000001
#
# number of rings (size 3 to 8) (size 9 to 14) (size 15 to 20)
#    0.000    1.600    2.000    0.600    2.800    2.400 
#   28.800    0.000    0.000    0.000    0.000    0.000 
#    0.000    0.000    0.000    0.000    0.000    0.000 
#
# Total GULP energy -123928.634226 kJ/mol
# GULP energy per Si atom -12392.863423 kJ/mol
# Density = 2.391241 g / cm^3
# Si number density = 23.966957 Si / 1000 Ang^3
#
#
#
# Elastic Constant Matrix: (Units=GPa)
#
#
# Indices 1 2 3 4 5 6 
#
# 1 169.0839 33.7866 32.9902 0.0000 -31.2187 0.0000
# 2 33.7866 114.5232 33.6548 0.0000 0.0590 0.0000
# 3 32.9902 33.6548 78.3933 0.0000 -19.4797 0.0000
# 4 0.0000 0.0000 0.0000 39.8526 0.0000 -9.8753
# 5 -31.2187 0.0590 -19.4797 0.0000 41.5321 0.0000
# 6 0.0000 0.0000 0.0000 -9.8753 0.0000 33.8779
#
#
#
# Elastic Compliance Matrix: (Units=1/GPa)
#
#
# Indices 1 2 3 4 5 6 
#
# 1 0.007439 -0.001888 -0.001053 0.000000 0.005100 0.000000
# 2 -0.001888 0.010668 -0.004688 0.000000 -0.003633 0.000000
# 3 -0.001053 -0.004688 0.016998 0.000000 0.007188 0.000000
# 4 0.000000 0.000000 0.000000 0.027046 0.000000 0.007884
# 5 0.005100 -0.003633 0.007188 0.000000 0.031288 0.000000
# 6 0.000000 0.000000 0.000000 0.007884 0.000000 0.031816
#
#
# Mechanical properties :
#
#
# Convention : Reuss Voigt Hill
#
# Bulk Modulus (GPa) = 50.38411 62.54041 56.46226
# Shear Modulus (GPa) = 33.98392 40.49043 37.23718
#
# Velocity S-wave (km/s) = 3.76965 4.11472 3.94596
# Velocity P-wave (km/s) = 6.32574 6.98038 6.66111
#
# Compressibility (1/GPa) = 0.01984753
#
# Stress axis : x y z
#
# Youngs Moduli (GPa) = 134.43544 93.73435 58.83041
#
# Poissons Ratio (x) = 0.17696 0.06192
# Poissons Ratio (y) = 0.25379 0.27582
# Poissons Ratio (z) = 0.14149 0.43946
#
# Static dielectric constant tensor:
#      x y z
#    x 5.142480 0.000000 -0.145790 
#    y 0.000000 4.391000 0.000000 
#    z -0.145790 0.000000 4.362440 
# 
# 
# High freq. dielectric constant tensor:
#      x y z
#    x 1.972330 0.000000 -0.013120 
#    y 0.000000 1.952990 0.000000 
#    z -0.013120 0.000000 1.943570 
# 
# From -- ./inp_files/34777.got.cif
#   From: 2010.03.12/outbox.cif.g09.slc.cpg/sg5_18_cif.got.tgz:34777.got - 2010.03.31 09:47:26.
