data_PCOD8051313
_publ_section_title
;
Structure prediction by ZEFSAII (Michael W. Deem and Ramdas Pophale) SiO2 
 PCOD8051313
Probable space group: C 2
;
_chemical_formula_sum "Si O2"
_cell_formula_units_Z 24
_cell_length_a 23.669485
_cell_length_b 5.248580
_cell_length_c 22.997110
_cell_angle_alpha 90.000000
_cell_angle_beta 158.936819
_cell_angle_gamma 90.000000
_cell_volume 1026.782809
_symmetry_space_group_name_H-M "C 2"
_symmetry_group_IT_number 5
_symmetry_cell_setting 'monoclinic'
loop_
_space_group_symop_operation_xyz
x,y,z
-x,y,-z
1/2+x,1/2+y,z
1/2-x,1/2+y,-z
loop_
_atom_site_type_symbol
_atom_site_label
_atom_site_fract_x
_atom_site_fract_y
_atom_site_fract_z
Si Si1 0.000000 0.455451 0.500000
Si Si2 0.483972 0.401540 0.097925
Si Si3 0.983546 0.893871 0.640419
Si Si4 0.742374 0.272934 0.807983
Si Si5 0.000000 0.572640 0.000000
Si Si6 0.844681 0.787859 0.082114
Si Si7 0.665551 0.879778 0.548060
O O1 0.123046 0.609117 0.656416
O O2 0.103956 0.297684 0.553596
O O3 0.413418 0.244121 0.083902
O O4 0.657919 0.489482 0.283359
O O5 0.366787 0.627844 0.968618
O O6 0.513931 0.228316 0.071676
O O7 0.142274 0.957326 0.755042
O O8 0.021310 0.883909 0.744936
O O9 0.931109 0.613947 0.570764
O O10 0.856952 0.120856 0.510956
O O11 0.839931 0.414027 0.851587
O O12 0.782759 0.514789 0.044111
#
# Coordination Sequence:
#
# PCOD8051313 Si02
#       7
#     2   4   4   4   2   4   4
#     4  10  24  44  70 102 154 194 248 300 388 448
#     4  12  28  46  75 112 149 199 255 313 382 448
#     4  11  26  47  74 105 150 197 253 302 381 441
#     4  11  25  46  70 107 152 194 254 311 379 457
#     4  12  26  42  74 108 150 192 250 322 372 458
#     4  12  26  49  79 110 147 200 251 312 372 453
#     4  11  27  44  72 109 148 200 245 313 372 452
#
# _framework density 23.373977
#
# number of rings (size 3 to 8) (size 9 to 14) (size 15 to 20)
#    0.000    0.667    1.667    4.500   16.333    2.000 
#    0.000    0.000    0.000    0.000    0.000    0.000 
#    0.000    0.000    0.000    0.000    0.000    0.000 
#
# Total GULP energy -148739.806449 kJ/mol
# GULP energy per Si atom -12394.983871 kJ/mol
# Density = 2.332078 g / cm^3
# Si number density = 23.373977 Si / 1000 Ang^3
#
#
#
# Elastic Constant Matrix: (Units=GPa)
#
#
# Indices 1 2 3 4 5 6 
#
# 1 136.9996 18.5921 31.2666 0.0015 -5.6620 -0.0020
# 2 18.5921 85.0400 22.3751 0.0145 -2.6876 -0.0304
# 3 31.2666 22.3751 127.0129 -0.0002 -5.2736 0.0005
# 4 0.0015 0.0145 -0.0002 30.0876 -0.0001 -42.9310
# 5 -5.6620 -2.6876 -5.2736 -0.0001 38.9877 -0.0002
# 6 -0.0020 -0.0304 0.0005 -42.9310 -0.0002 43.0807
#
#
#
# Elastic Compliance Matrix: (Units=1/GPa)
#
#
# Indices 1 2 3 4 5 6 
#
# 1 0.007889 -0.001255 -0.001686 0.000001 0.000831 0.000001
# 2 -0.001255 0.012542 -0.001883 -0.000016 0.000428 -0.000007
# 3 -0.001686 -0.001883 0.008653 0.000003 0.000796 0.000001
# 4 0.000001 -0.000016 0.000003 -0.078776 -0.000001 -0.078502
# 5 0.000831 0.000428 0.000796 -0.000001 0.025907 -0.000001
# 6 0.000001 -0.000007 0.000001 -0.078502 -0.000001 -0.055017
#
#
# Mechanical properties :
#
#
# Convention : Reuss Voigt Hill
#
# Bulk Modulus (GPa) = 51.45032 54.83556 53.14294
# Shear Modulus (GPa) = -79.77604 40.88578 -19.44513
#
# Velocity S-wave (km/s) = -5.84845 4.18688 -2.88742
# Velocity P-wave (km/s) = 4.85245 6.84721 3.41600
#
# Compressibility (1/GPa) = 0.01943623
#
# Stress axis : x y z
#
# Youngs Moduli (GPa) = 126.76199 79.72947 115.56552
#
# Poissons Ratio (x) = 0.10004 0.19489
# Poissons Ratio (y) = 0.15905 0.21760
# Poissons Ratio (z) = 0.21378 0.15012
#
# Static dielectric constant tensor:
#      x y z
#    x 5.003440 -0.000010 0.569170 
#    y -0.000010 3.973560 -0.000010 
#    z 0.569170 -0.000010 4.941630 
# 
# 
# High freq. dielectric constant tensor:
#      x y z
#    x 1.938290 0.000000 -0.005620 
#    y 0.000000 1.908080 0.000000 
#    z -0.005620 0.000000 1.940570 
# 
# From -- ./inp_files/30267.got.cif
#   From: 2010.03.12/outbox.cif.g09.slc.cpg/sg5_16_cif.got.tgz:30267.got - 2010.03.31 09:47:26.
