data_PCOD8051929
_publ_section_title
;
Structure prediction by ZEFSAII (Michael W. Deem and Ramdas Pophale) SiO2 
 PCOD8051929
Probable space group: C 2
;
_chemical_formula_sum "Si O2"
_cell_formula_units_Z 28
_cell_length_a 7.799221
_cell_length_b 17.943196
_cell_length_c 13.026144
_cell_angle_alpha 90.000000
_cell_angle_beta 133.646544
_cell_angle_gamma 90.000000
_cell_volume 1319.083569
_symmetry_space_group_name_H-M "C 2"
_symmetry_group_IT_number 5
_symmetry_cell_setting 'monoclinic'
loop_
_space_group_symop_operation_xyz
x,y,z
-x,y,-z
1/2+x,1/2+y,z
1/2-x,1/2+y,-z
loop_
_atom_site_type_symbol
_atom_site_label
_atom_site_fract_x
_atom_site_fract_y
_atom_site_fract_z
Si Si1 0.199829 0.754090 0.011426
Si Si2 0.384899 0.348051 0.213789
Si Si3 0.500000 0.169420 0.500000
Si Si4 0.255661 0.067249 0.236983
Si Si5 0.164239 0.295192 0.322119
Si Si6 0.754647 0.590555 0.004245
Si Si7 0.000000 0.466864 0.000000
Si Si8 0.882922 0.407305 0.348313
O O1 0.456257 0.770069 0.161897
O O2 0.203588 0.781644 0.895931
O O3 0.138162 0.667287 0.991878
O O4 0.000000 0.795006 0.000000
O O5 0.368341 0.326824 0.328328
O O6 0.651566 0.362560 0.287617
O O7 0.222577 0.419569 0.128583
O O8 0.441574 0.116199 0.379453
O O9 0.273400 0.223676 0.427319
O O10 0.230693 0.101955 0.114990
O O11 0.327890 0.980637 0.259556
O O12 0.982909 0.073155 0.161477
O O13 0.066784 0.355410 0.362283
O O14 0.932205 0.521229 0.065349
O O15 0.000000 0.437480 0.500000
#
# Coordination Sequence:
#
# PCOD8051929 Si02
#       8
#     4   4   2   4   4   4   2   4
#     4  12  23  41  69 103 140 180 233 293 349 411
#     4  12  25  42  71 105 140 180 237 293 347 417
#     4  12  24  46  72 100 138 188 230 286 352 428
#     4  11  24  42  71  95 140 184 235 281 352 416
#     4  12  25  44  70 100 143 183 230 288 354 418
#     4  11  24  41  67 103 137 181 229 292 347 406
#     4  12  22  40  70 104 140 170 232 292 352 408
#     4  12  26  45  68 102 141 192 233 287 352 425
#
# _framework density 21.226858
#
# number of rings (size 3 to 8) (size 9 to 14) (size 15 to 20)
#    0.000    0.286    7.143    2.571    2.000    0.000 
#    0.000    0.000    0.000    0.000    0.000    0.000 
#    0.000    0.000    0.000    0.000    0.000    0.000 
#
# Total GULP energy -173529.690572 kJ/mol
# GULP energy per Si atom -12394.977898 kJ/mol
# Density = 2.117854 g / cm^3
# Si number density = 21.226858 Si / 1000 Ang^3
#
#
#
# Elastic Constant Matrix: (Units=GPa)
#
#
# Indices 1 2 3 4 5 6 
#
# 1 105.1937 33.4267 18.7426 -0.0001 2.5914 0.0000
# 2 33.4267 117.9654 20.0577 -0.0001 1.0287 0.0000
# 3 18.7426 20.0577 85.9084 0.0001 -0.0565 0.0000
# 4 -0.0001 -0.0001 0.0001 30.0887 0.0001 -0.0508
# 5 2.5914 1.0287 -0.0565 0.0001 30.2237 0.0000
# 6 0.0000 0.0000 0.0000 -0.0508 0.0000 32.6749
#
#
#
# Elastic Compliance Matrix: (Units=1/GPa)
#
#
# Indices 1 2 3 4 5 6 
#
# 1 0.010698 -0.002736 -0.001696 0.000000 -0.000827 0.000000
# 2 -0.002736 0.009530 -0.001628 0.000000 -0.000093 0.000000
# 3 -0.001696 -0.001628 0.012391 0.000000 0.000224 0.000000
# 4 0.000000 0.000000 0.000000 0.033235 0.000000 0.000052
# 5 -0.000827 -0.000093 0.000224 0.000000 0.033161 0.000000
# 6 0.000000 0.000000 0.000000 0.000052 0.000000 0.030605
#
#
# Mechanical properties :
#
#
# Convention : Reuss Voigt Hill
#
# Bulk Modulus (GPa) = 48.78302 50.39126 49.58714
# Shear Modulus (GPa) = 33.65364 34.38682 34.02023
#
# Velocity S-wave (km/s) = 3.98606 4.02925 4.00771
# Velocity P-wave (km/s) = 6.64955 6.74073 6.69529
#
# Compressibility (1/GPa) = 0.02049893
#
# Stress axis : x y z
#
# Youngs Moduli (GPa) = 93.47401 104.93229 80.70649
#
# Poissons Ratio (x) = 0.28708 0.13686
# Poissons Ratio (y) = 0.25573 0.13141
# Poissons Ratio (z) = 0.15851 0.17085
#
# Static dielectric constant tensor:
#      x y z
#    x 4.051330 0.000000 0.253720 
#    y 0.000000 3.863200 0.000000 
#    z 0.253720 0.000000 4.038180 
# 
# 
# High freq. dielectric constant tensor:
#      x y z
#    x 1.830980 0.000000 0.007060 
#    y 0.000000 1.842250 0.000000 
#    z 0.007060 0.000000 1.835870 
# 
# From -- ./inp_files/51132.got.cif
#   From: 2010.03.12/outbox.cif.g09.slc.cpg/sg5_26_cif.got.tgz:51132.got - 2010.03.31 09:47:26.
