data_PCOD8051548
_publ_section_title
;
Structure prediction by ZEFSAII (Michael W. Deem and Ramdas Pophale) SiO2 
 PCOD8051548
Probable space group: C 2
;
_chemical_formula_sum "Si O2"
_cell_formula_units_Z 24
_cell_length_a 11.569124
_cell_length_b 8.681253
_cell_length_c 22.733632
_cell_angle_alpha 90.000000
_cell_angle_beta 151.943001
_cell_angle_gamma 90.000000
_cell_volume 1073.921631
_symmetry_space_group_name_H-M "C 2"
_symmetry_group_IT_number 5
_symmetry_cell_setting 'monoclinic'
loop_
_space_group_symop_operation_xyz
x,y,z
-x,y,-z
1/2+x,1/2+y,z
1/2-x,1/2+y,-z
loop_
_atom_site_type_symbol
_atom_site_label
_atom_site_fract_x
_atom_site_fract_y
_atom_site_fract_z
Si Si1 0.876512 0.794100 0.547157
Si Si2 0.500000 0.516653 0.500000
Si Si3 0.509767 0.171808 0.725154
Si Si4 0.378299 0.404666 0.888025
Si Si5 0.925786 0.910752 0.147753
Si Si6 0.000000 0.615875 0.000000
Si Si7 0.030296 0.469481 0.579368
O O1 0.001877 0.914226 0.559623
O O2 0.029513 0.786305 0.677581
O O3 0.876210 0.626692 0.517382
O O4 0.592972 0.842471 0.432725
O O5 0.729280 0.628609 0.609086
O O6 0.609459 0.256923 0.828355
O O7 0.646157 0.012067 0.769117
O O8 0.566087 0.382848 0.918258
O O9 0.500000 0.486143 0.000000
O O10 0.321699 0.226271 0.880084
O O11 0.181635 0.994027 0.279077
O O12 0.685913 0.014006 0.046398
O O13 0.000000 0.409115 0.500000
#
# Coordination Sequence:
#
# PCOD8051548 Si02
#       7
#     4   2   4   4   4   2   4
#     4  12  24  42  69 107 145 186 229 275 361 430
#     4  12  26  42  72 110 146 184 228 288 360 436
#     4  12  26  44  73 106 143 190 233 291 363 428
#     4  10  27  48  72 101 143 183 249 302 358 409
#     4  12  26  48  76 100 144 191 246 299 356 423
#     4  10  30  46  72 106 134 192 254 302 356 404
#     4  12  25  44  71 107 150 186 230 288 358 439
#
# _framework density 22.347999000000002
#
# number of rings (size 3 to 8) (size 9 to 14) (size 15 to 20)
#    0.500    0.000    5.833    1.000    5.833    2.667 
#    0.000    0.000    0.000    0.000    0.000    0.000 
#    0.000    0.000    0.000    0.000    0.000    0.000 
#
# Total GULP energy -148715.763195 kJ/mol
# GULP energy per Si atom -12392.980266 kJ/mol
# Density = 2.229713 g / cm^3
# Si number density = 22.347999 Si / 1000 Ang^3
#
#
#
# Elastic Constant Matrix: (Units=GPa)
#
#
# Indices 1 2 3 4 5 6 
#
# 1 163.9286 53.1401 33.2738 -0.0002 -16.0705 0.0001
# 2 53.1401 115.3078 26.0899 -0.0002 8.1179 0.0001
# 3 33.2738 26.0899 63.7130 0.0003 0.7568 0.0009
# 4 -0.0002 -0.0002 0.0003 37.6068 -0.0004 0.3511
# 5 -16.0705 8.1179 0.7568 -0.0004 40.6083 0.0000
# 6 0.0001 0.0001 0.0009 0.3511 0.0000 23.9700
#
#
#
# Elastic Compliance Matrix: (Units=1/GPa)
#
#
# Indices 1 2 3 4 5 6 
#
# 1 0.008183 -0.003387 -0.002934 0.000000 0.003970 0.000000
# 2 -0.003387 0.011099 -0.002735 0.000000 -0.003508 0.000000
# 3 -0.002934 -0.002735 0.018359 0.000000 -0.000956 -0.000001
# 4 0.000000 0.000000 0.000000 0.026595 0.000000 -0.000390
# 5 0.003970 -0.003508 -0.000956 0.000000 0.026916 0.000000
# 6 0.000000 0.000000 -0.000001 -0.000390 0.000000 0.041725
#
#
# Mechanical properties :
#
#
# Convention : Reuss Voigt Hill
#
# Bulk Modulus (GPa) = 51.20241 63.10633 57.15437
# Shear Modulus (GPa) = 31.74698 35.80007 33.77353
#
# Velocity S-wave (km/s) = 3.77314 4.00676 3.89170
# Velocity P-wave (km/s) = 6.47636 7.05017 6.76935
#
# Compressibility (1/GPa) = 0.01953033
#
# Stress axis : x y z
#
# Youngs Moduli (GPa) = 122.20812 90.09867 54.47028
#
# Poissons Ratio (x) = 0.30514 0.15980
# Poissons Ratio (y) = 0.41389 0.14895
# Poissons Ratio (z) = 0.35852 0.24638
#
# Static dielectric constant tensor:
#      x y z
#    x 4.464120 0.000000 -0.148730 
#    y 0.000000 4.001040 0.000000 
#    z -0.148730 0.000000 3.714330 
# 
# 
# High freq. dielectric constant tensor:
#      x y z
#    x 1.909030 0.000000 -0.006630 
#    y 0.000000 1.883400 0.000000 
#    z -0.006630 0.000000 1.850970 
# 
# From -- ./inp_files/68326.got.cif
#   From: 2010.03.12/outbox.cif.g09.slc.cpg/sg5_35_cif.got.tgz:68326.got - 2010.03.31 09:47:26.
