data_PCOD8051125
_publ_section_title
;
Structure prediction by ZEFSAII (Michael W. Deem and Ramdas Pophale) SiO2 
 PCOD8051125
Probable space group: C 2
;
_chemical_formula_sum "Si O2"
_cell_formula_units_Z 24
_cell_length_a 16.583741
_cell_length_b 10.199124
_cell_length_c 16.459561
_cell_angle_alpha 90.000000
_cell_angle_beta 156.386806
_cell_angle_gamma 90.000000
_cell_volume 1115.144762
_symmetry_space_group_name_H-M "C 2"
_symmetry_group_IT_number 5
_symmetry_cell_setting 'monoclinic'
loop_
_space_group_symop_operation_xyz
x,y,z
-x,y,-z
1/2+x,1/2+y,z
1/2-x,1/2+y,-z
loop_
_atom_site_type_symbol
_atom_site_label
_atom_site_fract_x
_atom_site_fract_y
_atom_site_fract_z
Si Si1 0.640753 0.685910 0.876387
Si Si2 0.347849 0.827147 0.492997
Si Si3 0.000000 0.139306 0.500000
Si Si4 0.986047 0.784138 0.688902
Si Si5 0.500000 0.771354 0.000000
Si Si6 0.723299 0.479927 0.827169
Si Si7 0.210947 0.110302 0.333285
O O1 0.537210 0.806814 0.729932
O O2 0.776234 0.590041 0.944055
O O3 0.471108 0.606079 0.769944
O O4 0.788186 0.745299 0.078543
O O5 0.375424 0.724234 0.447746
O O6 0.144878 0.792684 0.351946
O O7 0.312817 0.967289 0.418039
O O8 0.823873 0.051115 0.300312
O O9 0.897919 0.688839 0.540768
O O10 0.012394 0.921378 0.666300
O O11 0.386745 0.866418 0.960051
O O12 0.354941 0.674958 0.813719
#
# Coordination Sequence:
#
# PCOD8051125 Si02
#       7
#     4   4   2   4   2   4   4
#     4  10  23  44  67 102 125 179 230 269 333 400
#     4  10  24  44  67  97 137 174 222 276 330 405
#     4  10  24  46  64 100 132 176 218 278 342 378
#     4  11  23  41  73  95 129 183 220 277 332 396
#     4  12  26  42  66 108 134 176 222 282 338 390
#     4  11  23  43  68  95 135 168 226 274 324 405
#     4  11  24  43  68  98 139 175 222 276 336 396
#
# _framework density 21.52187
#
# number of rings (size 3 to 8) (size 9 to 14) (size 15 to 20)
#    0.000    1.333    3.333    1.000    4.667    1.333 
#    6.000    0.000    0.000    0.000    0.000    0.000 
#    0.000    0.000    0.000    0.000    0.000    0.000 
#
# Total GULP energy -148696.443610 kJ/mol
# GULP energy per Si atom -12391.370301 kJ/mol
# Density = 2.147288 g / cm^3
# Si number density = 21.521870 Si / 1000 Ang^3
#
#
#
# Elastic Constant Matrix: (Units=GPa)
#
#
# Indices 1 2 3 4 5 6 
#
# 1 96.4857 34.7788 39.8458 -0.0034 -5.9826 -0.0015
# 2 34.7788 114.8496 53.0707 0.0046 -11.3968 -0.0061
# 3 39.8458 53.0707 121.3107 0.0003 -18.1768 -0.0046
# 4 -0.0034 0.0046 0.0003 19.9959 0.0025 9.0803
# 5 -5.9826 -11.3968 -18.1768 0.0025 32.0289 -0.0014
# 6 -0.0015 -0.0061 -0.0046 9.0803 -0.0014 31.1471
#
#
#
# Elastic Compliance Matrix: (Units=1/GPa)
#
#
# Indices 1 2 3 4 5 6 
#
# 1 0.012484 -0.002374 -0.003103 0.000003 -0.000274 -0.000001
# 2 -0.002374 0.011413 -0.004012 -0.000004 0.001341 0.000003
# 3 -0.003103 -0.004012 0.011713 -0.000001 0.004640 0.000001
# 4 0.000003 -0.000004 -0.000001 0.057641 -0.000007 -0.016804
# 5 -0.000274 0.001341 0.004640 -0.000007 0.034281 0.000004
# 6 -0.000001 0.000003 0.000001 -0.016804 0.000004 0.037005
#
#
# Mechanical properties :
#
#
# Convention : Reuss Voigt Hill
#
# Bulk Modulus (GPa) = 60.12545 65.33739 62.73142
# Shear Modulus (GPa) = 26.44668 30.29776 28.37222
#
# Velocity S-wave (km/s) = 3.50927 3.75609 3.63478
# Velocity P-wave (km/s) = 6.66465 7.01680 6.84299
#
# Compressibility (1/GPa) = 0.01663189
#
# Stress axis : x y z
#
# Youngs Moduli (GPa) = 80.09984 87.61974 85.37422
#
# Poissons Ratio (x) = 0.20799 0.26493
# Poissons Ratio (y) = 0.19014 0.34255
# Poissons Ratio (z) = 0.24857 0.35156
#
# Static dielectric constant tensor:
#      x y z
#    x 3.935430 -0.000020 -0.099740 
#    y -0.000020 4.044060 -0.000030 
#    z -0.099740 -0.000030 3.742680 
# 
# 
# High freq. dielectric constant tensor:
#      x y z
#    x 1.858560 0.000000 -0.004950 
#    y 0.000000 1.851170 0.000000 
#    z -0.004950 0.000000 1.833420 
# 
# From -- ./inp_files/62429.got.cif
#   From: 2010.03.12/outbox.cif.g09.slc.cpg/sg5_32_cif.got.tgz:62429.got - 2010.03.31 09:47:26.
