data_PCOD8051062
_publ_section_title
;
Structure prediction by ZEFSAII (Michael W. Deem and Ramdas Pophale) SiO2 
 PCOD8051062
Probable space group: C 2
;
_chemical_formula_sum "Si O2"
_cell_formula_units_Z 22
_cell_length_a 11.725051
_cell_length_b 8.424944
_cell_length_c 14.232716
_cell_angle_alpha 90.000000
_cell_angle_beta 43.804514
_cell_angle_gamma 90.000000
_cell_volume 973.197901
_symmetry_space_group_name_H-M "C 2"
_symmetry_group_IT_number 5
_symmetry_cell_setting 'monoclinic'
loop_
_space_group_symop_operation_xyz
x,y,z
-x,y,-z
1/2+x,1/2+y,z
1/2-x,1/2+y,-z
loop_
_atom_site_type_symbol
_atom_site_label
_atom_site_fract_x
_atom_site_fract_y
_atom_site_fract_z
Si Si1 0.264481 0.481540 0.238952
Si Si2 0.676710 0.420779 0.519018
Si Si3 0.660807 0.280984 0.965945
Si Si4 0.935665 0.010900 0.825062
Si Si5 0.500000 0.174162 0.500000
Si Si6 0.318821 0.722909 0.582407
O O1 0.268701 0.443547 0.125774
O O2 0.423268 0.576579 0.186042
O O3 0.096126 0.565487 0.368213
O O4 0.276339 0.299502 0.273809
O O5 0.517164 0.475991 0.674673
O O6 0.630561 0.280049 0.476858
O O7 0.762801 0.562531 0.409149
O O8 0.821310 0.359371 0.500811
O O9 0.791005 0.137836 0.894856
O O10 0.500000 0.227841 0.000000
O O11 0.627759 0.344087 0.091852
O O12 0.500000 0.668601 0.500000
#
# Coordination Sequence:
#
# PCOD8051062 Si02
#       6
#     4   4   4   4   2   4
#     4  10  23  42  67  96 136 168 213 272 331 385
#     4  11  24  40  65  98 135 171 225 263 332 396
#     4  10  23  46  68  91 128 170 220 272 323 379
#     4  10  23  44  65  95 126 174 219 269 320 387
#     4  12  24  40  66 106 134 178 214 270 334 404
#     4  11  21  41  63  93 135 173 208 270 325 390
#
# _framework density 22.605884
#
# number of rings (size 3 to 8) (size 9 to 14) (size 15 to 20)
#    0.000    1.455    1.818    3.273    2.545    0.000 
#    3.273    0.000    0.000    0.000    0.000    0.000 
#    0.000    0.000    0.000    0.000    0.000    0.000 
#
# Total GULP energy -136276.785020 kJ/mol
# GULP energy per Si atom -12388.798638 kJ/mol
# Density = 2.255443 g / cm^3
# Si number density = 22.605884 Si / 1000 Ang^3
#
#
#
# Elastic Constant Matrix: (Units=GPa)
#
#
# Indices 1 2 3 4 5 6 
#
# 1 68.3252 22.1388 4.1345 0.0000 -7.7182 0.0000
# 2 22.1388 95.0531 29.4727 0.0000 -7.6578 0.0000
# 3 4.1345 29.4727 59.4883 0.0000 2.8823 0.0000
# 4 0.0000 0.0000 0.0000 30.2609 0.0000 -4.8107
# 5 -7.7182 -7.6578 2.8823 0.0000 27.6101 0.0000
# 6 0.0000 0.0000 0.0000 -4.8107 0.0000 45.3393
#
#
#
# Elastic Compliance Matrix: (Units=1/GPa)
#
#
# Indices 1 2 3 4 5 6 
#
# 1 0.016178 -0.003650 0.000516 0.000000 0.003456 0.000000
# 2 -0.003650 0.013736 -0.006721 0.000000 0.003491 0.000000
# 3 0.000516 -0.006721 0.020290 0.000000 -0.003838 0.000000
# 4 0.000000 0.000000 0.000000 0.033613 0.000000 0.003566
# 5 0.003456 0.003491 -0.003838 0.000000 0.038554 0.000000
# 6 0.000000 0.000000 0.000000 0.003566 0.000000 0.022434
#
#
# Mechanical properties :
#
#
# Convention : Reuss Voigt Hill
#
# Bulk Modulus (GPa) = 32.79210 37.15096 34.97153
# Shear Modulus (GPa) = 28.62434 31.78343 30.20388
#
# Velocity S-wave (km/s) = 3.56228 3.75371 3.65925
# Velocity P-wave (km/s) = 5.60868 5.93776 5.77556
#
# Compressibility (1/GPa) = 0.03049515
#
# Stress axis : x y z
#
# Youngs Moduli (GPa) = 61.81386 72.80392 49.28607
#
# Poissons Ratio (x) = 0.26570 -0.02545
# Poissons Ratio (y) = 0.22559 0.33123
# Poissons Ratio (z) = -0.03191 0.48928
#
# Static dielectric constant tensor:
#      x y z
#    x 4.223160 0.000000 0.241230 
#    y 0.000000 3.957570 0.000000 
#    z 0.241230 0.000000 4.217790 
# 
# 
# High freq. dielectric constant tensor:
#      x y z
#    x 1.898580 0.000000 0.007860 
#    y 0.000000 1.876130 0.000000 
#    z 0.007860 0.000000 1.886770 
# 
# From -- ./inp_files/52064.got.cif
#   From: 2010.03.12/outbox.cif.g09.slc.cpg/sg5_27_cif.got.tgz:52064.got - 2010.03.31 09:47:26.
