data_PCOD8051355
_publ_section_title
;
Structure prediction by ZEFSAII (Michael W. Deem and Ramdas Pophale) SiO2 
 PCOD8051355
Probable space group: C 2
;
_chemical_formula_sum "Si O2"
_cell_formula_units_Z 28
_cell_length_a 20.700288
_cell_length_b 5.305540
_cell_length_c 14.422046
_cell_angle_alpha 90.000000
_cell_angle_beta 48.769060
_cell_angle_gamma 90.000000
_cell_volume 1191.200399
_symmetry_space_group_name_H-M "C 2"
_symmetry_group_IT_number 5
_symmetry_cell_setting 'monoclinic'
loop_
_space_group_symop_operation_xyz
x,y,z
-x,y,-z
1/2+x,1/2+y,z
1/2-x,1/2+y,-z
loop_
_atom_site_type_symbol
_atom_site_label
_atom_site_fract_x
_atom_site_fract_y
_atom_site_fract_z
Si Si1 0.313903 0.878240 0.169831
Si Si2 0.550597 0.246691 0.766352
Si Si3 0.500000 0.989005 0.000000
Si Si4 0.454025 0.517603 0.708395
Si Si5 0.000000 0.712804 0.500000
Si Si6 0.099646 0.407328 0.556219
Si Si7 0.769978 0.088081 0.931577
Si Si8 0.216167 0.891224 0.691140
O O1 0.269668 0.627701 0.253295
O O2 0.415776 0.816087 0.067951
O O3 0.280363 0.938607 0.100037
O O4 0.298198 0.125723 0.245212
O O5 0.471166 0.360408 0.784946
O O6 0.630888 0.438008 0.708828
O O7 0.587886 0.021027 0.669111
O O8 0.508646 0.162073 0.901624
O O9 0.438138 0.362895 0.629107
O O10 0.541861 0.661623 0.605723
O O11 0.366483 0.670232 0.809497
O O12 0.931707 0.566788 0.502054
O O13 0.200312 0.353105 0.451162
O O14 0.726101 0.357981 0.996479
#
# Coordination Sequence:
#
# PCOD8051355 Si02
#       8
#     4   4   2   4   2   4   4   4
#     4  11  26  46  74 105 145 193 244 300 364 440
#     4  10  26  45  70 105 141 193 241 299 360 442
#     4  10  24  48  72 100 148 190 244 294 366 428
#     4  11  26  44  75 103 144 193 242 298 377 429
#     4  10  24  46  70 108 140 190 238 304 364 452
#     4  11  26  43  75 103 148 187 246 300 370 439
#     4  12  28  46  74 105 148 190 249 309 359 432
#     4  11  27  45  72 106 143 188 242 302 366 431
#
# _framework density 23.505700999999998
#
# number of rings (size 3 to 8) (size 9 to 14) (size 15 to 20)
#    0.000    1.143    0.000    3.000   20.000    3.429 
#    0.000    0.000    0.000    0.000    0.000    0.000 
#    0.000    0.000    0.000    0.000    0.000    0.000 
#
# Total GULP energy -173508.025097 kJ/mol
# GULP energy per Si atom -12393.430364 kJ/mol
# Density = 2.345220 g / cm^3
# Si number density = 23.505701 Si / 1000 Ang^3
#
#
#
# Elastic Constant Matrix: (Units=GPa)
#
#
# Indices 1 2 3 4 5 6 
#
# 1 71.0000 -3.3076 47.5461 0.2724 10.5687 0.3751
# 2 -3.3076 85.0602 29.6779 0.3174 1.0765 0.8715
# 3 47.5461 29.6779 136.5916 -0.2020 -5.6228 -0.0160
# 4 0.2724 0.3174 -0.2020 24.3183 0.1389 -10.0571
# 5 10.5687 1.0765 -5.6228 0.1389 52.1520 0.1115
# 6 0.3751 0.8715 -0.0160 -10.0571 0.1115 2.0437
#
#
#
# Elastic Compliance Matrix: (Units=1/GPa)
#
#
# Indices 1 2 3 4 5 6 
#
# 1 0.020381 0.003603 -0.008083 0.002325 -0.005096 0.006381
# 2 0.003603 0.013296 -0.004199 0.002742 -0.001480 0.007212
# 3 -0.008083 -0.004199 0.011165 -0.001493 0.002941 -0.004145
# 4 0.002325 0.002742 -0.001493 -0.039015 -0.000171 -0.193596
# 5 -0.005096 -0.001480 0.002941 -0.000171 0.020556 -0.000374
# 6 0.006381 0.007212 -0.004145 -0.193596 -0.000374 -0.467643
#
#
# Mechanical properties :
#
#
# Convention : Reuss Voigt Hill
#
# Bulk Modulus (GPa) = 36.38369 48.94273 42.66321
# Shear Modulus (GPa) = -12.05577 30.28517 9.11470
#
# Velocity S-wave (km/s) = -2.26716 3.59335 1.97131
# Velocity P-wave (km/s) = 2.94261 6.17115 4.83435
#
# Compressibility (1/GPa) = 0.02748485
#
# Stress axis : x y z
#
# Youngs Moduli (GPa) = 49.06507 75.20946 89.56223
#
# Poissons Ratio (x) = -0.27099 0.72392
# Poissons Ratio (y) = -0.17679 0.37609
# Poissons Ratio (z) = 0.39659 0.31582
#
# Static dielectric constant tensor:
#      x y z
#    x 4.722280 -0.000490 0.104820 
#    y -0.000490 4.066850 0.000370 
#    z 0.104820 0.000370 4.429500 
# 
# 
# High freq. dielectric constant tensor:
#      x y z
#    x 1.948670 -0.000010 0.002350 
#    y -0.000010 1.916030 0.000010 
#    z 0.002350 0.000010 1.943870 
# 
# From -- ./inp_files/56512.got.cif
#   From: 2010.03.12/outbox.cif.g09.slc.cpg/sg5_29_cif.got.tgz:56512.got - 2010.03.31 09:47:26.
