data_PCOD8051611
_publ_section_title
;
Structure prediction by ZEFSAII (Michael W. Deem and Ramdas Pophale) SiO2 
 PCOD8051611
Probable space group: C 2
;
_chemical_formula_sum "Si O2"
_cell_formula_units_Z 26
_cell_length_a 9.322479
_cell_length_b 11.556249
_cell_length_c 13.581333
_cell_angle_alpha 90.000000
_cell_angle_beta 125.692098
_cell_angle_gamma 90.000000
_cell_volume 1188.322819
_symmetry_space_group_name_H-M "C 2"
_symmetry_group_IT_number 5
_symmetry_cell_setting 'monoclinic'
loop_
_space_group_symop_operation_xyz
x,y,z
-x,y,-z
1/2+x,1/2+y,z
1/2-x,1/2+y,-z
loop_
_atom_site_type_symbol
_atom_site_label
_atom_site_fract_x
_atom_site_fract_y
_atom_site_fract_z
Si Si1 0.334607 0.528510 0.371070
Si Si2 0.040119 0.901218 0.754854
Si Si3 0.442423 0.833583 0.702486
Si Si4 0.161230 0.221321 0.138196
Si Si5 0.222012 0.730985 0.448170
Si Si6 0.757673 0.478197 0.241033
Si Si7 0.500000 0.069491 0.500000
O O1 0.500000 0.483738 0.500000
O O2 0.382297 0.511566 0.274556
O O3 0.169528 0.450142 0.333321
O O4 0.290078 0.661933 0.378569
O O5 0.198037 0.814272 0.844971
O O6 0.893822 0.839549 0.629075
O O7 0.946122 0.944508 0.817129
O O8 0.407688 0.749250 0.779961
O O9 0.390153 0.768321 0.580887
O O10 0.646858 0.875331 0.781660
O O11 0.256455 0.096688 0.178312
O O12 0.000000 0.220673 0.000000
O O13 0.100465 0.647925 0.463056
O O14 0.862100 0.489511 0.386345
#
# Coordination Sequence:
#
# PCOD8051611 Si02
#       7
#     4   4   4   4   4   4   2
#     4  11  21  36  58  92 137 169 200 243 309 386
#     4  11  24  41  64  96 129 168 209 259 322 389
#     4  11  23  41  66  95 131 171 213 259 323 390
#     4  11  26  47  67  88 123 171 226 280 322 368
#     4  12  21  36  63  96 138 167 203 252 320 393
#     4  12  24  42  67  99 132 167 213 263 325 386
#     4  12  18  38  62 100 134 168 196 252 318 392
#
# _framework density 21.879577999999999
#
# number of rings (size 3 to 8) (size 9 to 14) (size 15 to 20)
#    0.000    0.615    6.154    2.769    2.154    1.231 
#    0.000    0.000    0.000    0.000    0.000    0.000 
#    0.000    0.000    0.000    0.000    0.000    0.000 
#
# Total GULP energy -161227.360518 kJ/mol
# GULP energy per Si atom -12402.104655 kJ/mol
# Density = 2.182978 g / cm^3
# Si number density = 21.879578 Si / 1000 Ang^3
#
#
#
# Elastic Constant Matrix: (Units=GPa)
#
#
# Indices 1 2 3 4 5 6 
#
# 1 117.7314 36.0713 5.0514 0.0000 13.0085 0.0000
# 2 36.0713 68.1289 18.2892 0.0000 2.9153 0.0000
# 3 5.0514 18.2892 84.3501 0.0000 19.5285 0.0000
# 4 0.0000 0.0000 0.0000 24.5641 0.0000 -17.6986
# 5 13.0085 2.9153 19.5285 0.0000 17.3576 0.0000
# 6 0.0000 0.0000 0.0000 -17.6986 0.0000 93.7695
#
#
#
# Elastic Compliance Matrix: (Units=1/GPa)
#
#
# Indices 1 2 3 4 5 6 
#
# 1 0.011621 -0.006569 0.003366 0.000000 -0.011393 0.000000
# 2 -0.006569 0.019331 -0.005661 0.000000 0.008045 0.000000
# 3 0.003366 -0.005661 0.017910 0.000000 -0.021722 0.000000
# 4 0.000000 0.000000 0.000000 0.047117 0.000000 0.008893
# 5 -0.011393 0.008045 -0.021722 0.000000 0.089238 0.000000
# 6 0.000000 0.000000 0.000000 0.008893 0.000000 0.012343
#
#
# Mechanical properties :
#
#
# Convention : Reuss Voigt Hill
#
# Bulk Modulus (GPa) = 32.11771 43.22603 37.67187
# Shear Modulus (GPa) = 22.15663 41.19147 31.67405
#
# Velocity S-wave (km/s) = 3.18569 4.34365 3.80893
# Velocity P-wave (km/s) = 5.31438 6.70490 6.04972
#
# Compressibility (1/GPa) = 0.03113547
#
# Stress axis : x y z
#
# Youngs Moduli (GPa) = 86.05147 51.72940 55.83413
#
# Poissons Ratio (x) = 0.33981 -0.18794
# Poissons Ratio (y) = 0.56526 0.31606
# Poissons Ratio (z) = -0.28965 0.29282
#
# Static dielectric constant tensor:
#      x y z
#    x 4.284730 0.000000 0.076110 
#    y 0.000000 4.077360 0.000000 
#    z 0.076110 0.000000 3.408260 
# 
# 
# High freq. dielectric constant tensor:
#      x y z
#    x 1.878250 0.000000 0.009610 
#    y 0.000000 1.868240 0.000000 
#    z 0.009610 0.000000 1.807480 
# 
# From -- ./inp_files/50209.got.cif
#   From: 2010.03.12/outbox.cif.g09.slc.cpg/sg5_26_cif.got.tgz:50209.got - 2010.03.31 09:47:26.
