data_PCOD8051804
_publ_section_title
;
Structure prediction by ZEFSAII (Michael W. Deem and Ramdas Pophale) SiO2 
 PCOD8051804
Probable space group: C 2
;
_chemical_formula_sum "Si O2"
_cell_formula_units_Z 32
_cell_length_a 8.500967
_cell_length_b 16.869861
_cell_length_c 24.335549
_cell_angle_alpha 90.000000
_cell_angle_beta 150.846300
_cell_angle_gamma 90.000000
_cell_volume 1700.150420
_symmetry_space_group_name_H-M "C 2"
_symmetry_group_IT_number 5
_symmetry_cell_setting 'monoclinic'
loop_
_space_group_symop_operation_xyz
x,y,z
-x,y,-z
1/2+x,1/2+y,z
1/2-x,1/2+y,-z
loop_
_atom_site_type_symbol
_atom_site_label
_atom_site_fract_x
_atom_site_fract_y
_atom_site_fract_z
Si Si1 0.636154 0.479670 0.981844
Si Si2 0.736191 0.127938 0.622120
Si Si3 0.726950 0.817290 0.018164
Si Si4 0.880072 0.809491 0.234137
Si Si5 0.944677 0.573949 0.219606
Si Si6 0.153492 0.723053 0.219665
Si Si7 0.709439 0.487481 0.765874
Si Si8 0.374447 0.169020 0.622130
O O1 0.581744 0.398483 0.932696
O O2 0.429380 0.547679 0.888058
O O3 0.500000 0.464317 0.000000
O O4 0.013584 0.502135 0.103268
O O5 0.500000 0.111235 0.500000
O O6 0.528521 0.148487 0.611405
O O7 0.976112 0.199895 0.678594
O O8 0.925584 0.047749 0.693567
O O9 0.989234 0.749313 0.111998
O O10 0.500000 0.832635 0.000000
O O11 0.497228 0.794820 0.896734
O O12 0.120388 0.792860 0.255438
O O13 0.957797 0.749226 0.306456
O O14 0.928304 0.898484 0.271336
O O15 0.951702 0.648509 0.180686
O O16 0.156653 0.504135 0.255386
O O17 0.082929 0.597076 0.321340
O O18 0.000000 0.185682 0.500000
#
# Coordination Sequence:
#
# PCOD8051804 Si02
#       8
#     4   4   4   4   4   4   4   4
#     4   9  18  32  54  82 114 144 174 215 266 321
#     4  11  23  39  57  78 106 142 186 235 278 323
#     4   9  18  32  54  82 114 144 174 215 266 321
#     4   9  19  36  57  82 111 146 180 216 270 329
#     4   9  19  35  56  80 111 148 182 219 268 326
#     4   9  19  35  56  80 111 148 182 219 268 326
#     4   9  19  36  57  82 111 146 180 216 270 329
#     4  11  23  39  57  78 106 142 186 235 278 323
#
# _framework density 18.821863
#
# number of rings (size 3 to 8) (size 9 to 14) (size 15 to 20)
#    0.000    2.500    0.000    2.250    0.000   18.000 
#    0.000    1.250    0.000    5.250    0.000    0.000 
#    0.000    0.000    0.000    0.000    0.000    0.000 
#
# Total GULP energy -198341.270563 kJ/mol
# GULP energy per Si atom -12396.329410 kJ/mol
# Density = 1.877902 g / cm^3
# Si number density = 18.821863 Si / 1000 Ang^3
#
#
#
# Elastic Constant Matrix: (Units=GPa)
#
#
# Indices 1 2 3 4 5 6 
#
# 1 75.2838 54.5075 45.5291 0.0473 1.6621 0.0069
# 2 54.5075 114.5623 63.5579 -0.0724 0.6262 -0.0161
# 3 45.5291 63.5579 116.5990 -0.1622 1.1554 -0.0337
# 4 0.0473 -0.0724 -0.1622 -0.2160 0.0105 -2.4708
# 5 1.6621 0.6262 1.1554 0.0105 26.8146 0.0038
# 6 0.0069 -0.0161 -0.0337 -2.4708 0.0038 34.3914
#
#
#
# Elastic Compliance Matrix: (Units=1/GPa)
#
#
# Indices 1 2 3 4 5 6 
#
# 1 0.021529 -0.007999 -0.004028 0.005767 -0.000976 0.000402
# 2 -0.007999 0.015485 -0.005323 -0.001630 0.000364 -0.000114
# 3 -0.004028 -0.005323 0.013046 -0.004955 -0.000186 -0.000345
# 4 0.005767 -0.001630 -0.004955 -2.538091 0.000913 -0.182350
# 5 -0.000976 0.000364 -0.000186 0.000913 0.037353 0.000062
# 6 0.000402 -0.000114 -0.000345 -0.182350 0.000062 0.015976
#
#
# Mechanical properties :
#
#
# Convention : Reuss Voigt Hill
#
# Bulk Modulus (GPa) = 65.11203 70.40379 67.75791
# Shear Modulus (GPa) = -2.08779 21.72136 9.81679
#
# Velocity S-wave (km/s) = -1.05434 3.40082 2.28625
# Velocity P-wave (km/s) = 5.76079 7.27374 6.56102
#
# Compressibility (1/GPa) = 0.01535815
#
# Stress axis : x y z
#
# Youngs Moduli (GPa) = 46.44929 64.57816 76.65241
#
# Poissons Ratio (x) = 0.51658 0.30878
# Poissons Ratio (y) = 0.37156 0.40804
# Poissons Ratio (z) = 0.18711 0.34377
#
# Static dielectric constant tensor:
#      x y z
#    x 3.452630 0.000000 0.017020 
#    y 0.000000 3.544440 -0.000020 
#    z 0.017020 -0.000020 3.696350 
# 
# 
# High freq. dielectric constant tensor:
#      x y z
#    x 1.720210 0.000000 0.000640 
#    y 0.000000 1.727110 0.000000 
#    z 0.000640 0.000000 1.729300 
# 
# From -- ./inp_files/68076.got.cif
#   From: 2010.03.12/outbox.cif.g09.slc.cpg/sg5_35_cif.got.tgz:68076.got - 2010.03.31 09:47:26.
