data_PCOD8051800
_publ_section_title
;
Structure prediction by ZEFSAII (Michael W. Deem and Ramdas Pophale) SiO2 
 PCOD8051800
Probable space group: C 2
;
_chemical_formula_sum "Si O2"
_cell_formula_units_Z 24
_cell_length_a 11.352646
_cell_length_b 9.404335
_cell_length_c 10.504784
_cell_angle_alpha 90.000000
_cell_angle_beta 98.956577
_cell_angle_gamma 90.000000
_cell_volume 1107.858371
_symmetry_space_group_name_H-M "C 2"
_symmetry_group_IT_number 5
_symmetry_cell_setting 'monoclinic'
loop_
_space_group_symop_operation_xyz
x,y,z
-x,y,-z
1/2+x,1/2+y,z
1/2-x,1/2+y,-z
loop_
_atom_site_type_symbol
_atom_site_label
_atom_site_fract_x
_atom_site_fract_y
_atom_site_fract_z
Si Si1 0.558599 0.203280 0.281077
Si Si2 0.512907 0.921501 0.855481
Si Si3 0.421916 0.449021 0.363093
Si Si4 0.723984 0.054589 0.490100
Si Si5 0.401796 0.662882 0.706439
Si Si6 0.248582 0.424858 0.751047
O O1 0.442638 0.302923 0.286752
O O2 0.606178 0.134531 0.421608
O O3 0.666074 0.289096 0.235458
O O4 0.520539 0.083993 0.175070
O O5 0.424314 0.820586 0.760591
O O6 0.649550 0.896767 0.839599
O O7 0.500000 0.883035 0.000000
O O8 0.500000 0.425702 0.500000
O O9 0.284179 0.470553 0.379964
O O10 0.470456 0.585843 0.294401
O O11 0.824289 0.165922 0.561769
O O12 0.689333 0.946976 0.599629
O O13 0.327260 0.566262 0.795643
#
# Coordination Sequence:
#
# PCOD8051800 Si02
#       6
#     4   4   4   4   4   4
#     4  11  23  38  64  95 126 156 201 256 308 378
#     4  12  27  42  60  89 125 172 216 250 292 355
#     4   9  17  37  62  91 128 151 187 248 322 380
#     4   9  20  36  65  94 121 152 192 252 325 363
#     4   8  20  40  60  86 125 156 202 250 302 368
#     4   9  23  41  60  92 120 162 210 247 315 361
#
# _framework density 21.663419000000001
#
# number of rings (size 3 to 8) (size 9 to 14) (size 15 to 20)
#    1.000    1.333    1.667    1.000    4.667    2.667 
#    0.000    3.333    0.000    0.000    0.000    0.000 
#    0.000    0.000    0.000    0.000    0.000    0.000 
#
# Total GULP energy -148705.764938 kJ/mol
# GULP energy per Si atom -12392.147078 kJ/mol
# Density = 2.161411 g / cm^3
# Si number density = 21.663419 Si / 1000 Ang^3
#
#
#
# Elastic Constant Matrix: (Units=GPa)
#
#
# Indices 1 2 3 4 5 6 
#
# 1 67.6870 27.1073 43.4284 0.0000 -28.9404 0.0000
# 2 27.1073 107.5555 30.2973 0.0000 -5.2747 0.0000
# 3 43.4284 30.2973 68.1308 0.0000 -25.5655 0.0000
# 4 0.0000 0.0000 0.0000 19.8146 0.0000 -0.3039
# 5 -28.9404 -5.2747 -25.5655 0.0000 30.0132 0.0000
# 6 0.0000 0.0000 0.0000 -0.3039 0.0000 14.4988
#
#
#
# Elastic Compliance Matrix: (Units=1/GPa)
#
#
# Indices 1 2 3 4 5 6 
#
# 1 0.032547 -0.004081 -0.010912 0.000000 0.021372 0.000000
# 2 -0.004081 0.011350 -0.004665 0.000000 -0.005914 0.000000
# 3 -0.010912 -0.004665 0.028590 0.000000 0.013011 0.000000
# 4 0.000000 0.000000 0.000000 0.050484 0.000000 0.001058
# 5 0.021372 -0.005914 0.013011 0.000000 0.063970 0.000000
# 6 0.000000 0.000000 0.000000 0.001058 0.000000 0.068994
#
#
# Mechanical properties :
#
#
# Convention : Reuss Voigt Hill
#
# Bulk Modulus (GPa) = 30.14693 49.44882 39.79787
# Shear Modulus (GPa) = 16.32335 22.36801 19.34568
#
# Velocity S-wave (km/s) = 2.74797 3.21678 2.99157
# Velocity P-wave (km/s) = 4.90048 6.05577 5.50850
#
# Compressibility (1/GPa) = 0.03317088
#
# Stress axis : x y z
#
# Youngs Moduli (GPa) = 30.72451 88.10433 34.97666
#
# Poissons Ratio (x) = 0.35955 0.38168
# Poissons Ratio (y) = 0.12538 0.16318
# Poissons Ratio (z) = 0.33527 0.41104
#
# Static dielectric constant tensor:
#      x y z
#    x 4.357920 0.000000 -0.488430 
#    y 0.000000 3.910410 0.000000 
#    z -0.488430 0.000000 3.421600 
# 
# 
# High freq. dielectric constant tensor:
#      x y z
#    x 1.845810 0.000000 -0.021840 
#    y 0.000000 1.859940 0.000000 
#    z -0.021840 0.000000 1.790200 
# 
# From -- ./inp_files/38348.got.cif
#   From: 2010.03.12/outbox.cif.g09.slc.cpg/sg5_20_cif.got.tgz:38348.got - 2010.03.31 09:47:26.
