data_PCOD8051785
_publ_section_title
;
Structure prediction by ZEFSAII (Michael W. Deem and Ramdas Pophale) SiO2 
 PCOD8051785
Probable space group: C 2
;
_chemical_formula_sum "Si O2"
_cell_formula_units_Z 22
_cell_length_a 17.279855
_cell_length_b 8.779728
_cell_length_c 7.277017
_cell_angle_alpha 90.000000
_cell_angle_beta 63.763169
_cell_angle_gamma 90.000000
_cell_volume 990.272185
_symmetry_space_group_name_H-M "C 2"
_symmetry_group_IT_number 5
_symmetry_cell_setting 'monoclinic'
loop_
_space_group_symop_operation_xyz
x,y,z
-x,y,-z
1/2+x,1/2+y,z
1/2-x,1/2+y,-z
loop_
_atom_site_type_symbol
_atom_site_label
_atom_site_fract_x
_atom_site_fract_y
_atom_site_fract_z
Si Si1 0.500000 0.014910 0.000000
Si Si2 0.360585 0.798833 0.972384
Si Si3 0.744283 0.376146 0.755096
Si Si4 0.543221 0.226850 0.628551
Si Si5 0.933600 0.979736 0.912865
Si Si6 0.265504 0.201635 0.580942
O O1 0.451816 0.122638 0.195861
O O2 0.565004 0.914270 0.049727
O O3 0.398195 0.636813 0.863267
O O4 0.193764 0.370852 0.135160
O O5 0.301366 0.778699 0.211805
O O6 0.760595 0.232632 0.603980
O O7 0.768184 0.521833 0.607848
O O8 0.644737 0.379507 0.922798
O O9 0.500000 0.139243 0.500000
O O10 0.484804 0.378107 0.713020
O O11 0.640756 0.274880 0.478316
O O12 0.000000 0.029370 0.000000
#
# Coordination Sequence:
#
# PCOD8051785 Si02
#       6
#     2   4   4   4   4   4
#     4  12  24  44  68  98 148 170 226 288 340 400
#     4  11  26  45  70 100 138 183 224 284 344 400
#     4  11  24  44  70 103 137 180 229 278 348 401
#     4  12  24  41  69  99 131 182 226 276 338 407
#     4  11  22  47  70  96 140 180 226 282 335 401
#     4  11  24  42  69  97 139 174 231 278 333 404
#
# _framework density 22.216114000000001
#
# number of rings (size 3 to 8) (size 9 to 14) (size 15 to 20)
#    0.000    0.727    3.636    3.273    0.000    8.727 
#    0.000    0.909    0.000    0.000    0.000    0.000 
#    0.000    0.000    0.000    0.000    0.000    0.000 
#
# Total GULP energy -136431.179901 kJ/mol
# GULP energy per Si atom -12402.834536 kJ/mol
# Density = 2.216555 g / cm^3
# Si number density = 22.216114 Si / 1000 Ang^3
#
#
#
# Elastic Constant Matrix: (Units=GPa)
#
#
# Indices 1 2 3 4 5 6 
#
# 1 127.8632 14.3293 22.9134 0.0000 -4.1250 0.0000
# 2 14.3293 79.6169 18.7208 0.0000 -12.6021 0.0000
# 3 22.9134 18.7208 54.4270 0.0000 -21.0616 0.0000
# 4 0.0000 0.0000 0.0000 25.1562 0.0000 0.1031
# 5 -4.1250 -12.6021 -21.0616 0.0000 43.5959 0.0000
# 6 0.0000 0.0000 0.0000 0.1031 0.0000 36.9416
#
#
#
# Elastic Compliance Matrix: (Units=1/GPa)
#
#
# Indices 1 2 3 4 5 6 
#
# 1 0.008556 -0.000847 -0.003803 0.000000 -0.001273 0.000000
# 2 -0.000847 0.013902 -0.003568 0.000000 0.002215 0.000000
# 3 -0.003803 -0.003568 0.025414 0.000000 0.010887 0.000000
# 4 0.000000 0.000000 0.000000 0.039752 0.000000 -0.000111
# 5 -0.001273 0.002215 0.010887 0.000000 0.028717 0.000000
# 6 0.000000 0.000000 0.000000 -0.000111 0.000000 0.027070
#
#
# Mechanical properties :
#
#
# Convention : Reuss Voigt Hill
#
# Bulk Modulus (GPa) = 31.81077 41.53711 36.67394
# Shear Modulus (GPa) = 29.35513 34.86832 32.11173
#
# Velocity S-wave (km/s) = 3.63897 3.96600 3.80600
# Velocity P-wave (km/s) = 5.65739 6.30156 5.98814
#
# Compressibility (1/GPa) = 0.03143589
#
# Stress axis : x y z
#
# Youngs Moduli (GPa) = 116.87314 71.93120 39.34763
#
# Poissons Ratio (x) = 0.06093 0.14965
# Poissons Ratio (y) = 0.09900 0.14040
# Poissons Ratio (z) = 0.44450 0.25666
#
# Static dielectric constant tensor:
#      x y z
#    x 4.072430 0.000000 -0.100820 
#    y 0.000000 3.931890 0.000000 
#    z -0.100820 0.000000 4.078390 
# 
# 
# High freq. dielectric constant tensor:
#      x y z
#    x 1.889510 0.000000 -0.006280 
#    y 0.000000 1.869630 0.000000 
#    z -0.006280 0.000000 1.881350 
# 
# From -- ./inp_files/26665.got.cif
#   From: 2010.03.12/outbox.cif.g09.slc.cpg/sg5_14_cif.got.tgz:26665.got - 2010.03.31 09:47:26.
