data_PCOD8051911
_publ_section_title
;
Structure prediction by ZEFSAII (Michael W. Deem and Ramdas Pophale) SiO2 
 PCOD8051911
Probable space group: C 2
;
_chemical_formula_sum "Si O2"
_cell_formula_units_Z 24
_cell_length_a 17.205730
_cell_length_b 5.142712
_cell_length_c 23.322272
_cell_angle_alpha 90.000000
_cell_angle_beta 149.116371
_cell_angle_gamma 90.000000
_cell_volume 1059.263707
_symmetry_space_group_name_H-M "C 2"
_symmetry_group_IT_number 5
_symmetry_cell_setting 'monoclinic'
loop_
_space_group_symop_operation_xyz
x,y,z
-x,y,-z
1/2+x,1/2+y,z
1/2-x,1/2+y,-z
loop_
_atom_site_type_symbol
_atom_site_label
_atom_site_fract_x
_atom_site_fract_y
_atom_site_fract_z
Si Si1 0.155662 0.185740 0.354225
Si Si2 0.564055 0.022756 0.394755
Si Si3 0.696567 0.716254 0.998045
Si Si4 0.213169 0.247486 0.748702
Si Si5 0.843701 0.251610 0.774467
Si Si6 0.869902 0.912884 0.209896
O O1 0.286698 0.052331 0.473719
O O2 0.113759 0.450462 0.361142
O O3 0.214685 0.212880 0.327239
O O4 0.001726 0.020250 0.252390
O O5 0.450742 0.266408 0.314919
O O6 0.468285 0.802351 0.368034
O O7 0.522076 0.793583 0.890215
O O8 0.719782 0.426456 0.989263
O O9 0.764050 0.726775 0.105026
O O10 0.303245 0.511907 0.790942
O O11 0.261891 0.020268 0.737326
O O12 0.235831 0.140469 0.828748
#
# Coordination Sequence:
#
# PCOD8051911 Si02
#       6
#     4   4   4   4   4   4
#     4  11  24  42  79 102 142 182 245 289 340 417
#     4  11  23  47  71 108 138 194 232 287 352 416
#     4  12  26  46  77 108 136 180 241 299 344 407
#     4  11  27  49  66 105 152 181 233 280 361 423
#     4  12  26  49  71 108 142 186 232 292 355 414
#     4  11  24  49  72 104 143 185 236 290 346 421
#
# _framework density 22.657247000000002
#
# number of rings (size 3 to 8) (size 9 to 14) (size 15 to 20)
#    0.000    0.667    5.000    2.000    4.667    1.333 
#    6.000    0.000    0.000    0.000    0.000    0.000 
#    0.000    0.000    0.000    0.000    0.000    0.000 
#
# Total GULP energy -148721.156450 kJ/mol
# GULP energy per Si atom -12393.429704 kJ/mol
# Density = 2.260568 g / cm^3
# Si number density = 22.657247 Si / 1000 Ang^3
#
#
#
# Elastic Constant Matrix: (Units=GPa)
#
#
# Indices 1 2 3 4 5 6 
#
# 1 96.6776 23.2223 22.0005 0.0000 13.7807 0.0064
# 2 23.2223 91.6427 3.9043 -0.0007 11.1981 0.0290
# 3 22.0005 3.9043 79.5820 0.0010 -10.2158 0.0095
# 4 0.0000 -0.0007 0.0010 32.0252 -0.0004 4.6374
# 5 13.7807 11.1981 -10.2158 -0.0004 19.0621 0.0053
# 6 0.0064 0.0290 0.0095 4.6374 0.0053 46.9433
#
#
#
# Elastic Compliance Matrix: (Units=1/GPa)
#
#
# Indices 1 2 3 4 5 6 
#
# 1 0.013593 -0.001818 -0.005147 0.000000 -0.011518 0.000002
# 2 -0.001818 0.012185 -0.000908 0.000001 -0.006330 -0.000007
# 3 -0.005147 -0.000908 0.015656 0.000000 0.012645 -0.000003
# 4 0.000000 0.000001 0.000000 0.031679 0.000001 -0.003129
# 5 -0.011518 -0.006330 0.012645 0.000001 0.071282 -0.000005
# 6 0.000002 -0.000007 -0.000003 -0.003129 -0.000005 0.021611
#
#
# Mechanical properties :
#
#
# Convention : Reuss Voigt Hill
#
# Bulk Modulus (GPa) = 38.92770 40.68406 39.80588
# Shear Modulus (GPa) = 26.27212 34.19113 30.23163
#
# Velocity S-wave (km/s) = 3.40890 3.88888 3.65677
# Velocity P-wave (km/s) = 5.71949 6.17736 5.95283
#
# Compressibility (1/GPa) = 0.02568865
#
# Stress axis : x y z
#
# Youngs Moduli (GPa) = 73.56482 82.06949 63.87174
#
# Poissons Ratio (x) = 0.14919 0.32876
# Poissons Ratio (y) = 0.13373 0.05799
# Poissons Ratio (z) = 0.37866 0.07451
#
# Static dielectric constant tensor:
#      x y z
#    x 4.287940 -0.000010 0.175650 
#    y -0.000010 4.261320 0.000000 
#    z 0.175650 0.000000 3.871060 
# 
# 
# High freq. dielectric constant tensor:
#      x y z
#    x 1.904280 0.000000 0.011430 
#    y 0.000000 1.903580 0.000000 
#    z 0.011430 0.000000 1.881370 
# 
# From -- ./inp_files/67659.got.cif
#   From: 2010.03.12/outbox.cif.g09.slc.cpg/sg5_34_cif.got.tgz:67659.got - 2010.03.31 09:47:26.
