data_PCOD8051659
_publ_section_title
;
Structure prediction by ZEFSAII (Michael W. Deem and Ramdas Pophale) SiO2 
 PCOD8051659
Probable space group: C 2
;
_chemical_formula_sum "Si O2"
_cell_formula_units_Z 32
_cell_length_a 11.538279
_cell_length_b 8.004391
_cell_length_c 18.038987
_cell_angle_alpha 90.000000
_cell_angle_beta 119.381032
_cell_angle_gamma 90.000000
_cell_volume 1451.734541
_symmetry_space_group_name_H-M "C 2"
_symmetry_group_IT_number 5
_symmetry_cell_setting 'monoclinic'
loop_
_space_group_symop_operation_xyz
x,y,z
-x,y,-z
1/2+x,1/2+y,z
1/2-x,1/2+y,-z
loop_
_atom_site_type_symbol
_atom_site_label
_atom_site_fract_x
_atom_site_fract_y
_atom_site_fract_z
Si Si1 0.622814 0.120680 0.710778
Si Si2 0.407500 0.088480 0.904907
Si Si3 0.621938 0.627990 0.810495
Si Si4 0.272553 0.508283 0.420278
Si Si5 0.629685 0.835870 0.238164
Si Si6 0.917671 0.699132 0.537794
Si Si7 0.508580 0.279244 0.200622
Si Si8 0.185064 0.262427 0.678511
O O1 0.773259 0.179681 0.745720
O O2 0.521690 0.244927 0.635683
O O3 0.573649 0.134004 0.780761
O O4 0.607858 0.934710 0.671790
O O5 0.267265 0.158978 0.893873
O O6 0.486964 0.231518 0.884908
O O7 0.367357 0.944523 0.834824
O O8 0.500000 0.021344 0.000000
O O9 0.520433 0.772190 0.800955
O O10 0.569181 0.449705 0.817484
O O11 0.647404 0.630623 0.730379
O O12 0.171939 0.437608 0.325447
O O13 0.196362 0.578541 0.468154
O O14 0.366656 0.367248 0.482595
O O15 0.354556 0.664997 0.409979
O O16 0.000000 0.599743 0.500000
O O17 0.657698 0.298565 0.277981
#
# Coordination Sequence:
#
# PCOD8051659 Si02
#       8
#     4   4   4   4   4   4   4   4
#     4  12  23  45  76  99 139 187 237 287 352 413
#     4  11  25  45  70 107 148 179 232 288 345 415
#     4  11  23  41  74 105 132 184 230 282 345 416
#     4  12  26  48  67  99 140 182 239 287 348 410
#     4  12  23  47  74 103 139 189 234 279 355 421
#     4  12  28  45  63 101 140 180 229 302 338 405
#     4  11  21  43  73 101 135 180 232 289 338 420
#     4  11  23  43  73 100 129 188 236 284 345 414
#
# _framework density 22.042596
#
# number of rings (size 3 to 8) (size 9 to 14) (size 15 to 20)
#    0.000    0.500    7.500    1.500    1.750    2.000 
#    2.250    0.625    0.000    0.000    0.000    0.000 
#    0.000    0.000    0.000    0.000    0.000    0.000 
#
# Total GULP energy -198309.435890 kJ/mol
# GULP energy per Si atom -12394.339743 kJ/mol
# Density = 2.199243 g / cm^3
# Si number density = 22.042596 Si / 1000 Ang^3
#
#
#
# Elastic Constant Matrix: (Units=GPa)
#
#
# Indices 1 2 3 4 5 6 
#
# 1 120.9600 45.5852 33.7773 0.0000 1.3621 0.0000
# 2 45.5852 126.1497 48.1118 0.0000 -3.6198 0.0000
# 3 33.7773 48.1118 107.3482 0.0000 7.5462 0.0000
# 4 0.0000 0.0000 0.0000 15.7729 0.0000 -0.1126
# 5 1.3621 -3.6198 7.5462 0.0000 24.3496 0.0000
# 6 0.0000 0.0000 0.0000 -0.1126 0.0000 37.8087
#
#
#
# Elastic Compliance Matrix: (Units=1/GPa)
#
#
# Indices 1 2 3 4 5 6 
#
# 1 0.009860 -0.002899 -0.001772 0.000000 -0.000433 0.000000
# 2 -0.002899 0.010606 -0.004052 0.000000 0.002995 0.000000
# 3 -0.001772 -0.004052 0.011986 0.000000 -0.004218 0.000000
# 4 0.000000 0.000000 0.000000 0.063401 0.000000 0.000189
# 5 -0.000433 0.002995 -0.004218 0.000000 0.042845 0.000000
# 6 0.000000 0.000000 0.000000 0.000189 0.000000 0.026449
#
#
# Mechanical properties :
#
#
# Convention : Reuss Voigt Hill
#
# Bulk Modulus (GPa) = 66.64756 67.71184 67.17970
# Shear Modulus (GPa) = 26.65313 30.71848 28.68581
#
# Velocity S-wave (km/s) = 3.48108 3.73714 3.61138
# Velocity P-wave (km/s) = 6.81606 7.02901 6.92335
#
# Compressibility (1/GPa) = 0.01500430
#
# Stress axis : x y z
#
# Youngs Moduli (GPa) = 101.42335 94.28683 83.43374
#
# Poissons Ratio (x) = 0.27337 0.14789
# Poissons Ratio (y) = 0.29406 0.33804
# Poissons Ratio (z) = 0.17977 0.38202
#
# Static dielectric constant tensor:
#      x y z
#    x 4.539230 0.000000 -0.099880 
#    y 0.000000 3.916890 0.000000 
#    z -0.099880 0.000000 3.790690 
# 
# 
# High freq. dielectric constant tensor:
#      x y z
#    x 1.899280 0.000000 -0.006680 
#    y 0.000000 1.864920 0.000000 
#    z -0.006680 0.000000 1.828260 
# 
# From -- ./inp_files/60312.got.cif
#   From: 2010.03.12/outbox.cif.g09.slc.cpg/sg5_31_cif.got.tgz:60312.got - 2010.03.31 09:47:26.
