data_PCOD8051106
_publ_section_title
;
Structure prediction by ZEFSAII (Michael W. Deem and Ramdas Pophale) SiO2 
 PCOD8051106
Probable space group: C 2
;
_chemical_formula_sum "Si O2"
_cell_formula_units_Z 24
_cell_length_a 7.983837
_cell_length_b 18.066544
_cell_length_c 8.078502
_cell_angle_alpha 90.000000
_cell_angle_beta 119.659126
_cell_angle_gamma 90.000000
_cell_volume 1012.580909
_symmetry_space_group_name_H-M "C 2"
_symmetry_group_IT_number 5
_symmetry_cell_setting 'monoclinic'
loop_
_space_group_symop_operation_xyz
x,y,z
-x,y,-z
1/2+x,1/2+y,z
1/2-x,1/2+y,-z
loop_
_atom_site_type_symbol
_atom_site_label
_atom_site_fract_x
_atom_site_fract_y
_atom_site_fract_z
Si Si1 0.445096 0.922360 0.153618
Si Si2 0.318702 0.449119 0.526751
Si Si3 0.072398 0.261747 0.775998
Si Si4 0.795839 0.775957 0.571184
Si Si5 0.613473 0.186364 0.879240
Si Si6 0.794581 0.043899 0.842772
O O1 0.622848 0.961891 0.330948
O O2 0.377263 0.848571 0.209583
O O3 0.266236 0.978326 0.062401
O O4 0.500000 0.896575 0.000000
O O5 0.500000 0.467945 0.500000
O O6 0.330391 0.364356 0.595968
O O7 0.304968 0.510354 0.663988
O O8 0.174271 0.237156 0.657300
O O9 0.836647 0.253022 0.655041
O O10 0.174035 0.221186 0.979931
O O11 0.005854 0.738694 0.690825
O O12 0.641361 0.109751 0.794623
O O13 0.500000 0.177322 0.000000
O O14 0.000000 0.074256 0.000000
#
# Coordination Sequence:
#
# PCOD8051106 Si02
#       6
#     4   4   4   4   4   4
#     4  11  23  42  73 105 144 185 244 305 360 428
#     4  11  24  44  71 109 140 191 251 301 363 429
#     4   9  19  39  72 108 139 187 239 300 356 440
#     4   9  19  41  72 105 144 180 243 308 363 422
#     4  10  23  43  72 105 152 194 238 296 377 434
#     4  12  26  45  69 104 153 193 243 295 373 440
#
# _framework density 23.701809999999998
#
# number of rings (size 3 to 8) (size 9 to 14) (size 15 to 20)
#    0.000    1.667    1.667    2.000    4.667    0.667 
#    9.000    0.000    3.667    0.000    0.000    0.000 
#    0.000    0.000    0.000    0.000    0.000    0.000 
#
# Total GULP energy -148674.434723 kJ/mol
# GULP energy per Si atom -12389.536227 kJ/mol
# Density = 2.364786 g / cm^3
# Si number density = 23.701810 Si / 1000 Ang^3
#
#
#
# Elastic Constant Matrix: (Units=GPa)
#
#
# Indices 1 2 3 4 5 6 
#
# 1 88.4798 37.4022 37.7165 0.0000 12.6450 0.0000
# 2 37.4022 115.6209 63.9881 0.0000 17.8466 0.0000
# 3 37.7165 63.9881 142.7270 0.0000 16.7814 0.0000
# 4 0.0000 0.0000 0.0000 25.7850 0.0000 5.4873
# 5 12.6450 17.8466 16.7814 0.0000 22.2053 0.0000
# 6 0.0000 0.0000 0.0000 5.4873 0.0000 31.9373
#
#
#
# Elastic Compliance Matrix: (Units=1/GPa)
#
#
# Indices 1 2 3 4 5 6 
#
# 1 0.013903 -0.002776 -0.001933 0.000000 -0.004226 0.000000
# 2 -0.002776 0.012799 -0.004369 0.000000 -0.005404 0.000000
# 3 -0.001933 -0.004369 0.009805 0.000000 -0.002798 0.000000
# 4 0.000000 0.000000 0.000000 0.040254 0.000000 -0.006916
# 5 -0.004226 -0.005404 -0.002798 0.000000 0.053898 0.000000
# 6 0.000000 0.000000 0.000000 -0.006916 0.000000 0.032500
#
#
# Mechanical properties :
#
#
# Convention : Reuss Voigt Hill
#
# Bulk Modulus (GPa) = 54.49042 69.44905 61.96974
# Shear Modulus (GPa) = 26.67638 29.83358 28.25498
#
# Velocity S-wave (km/s) = 3.35849 3.55167 3.45643
# Velocity P-wave (km/s) = 6.17083 6.79588 6.49088
#
# Compressibility (1/GPa) = 0.01835185
#
# Stress axis : x y z
#
# Youngs Moduli (GPa) = 71.92618 78.13064 101.98951
#
# Poissons Ratio (x) = 0.21686 0.19712
# Poissons Ratio (y) = 0.19964 0.44562
# Poissons Ratio (z) = 0.13902 0.34137
#
# Static dielectric constant tensor:
#      x y z
#    x 4.302660 0.000000 0.251080 
#    y 0.000000 3.934640 0.000000 
#    z 0.251080 0.000000 4.917060 
# 
# 
# High freq. dielectric constant tensor:
#      x y z
#    x 1.949650 0.000000 0.007190 
#    y 0.000000 1.921680 0.000000 
#    z 0.007190 0.000000 1.943690 
# 
# From -- ./inp_files/16872.got.cif
#   From: 2010.03.12/outbox.cif.g09.slc.cpg/sg5_9_cif.got.tgz:16872.got - 2010.03.31 09:47:26.
