data_PCOD8051419
_publ_section_title
;
Structure prediction by ZEFSAII (Michael W. Deem and Ramdas Pophale) SiO2 
 PCOD8051419
Probable space group: C 2
;
_chemical_formula_sum "Si O2"
_cell_formula_units_Z 22
_cell_length_a 22.033055
_cell_length_b 8.501998
_cell_length_c 13.704786
_cell_angle_alpha 90.000000
_cell_angle_beta 23.566656
_cell_angle_gamma 90.000000
_cell_volume 1026.426352
_symmetry_space_group_name_H-M "C 2"
_symmetry_group_IT_number 5
_symmetry_cell_setting 'monoclinic'
loop_
_space_group_symop_operation_xyz
x,y,z
-x,y,-z
1/2+x,1/2+y,z
1/2-x,1/2+y,-z
loop_
_atom_site_type_symbol
_atom_site_label
_atom_site_fract_x
_atom_site_fract_y
_atom_site_fract_z
Si Si1 0.000000 0.189400 0.000000
Si Si2 0.552767 0.861503 0.122239
Si Si3 0.389146 0.356344 0.584506
Si Si4 0.306263 0.054220 0.592509
Si Si5 0.168955 0.409432 0.243354
Si Si6 0.887202 0.122244 0.804024
O O1 0.146424 0.076550 0.773027
O O2 0.991535 0.301879 0.919018
O O3 0.537937 0.723290 0.221485
O O4 0.434452 0.995472 0.328820
O O5 0.729079 0.916850 0.865740
O O6 0.500000 0.274092 0.500000
O O7 0.360465 0.227778 0.544304
O O8 0.472698 0.512665 0.428121
O O9 0.267528 0.935999 0.740463
O O10 0.170630 0.229072 0.202149
O O11 0.000000 0.473419 0.500000
O O12 0.247703 0.519998 0.047967
#
# Coordination Sequence:
#
# PCOD8051419 Si02
#       6
#     2   4   4   4   4   4
#     4  10  24  50  70 100 138 194 246 290 348 402
#     4  11  25  47  71 102 138 188 244 294 346 423
#     4  11  25  41  68 107 143 186 219 290 364 424
#     4  11  25  48  72 100 147 185 239 301 349 414
#     4  12  25  43  67 110 142 186 231 290 363 426
#     4  12  26  40  71 104 147 182 233 282 358 432
#
# _framework density 21.433589999999999
#
# number of rings (size 3 to 8) (size 9 to 14) (size 15 to 20)
#    0.000    0.727    5.455    2.182    2.545    4.364 
#    0.000    0.000    0.000    0.000    0.000    0.000 
#    0.000    0.000    0.000    0.000    0.000    0.000 
#
# Total GULP energy -136331.293289 kJ/mol
# GULP energy per Si atom -12393.753935 kJ/mol
# Density = 2.138481 g / cm^3
# Si number density = 21.433590 Si / 1000 Ang^3
#
#
#
# Elastic Constant Matrix: (Units=GPa)
#
#
# Indices 1 2 3 4 5 6 
#
# 1 95.6377 35.3332 54.1970 0.0000 -7.0421 0.0000
# 2 35.3332 119.1257 81.0903 0.0000 2.5025 0.0000
# 3 54.1970 81.0903 202.5399 0.0000 -14.8556 0.0000
# 4 0.0000 0.0000 0.0000 48.6490 0.0000 -5.6474
# 5 -7.0421 2.5025 -14.8556 0.0000 37.9218 0.0000
# 6 0.0000 0.0000 0.0000 -5.6474 0.0000 0.1659
#
#
#
# Elastic Compliance Matrix: (Units=1/GPa)
#
#
# Indices 1 2 3 4 5 6 
#
# 1 0.012746 -0.002157 -0.002433 0.000000 0.001556 0.000000
# 2 -0.002157 0.012169 -0.004513 0.000000 -0.002971 0.000000
# 3 -0.002433 -0.004513 0.007602 0.000000 0.002824 0.000000
# 4 0.000000 0.000000 0.000000 -0.006963 0.000000 -0.237053
# 5 0.001556 -0.002971 0.002824 0.000000 0.027961 0.000000
# 6 0.000000 0.000000 0.000000 -0.237053 0.000000 -2.042060
#
#
# Mechanical properties :
#
#
# Convention : Reuss Voigt Hill
#
# Bulk Modulus (GPa) = 69.87323 84.28271 77.07797
# Shear Modulus (GPa) = -2.54379 33.79285 15.62453
#
# Velocity S-wave (km/s) = -1.09060 3.97499 2.70288
# Velocity P-wave (km/s) = 5.57537 7.77660 6.76610
#
# Compressibility (1/GPa) = 0.01431163
#
# Stress axis : x y z
#
# Youngs Moduli (GPa) = 78.45330 82.17928 131.54182
#
# Poissons Ratio (x) = 0.17728 0.32004
# Poissons Ratio (y) = 0.16924 0.59359
# Poissons Ratio (z) = 0.19087 0.37084
#
# Static dielectric constant tensor:
#      x y z
#    x 4.199170 0.000000 0.144460 
#    y 0.000000 3.923680 0.000000 
#    z 0.144460 0.000000 4.392410 
# 
# 
# High freq. dielectric constant tensor:
#      x y z
#    x 1.829620 0.000000 0.008590 
#    y 0.000000 1.843280 0.000000 
#    z 0.008590 0.000000 1.863380 
# 
# From -- ./inp_files/52048.got.cif
#   From: 2010.03.12/outbox.cif.g09.slc.cpg/sg5_27_cif.got.tgz:52048.got - 2010.03.31 09:47:26.
