data_PCOD8051485
_publ_section_title
;
Structure prediction by ZEFSAII (Michael W. Deem and Ramdas Pophale) SiO2 
 PCOD8051485
Probable space group: C 2
;
_chemical_formula_sum "Si O2"
_cell_formula_units_Z 30
_cell_length_a 22.335789
_cell_length_b 5.617283
_cell_length_c 14.987571
_cell_angle_alpha 90.000000
_cell_angle_beta 46.851885
_cell_angle_gamma 90.000000
_cell_volume 1371.944917
_symmetry_space_group_name_H-M "C 2"
_symmetry_group_IT_number 5
_symmetry_cell_setting 'monoclinic'
loop_
_space_group_symop_operation_xyz
x,y,z
-x,y,-z
1/2+x,1/2+y,z
1/2-x,1/2+y,-z
loop_
_atom_site_type_symbol
_atom_site_label
_atom_site_fract_x
_atom_site_fract_y
_atom_site_fract_z
Si Si1 0.638217 0.478820 0.434464
Si Si2 0.744335 0.117747 0.407819
Si Si3 0.478865 0.859557 0.359597
Si Si4 0.144285 0.223665 0.114491
Si Si5 0.296945 0.224481 0.236823
Si Si6 0.319950 0.226230 0.014536
Si Si7 0.361238 0.975229 0.332060
Si Si8 0.000000 0.704429 0.500000
O O1 0.662251 0.281829 0.483160
O O2 0.594529 0.697977 0.528447
O O3 0.725537 0.528317 0.298738
O O4 0.579283 0.374066 0.418326
O O5 0.837366 0.222504 0.312374
O O6 0.745716 0.955105 0.318258
O O7 0.722921 0.990177 0.522595
O O8 0.560824 0.711091 0.256486
O O9 0.446004 0.977461 0.300499
O O10 0.503886 0.055606 0.405783
O O11 0.221945 0.228027 0.100973
O O12 0.143394 0.475094 0.059756
O O13 0.143545 0.973413 0.061615
O O14 0.342477 0.243828 0.096256
O O15 0.362088 0.167121 0.250516
#
# Coordination Sequence:
#
# PCOD8051485 Si02
#       8
#     4   4   4   4   4   4   4   2
#     4  11  24  37  63 105 137 176 216 283 354 418
#     4  11  20  38  61  96 140 178 217 272 336 424
#     4  12  26  44  65 102 144 179 225 286 364 419
#     4  10  26  47  75  96 138 185 234 300 346 416
#     4  11  24  40  72  97 136 179 236 288 331 427
#     4  10  25  49  71 102 128 187 249 284 349 408
#     4  11  21  38  63  98 137 179 220 272 356 407
#     4  12  26  38  64 104 146 174 218 282 366 432
#
# _framework density 21.866765999999998
#
# number of rings (size 3 to 8) (size 9 to 14) (size 15 to 20)
#    0.000    1.067    4.000    1.200   11.200    1.067 
#    0.000    0.667    0.000    0.000    0.000    0.000 
#    0.000    0.000    0.000    0.000    0.000    0.000 
#
# Total GULP energy -185836.256347 kJ/mol
# GULP energy per Si atom -12389.083756 kJ/mol
# Density = 2.181700 g / cm^3
# Si number density = 21.866766 Si / 1000 Ang^3
#
#
#
# Elastic Constant Matrix: (Units=GPa)
#
#
# Indices 1 2 3 4 5 6 
#
# 1 129.8286 34.0552 23.7121 0.1268 10.7563 0.0384
# 2 34.0552 107.8627 14.1840 0.3026 12.5605 0.0400
# 3 23.7121 14.1840 54.3646 0.1981 12.6958 0.0408
# 4 0.1268 0.3026 0.1981 19.8061 0.0715 3.7900
# 5 10.7563 12.5605 12.6958 0.0715 36.2784 -0.0054
# 6 0.0384 0.0400 0.0408 3.7900 -0.0054 35.0658
#
#
#
# Elastic Compliance Matrix: (Units=1/GPa)
#
#
# Indices 1 2 3 4 5 6 
#
# 1 0.008945 -0.002326 -0.003118 0.000013 -0.000756 -0.000005
# 2 -0.002326 0.010448 -0.001119 -0.000125 -0.002536 0.000005
# 3 -0.003118 -0.001119 0.021497 -0.000155 -0.006211 -0.000005
# 4 0.000013 -0.000125 -0.000155 0.051559 -0.000009 -0.005572
# 5 -0.000756 -0.002536 -0.006211 -0.000009 0.030840 0.000017
# 6 -0.000005 0.000005 -0.000005 -0.005572 0.000017 0.029120
#
#
# Mechanical properties :
#
#
# Convention : Reuss Voigt Hill
#
# Bulk Modulus (GPa) = 36.01749 48.43982 42.22865
# Shear Modulus (GPa) = 28.60569 32.90371 30.75470
#
# Velocity S-wave (km/s) = 3.62080 3.88330 3.75435
# Velocity P-wave (km/s) = 5.82987 6.50439 6.17634
#
# Compressibility (1/GPa) = 0.02776429
#
# Stress axis : x y z
#
# Youngs Moduli (GPa) = 111.79805 95.70984 46.51761
#
# Poissons Ratio (x) = 0.22263 0.14505
# Poissons Ratio (y) = 0.26005 0.05204
# Poissons Ratio (z) = 0.34860 0.10707
#
# Static dielectric constant tensor:
#      x y z
#    x 4.047480 -0.000230 0.116010 
#    y -0.000230 4.287200 0.000040 
#    z 0.116010 0.000040 3.478430 
# 
# 
# High freq. dielectric constant tensor:
#      x y z
#    x 1.866440 -0.000010 0.010820 
#    y -0.000010 1.878130 0.000000 
#    z 0.010820 0.000000 1.818130 
# 
# From -- ./inp_files/57455.got.cif
#   From: 2010.03.12/outbox.cif.g09.slc.cpg/sg5_29_cif.got.tgz:57455.got - 2010.03.31 09:47:26.
