data_PCOD8051005
_publ_section_title
;
Structure prediction by ZEFSAII (Michael W. Deem and Ramdas Pophale) SiO2 
 PCOD8051005
Probable space group: C 2
;
_chemical_formula_sum "Si O2"
_cell_formula_units_Z 28
_cell_length_a 17.354521
_cell_length_b 8.547199
_cell_length_c 14.511320
_cell_angle_alpha 90.000000
_cell_angle_beta 40.408900
_cell_angle_gamma 90.000000
_cell_volume 1395.333357
_symmetry_space_group_name_H-M "C 2"
_symmetry_group_IT_number 5
_symmetry_cell_setting 'monoclinic'
loop_
_space_group_symop_operation_xyz
x,y,z
-x,y,-z
1/2+x,1/2+y,z
1/2-x,1/2+y,-z
loop_
_atom_site_type_symbol
_atom_site_label
_atom_site_fract_x
_atom_site_fract_y
_atom_site_fract_z
Si Si1 0.359411 0.943890 0.644892
Si Si2 0.634430 0.995270 0.151908
Si Si3 0.537497 0.500620 0.562504
Si Si4 0.316968 0.345073 0.847302
Si Si5 0.129026 0.447922 0.672234
Si Si6 0.267937 0.276190 0.690284
Si Si7 0.779776 0.236950 0.563003
O O1 0.500000 0.961156 0.500000
O O2 0.339700 0.922752 0.771404
O O3 0.296173 0.797785 0.652614
O O4 0.289370 0.091577 0.665729
O O5 0.507445 0.937133 0.231340
O O6 0.638890 0.181947 0.150996
O O7 0.735039 0.934038 0.993160
O O8 0.500000 0.583568 0.500000
O O9 0.431214 0.451142 0.725089
O O10 0.614787 0.351106 0.461662
O O11 0.610189 0.621793 0.558239
O O12 0.247257 0.323601 0.815015
O O13 0.152246 0.338068 0.740414
O O14 0.214364 0.380581 0.513475
O O15 0.161294 0.630774 0.661653
#
# Coordination Sequence:
#
# PCOD8051005 Si02
#       7
#     4   4   4   4   4   4   4
#     4  11  20  39  64  91 121 161 207 259 302 368
#     4  11  25  40  65  90 126 167 211 255 308 365
#     4   9  19  36  62  90 117 159 207 258 301 360
#     4  10  23  41  62  89 126 167 211 253 306 370
#     4  11  24  38  60  97 123 164 201 261 317 364
#     4   9  20  40  63  89 124 162 201 254 319 361
#     4  11  23  35  63  92 128 153 208 262 316 365
#
# _framework density 20.066890000000001
#
# number of rings (size 3 to 8) (size 9 to 14) (size 15 to 20)
#    0.000    1.714    1.429    3.429    6.000    2.857 
#    0.000    0.000    0.000    0.000    0.000    0.000 
#    0.000    0.000    0.000    0.000    0.000    0.000 
#
# Total GULP energy -173571.464595 kJ/mol
# GULP energy per Si atom -12397.961757 kJ/mol
# Density = 2.002122 g / cm^3
# Si number density = 20.066890 Si / 1000 Ang^3
#
#
#
# Elastic Constant Matrix: (Units=GPa)
#
#
# Indices 1 2 3 4 5 6 
#
# 1 110.1518 47.3729 35.0641 0.0000 6.2937 0.0000
# 2 47.3729 78.9593 38.0849 0.0000 7.0261 0.0000
# 3 35.0641 38.0849 110.6493 0.0000 16.7923 0.0000
# 4 0.0000 0.0000 0.0000 11.8535 0.0000 10.5625
# 5 6.2937 7.0261 16.7923 0.0000 21.2395 0.0000
# 6 0.0000 0.0000 0.0000 10.5625 0.0000 40.8710
#
#
#
# Elastic Compliance Matrix: (Units=1/GPa)
#
#
# Indices 1 2 3 4 5 6 
#
# 1 0.012483 -0.006689 -0.001623 0.000000 -0.000203 0.000000
# 2 -0.006689 0.018789 -0.004210 0.000000 -0.000905 0.000000
# 3 -0.001623 -0.004210 0.012178 0.000000 -0.007754 0.000000
# 4 0.000000 0.000000 0.000000 0.109604 0.000000 -0.028325
# 5 -0.000203 -0.000905 -0.007754 0.000000 0.053572 0.000000
# 6 0.000000 0.000000 0.000000 -0.028325 0.000000 0.031787
#
#
# Mechanical properties :
#
#
# Convention : Reuss Voigt Hill
#
# Bulk Modulus (GPa) = 54.32804 60.08935 57.20869
# Shear Modulus (GPa) = 18.54654 26.74204 22.64429
#
# Velocity S-wave (km/s) = 3.04342 3.65450 3.36287
# Velocity P-wave (km/s) = 6.28348 6.91496 6.60677
#
# Compressibility (1/GPa) = 0.01840670
#
# Stress axis : x y z
#
# Youngs Moduli (GPa) = 80.10800 53.22281 82.11720
#
# Poissons Ratio (x) = 0.35599 0.13326
# Poissons Ratio (y) = 0.53581 0.34572
# Poissons Ratio (z) = 0.13000 0.22408
#
# Static dielectric constant tensor:
#      x y z
#    x 3.949760 0.000000 0.140500 
#    y 0.000000 3.761690 0.000000 
#    z 0.140500 0.000000 3.322570 
# 
# 
# High freq. dielectric constant tensor:
#      x y z
#    x 1.796530 0.000000 0.011600 
#    y 0.000000 1.795380 0.000000 
#    z 0.011600 0.000000 1.749880 
# 
# From -- ./inp_files/45987.got.cif
#   From: 2010.03.12/outbox.cif.g09.slc.cpg/sg5_23_cif.got.tgz:45987.got - 2010.03.31 09:47:26.
