data_PCOD8051860
_publ_section_title
;
Structure prediction by ZEFSAII (Michael W. Deem and Ramdas Pophale) SiO2 
 PCOD8051860
Probable space group: C 2
;
_chemical_formula_sum "Si O2"
_cell_formula_units_Z 22
_cell_length_a 17.601717
_cell_length_b 9.186584
_cell_length_c 6.343465
_cell_angle_alpha 90.000000
_cell_angle_beta 111.049749
_cell_angle_gamma 90.000000
_cell_volume 957.287594
_symmetry_space_group_name_H-M "C 2"
_symmetry_group_IT_number 5
_symmetry_cell_setting 'monoclinic'
loop_
_space_group_symop_operation_xyz
x,y,z
-x,y,-z
1/2+x,1/2+y,z
1/2-x,1/2+y,-z
loop_
_atom_site_type_symbol
_atom_site_label
_atom_site_fract_x
_atom_site_fract_y
_atom_site_fract_z
Si Si1 0.500000 0.344380 0.000000
Si Si2 0.306257 0.925437 0.998774
Si Si3 0.933259 0.607120 0.254611
Si Si4 0.197890 0.745688 0.626664
Si Si5 0.420387 0.499137 0.558683
Si Si6 0.279013 0.685697 0.292885
O O1 0.456631 0.242467 0.130827
O O2 0.560853 0.453942 0.180589
O O3 0.284594 0.807467 0.794806
O O4 0.248048 0.066103 0.905390
O O5 0.286009 0.845313 0.199208
O O6 0.404203 0.967504 0.084127
O O7 0.843547 0.619520 0.276662
O O8 0.000000 0.573839 0.500000
O O9 0.127693 0.865129 0.588337
O O10 0.208069 0.692517 0.398195
O O11 0.500000 0.528089 0.500000
O O12 0.364093 0.642279 0.490798
#
# Coordination Sequence:
#
# PCOD8051860 Si02
#       6
#     2   4   4   4   4   4
#     4  12  22  42  72 102 142 192 242 294 364 420
#     4  11  26  44  72 103 144 189 238 299 368 422
#     4  12  25  42  71 108 142 185 248 296 357 432
#     4  11  23  44  69 108 135 189 237 298 351 439
#     4  11  24  43  71 105 140 188 246 298 355 434
#     4  11  27  44  75 104 146 185 249 298 362 437
#
# _framework density 22.981598999999999
#
# number of rings (size 3 to 8) (size 9 to 14) (size 15 to 20)
#    0.000    0.727    5.455    1.091    5.091    2.182 
#    0.000    0.000    0.000    0.000    0.000    0.000 
#    0.000    0.000    0.000    0.000    0.000    0.000 
#
# Total GULP energy -136274.533264 kJ/mol
# GULP energy per Si atom -12388.593933 kJ/mol
# Density = 2.292929 g / cm^3
# Si number density = 22.981599 Si / 1000 Ang^3
#
#
#
# Elastic Constant Matrix: (Units=GPa)
#
#
# Indices 1 2 3 4 5 6 
#
# 1 111.3916 48.9362 61.9702 0.0000 6.4439 0.0000
# 2 48.9362 91.8206 50.1771 0.0000 8.5826 0.0000
# 3 61.9702 50.1771 143.4500 0.0000 26.6672 0.0000
# 4 0.0000 0.0000 0.0000 46.9788 0.0000 17.3681
# 5 6.4439 8.5826 26.6672 0.0000 49.3428 0.0000
# 6 0.0000 0.0000 0.0000 17.3681 0.0000 29.6108
#
#
#
# Elastic Compliance Matrix: (Units=1/GPa)
#
#
# Indices 1 2 3 4 5 6 
#
# 1 0.013496 -0.004939 -0.004374 0.000000 0.001461 0.000000
# 2 -0.004939 0.015274 -0.003152 0.000000 -0.000308 0.000000
# 3 -0.004374 -0.003152 0.010845 0.000000 -0.004741 0.000000
# 4 0.000000 0.000000 0.000000 0.027180 0.000000 -0.015942
# 5 0.001461 -0.000308 -0.004741 0.000000 0.022692 0.000000
# 6 0.000000 0.000000 0.000000 -0.015942 0.000000 0.043122
#
#
# Mechanical properties :
#
#
# Convention : Reuss Voigt Hill
#
# Bulk Modulus (GPa) = 68.09670 74.31436 71.20553
# Shear Modulus (GPa) = 30.78167 37.55840 34.17003
#
# Velocity S-wave (km/s) = 3.66376 4.04701 3.86014
# Velocity P-wave (km/s) = 6.89875 7.36508 7.13573
#
# Compressibility (1/GPa) = 0.01468500
#
# Stress axis : x y z
#
# Youngs Moduli (GPa) = 74.09536 65.46976 92.21144
#
# Poissons Ratio (x) = 0.32335 0.40336
# Poissons Ratio (y) = 0.36595 0.29063
# Poissons Ratio (z) = 0.32411 0.20635
#
# Static dielectric constant tensor:
#      x y z
#    x 4.003220 0.000000 0.391880 
#    y 0.000000 4.186780 0.000000 
#    z 0.391880 0.000000 4.380660 
# 
# 
# High freq. dielectric constant tensor:
#      x y z
#    x 1.886970 0.000000 0.020780 
#    y 0.000000 1.898660 0.000000 
#    z 0.020780 0.000000 1.929740 
# 
# From -- ./inp_files/6651.got.cif
#   From: 2010.03.12/outbox.cif.g09.slc.cpg/sg5_4_cif.got.tgz:6651.got - 2010.03.31 09:47:26.
