data_PCOD8051898
_publ_section_title
;
Structure prediction by ZEFSAII (Michael W. Deem and Ramdas Pophale) SiO2 
 PCOD8051898
Probable space group: C 2
;
_chemical_formula_sum "Si O2"
_cell_formula_units_Z 28
_cell_length_a 30.135112
_cell_length_b 8.146709
_cell_length_c 6.464793
_cell_angle_alpha 90.000000
_cell_angle_beta 52.869723
_cell_angle_gamma 90.000000
_cell_volume 1265.354954
_symmetry_space_group_name_H-M "C 2"
_symmetry_group_IT_number 5
_symmetry_cell_setting 'monoclinic'
loop_
_space_group_symop_operation_xyz
x,y,z
-x,y,-z
1/2+x,1/2+y,z
1/2-x,1/2+y,-z
loop_
_atom_site_type_symbol
_atom_site_label
_atom_site_fract_x
_atom_site_fract_y
_atom_site_fract_z
Si Si1 0.000000 0.351980 0.500000
Si Si2 0.071342 0.507501 0.633234
Si Si3 0.098592 0.273825 0.938340
Si Si4 0.294909 0.987663 0.310125
Si Si5 0.000000 0.784511 0.000000
Si Si6 0.805120 0.769374 0.549906
Si Si7 0.903677 0.902785 0.031243
Si Si8 0.653134 0.210440 0.151972
O O1 0.020611 0.460974 0.629847
O O2 0.051631 0.254979 0.251601
O O3 0.079832 0.361576 0.777029
O O4 0.124616 0.552745 0.344528
O O5 0.052176 0.676566 0.786793
O O6 0.152061 0.370830 0.868398
O O7 0.116766 0.086453 0.858095
O O8 0.289721 0.076744 0.548952
O O9 0.238716 0.892173 0.426171
O O10 0.302083 0.141183 0.135040
O O11 0.970092 0.892398 0.902941
O O12 0.810153 0.805604 0.780254
O O13 0.866397 0.789519 0.282928
O O14 0.891348 0.835985 0.831761
#
# Coordination Sequence:
#
# PCOD8051898 Si02
#       8
#     2   4   4   4   2   4   4   4
#     4  12  24  38  70  98 134 176 228 276 334 408
#     4  12  22  43  70  96 134 184 225 279 344 417
#     4  12  25  43  67 102 140 178 230 288 348 413
#     4  11  24  44  70  99 132 181 229 286 351 416
#     4  12  22  42  70  92 138 182 218 276 352 412
#     4  11  24  47  70  97 138 178 225 290 349 418
#     4  11  27  43  66 105 139 179 231 285 351 411
#     4  11  23  46  69  99 133 181 234 279 349 421
#
# _framework density 22.128177999999998
#
# number of rings (size 3 to 8) (size 9 to 14) (size 15 to 20)
#    0.000    0.571    5.714    2.571    2.000    5.714 
#    2.571    0.000    0.000    0.000    0.000    0.000 
#    0.000    0.000    0.000    0.000    0.000    0.000 
#
# Total GULP energy -173465.505934 kJ/mol
# GULP energy per Si atom -12390.393281 kJ/mol
# Density = 2.207781 g / cm^3
# Si number density = 22.128178 Si / 1000 Ang^3
#
#
#
# Elastic Constant Matrix: (Units=GPa)
#
#
# Indices 1 2 3 4 5 6 
#
# 1 166.1616 58.8866 44.0688 0.0000 19.8515 0.0000
# 2 58.8866 113.3446 19.6628 0.0000 14.5485 0.0000
# 3 44.0688 19.6628 64.2583 0.0000 12.7469 0.0000
# 4 0.0000 0.0000 0.0000 21.0062 0.0000 -3.8996
# 5 19.8515 14.5485 12.7469 0.0000 38.3289 0.0000
# 6 0.0000 0.0000 0.0000 -3.8996 0.0000 40.5842
#
#
#
# Elastic Compliance Matrix: (Units=1/GPa)
#
#
# Indices 1 2 3 4 5 6 
#
# 1 0.008660 -0.003500 -0.004541 0.000000 -0.001646 0.000000
# 2 -0.003500 0.011015 -0.000536 0.000000 -0.002190 0.000000
# 3 -0.004541 -0.000536 0.019629 0.000000 -0.003972 0.000000
# 4 0.000000 0.000000 0.000000 0.048469 0.000000 0.004657
# 5 -0.001646 -0.002190 -0.003972 0.000000 0.029095 0.000000
# 6 0.000000 0.000000 0.000000 0.004657 0.000000 0.025088
#
#
# Mechanical properties :
#
#
# Convention : Reuss Voigt Hill
#
# Bulk Modulus (GPa) = 45.14835 65.44455 55.29645
# Shear Modulus (GPa) = 30.03132 34.72695 32.37914
#
# Velocity S-wave (km/s) = 3.68795 3.96581 3.82940
# Velocity P-wave (km/s) = 6.21145 7.11404 6.67801
#
# Compressibility (1/GPa) = 0.02214921
#
# Stress axis : x y z
#
# Youngs Moduli (GPa) = 115.47733 90.78490 50.94586
#
# Poissons Ratio (x) = 0.31774 0.23136
# Poissons Ratio (y) = 0.40416 0.02730
# Poissons Ratio (z) = 0.52442 0.04865
#
# Static dielectric constant tensor:
#      x y z
#    x 4.177670 0.000000 0.262570 
#    y 0.000000 3.824860 0.000000 
#    z 0.262570 0.000000 3.953890 
# 
# 
# High freq. dielectric constant tensor:
#      x y z
#    x 1.889550 0.000000 0.007160 
#    y 0.000000 1.859210 0.000000 
#    z 0.007160 0.000000 1.861080 
# 
# From -- ./inp_files/10803.got.cif
#   From: 2010.03.12/outbox.cif.g09.slc.cpg/sg5_6_cif.got.tgz:10803.got - 2010.03.31 09:47:26.
