data_PCOD8051344
_publ_section_title
;
Structure prediction by ZEFSAII (Michael W. Deem and Ramdas Pophale) SiO2 
 PCOD8051344
Probable space group: C 2
;
_chemical_formula_sum "Si O2"
_cell_formula_units_Z 26
_cell_length_a 12.114299
_cell_length_b 7.442740
_cell_length_c 14.652909
_cell_angle_alpha 90.000000
_cell_angle_beta 58.448213
_cell_angle_gamma 90.000000
_cell_volume 1125.848577
_symmetry_space_group_name_H-M "C 2"
_symmetry_group_IT_number 5
_symmetry_cell_setting 'monoclinic'
loop_
_space_group_symop_operation_xyz
x,y,z
-x,y,-z
1/2+x,1/2+y,z
1/2-x,1/2+y,-z
loop_
_atom_site_type_symbol
_atom_site_label
_atom_site_fract_x
_atom_site_fract_y
_atom_site_fract_z
Si Si1 0.314497 0.154290 0.382735
Si Si2 0.127569 0.870804 0.384522
Si Si3 0.766890 0.969443 0.844708
Si Si4 0.500000 0.417272 0.000000
Si Si5 0.737213 0.622348 0.975618
Si Si6 0.642705 0.003792 0.443664
Si Si7 0.520708 0.107843 0.852752
O O1 0.243735 0.343682 0.394317
O O2 0.443606 0.150461 0.267040
O O3 0.233945 0.979267 0.393493
O O4 0.352409 0.134746 0.470646
O O5 0.123339 0.949267 0.282025
O O6 0.164303 0.657938 0.357276
O O7 0.000000 0.900364 0.500000
O O8 0.771798 0.813133 0.917883
O O9 0.626199 0.979920 0.856975
O O10 0.798440 0.138280 0.899338
O O11 0.627541 0.536214 0.960459
O O12 0.524232 0.298882 0.900935
O O13 0.878017 0.517087 0.915998
O O14 0.500000 0.915076 0.500000
#
# Coordination Sequence:
#
# PCOD8051344 Si02
#       7
#     4   4   4   2   4   4   4
#     4  11  24  45  70 102 142 187 236 293 353 420
#     4  10  24  45  74 104 146 186 240 294 349 424
#     4  11  24  46  71 104 139 187 234 292 355 416
#     4  12  26  40  70 100 132 188 228 274 358 418
#     4  12  25  44  71 100 138 182 231 285 352 420
#     4  11  24  42  70 104 141 188 238 287 353 422
#     4  11  25  46  67  98 146 175 232 300 341 421
#
# _framework density 23.093689999999999
#
# number of rings (size 3 to 8) (size 9 to 14) (size 15 to 20)
#    0.000    0.923    4.615    0.462    8.615    0.000 
#    0.000    1.538    0.000    0.000    0.000    0.000 
#    0.000    0.000    0.000    0.000    0.000    0.000 
#
# Total GULP energy -161064.700026 kJ/mol
# GULP energy per Si atom -12389.592310 kJ/mol
# Density = 2.304113 g / cm^3
# Si number density = 23.093690 Si / 1000 Ang^3
#
#
#
# Elastic Constant Matrix: (Units=GPa)
#
#
# Indices 1 2 3 4 5 6 
#
# 1 120.7543 18.8780 40.3809 0.0000 -7.9558 0.0000
# 2 18.8780 46.5651 23.1670 0.0000 -6.1057 0.0001
# 3 40.3809 23.1670 142.9346 0.0000 -3.1363 0.0000
# 4 0.0000 0.0000 0.0000 28.7252 0.0000 -1.1347
# 5 -7.9558 -6.1057 -3.1363 0.0000 25.1781 0.0000
# 6 0.0000 0.0001 0.0000 -1.1347 0.0000 32.6678
#
#
#
# Elastic Compliance Matrix: (Units=1/GPa)
#
#
# Indices 1 2 3 4 5 6 
#
# 1 0.009563 -0.002475 -0.002253 0.000000 0.002141 0.000000
# 2 -0.002475 0.024701 -0.003199 0.000000 0.004809 0.000000
# 3 -0.002253 -0.003199 0.008141 0.000000 -0.000474 0.000000
# 4 0.000000 0.000000 0.000000 0.034861 0.000000 0.001211
# 5 0.002141 0.004809 -0.000474 0.000000 0.041501 0.000000
# 6 0.000000 0.000000 0.000000 0.001211 0.000000 0.030653
#
#
# Mechanical properties :
#
#
# Convention : Reuss Voigt Hill
#
# Bulk Modulus (GPa) = 37.66486 52.78954 45.22720
# Shear Modulus (GPa) = 28.71521 32.50274 30.60898
#
# Velocity S-wave (km/s) = 3.53005 3.75564 3.64459
# Velocity P-wave (km/s) = 5.74108 6.45871 6.11044
#
# Compressibility (1/GPa) = 0.02654994
#
# Stress axis : x y z
#
# Youngs Moduli (GPa) = 104.57149 40.48454 122.83624
#
# Poissons Ratio (x) = 0.10020 0.27681
# Poissons Ratio (y) = 0.25882 0.39293
# Poissons Ratio (z) = 0.23565 0.12950
#
# Static dielectric constant tensor:
#      x y z
#    x 4.451540 0.000000 0.103920 
#    y 0.000000 4.071990 0.000000 
#    z 0.103920 0.000000 4.516200 
# 
# 
# High freq. dielectric constant tensor:
#      x y z
#    x 1.925090 0.000000 0.010610 
#    y 0.000000 1.904260 0.000000 
#    z 0.010610 0.000000 1.916540 
# 
# From -- ./inp_files/52208.got.cif
#   From: 2010.03.12/outbox.cif.g09.slc.cpg/sg5_27_cif.got.tgz:52208.got - 2010.03.31 09:47:26.
