data_PCOD8051436
_publ_section_title
;
Structure prediction by ZEFSAII (Michael W. Deem and Ramdas Pophale) SiO2 
 PCOD8051436
Probable space group: C 2
;
_chemical_formula_sum "Si O2"
_cell_formula_units_Z 28
_cell_length_a 12.415543
_cell_length_b 8.990143
_cell_length_c 15.016126
_cell_angle_alpha 90.000000
_cell_angle_beta 55.335988
_cell_angle_gamma 90.000000
_cell_volume 1378.563874
_symmetry_space_group_name_H-M "C 2"
_symmetry_group_IT_number 5
_symmetry_cell_setting 'monoclinic'
loop_
_space_group_symop_operation_xyz
x,y,z
-x,y,-z
1/2+x,1/2+y,z
1/2-x,1/2+y,-z
loop_
_atom_site_type_symbol
_atom_site_label
_atom_site_fract_x
_atom_site_fract_y
_atom_site_fract_z
Si Si1 0.289724 0.866810 0.130696
Si Si2 0.885717 0.373402 0.623854
Si Si3 0.917359 0.123770 0.751977
Si Si4 0.816509 0.753078 0.399017
Si Si5 0.414074 0.109594 0.754630
Si Si6 0.606784 0.500204 0.526980
Si Si7 0.457200 0.859803 0.876561
O O1 0.209996 0.716680 0.185497
O O2 0.396147 0.889554 0.158296
O O3 0.199660 0.011372 0.173120
O O4 0.356421 0.848862 0.004270
O O5 0.870934 0.244167 0.702611
O O6 0.748436 0.375741 0.635959
O O7 0.915298 0.529253 0.657771
O O8 0.000000 0.333852 0.500000
O O9 0.957867 0.203273 0.824457
O O10 0.041604 0.038526 0.652617
O O11 0.723281 0.610945 0.449286
O O12 0.954938 0.704390 0.294670
O O13 0.833243 0.834510 0.487259
O O14 0.406932 0.992318 0.837693
O O15 0.500000 0.496218 0.500000
#
# Coordination Sequence:
#
# PCOD8051436 Si02
#       7
#     4   4   4   4   4   4   4
#     4  11  23  45  64  96 123 161 224 260 319 376
#     4  11  22  43  59  91 133 167 205 254 308 373
#     4  11  21  43  67  90 129 167 207 262 315 372
#     4  12  24  40  63  90 131 169 205 252 309 370
#     4  11  25  40  64  97 124 164 213 257 315 378
#     4  12  26  41  63  96 131 169 212 254 307 383
#     4  10  25  42  69  90 126 168 204 275 323 366
#
# _framework density 20.310993
#
# number of rings (size 3 to 8) (size 9 to 14) (size 15 to 20)
#    0.000    0.857    4.286    2.571    4.000    1.714 
#    0.000    0.000    0.000    6.857    0.000    0.000 
#    0.000    0.000    0.000    0.000    0.000    0.000 
#
# Total GULP energy -173631.712350 kJ/mol
# GULP energy per Si atom -12402.265168 kJ/mol
# Density = 2.026476 g / cm^3
# Si number density = 20.310993 Si / 1000 Ang^3
#
#
#
# Elastic Constant Matrix: (Units=GPa)
#
#
# Indices 1 2 3 4 5 6 
#
# 1 78.3635 41.4803 40.5363 0.0000 -4.6495 0.0000
# 2 41.4803 82.3026 21.0013 0.0000 11.5123 0.0000
# 3 40.5363 21.0013 87.1775 0.0000 7.3861 0.0000
# 4 0.0000 0.0000 0.0000 28.4813 0.0000 1.6831
# 5 -4.6495 11.5123 7.3861 0.0000 28.6749 0.0000
# 6 0.0000 0.0000 0.0000 1.6831 0.0000 32.7604
#
#
#
# Elastic Compliance Matrix: (Units=1/GPa)
#
#
# Indices 1 2 3 4 5 6 
#
# 1 0.024359 -0.011384 -0.009514 0.000000 0.010971 0.000000
# 2 -0.011384 0.018858 0.001583 0.000000 -0.009825 0.000000
# 3 -0.009514 0.001583 0.016048 0.000000 -0.006312 0.000000
# 4 0.000000 0.000000 0.000000 0.035218 0.000000 -0.001809
# 5 0.010971 -0.009825 -0.006312 0.000000 0.042223 0.000000
# 6 0.000000 0.000000 0.000000 -0.001809 0.000000 0.030618
#
#
# Mechanical properties :
#
#
# Convention : Reuss Voigt Hill
#
# Bulk Modulus (GPa) = 48.45991 50.43105 49.44548
# Shear Modulus (GPa) = 23.49281 27.63838 25.56560
#
# Velocity S-wave (km/s) = 3.40465 3.69285 3.55168
# Velocity P-wave (km/s) = 6.27426 6.56248 6.41999
#
# Compressibility (1/GPa) = 0.02063561
#
# Stress axis : x y z
#
# Youngs Moduli (GPa) = 41.05252 53.02778 62.31288
#
# Poissons Ratio (x) = 0.60366 0.59282
# Poissons Ratio (y) = 0.46733 -0.09862
# Poissons Ratio (z) = 0.39056 -0.08393
#
# Static dielectric constant tensor:
#      x y z
#    x 3.943520 0.000000 0.093990 
#    y 0.000000 3.903160 0.000000 
#    z 0.093990 0.000000 3.685910 
# 
# 
# High freq. dielectric constant tensor:
#      x y z
#    x 1.808050 0.000000 0.001090 
#    y 0.000000 1.806100 0.000000 
#    z 0.001090 0.000000 1.790340 
# 
# From -- ./inp_files/52362.got.cif
#   From: 2010.03.12/outbox.cif.g09.slc.cpg/sg5_27_cif.got.tgz:52362.got - 2010.03.31 09:47:26.
