data_PCOD8051295
_publ_section_title
;
Structure prediction by ZEFSAII (Michael W. Deem and Ramdas Pophale) SiO2 
 PCOD8051295
Probable space group: C 2
;
_chemical_formula_sum "Si O2"
_cell_formula_units_Z 32
_cell_length_a 14.131922
_cell_length_b 11.229017
_cell_length_c 16.907197
_cell_angle_alpha 90.000000
_cell_angle_beta 145.465086
_cell_angle_gamma 90.000000
_cell_volume 1520.993712
_symmetry_space_group_name_H-M "C 2"
_symmetry_group_IT_number 5
_symmetry_cell_setting 'monoclinic'
loop_
_space_group_symop_operation_xyz
x,y,z
-x,y,-z
1/2+x,1/2+y,z
1/2-x,1/2+y,-z
loop_
_atom_site_type_symbol
_atom_site_label
_atom_site_fract_x
_atom_site_fract_y
_atom_site_fract_z
Si Si1 0.566057 0.947140 0.130773
Si Si2 0.568577 0.454996 0.162105
Si Si3 0.459328 0.697775 0.131061
Si Si4 0.449724 0.472637 0.376373
Si Si5 0.033072 0.215116 0.350941
Si Si6 0.624357 0.325889 0.361077
Si Si7 0.095284 0.616716 0.856064
Si Si8 0.739658 0.909366 0.854584
O O1 0.489364 0.826407 0.113840
O O2 0.759555 0.934657 0.246554
O O3 0.517120 0.057206 0.152997
O O4 0.500000 0.976993 0.000000
O O5 0.526027 0.594174 0.120051
O O6 0.616225 0.419469 0.283757
O O7 0.723289 0.431583 0.211860
O O8 0.405239 0.381989 0.020571
O O9 0.569425 0.673827 0.286265
O O10 0.260348 0.677746 0.006601
O O11 0.500000 0.452812 0.500000
O O12 0.482210 0.608277 0.373411
O O13 0.553894 0.385887 0.391503
O O14 0.872370 0.294065 0.222137
O O15 0.184632 0.288451 0.492990
O O16 0.517255 0.211065 0.266885
O O17 0.138495 0.519339 0.820269
#
# Coordination Sequence:
#
# PCOD8051295 Si02
#       8
#     4   4   4   4   4   4   4   4
#     4  12  26  43  74 108 141 185 234 291 354 419
#     4  10  24  45  69 106 134 181 233 291 345 417
#     4  11  23  45  72  99 143 180 234 287 355 411
#     4  12  28  48  68 104 143 186 239 288 356 424
#     4  12  25  45  71  96 142 189 229 293 348 418
#     4  12  27  46  72  97 143 186 235 291 351 420
#     4  11  25  45  71 104 139 182 234 290 351 421
#     4  10  24  43  73 101 139 176 233 289 346 413
#
# _framework density 21.038876999999999
#
# number of rings (size 3 to 8) (size 9 to 14) (size 15 to 20)
#    0.000    0.750    2.500    3.750   14.000    0.000 
#    0.000    0.000    0.000    0.000    0.000    0.000 
#    0.000    0.000    0.000    0.000    0.000    0.000 
#
# Total GULP energy -198380.164046 kJ/mol
# GULP energy per Si atom -12398.760253 kJ/mol
# Density = 2.099099 g / cm^3
# Si number density = 21.038877 Si / 1000 Ang^3
#
#
#
# Elastic Constant Matrix: (Units=GPa)
#
#
# Indices 1 2 3 4 5 6 
#
# 1 107.8772 46.2836 33.5443 0.0003 -19.6102 0.0003
# 2 46.2836 109.7251 40.2852 0.0006 -4.8148 0.0002
# 3 33.5443 40.2852 96.8624 0.0013 -15.4075 -0.0009
# 4 0.0003 0.0006 0.0013 28.6913 0.0004 -8.6911
# 5 -19.6102 -4.8148 -15.4075 0.0004 39.0107 -0.0001
# 6 0.0003 0.0002 -0.0009 -8.6911 -0.0001 5.9802
#
#
#
# Elastic Compliance Matrix: (Units=1/GPa)
#
#
# Indices 1 2 3 4 5 6 
#
# 1 0.012659 -0.004490 -0.001699 0.000000 0.005138 -0.000001
# 2 -0.004490 0.012357 -0.003949 0.000000 -0.002292 -0.000001
# 3 -0.001699 -0.003949 0.013169 0.000000 0.003860 0.000003
# 4 0.000000 0.000000 0.000000 0.062265 -0.000001 0.090490
# 5 0.005138 -0.002292 0.003860 -0.000001 0.029458 0.000000
# 6 -0.000001 -0.000001 0.000003 0.090490 0.000000 0.298729
#
#
# Mechanical properties :
#
#
# Convention : Reuss Voigt Hill
#
# Bulk Modulus (GPa) = 55.84106 61.63233 58.73669
# Shear Modulus (GPa) = 10.99186 27.69322 19.34254
#
# Velocity S-wave (km/s) = 2.28821 3.63200 3.03540
# Velocity P-wave (km/s) = 5.79488 6.85177 6.34537
#
# Compressibility (1/GPa) = 0.01790797
#
# Stress axis : x y z
#
# Youngs Moduli (GPa) = 78.99734 80.92567 75.93879
#
# Poissons Ratio (x) = 0.36339 0.12902
# Poissons Ratio (y) = 0.35473 0.29987
# Poissons Ratio (z) = 0.13421 0.31956
#
# Static dielectric constant tensor:
#      x y z
#    x 4.022300 0.000000 -0.088800 
#    y 0.000000 3.850290 0.000000 
#    z -0.088800 0.000000 3.921440 
# 
# 
# High freq. dielectric constant tensor:
#      x y z
#    x 1.838940 0.000000 -0.005860 
#    y 0.000000 1.836480 0.000000 
#    z -0.005860 0.000000 1.828780 
# 
# From -- ./inp_files/61728.got.cif
#   From: 2010.03.12/outbox.cif.g09.slc.cpg/sg5_31_cif.got.tgz:61728.got - 2010.03.31 09:47:26.
