data_PCOD8051223
_publ_section_title
;
Structure prediction by ZEFSAII (Michael W. Deem and Ramdas Pophale) SiO2 
 PCOD8051223
Probable space group: C 2
;
_chemical_formula_sum "Si O2"
_cell_formula_units_Z 14
_cell_length_a 5.277336
_cell_length_b 8.899427
_cell_length_c 14.652542
_cell_angle_alpha 90.000000
_cell_angle_beta 68.035638
_cell_angle_gamma 90.000000
_cell_volume 638.211564
_symmetry_space_group_name_H-M "C 2"
_symmetry_group_IT_number 5
_symmetry_cell_setting 'monoclinic'
loop_
_space_group_symop_operation_xyz
x,y,z
-x,y,-z
1/2+x,1/2+y,z
1/2-x,1/2+y,-z
loop_
_atom_site_type_symbol
_atom_site_label
_atom_site_fract_x
_atom_site_fract_y
_atom_site_fract_z
Si Si1 0.363715 0.050360 0.116354
Si Si2 0.786404 0.887288 0.191102
Si Si3 0.000000 0.099224 0.500000
Si Si4 0.066190 0.384357 0.588344
O O1 0.314908 0.217940 0.155418
O O2 0.562743 0.967139 0.158945
O O3 0.500000 0.051582 0.000000
O O4 0.076129 0.967181 0.146635
O O5 0.685889 0.891425 0.308814
O O6 0.146491 0.209989 0.555024
O O7 0.185576 0.989494 0.411364
O O8 0.000000 0.463429 0.500000
#
# Coordination Sequence:
#
# PCOD8051223 Si02
#       4
#     4   4   2   4
#     4  12  26  48  71 103 137 179 233 290 340 404
#     4  12  27  44  76 101 139 182 229 278 353 404
#     4  10  24  40  66  90 144 172 218 274 324 396
#     4  10  26  41  68  98 139 173 224 271 335 406
#
# _framework density 21.936301
#
# number of rings (size 3 to 8) (size 9 to 14) (size 15 to 20)
#    0.857    0.000    0.000    6.000   10.000    0.000 
#    0.000    0.000    0.000    0.000    0.000    0.000 
#    0.000    0.000    0.000    0.000    0.000    0.000 
#
# Total GULP energy -86729.421423 kJ/mol
# GULP energy per Si atom -12389.917346 kJ/mol
# Density = 2.188637 g / cm^3
# Si number density = 21.936301 Si / 1000 Ang^3
#
#
#
# Elastic Constant Matrix: (Units=GPa)
#
#
# Indices 1 2 3 4 5 6 
#
# 1 27.9403 18.0720 -51.7677 -0.0001 -5.7074 0.0001
# 2 18.0720 170.8115 3.8724 0.0000 -17.0615 0.0000
# 3 -51.7677 3.8724 109.1991 -0.0001 -13.2684 0.0000
# 4 -0.0001 0.0000 -0.0001 40.9517 0.0000 -13.4474
# 5 -5.7074 -17.0615 -13.2684 0.0000 45.4344 0.0000
# 6 0.0001 0.0000 0.0000 -13.4474 0.0000 51.6845
#
#
#
# Elastic Compliance Matrix: (Units=1/GPa)
#
#
# Indices 1 2 3 4 5 6 
#
# 1 -0.756478 0.070707 -0.383041 -0.000002 -0.180338 0.000001
# 2 0.070707 -0.000526 0.035866 0.000000 0.019159 0.000000
# 3 -0.383041 0.035866 -0.184457 -0.000001 -0.088517 0.000000
# 4 -0.000002 0.000000 -0.000001 0.026700 0.000000 0.006947
# 5 -0.180338 0.019159 -0.088517 0.000000 -0.019300 0.000000
# 6 0.000001 0.000000 0.000000 0.006947 0.000000 0.021156
#
#
# Mechanical properties :
#
#
# Convention : Reuss Voigt Hill
#
# Bulk Modulus (GPa) = -0.66917 27.58936 13.46010
# Shear Modulus (GPa) = -5.82682 50.13240 22.15279
#
# Velocity S-wave (km/s) = -1.63157 4.78573 3.18129
# Velocity P-wave (km/s) = 1.96343 6.56826 4.43209
#
# Compressibility (1/GPa) = -1.49439747
#
# Stress axis : x y z
#
# Youngs Moduli (GPa) = -1.32192 -1901.65382 -5.42132
#
# Poissons Ratio (x) = 134.45979 -2.07659
# Poissons Ratio (y) = 0.09347 0.19444
# Poissons Ratio (z) = -0.50635 68.20539
#
# Static dielectric constant tensor:
#      x y z
#    x 4.006540 0.000000 -0.039670 
#    y 0.000000 4.186190 0.000000 
#    z -0.039670 0.000000 4.125060 
# 
# 
# High freq. dielectric constant tensor:
#      x y z
#    x 1.853230 0.000000 -0.009640 
#    y 0.000000 1.889890 0.000000 
#    z -0.009640 0.000000 1.877570 
# 
# From -- ./inp_files/32733.got.cif
#   From: 2010.03.12/outbox.cif.g09.slc.cpg/sg5_17_cif.got.tgz:32733.got - 2010.03.31 09:47:26.
