data_PCOD8051470
_publ_section_title
;
Structure prediction by ZEFSAII (Michael W. Deem and Ramdas Pophale) SiO2 
 PCOD8051470
Probable space group: C 2
;
_chemical_formula_sum "Si O2"
_cell_formula_units_Z 24
_cell_length_a 8.574487
_cell_length_b 17.982919
_cell_length_c 8.591500
_cell_angle_alpha 90.000000
_cell_angle_beta 55.037625
_cell_angle_gamma 90.000000
_cell_volume 1085.678913
_symmetry_space_group_name_H-M "C 2"
_symmetry_group_IT_number 5
_symmetry_cell_setting 'monoclinic'
loop_
_space_group_symop_operation_xyz
x,y,z
-x,y,-z
1/2+x,1/2+y,z
1/2-x,1/2+y,-z
loop_
_atom_site_type_symbol
_atom_site_label
_atom_site_fract_x
_atom_site_fract_y
_atom_site_fract_z
Si Si1 0.498204 0.785480 0.184203
Si Si2 0.702395 0.564694 0.841556
Si Si3 0.487719 0.941492 0.331116
Si Si4 0.309124 0.564339 0.512697
Si Si5 0.359378 0.200304 0.951122
Si Si6 0.639014 0.208251 0.554328
O O1 0.503567 0.873753 0.203379
O O2 0.315374 0.755514 0.385607
O O3 0.500000 0.766571 0.000000
O O4 0.695706 0.749359 0.130893
O O5 0.845770 0.498971 0.794102
O O6 0.676706 0.587291 0.676650
O O7 0.755540 0.635434 0.914440
O O8 0.500000 0.531206 0.000000
O O9 0.500000 0.910624 0.500000
O O10 0.292910 0.985407 0.408638
O O11 0.500000 0.557030 0.500000
O O12 0.198296 0.638174 0.631987
O O13 0.492258 0.251172 0.756514
O O14 0.500000 0.166871 0.000000
O O15 0.500000 0.176863 0.500000
#
# Coordination Sequence:
#
# PCOD8051470 Si02
#       6
#     4   4   4   4   4   4
#     4  12  27  46  70 103 140 184 231 288 352 411
#     4  11  23  44  69 100 138 175 232 291 336 409
#     4  10  25  47  66  96 143 182 223 286 347 407
#     4  11  23  42  72 102 131 184 230 278 352 406
#     4  12  27  43  72 109 136 183 239 283 348 413
#     4  12  23  46  73 100 142 179 228 295 342 406
#
# _framework density 22.105982999999998
#
# number of rings (size 3 to 8) (size 9 to 14) (size 15 to 20)
#    0.000    0.667    5.000    2.000    7.000    3.333 
#    3.000    0.000    0.000    0.000    0.000    0.000 
#    0.000    0.000    0.000    0.000    0.000    0.000 
#
# Total GULP energy -148670.236489 kJ/mol
# GULP energy per Si atom -12389.186374 kJ/mol
# Density = 2.205567 g / cm^3
# Si number density = 22.105983 Si / 1000 Ang^3
#
#
#
# Elastic Constant Matrix: (Units=GPa)
#
#
# Indices 1 2 3 4 5 6 
#
# 1 170.0980 49.6934 41.3931 0.0000 -14.9873 0.0000
# 2 49.6934 106.5601 32.5436 0.0000 -4.0994 0.0000
# 3 41.3931 32.5436 118.2450 0.0000 -28.2896 0.0000
# 4 0.0000 0.0000 0.0000 99.3976 0.0000 -53.7846
# 5 -14.9873 -4.0994 -28.2896 0.0000 31.9130 0.0000
# 6 0.0000 0.0000 0.0000 -53.7846 0.0000 76.6018
#
#
#
# Elastic Compliance Matrix: (Units=1/GPa)
#
#
# Indices 1 2 3 4 5 6 
#
# 1 0.007201 -0.002897 -0.001274 0.000000 0.001881 0.000000
# 2 -0.002897 0.011468 -0.002685 0.000000 -0.002267 0.000000
# 3 -0.001274 -0.002685 0.011951 0.000000 0.009651 0.000000
# 4 0.000000 0.000000 0.000000 0.016225 0.000000 0.011392
# 5 0.001881 -0.002267 0.009651 0.000000 0.040482 0.000000
# 6 0.000000 0.000000 0.000000 0.011392 0.000000 0.021053
#
#
# Mechanical properties :
#
#
# Convention : Reuss Voigt Hill
#
# Bulk Modulus (GPa) = 59.13789 71.35149 65.24469
# Shear Modulus (GPa) = 39.14634 59.66736 49.40685
#
# Velocity S-wave (km/s) = 4.21271 5.20097 4.73271
# Velocity P-wave (km/s) = 7.10441 8.27127 7.70994
#
# Compressibility (1/GPa) = 0.01690963
#
# Stress axis : x y z
#
# Youngs Moduli (GPa) = 138.87220 87.19989 83.67790
#
# Poissons Ratio (x) = 0.25260 0.10657
# Poissons Ratio (y) = 0.40228 0.22464
# Poissons Ratio (z) = 0.17686 0.23409
#
# Static dielectric constant tensor:
#      x y z
#    x 4.080280 0.000000 -0.165200 
#    y 0.000000 3.640310 0.000000 
#    z -0.165200 0.000000 4.420960 
# 
# 
# High freq. dielectric constant tensor:
#      x y z
#    x 1.886920 0.000000 -0.010480 
#    y 0.000000 1.841380 0.000000 
#    z -0.010480 0.000000 1.889230 
# 
# From -- ./inp_files/16705.got.cif
#   From: 2010.03.12/outbox.cif.g09.slc.cpg/sg5_9_cif.got.tgz:16705.got - 2010.03.31 09:47:26.
