data_PCOD8051515
_publ_section_title
;
Structure prediction by ZEFSAII (Michael W. Deem and Ramdas Pophale) SiO2 
 PCOD8051515
Probable space group: C 2
;
_chemical_formula_sum "Si O2"
_cell_formula_units_Z 20
_cell_length_a 12.705812
_cell_length_b 4.748121
_cell_length_c 12.471703
_cell_angle_alpha 90.000000
_cell_angle_beta 83.793729
_cell_angle_gamma 90.000000
_cell_volume 747.992313
_symmetry_space_group_name_H-M "C 2"
_symmetry_group_IT_number 5
_symmetry_cell_setting 'monoclinic'
loop_
_space_group_symop_operation_xyz
x,y,z
-x,y,-z
1/2+x,1/2+y,z
1/2-x,1/2+y,-z
loop_
_atom_site_type_symbol
_atom_site_label
_atom_site_fract_x
_atom_site_fract_y
_atom_site_fract_z
Si Si1 0.368086 0.230760 0.875488
Si Si2 0.018400 0.702921 0.336679
Si Si3 0.170246 0.571500 0.892077
Si Si4 0.325887 0.110665 0.491436
Si Si5 0.552773 0.572062 0.828659
O O1 0.419292 0.049805 0.770254
O O2 0.275731 0.427333 0.836818
O O3 0.456647 0.449483 0.911987
O O4 0.330604 0.035592 0.977917
O O5 0.103521 0.743987 0.421264
O O6 0.910098 0.545976 0.386199
O O7 0.978500 0.008577 0.293392
O O8 0.159329 0.892883 0.851779
O O9 0.071220 0.400331 0.850839
O O10 0.233511 0.326849 0.467344
#
# Coordination Sequence:
#
# PCOD8051515 Si02
#       5
#     4   4   4   4   4
#     4  10  26  45  68 105 146 189 242 288 340 438
#     4   9  26  48  72 115 138 189 242 297 360 434
#     4  12  24  46  67 102 142 197 233 286 347 415
#     4  11  26  50  79 107 142 184 239 308 365 431
#     4  10  27  43  70  98 146 187 236 289 349 415
#
# _framework density 26.738247000000001
#
# number of rings (size 3 to 8) (size 9 to 14) (size 15 to 20)
#    1.200    0.400    0.000    1.800    5.600   12.800 
#    0.000    0.000    0.000    0.000    0.000    0.000 
#    0.000    0.000    0.000    0.000    0.000    0.000 
#
# Total GULP energy -123881.868688 kJ/mol
# GULP energy per Si atom -12388.186869 kJ/mol
# Density = 2.667739 g / cm^3
# Si number density = 26.738247 Si / 1000 Ang^3
#
#
#
# Elastic Constant Matrix: (Units=GPa)
#
#
# Indices 1 2 3 4 5 6 
#
# 1 131.0861 12.0660 42.5217 0.0000 -16.5105 0.0000
# 2 12.0660 70.8444 5.0190 0.0000 -5.1836 0.0000
# 3 42.5217 5.0190 104.5604 0.0000 -17.9655 0.0000
# 4 0.0000 0.0000 0.0000 33.9011 0.0000 5.8023
# 5 -16.5105 -5.1836 -17.9655 0.0000 50.9686 0.0000
# 6 0.0000 0.0000 0.0000 5.8023 0.0000 21.0547
#
#
#
# Elastic Compliance Matrix: (Units=1/GPa)
#
#
# Indices 1 2 3 4 5 6 
#
# 1 0.009024 -0.001182 -0.003333 0.000000 0.001628 0.000000
# 2 -0.001182 0.014397 -0.000026 0.000000 0.001072 0.000000
# 3 -0.003333 -0.000026 0.011427 0.000000 0.002945 0.000000
# 4 0.000000 0.000000 0.000000 0.030958 0.000000 -0.008531
# 5 0.001628 0.001072 0.002945 0.000000 0.021295 0.000000
# 6 0.000000 0.000000 0.000000 -0.008531 0.000000 0.049846
#
#
# Mechanical properties :
#
#
# Convention : Reuss Voigt Hill
#
# Bulk Modulus (GPa) = 38.81232 47.30049 43.05641
# Shear Modulus (GPa) = 32.33807 37.64384 34.99096
#
# Velocity S-wave (km/s) = 3.48146 3.75622 3.62145
# Velocity P-wave (km/s) = 5.54147 6.04491 5.79866
#
# Compressibility (1/GPa) = 0.02576501
#
# Stress axis : x y z
#
# Youngs Moduli (GPa) = 110.82044 69.45889 87.51447
#
# Poissons Ratio (x) = 0.08207 0.29170
# Poissons Ratio (y) = 0.13095 0.00230
# Poissons Ratio (z) = 0.36939 0.00183
#
# Static dielectric constant tensor:
#      x y z
#    x 5.024230 0.000000 -0.083860 
#    y 0.000000 4.097270 0.000000 
#    z -0.083860 0.000000 4.655670 
# 
# 
# High freq. dielectric constant tensor:
#      x y z
#    x 2.103960 0.000000 0.009090 
#    y 0.000000 2.039610 0.000000 
#    z 0.009090 0.000000 2.060970 
# 
# From -- ./inp_files/41113.got.cif
#   From: 2010.03.12/outbox.cif.g09.slc.cpg/sg5_21_cif.got.tgz:41113.got - 2010.03.31 09:47:26.
