data_PCOD8051480
_publ_section_title
;
Structure prediction by ZEFSAII (Michael W. Deem and Ramdas Pophale) SiO2 
 PCOD8051480
Probable space group: C 2
;
_chemical_formula_sum "Si O2"
_cell_formula_units_Z 22
_cell_length_a 27.607661
_cell_length_b 5.435004
_cell_length_c 10.559428
_cell_angle_alpha 90.000000
_cell_angle_beta 149.488026
_cell_angle_gamma 90.000000
_cell_volume 804.438402
_symmetry_space_group_name_H-M "C 2"
_symmetry_group_IT_number 5
_symmetry_cell_setting 'monoclinic'
loop_
_space_group_symop_operation_xyz
x,y,z
-x,y,-z
1/2+x,1/2+y,z
1/2-x,1/2+y,-z
loop_
_atom_site_type_symbol
_atom_site_label
_atom_site_fract_x
_atom_site_fract_y
_atom_site_fract_z
Si Si1 0.182284 0.157380 0.982118
Si Si2 0.681790 0.382210 0.210776
Si Si3 0.500000 0.821361 0.000000
Si Si4 0.172822 0.000594 0.458628
Si Si5 0.475820 0.200923 0.724764
Si Si6 0.129294 0.652917 0.757248
O O1 0.123282 0.409556 0.832405
O O2 0.119717 0.908421 0.814074
O O3 0.272032 0.154180 0.094280
O O4 0.212216 0.130509 0.199934
O O5 0.743879 0.160100 0.285147
O O6 0.714694 0.352756 0.431570
O O7 0.568409 0.368819 0.940661
O O8 0.595561 0.664804 0.208549
O O9 0.506116 0.973324 0.143205
O O10 0.119042 0.847301 0.445204
O O11 0.458331 0.124848 0.539366
#
# Coordination Sequence:
#
# PCOD8051480 Si02
#       6
#     4   4   2   4   4   4
#     4  10  25  48  77 110 145 208 260 325 391 474
#     4  12  26  47  77 116 157 203 271 323 410 489
#     4  12  22  48  74 108 162 206 252 332 414 464
#     4  12  27  47  76 119 157 209 260 334 411 486
#     4  12  26  49  74 115 158 207 260 338 402 479
#     4  10  25  47  79 104 151 205 261 326 394 459
#
# _framework density 27.348272999999999
#
# number of rings (size 3 to 8) (size 9 to 14) (size 15 to 20)
#    0.000    0.727    3.636    2.182   12.727    2.182 
#    0.000    1.818    0.000    0.000    0.000    0.000 
#    0.000    0.000    0.000    0.000    0.000    0.000 
#
# Total GULP energy -136385.504866 kJ/mol
# GULP energy per Si atom -12398.682261 kJ/mol
# Density = 2.728603 g / cm^3
# Si number density = 27.348273 Si / 1000 Ang^3
#
#
#
# Elastic Constant Matrix: (Units=GPa)
#
#
# Indices 1 2 3 4 5 6 
#
# 1 77.6727 13.8752 16.8436 0.0001 -17.7251 0.0000
# 2 13.8752 123.6790 31.3788 0.0002 -12.1049 0.0003
# 3 16.8436 31.3788 77.3180 0.0000 -18.7404 0.0000
# 4 0.0001 0.0002 0.0000 50.9661 0.0000 -14.3735
# 5 -17.7251 -12.1049 -18.7404 0.0000 63.0083 0.0000
# 6 0.0000 0.0003 0.0000 -14.3735 0.0000 36.8801
#
#
#
# Elastic Compliance Matrix: (Units=1/GPa)
#
#
# Indices 1 2 3 4 5 6 
#
# 1 0.014185 -0.000768 -0.001991 0.000000 0.003251 0.000000
# 2 -0.000768 0.009083 -0.003393 0.000000 0.000520 0.000000
# 3 -0.001991 -0.003393 0.015573 0.000000 0.003420 0.000000
# 4 0.000000 0.000000 0.000000 0.022044 0.000000 0.008591
# 5 0.003251 0.000520 0.003420 0.000000 0.017903 0.000000
# 6 0.000000 0.000000 0.000000 0.008591 0.000000 0.030463
#
#
# Mechanical properties :
#
#
# Convention : Reuss Voigt Hill
#
# Bulk Modulus (GPa) = 37.68141 44.76278 41.22209
# Shear Modulus (GPa) = 38.34323 44.60906 41.47614
#
# Velocity S-wave (km/s) = 3.74844 4.04313 3.89857
# Velocity P-wave (km/s) = 5.70462 6.18054 5.94734
#
# Compressibility (1/GPa) = 0.02653829
#
# Stress axis : x y z
#
# Youngs Moduli (GPa) = 70.49561 110.09142 64.21271
#
# Poissons Ratio (x) = 0.08457 0.12782
# Poissons Ratio (y) = 0.05416 0.21788
# Poissons Ratio (z) = 0.14032 0.37355
#
# Static dielectric constant tensor:
#      x y z
#    x 5.641900 0.000000 -0.052520 
#    y 0.000000 5.246730 0.000000 
#    z -0.052520 0.000000 4.901240 
# 
# 
# High freq. dielectric constant tensor:
#      x y z
#    x 2.121630 0.000000 -0.001990 
#    y 0.000000 2.101180 0.000000 
#    z -0.001990 0.000000 2.111270 
# 
# From -- ./inp_files/48247.got.cif
#   From: 2010.03.12/outbox.cif.g09.slc.cpg/sg5_25_cif.got.tgz:48247.got - 2010.03.31 09:47:26.
