data_PCOD8051018
_publ_section_title
;
Structure prediction by ZEFSAII (Michael W. Deem and Ramdas Pophale) SiO2 
 PCOD8051018
Probable space group: C 2
;
_chemical_formula_sum "Si O2"
_cell_formula_units_Z 32
_cell_length_a 23.915279
_cell_length_b 11.146336
_cell_length_c 6.021004
_cell_angle_alpha 90.000000
_cell_angle_beta 66.347071
_cell_angle_gamma 90.000000
_cell_volume 1470.172912
_symmetry_space_group_name_H-M "C 2"
_symmetry_group_IT_number 5
_symmetry_cell_setting 'monoclinic'
loop_
_space_group_symop_operation_xyz
x,y,z
-x,y,-z
1/2+x,1/2+y,z
1/2-x,1/2+y,-z
loop_
_atom_site_type_symbol
_atom_site_label
_atom_site_fract_x
_atom_site_fract_y
_atom_site_fract_z
Si Si1 0.969948 0.482040 0.296151
Si Si2 0.643392 0.325270 0.088339
Si Si3 0.797035 0.610407 0.202679
Si Si4 0.554957 0.248310 0.571498
Si Si5 0.248509 0.984258 0.887054
Si Si6 0.432109 0.466945 0.122449
Si Si7 0.822588 0.135595 0.341939
Si Si8 0.656863 0.897383 0.590560
O O1 0.955554 0.622190 0.292907
O O2 0.909541 0.401483 0.415875
O O3 0.000000 0.461617 0.500000
O O4 0.000000 0.447991 0.000000
O O5 0.616619 0.244513 0.327517
O O6 0.667300 0.236922 0.853702
O O7 0.701366 0.398294 0.093764
O O8 0.593695 0.419493 0.072277
O O9 0.726291 0.621891 0.383436
O O10 0.837093 0.518516 0.278818
O O11 0.796097 0.555817 0.959099
O O12 0.500000 0.283955 0.500000
O O13 0.561918 0.349793 0.740474
O O14 0.287948 0.895686 0.671294
O O15 0.208375 0.083357 0.826378
O O16 0.385044 0.563697 0.301126
O O17 0.500000 0.526037 0.000000
O O18 0.838291 0.275204 0.274639
#
# Coordination Sequence:
#
# PCOD8051018 Si02
#       8
#     4   4   4   4   4   4   4   4
#     4  11  27  46  71 105 145 186 243 295 353 420
#     4  11  22  39  65  99 127 174 223 283 353 414
#     4  11  23  40  68  95 131 172 225 287 351 414
#     4  11  22  37  66  97 131 172 225 289 349 411
#     4  10  23  41  65  98 131 173 224 291 353 422
#     4  11  22  41  65  91 137 172 225 283 346 423
#     4  10  24  43  63  98 132 176 230 284 348 431
#     4  11  24  43  67  95 135 180 230 289 356 425
#
# _framework density 21.766148999999999
#
# number of rings (size 3 to 8) (size 9 to 14) (size 15 to 20)
#    0.000    1.250    2.500    2.625    8.750    1.500 
#    0.000    0.625    0.000    0.000    0.000    0.000 
#    0.000    0.000    0.000    0.000    0.000    0.000 
#
# Total GULP energy -198235.753363 kJ/mol
# GULP energy per Si atom -12389.734585 kJ/mol
# Density = 2.171661 g / cm^3
# Si number density = 21.766149 Si / 1000 Ang^3
#
#
#
# Elastic Constant Matrix: (Units=GPa)
#
#
# Indices 1 2 3 4 5 6 
#
# 1 111.4150 28.4249 30.8852 0.0000 -17.2020 0.0000
# 2 28.4249 63.5478 1.4843 0.0000 -12.8245 0.0000
# 3 30.8852 1.4843 69.0270 0.0000 -4.0692 0.0000
# 4 0.0000 0.0000 0.0000 59.5758 0.0000 -2.0806
# 5 -17.2020 -12.8245 -4.0692 0.0000 28.4095 0.0000
# 6 0.0000 0.0000 0.0000 -2.0806 0.0000 35.1949
#
#
#
# Elastic Compliance Matrix: (Units=1/GPa)
#
#
# Indices 1 2 3 4 5 6 
#
# 1 0.012240 -0.004409 -0.005105 0.000000 0.004689 0.000000
# 2 -0.004409 0.018902 0.001928 0.000000 0.006139 0.000000
# 3 -0.005105 0.001928 0.016740 0.000000 0.000177 0.000000
# 4 0.000000 0.000000 0.000000 0.016820 0.000000 0.000994
# 5 0.004689 0.006139 0.000177 0.000000 0.040836 0.000000
# 6 0.000000 0.000000 0.000000 0.000994 0.000000 0.028472
#
#
# Mechanical properties :
#
#
# Convention : Reuss Voigt Hill
#
# Bulk Modulus (GPa) = 30.57160 40.61986 35.59573
# Shear Modulus (GPa) = 31.23332 36.84906 34.04119
#
# Velocity S-wave (km/s) = 3.79218 4.11901 3.95897
# Velocity P-wave (km/s) = 5.76630 6.42839 6.10632
#
# Compressibility (1/GPa) = 0.03271010
#
# Stress axis : x y z
#
# Youngs Moduli (GPa) = 81.70213 52.90357 59.73605
#
# Poissons Ratio (x) = 0.23326 0.30496
# Poissons Ratio (y) = 0.36024 -0.11519
# Poissons Ratio (z) = 0.41710 -0.10201
#
# Static dielectric constant tensor:
#      x y z
#    x 3.425720 0.000000 0.304430 
#    y 0.000000 3.811140 0.000000 
#    z 0.304430 0.000000 3.732460 
# 
# 
# High freq. dielectric constant tensor:
#      x y z
#    x 1.867100 0.000000 -0.011980 
#    y 0.000000 1.847930 0.000000 
#    z -0.011980 0.000000 1.845040 
# 
# From -- ./inp_files/10381.got.cif
#   From: 2010.03.12/outbox.cif.g09.slc.cpg/sg5_6_cif.got.tgz:10381.got - 2010.03.31 09:47:26.
