data_PCOD8051520
_publ_section_title
;
Structure prediction by ZEFSAII (Michael W. Deem and Ramdas Pophale) SiO2 
 PCOD8051520
Probable space group: C 2
;
_chemical_formula_sum "Si O2"
_cell_formula_units_Z 14
_cell_length_a 12.983259
_cell_length_b 5.012716
_cell_length_c 11.425667
_cell_angle_alpha 90.000000
_cell_angle_beta 45.929210
_cell_angle_gamma 90.000000
_cell_volume 534.261235
_symmetry_space_group_name_H-M "C 2"
_symmetry_group_IT_number 5
_symmetry_cell_setting 'monoclinic'
loop_
_space_group_symop_operation_xyz
x,y,z
-x,y,-z
1/2+x,1/2+y,z
1/2-x,1/2+y,-z
loop_
_atom_site_type_symbol
_atom_site_label
_atom_site_fract_x
_atom_site_fract_y
_atom_site_fract_z
Si Si1 0.477343 0.845950 0.266345
Si Si2 0.810167 0.467566 0.711470
Si Si3 0.500000 0.645073 0.000000
Si Si4 0.832253 0.972937 0.537900
O O1 0.445634 0.548404 0.345513
O O2 0.600651 0.003552 0.238825
O O3 0.326614 0.007374 0.393196
O O4 0.525571 0.828662 0.093466
O O5 0.641203 0.467668 0.871601
O O6 0.852289 0.184547 0.625918
O O7 0.857815 0.688689 0.578853
#
# Coordination Sequence:
#
# PCOD8051520 Si02
#       4
#     4   4   2   4
#     4  11  25  48  74 105 147 185 234 297 353 418
#     4  11  27  48  73 105 143 190 237 292 353 415
#     4  10  26  46  72 110 146 186 234 286 360 434
#     4  11  26  46  73 106 139 187 247 289 343 423
#
# _framework density 26.204408999999998
#
# number of rings (size 3 to 8) (size 9 to 14) (size 15 to 20)
#    0.000    1.143    0.000    4.286    0.000   25.143 
#    0.000    0.000    0.000    0.000    0.000    0.000 
#    0.000    0.000    0.000    0.000    0.000    0.000 
#
# Total GULP energy -86803.422063 kJ/mol
# GULP energy per Si atom -12400.488866 kJ/mol
# Density = 2.614477 g / cm^3
# Si number density = 26.204409 Si / 1000 Ang^3
#
#
#
# Elastic Constant Matrix: (Units=GPa)
#
#
# Indices 1 2 3 4 5 6 
#
# 1 218.1480 28.6780 43.2625 0.0006 20.0780 -0.0008
# 2 28.6780 64.2487 16.9833 0.0022 12.2563 -0.0015
# 3 43.2625 16.9833 148.1687 0.0010 22.9296 -0.0007
# 4 0.0006 0.0022 0.0010 15.5718 -0.0006 -8.1976
# 5 20.0780 12.2563 22.9296 -0.0006 50.0713 0.0006
# 6 -0.0008 -0.0015 -0.0007 -8.1976 0.0006 19.9804
#
#
#
# Elastic Compliance Matrix: (Units=1/GPa)
#
#
# Indices 1 2 3 4 5 6 
#
# 1 0.005144 -0.001787 -0.001125 0.000000 -0.001110 0.000000
# 2 -0.001787 0.017202 -0.000979 -0.000002 -0.003046 0.000000
# 3 -0.001125 -0.000979 0.007623 0.000000 -0.002800 0.000000
# 4 0.000000 -0.000002 0.000000 0.081910 0.000001 0.033606
# 5 -0.001110 -0.003046 -0.002800 0.000001 0.022444 -0.000001
# 6 0.000000 0.000000 0.000000 0.033606 -0.000001 0.063837
#
#
# Mechanical properties :
#
#
# Convention : Reuss Voigt Hill
#
# Bulk Modulus (GPa) = 45.07064 67.60145 56.33605
# Shear Modulus (GPa) = 23.43685 39.90080 31.66883
#
# Velocity S-wave (km/s) = 2.99387 3.90638 3.48016
# Velocity P-wave (km/s) = 5.40259 6.79707 6.13955
#
# Compressibility (1/GPa) = 0.02218739
#
# Stress axis : x y z
#
# Youngs Moduli (GPa) = 194.38913 58.13321 131.17905
#
# Poissons Ratio (x) = 0.10388 0.14763
# Poissons Ratio (y) = 0.34737 0.12837
# Poissons Ratio (z) = 0.21877 0.05689
#
# Static dielectric constant tensor:
#      x y z
#    x 5.343480 0.000000 0.022050 
#    y 0.000000 4.395160 0.000000 
#    z 0.022050 0.000000 4.777500 
# 
# 
# High freq. dielectric constant tensor:
#      x y z
#    x 2.090900 0.000000 0.008570 
#    y 0.000000 2.030630 0.000000 
#    z 0.008570 0.000000 2.039210 
# 
# From -- ./inp_files/40870.got.cif
#   From: 2010.03.12/outbox.cif.g09.slc.cpg/sg5_21_cif.got.tgz:40870.got - 2010.03.31 09:47:26.
