data_PCOD8051999
_publ_section_title
;
Structure prediction by ZEFSAII (Michael W. Deem and Ramdas Pophale) SiO2 
 PCOD8051999
Probable space group: C 2
;
_chemical_formula_sum "Si O2"
_cell_formula_units_Z 18
_cell_length_a 12.004235
_cell_length_b 5.638020
_cell_length_c 13.918834
_cell_angle_alpha 90.000000
_cell_angle_beta 48.813776
_cell_angle_gamma 90.000000
_cell_volume 708.945319
_symmetry_space_group_name_H-M "C 2"
_symmetry_group_IT_number 5
_symmetry_cell_setting 'monoclinic'
loop_
_space_group_symop_operation_xyz
x,y,z
-x,y,-z
1/2+x,1/2+y,z
1/2-x,1/2+y,-z
loop_
_atom_site_type_symbol
_atom_site_label
_atom_site_fract_x
_atom_site_fract_y
_atom_site_fract_z
Si Si1 0.733666 0.842500 0.882275
Si Si2 0.028512 0.564297 0.141912
Si Si3 0.497149 0.651456 0.302070
Si Si4 0.500000 0.785318 0.500000
Si Si5 0.303198 0.444355 0.254496
O O1 0.837639 0.733612 0.905560
O O2 0.681180 0.659286 0.829264
O O3 0.830859 0.065675 0.787778
O O4 0.583181 0.905407 0.022494
O O5 0.987563 0.411094 0.259513
O O6 0.883745 0.696910 0.177161
O O7 0.433238 0.640032 0.447861
O O8 0.392363 0.479350 0.302609
O O9 0.629509 0.936738 0.376205
#
# Coordination Sequence:
#
# PCOD8051999 Si02
#       5
#     4   4   4   2   4
#     4  11  24  52  79 112 161 200 257 333 397 467
#     4  11  24  52  76 118 155 198 267 321 402 465
#     4  11  27  48  76 112 151 210 257 323 394 464
#     4  12  28  52  74 106 162 204 264 316 380 474
#     4  11  29  48  78 118 151 213 257 325 394 465
#
# _framework density 25.38983
#
# number of rings (size 3 to 8) (size 9 to 14) (size 15 to 20)
#    0.000    0.889    4.444    0.000    6.222    1.778 
#    8.000    0.000    0.000    0.000    0.000    0.000 
#    0.000    0.000    0.000    0.000    0.000    0.000 
#
# Total GULP energy -111552.200862 kJ/mol
# GULP energy per Si atom -12394.688985 kJ/mol
# Density = 2.533204 g / cm^3
# Si number density = 25.389830 Si / 1000 Ang^3
#
#
#
# Elastic Constant Matrix: (Units=GPa)
#
#
# Indices 1 2 3 4 5 6 
#
# 1 159.4774 23.7460 47.8819 0.0000 1.7306 0.0001
# 2 23.7460 93.9145 47.9827 -0.0001 -13.1670 0.0008
# 3 47.8819 47.9827 158.9372 -0.0001 9.2401 0.0000
# 4 0.0000 -0.0001 -0.0001 29.9280 0.0000 -1.9574
# 5 1.7306 -13.1670 9.2401 0.0000 36.1795 -0.0001
# 6 0.0001 0.0008 0.0000 -1.9574 -0.0001 45.4735
#
#
#
# Elastic Compliance Matrix: (Units=1/GPa)
#
#
# Indices 1 2 3 4 5 6 
#
# 1 0.006947 -0.000848 -0.001827 0.000000 -0.000174 0.000000
# 2 -0.000848 0.013938 -0.004314 0.000000 0.006215 0.000000
# 3 -0.001827 -0.004314 0.008355 0.000000 -0.003616 0.000000
# 4 0.000000 0.000000 0.000000 0.033508 0.000000 0.001442
# 5 -0.000174 0.006215 -0.003616 0.000000 0.030834 0.000000
# 6 0.000000 0.000000 0.000000 0.001442 0.000000 0.022053
#
#
# Mechanical properties :
#
#
# Convention : Reuss Voigt Hill
#
# Bulk Modulus (GPa) = 65.51772 72.39447 68.95609
# Shear Modulus (GPa) = 37.12019 41.83076 39.47547
#
# Velocity S-wave (km/s) = 3.82777 4.06339 3.94734
# Velocity P-wave (km/s) = 6.73769 7.11266 6.92772
#
# Compressibility (1/GPa) = 0.01526305
#
# Stress axis : x y z
#
# Youngs Moduli (GPa) = 143.94529 71.74882 119.69335
#
# Poissons Ratio (x) = 0.06081 0.21867
# Poissons Ratio (y) = 0.12200 0.51631
# Poissons Ratio (z) = 0.26297 0.30950
#
# Static dielectric constant tensor:
#      x y z
#    x 5.037870 0.000000 0.156420 
#    y 0.000000 4.685150 0.000000 
#    z 0.156420 0.000000 4.479050 
# 
# 
# High freq. dielectric constant tensor:
#      x y z
#    x 2.061260 0.000000 0.007330 
#    y 0.000000 2.004340 0.000000 
#    z 0.007330 0.000000 2.002970 
# 
# From -- ./inp_files/53731.got.cif
#   From: 2010.03.12/outbox.cif.g09.slc.cpg/sg5_27_cif.got.tgz:53731.got - 2010.03.31 09:47:26.
