data_PCOD8051653
_publ_section_title
;
Structure prediction by ZEFSAII (Michael W. Deem and Ramdas Pophale) SiO2 
 PCOD8051653
Probable space group: C 2
;
_chemical_formula_sum "Si O2"
_cell_formula_units_Z 22
_cell_length_a 20.091033
_cell_length_b 8.646178
_cell_length_c 6.380688
_cell_angle_alpha 90.000000
_cell_angle_beta 123.676116
_cell_angle_gamma 90.000000
_cell_volume 922.388774
_symmetry_space_group_name_H-M "C 2"
_symmetry_group_IT_number 5
_symmetry_cell_setting 'monoclinic'
loop_
_space_group_symop_operation_xyz
x,y,z
-x,y,-z
1/2+x,1/2+y,z
1/2-x,1/2+y,-z
loop_
_atom_site_type_symbol
_atom_site_label
_atom_site_fract_x
_atom_site_fract_y
_atom_site_fract_z
Si Si1 0.371899 0.543360 0.035341
Si Si2 0.602119 0.984598 0.428907
Si Si3 0.000000 0.250975 0.500000
Si Si4 0.708328 0.029462 0.988318
Si Si5 0.863521 0.738531 0.800747
Si Si6 0.792199 0.293838 0.676693
O O1 0.439241 0.636500 0.277946
O O2 0.298094 0.520604 0.062547
O O3 0.406564 0.381062 0.997804
O O4 0.338325 0.630530 0.769784
O O5 0.532507 0.865489 0.373294
O O6 0.675154 0.890229 0.459640
O O7 0.575215 0.116765 0.209055
O O8 0.639615 0.064703 0.698620
O O9 0.688654 0.865499 0.061210
O O10 0.698479 0.160555 0.145654
O O11 0.803566 0.789670 0.510874
#
# Coordination Sequence:
#
# PCOD8051653 Si02
#       6
#     4   4   2   4   4   4
#     4  12  23  43  76 113 149 186 247 307 365 435
#     4  11  24  46  73 104 148 198 240 293 375 447
#     4  12  28  48  76 106 158 206 230 296 392 452
#     4  11  21  43  75 107 144 192 247 297 366 441
#     4  11  23  40  75 113 139 188 254 318 346 424
#     4  11  21  42  77 109 139 187 253 306 356 426
#
# _framework density 23.851113000000002
#
# number of rings (size 3 to 8) (size 9 to 14) (size 15 to 20)
#    0.000    0.727    5.455    3.273    0.000    0.727 
#    0.000    0.909    8.000    0.000    0.000    0.000 
#    0.000    0.000    0.000    0.000    0.000    0.000 
#
# Total GULP energy -136293.891040 kJ/mol
# GULP energy per Si atom -12390.353731 kJ/mol
# Density = 2.379683 g / cm^3
# Si number density = 23.851113 Si / 1000 Ang^3
#
#
#
# Elastic Constant Matrix: (Units=GPa)
#
#
# Indices 1 2 3 4 5 6 
#
# 1 64.8274 51.5103 42.9139 0.0000 3.9486 0.0000
# 2 51.5103 154.3923 53.4860 0.0000 -8.3983 0.0000
# 3 42.9139 53.4860 90.0108 0.0000 -9.6026 0.0000
# 4 0.0000 0.0000 0.0000 38.3052 0.0000 5.4115
# 5 3.9486 -8.3983 -9.6026 0.0000 31.1967 0.0000
# 6 0.0000 0.0000 0.0000 5.4115 0.0000 26.7397
#
#
#
# Elastic Compliance Matrix: (Units=1/GPa)
#
#
# Indices 1 2 3 4 5 6 
#
# 1 0.027700 -0.006060 -0.010498 0.000000 -0.008369 0.000000
# 2 -0.006060 0.009498 -0.002481 0.000000 0.002560 0.000000
# 3 -0.010498 -0.002481 0.018260 0.000000 0.006281 0.000000
# 4 0.000000 0.000000 0.000000 0.026874 0.000000 -0.005439
# 5 -0.008369 0.002560 0.006281 0.000000 0.035737 0.000000
# 6 0.000000 0.000000 0.000000 -0.005439 0.000000 0.038498
#
#
# Mechanical properties :
#
#
# Convention : Reuss Voigt Hill
#
# Bulk Modulus (GPa) = 57.54395 67.22787 62.38591
# Shear Modulus (GPa) = 24.94535 30.00300 27.47418
#
# Velocity S-wave (km/s) = 3.23751 3.55058 3.39765
# Velocity P-wave (km/s) = 6.17689 6.71241 6.45021
#
# Compressibility (1/GPa) = 0.01737802
#
# Stress axis : x y z
#
# Youngs Moduli (GPa) = 36.10122 105.28874 54.76591
#
# Poissons Ratio (x) = 0.63804 0.57494
# Poissons Ratio (y) = 0.21877 0.13590
# Poissons Ratio (z) = 0.37900 0.26127
#
# Static dielectric constant tensor:
#      x y z
#    x 4.039110 0.000000 -0.322470 
#    y 0.000000 4.743940 0.000000 
#    z -0.322470 0.000000 4.151240 
# 
# 
# High freq. dielectric constant tensor:
#      x y z
#    x 1.916450 0.000000 -0.018490 
#    y 0.000000 1.962400 0.000000 
#    z -0.018490 0.000000 1.951760 
# 
# From -- ./inp_files/9309.got.cif
#   From: 2010.03.12/outbox.cif.g09.slc.cpg/sg5_5_cif.got.tgz:9309.got - 2010.03.31 09:47:26.
