data_PCOD8051704
_publ_section_title
;
Structure prediction by ZEFSAII (Michael W. Deem and Ramdas Pophale) SiO2 
 PCOD8051704
Probable space group: C 2
;
_chemical_formula_sum "Si O2"
_cell_formula_units_Z 30
_cell_length_a 25.420414
_cell_length_b 9.231070
_cell_length_c 7.875828
_cell_angle_alpha 90.000000
_cell_angle_beta 51.708995
_cell_angle_gamma 90.000000
_cell_volume 1450.543115
_symmetry_space_group_name_H-M "C 2"
_symmetry_group_IT_number 5
_symmetry_cell_setting 'monoclinic'
loop_
_space_group_symop_operation_xyz
x,y,z
-x,y,-z
1/2+x,1/2+y,z
1/2-x,1/2+y,-z
loop_
_atom_site_type_symbol
_atom_site_label
_atom_site_fract_x
_atom_site_fract_y
_atom_site_fract_z
Si Si1 0.746074 0.567980 0.670521
Si Si2 0.893359 0.521543 0.457645
Si Si3 0.575804 0.219913 0.303429
Si Si4 0.893349 0.453958 0.968974
Si Si5 0.746070 0.407454 0.345224
Si Si6 0.424196 0.755572 0.606674
Si Si7 0.000000 0.487767 0.000000
Si Si8 0.834857 0.987732 0.830267
O O1 0.820017 0.499527 0.529263
O O2 0.710994 0.487690 0.578051
O O3 0.749974 0.737718 0.625221
O O4 0.709364 0.540858 0.923009
O O5 0.887250 0.634841 0.620578
O O6 0.922492 0.363081 0.449616
O O7 0.948297 0.585082 0.215238
O O8 0.500000 0.261554 0.500000
O O9 0.618281 0.363260 0.185469
O O10 0.577517 0.112423 0.139520
O O11 0.887262 0.340634 0.830453
O O12 0.948273 0.390445 0.991705
O O13 0.819995 0.475992 0.190674
O O14 0.709323 0.434547 0.239695
O O15 0.500000 0.713886 0.500000
O O16 0.381700 0.612258 0.658636
#
# Coordination Sequence:
#
# PCOD8051704 Si02
#       8
#     4   4   4   4   4   4   2   4
#     4  12  28  45  69 102 138 183 230 283 350 412
#     4  11  22  40  71  94 128 175 232 275 334 411
#     4  11  22  43  67  97 129 178 224 279 342 407
#     4  11  22  40  71  94 128 175 232 275 334 411
#     4  12  28  45  69 102 138 183 230 283 350 412
#     4  11  22  43  67  97 129 178 224 279 342 407
#     4  12  20  38  68 102 124 166 230 298 320 398
#     4  12  27  44  68  99 144 178 224 286 352 413
#
# _framework density 20.681909000000001
#
# number of rings (size 3 to 8) (size 9 to 14) (size 15 to 20)
#    0.000    0.533    6.667    2.800    3.733    0.000 
#    0.000    0.000    0.000    3.200    0.000    0.000 
#    0.000    0.000    0.000    0.000    0.000    0.000 
#
# Total GULP energy -185934.733467 kJ/mol
# GULP energy per Si atom -12395.648898 kJ/mol
# Density = 2.063484 g / cm^3
# Si number density = 20.681909 Si / 1000 Ang^3
#
#
#
# Elastic Constant Matrix: (Units=GPa)
#
#
# Indices 1 2 3 4 5 6 
#
# 1 103.1587 36.8129 38.2500 0.0000 -5.1975 0.0000
# 2 36.8129 122.4777 37.7982 0.0000 3.5325 0.0000
# 3 38.2500 37.7982 101.0283 0.0000 -1.8428 0.0000
# 4 0.0000 0.0000 0.0000 25.1156 0.0000 -4.0537
# 5 -5.1975 3.5325 -1.8428 0.0000 43.2108 0.0000
# 6 0.0000 0.0000 0.0000 -4.0537 0.0000 26.2929
#
#
#
# Elastic Compliance Matrix: (Units=1/GPa)
#
#
# Indices 1 2 3 4 5 6 
#
# 1 0.012000 -0.002551 -0.003562 0.000000 0.001500 0.000000
# 2 -0.002551 0.009808 -0.002726 0.000000 -0.001225 0.000000
# 3 -0.003562 -0.002726 0.012272 0.000000 0.000318 0.000000
# 4 0.000000 0.000000 0.000000 0.040832 0.000000 0.006295
# 5 0.001500 -0.001225 0.000318 0.000000 0.023436 0.000000
# 6 0.000000 0.000000 0.000000 0.006295 0.000000 0.039004
#
#
# Mechanical properties :
#
#
# Convention : Reuss Voigt Hill
#
# Bulk Modulus (GPa) = 60.96288 61.37634 61.16961
# Shear Modulus (GPa) = 31.15301 33.17744 32.16523
#
# Velocity S-wave (km/s) = 3.88531 4.00956 3.94793
# Velocity P-wave (km/s) = 7.04755 7.15376 7.10085
#
# Compressibility (1/GPa) = 0.01640342
#
# Stress axis : x y z
#
# Youngs Moduli (GPa) = 83.33103 101.95614 81.48380
#
# Poissons Ratio (x) = 0.26009 0.29021
# Poissons Ratio (y) = 0.21258 0.22213
# Poissons Ratio (z) = 0.29679 0.27794
#
# Static dielectric constant tensor:
#      x y z
#    x 3.858990 0.000000 0.107830 
#    y 0.000000 3.579640 0.000000 
#    z 0.107830 0.000000 3.890470 
# 
# 
# High freq. dielectric constant tensor:
#      x y z
#    x 1.822140 0.000000 0.000120 
#    y 0.000000 1.785900 0.000000 
#    z 0.000120 0.000000 1.822170 
# 
# From -- ./inp_files/31649.got.cif
#   From: 2010.03.12/outbox.cif.g09.slc.cpg/sg5_16_cif.got.tgz:31649.got - 2010.03.31 09:47:26.
