data_PCOD8051484
_publ_section_title
;
Structure prediction by ZEFSAII (Michael W. Deem and Ramdas Pophale) SiO2 
 PCOD8051484
Probable space group: C 2
;
_chemical_formula_sum "Si O2"
_cell_formula_units_Z 20
_cell_length_a 4.928830
_cell_length_b 18.485692
_cell_length_c 8.713833
_cell_angle_alpha 90.000000
_cell_angle_beta 93.978687
_cell_angle_gamma 90.000000
_cell_volume 792.028557
_symmetry_space_group_name_H-M "C 2"
_symmetry_group_IT_number 5
_symmetry_cell_setting 'monoclinic'
loop_
_space_group_symop_operation_xyz
x,y,z
-x,y,-z
1/2+x,1/2+y,z
1/2-x,1/2+y,-z
loop_
_atom_site_type_symbol
_atom_site_label
_atom_site_fract_x
_atom_site_fract_y
_atom_site_fract_z
Si Si1 0.095032 0.489810 0.831135
Si Si2 0.757006 0.402785 0.603293
Si Si3 0.470596 0.728850 0.319487
Si Si4 0.593583 0.344995 0.171607
Si Si5 0.466721 0.136427 0.320078
O O1 0.334662 0.430780 0.825038
O O2 0.167455 0.570112 0.778555
O O3 0.845397 0.468835 0.712036
O O4 0.000000 0.491472 0.000000
O O5 0.500000 0.432581 0.500000
O O6 0.648008 0.336338 0.709127
O O7 0.000000 0.376111 0.500000
O O8 0.500000 0.745549 0.500000
O O9 0.764939 0.703024 0.274071
O O10 0.364742 0.801502 0.229816
O O11 0.259391 0.663797 0.273592
O O12 0.500000 0.319384 0.000000
O O13 0.500000 0.116115 0.500000
#
# Coordination Sequence:
#
# PCOD8051484 Si02
#       5
#     4   4   4   4   4
#     4  12  27  48  78 118 161 205 262 330 400 468
#     4  12  27  45  75 116 153 205 260 322 389 460
#     4  10  26  49  77 111 150 205 264 322 381 467
#     4  12  28  49  78 118 164 205 260 330 400 472
#     4  10  25  48  77 110 152 200 264 323 383 465
#
# _framework density 25.251614
#
# number of rings (size 3 to 8) (size 9 to 14) (size 15 to 20)
#    0.000    0.800    4.000    0.600    8.400    2.400 
#    0.000    2.000    0.000    0.000    0.000    0.000 
#    0.000    0.000    0.000    0.000    0.000    0.000 
#
# Total GULP energy -123961.893345 kJ/mol
# GULP energy per Si atom -12396.189335 kJ/mol
# Density = 2.519414 g / cm^3
# Si number density = 25.251614 Si / 1000 Ang^3
#
#
#
# Elastic Constant Matrix: (Units=GPa)
#
#
# Indices 1 2 3 4 5 6 
#
# 1 132.8237 17.2624 64.6875 0.0000 10.1628 0.0000
# 2 17.2624 129.5483 41.9804 0.0000 6.2176 0.0000
# 3 64.6875 41.9804 174.0579 0.0000 3.4288 0.0000
# 4 0.0000 0.0000 0.0000 21.8554 0.0000 26.0835
# 5 10.1628 6.2176 3.4288 0.0000 41.1454 0.0000
# 6 0.0000 0.0000 0.0000 26.0835 0.0000 33.0141
#
#
#
# Elastic Compliance Matrix: (Units=1/GPa)
#
#
# Indices 1 2 3 4 5 6 
#
# 1 0.009358 -0.000039 -0.003429 0.000000 -0.002020 0.000000
# 2 -0.000039 0.008424 -0.001996 0.000000 -0.001097 0.000000
# 3 -0.003429 -0.001996 0.007490 0.000000 0.000524 0.000000
# 4 0.000000 0.000000 0.000000 0.801571 0.000000 -0.633299
# 5 -0.002020 -0.001097 0.000524 0.000000 0.024925 0.000000
# 6 0.000000 0.000000 0.000000 -0.633299 0.000000 0.530642
#
#
# Mechanical properties :
#
#
# Convention : Reuss Voigt Hill
#
# Bulk Modulus (GPa) = 69.70689 76.03229 72.86959
# Shear Modulus (GPa) = 3.57623 40.03631 21.80627
#
# Velocity S-wave (km/s) = 1.19135 3.98615 2.94183
# Velocity P-wave (km/s) = 5.43666 7.16666 6.36075
#
# Compressibility (1/GPa) = 0.01434578
#
# Stress axis : x y z
#
# Youngs Moduli (GPa) = 106.85763 118.71354 133.50304
#
# Poissons Ratio (x) = 0.00462 0.45775
# Poissons Ratio (y) = 0.00416 0.26642
# Poissons Ratio (z) = 0.36639 0.23690
#
# Static dielectric constant tensor:
#      x y z
#    x 4.700610 0.000000 0.014210 
#    y 0.000000 4.373270 0.000000 
#    z 0.014210 0.000000 4.764430 
# 
# 
# High freq. dielectric constant tensor:
#      x y z
#    x 2.022080 0.000000 0.013720 
#    y 0.000000 2.004220 0.000000 
#    z 0.013720 0.000000 2.007660 
# 
# From -- ./inp_files/12125.got.cif
#   From: 2010.03.12/outbox.cif.g09.slc.cpg/sg5_7_cif.got.tgz:12125.got - 2010.03.31 09:47:26.
