data_PCOD8051580
_publ_section_title
;
Structure prediction by ZEFSAII (Michael W. Deem and Ramdas Pophale) SiO2 
 PCOD8051580
Probable space group: C 2
;
_chemical_formula_sum "Si O2"
_cell_formula_units_Z 24
_cell_length_a 12.468755
_cell_length_b 13.667683
_cell_length_c 14.817088
_cell_angle_alpha 90.000000
_cell_angle_beta 26.276114
_cell_angle_gamma 90.000000
_cell_volume 1117.861083
_symmetry_space_group_name_H-M "C 2"
_symmetry_group_IT_number 5
_symmetry_cell_setting 'monoclinic'
loop_
_space_group_symop_operation_xyz
x,y,z
-x,y,-z
1/2+x,1/2+y,z
1/2-x,1/2+y,-z
loop_
_atom_site_type_symbol
_atom_site_label
_atom_site_fract_x
_atom_site_fract_y
_atom_site_fract_z
Si Si1 0.814711 0.863940 0.461058
Si Si2 0.000000 0.933474 0.000000
Si Si3 0.500000 0.145543 0.000000
Si Si4 0.595616 0.016464 0.198094
Si Si5 0.381624 0.546064 0.813850
Si Si6 0.229335 0.785049 0.701742
Si Si7 0.856126 0.659225 0.514403
O O1 0.830748 0.812596 0.353491
O O2 0.850595 0.777371 0.507825
O O3 0.563204 0.918784 0.669680
O O4 0.023947 0.944970 0.300041
O O5 0.205105 0.875541 0.789175
O O6 0.135590 0.000633 0.968328
O O7 0.241678 0.092772 0.181684
O O8 0.467106 0.207186 0.116743
O O9 0.490628 0.111284 0.327396
O O10 0.643877 0.032726 0.056197
O O11 0.585540 0.611856 0.711811
O O12 0.500000 0.743382 0.500000
O O13 0.000000 0.634197 0.500000
#
# Coordination Sequence:
#
# PCOD8051580 Si02
#       7
#     4   2   2   4   4   4   4
#     4  11  24  42  65  95 131 171 216 272 326 388
#     4  11  20  34  67 100 120 170 219 272 317 370
#     4  11  26  42  67  98 130 180 215 268 331 386
#     4  11  23  40  67  96 130 170 219 273 324 379
#     4  11  25  45  66  95 135 169 223 269 323 394
#     4  11  21  38  67  96 129 164 223 274 320 372
#     4  11  26  44  66  96 133 176 216 267 331 389
#
# _framework density 21.469571999999999
#
# number of rings (size 3 to 8) (size 9 to 14) (size 15 to 20)
#    0.000    1.000    3.333    3.000    4.667    4.000 
#    0.000    0.833    0.000    0.000    0.000    0.000 
#    0.000    0.000    0.000    0.000    0.000    0.000 
#
# Total GULP energy -148689.496924 kJ/mol
# GULP energy per Si atom -12390.791410 kJ/mol
# Density = 2.142071 g / cm^3
# Si number density = 21.469572 Si / 1000 Ang^3
#
#
#
# Elastic Constant Matrix: (Units=GPa)
#
#
# Indices 1 2 3 4 5 6 
#
# 1 75.6254 31.7333 28.2433 -0.1013 -14.0476 0.0983
# 2 31.7333 126.7313 44.9524 0.2335 -9.9363 -0.0074
# 3 28.2433 44.9524 119.1431 0.1203 1.1026 -0.0316
# 4 -0.1013 0.2335 0.1203 14.6903 -0.1120 -7.1733
# 5 -14.0476 -9.9363 1.1026 -0.1120 39.0143 0.0038
# 6 0.0983 -0.0074 -0.0316 -7.1733 0.0038 33.0524
#
#
#
# Elastic Compliance Matrix: (Units=1/GPa)
#
#
# Indices 1 2 3 4 5 6 
#
# 1 0.016424 -0.002652 -0.002942 0.000217 0.005322 -0.000006
# 2 -0.002652 0.009772 -0.003073 -0.000148 0.001620 -0.000025
# 3 -0.002942 -0.003073 0.010270 -0.000070 -0.002133 0.000003
# 4 0.000217 -0.000148 -0.000070 0.076148 0.000260 0.016526
# 5 0.005322 0.001620 -0.002133 0.000260 0.028022 0.000036
# 6 -0.000006 -0.000025 0.000003 0.016526 0.000036 0.033842
#
#
# Mechanical properties :
#
#
# Convention : Reuss Voigt Hill
#
# Bulk Modulus (GPa) = 52.27100 59.03977 55.65538
# Shear Modulus (GPa) = 25.22852 31.78944 28.50898
#
# Velocity S-wave (km/s) = 3.43167 3.85213 3.64796
# Velocity P-wave (km/s) = 6.33255 6.88071 6.61231
#
# Compressibility (1/GPa) = 0.01913107
#
# Stress axis : x y z
#
# Youngs Moduli (GPa) = 60.88834 102.33146 97.37068
#
# Poissons Ratio (x) = 0.27138 0.28648
# Poissons Ratio (y) = 0.16147 0.29924
# Poissons Ratio (z) = 0.17914 0.31449
#
# Static dielectric constant tensor:
#      x y z
#    x 3.803350 0.000100 0.208820 
#    y 0.000100 3.969140 -0.000610 
#    z 0.208820 -0.000610 4.344990 
# 
# 
# High freq. dielectric constant tensor:
#      x y z
#    x 1.834920 0.000000 0.004970 
#    y 0.000000 1.841810 0.000010 
#    z 0.004970 0.000010 1.855270 
# 
# From -- ./inp_files/53110.got.cif
#   From: 2010.03.12/outbox.cif.g09.slc.cpg/sg5_27_cif.got.tgz:53110.got - 2010.03.31 09:47:26.
