data_PCOD8051045
_publ_section_title
;
Structure prediction by ZEFSAII (Michael W. Deem and Ramdas Pophale) SiO2 
 PCOD8051045
Probable space group: C 2
;
_chemical_formula_sum "Si O2"
_cell_formula_units_Z 28
_cell_length_a 17.090920
_cell_length_b 16.496787
_cell_length_c 6.754560
_cell_angle_alpha 90.000000
_cell_angle_beta 133.265858
_cell_angle_gamma 90.000000
_cell_volume 1386.760282
_symmetry_space_group_name_H-M "C 2"
_symmetry_group_IT_number 5
_symmetry_cell_setting 'monoclinic'
loop_
_space_group_symop_operation_xyz
x,y,z
-x,y,-z
1/2+x,1/2+y,z
1/2-x,1/2+y,-z
loop_
_atom_site_type_symbol
_atom_site_label
_atom_site_fract_x
_atom_site_fract_y
_atom_site_fract_z
Si Si1 0.728785 0.436040 0.192496
Si Si2 0.236697 0.222887 0.363072
Si Si3 0.765125 0.513545 0.848606
Si Si4 0.874690 0.386234 0.778506
Si Si5 0.617388 0.160035 0.741931
Si Si6 0.622638 0.566047 0.258505
Si Si7 0.395239 0.281678 0.947932
O O1 0.835585 0.398707 0.482618
O O2 0.700032 0.521874 0.237507
O O3 0.630772 0.375489 0.062342
O O4 0.742287 0.449499 0.983020
O O5 0.185192 0.310163 0.219355
O O6 0.314758 0.188089 0.329816
O O7 0.141042 0.161128 0.251312
O O8 0.302734 0.232107 0.678146
O O9 0.848892 0.468771 0.850224
O O10 0.656346 0.537117 0.538954
O O11 0.815714 0.595586 0.017383
O O12 0.000000 0.368704 0.000000
O O13 0.500000 0.120005 0.500000
O O14 0.589846 0.240886 0.814805
O O15 0.500000 0.544152 0.000000
O O16 0.500000 0.276550 0.000000
#
# Coordination Sequence:
#
# PCOD8051045 Si02
#       7
#     4   4   4   4   4   4   4
#     4  10  23  42  63  93 132 162 215 265 316 387
#     4  11  22  43  62  93 132 163 222 264 309 389
#     4  11  24  42  64  97 131 160 219 268 314 393
#     4  10  24  41  66  93 126 175 210 262 324 380
#     4  12  24  38  68  97 128 170 208 269 325 375
#     4  11  23  42  67  91 128 175 210 264 326 377
#     4  11  22  41  64  93 127 168 211 262 322 379
#
# _framework density 20.190944999999999
#
# number of rings (size 3 to 8) (size 9 to 14) (size 15 to 20)
#    0.000    1.143    4.286    1.714    2.000    1.143 
#    2.571    0.000    0.000    0.000    0.000    0.000 
#    0.000    0.000    0.000    0.000    0.000    0.000 
#
# Total GULP energy -173583.067176 kJ/mol
# GULP energy per Si atom -12398.790513 kJ/mol
# Density = 2.014499 g / cm^3
# Si number density = 20.190945 Si / 1000 Ang^3
#
#
#
# Elastic Constant Matrix: (Units=GPa)
#
#
# Indices 1 2 3 4 5 6 
#
# 1 91.0711 26.7646 52.8214 0.0000 4.6799 0.0000
# 2 26.7646 93.9359 36.2478 0.0000 -0.5626 0.0000
# 3 52.8214 36.2478 122.2862 0.0000 7.1296 0.0000
# 4 0.0000 0.0000 0.0000 29.0494 0.0000 -7.1868
# 5 4.6799 -0.5626 7.1296 0.0000 41.4027 0.0000
# 6 0.0000 0.0000 0.0000 -7.1868 0.0000 35.1362
#
#
#
# Elastic Compliance Matrix: (Units=1/GPa)
#
#
# Indices 1 2 3 4 5 6 
#
# 1 0.014997 -0.002025 -0.005836 0.000000 -0.000718 0.000000
# 2 -0.002025 0.012319 -0.002828 0.000000 0.000883 0.000000
# 3 -0.005836 -0.002828 0.011617 0.000000 -0.001379 0.000000
# 4 0.000000 0.000000 0.000000 0.036259 0.000000 0.007416
# 5 -0.000718 0.000883 -0.001379 0.000000 0.024484 0.000000
# 6 0.000000 0.000000 0.000000 0.007416 0.000000 0.029978
#
#
# Mechanical properties :
#
#
# Convention : Reuss Voigt Hill
#
# Bulk Modulus (GPa) = 56.96522 59.88455 58.42488
# Shear Modulus (GPa) = 31.87048 33.88159 32.87603
#
# Velocity S-wave (km/s) = 3.97729 4.10086 4.03954
# Velocity P-wave (km/s) = 7.02611 7.22123 7.12434
#
# Compressibility (1/GPa) = 0.01755457
#
# Stress axis : x y z
#
# Youngs Moduli (GPa) = 66.67822 81.17333 86.07995
#
# Poissons Ratio (x) = 0.16442 0.50235
# Poissons Ratio (y) = 0.13506 0.24346
# Poissons Ratio (z) = 0.38913 0.22958
#
# Static dielectric constant tensor:
#      x y z
#    x 3.402890 0.000000 -0.068910 
#    y 0.000000 3.723910 0.000000 
#    z -0.068910 0.000000 3.864530 
# 
# 
# High freq. dielectric constant tensor:
#      x y z
#    x 1.774530 0.000000 -0.001860 
#    y 0.000000 1.804690 0.000000 
#    z -0.001860 0.000000 1.797040 
# 
# From -- ./inp_files/7255.got.cif
#   From: 2010.03.12/outbox.cif.g09.slc.cpg/sg5_4_cif.got.tgz:7255.got - 2010.03.31 09:47:26.
