data_PCOD8051544
_publ_section_title
;
Structure prediction by ZEFSAII (Michael W. Deem and Ramdas Pophale) SiO2 
 PCOD8051544
Probable space group: C 2
;
_chemical_formula_sum "Si O2"
_cell_formula_units_Z 16
_cell_length_a 16.012253
_cell_length_b 7.723018
_cell_length_c 5.267632
_cell_angle_alpha 90.000000
_cell_angle_beta 110.776289
_cell_angle_gamma 90.000000
_cell_volume 609.051166
_symmetry_space_group_name_H-M "C 2"
_symmetry_group_IT_number 5
_symmetry_cell_setting 'monoclinic'
loop_
_space_group_symop_operation_xyz
x,y,z
-x,y,-z
1/2+x,1/2+y,z
1/2-x,1/2+y,-z
loop_
_atom_site_type_symbol
_atom_site_label
_atom_site_fract_x
_atom_site_fract_y
_atom_site_fract_z
Si Si1 0.901727 0.144670 0.980871
Si Si2 0.901247 0.443240 0.333032
Si Si3 0.730865 0.417081 0.434977
Si Si4 0.148973 0.807782 0.860121
O O1 0.860589 0.308784 0.085095
O O2 0.913507 0.977371 0.179310
O O3 0.000000 0.197349 0.000000
O O4 0.830629 0.091937 0.679759
O O5 0.837047 0.454408 0.512407
O O6 0.909833 0.635854 0.227679
O O7 0.000000 0.375707 0.500000
O O8 0.713490 0.334908 0.688663
O O9 0.706514 0.282970 0.180467
#
# Coordination Sequence:
#
# PCOD8051544 Si02
#       4
#     4   4   4   4
#     4  10  27  47  79 106 154 195 258 301 383 440
#     4  12  28  44  78 116 151 195 259 310 381 444
#     4  10  26  51  77 103 157 197 251 304 386 442
#     4  10  27  48  78 106 153 198 251 311 376 447
#
# _framework density 26.270371000000001
#
# number of rings (size 3 to 8) (size 9 to 14) (size 15 to 20)
#    1.500    0.000    0.000    1.500   10.500    5.000 
#    0.000    0.000    0.000    0.000    0.000    0.000 
#    0.000    0.000    0.000    0.000    0.000    0.000 
#
# Total GULP energy -99132.278347 kJ/mol
# GULP energy per Si atom -12391.534793 kJ/mol
# Density = 2.621058 g / cm^3
# Si number density = 26.270371 Si / 1000 Ang^3
#
#
#
# Elastic Constant Matrix: (Units=GPa)
#
#
# Indices 1 2 3 4 5 6 
#
# 1 123.3935 -6.4977 16.6788 0.0000 2.2704 0.0000
# 2 -6.4977 143.6267 3.5272 0.0000 -19.9025 0.0000
# 3 16.6788 3.5272 95.6590 0.0000 -18.9842 0.0000
# 4 0.0000 0.0000 0.0000 0.6389 0.0000 -8.4568
# 5 2.2704 -19.9025 -18.9842 0.0000 46.4082 0.0000
# 6 0.0000 0.0000 0.0000 -8.4568 0.0000 33.3223
#
#
#
# Elastic Compliance Matrix: (Units=1/GPa)
#
#
# Indices 1 2 3 4 5 6 
#
# 1 0.008361 0.000285 -0.001660 0.000000 -0.000966 0.000000
# 2 0.000285 0.007425 0.000333 0.000000 0.003307 0.000000
# 3 -0.001660 0.000333 0.011727 0.000000 0.005021 0.000000
# 4 0.000000 0.000000 0.000000 -0.663445 0.000000 -0.168374
# 5 -0.000966 0.003307 0.005021 0.000000 0.025067 0.000000
# 6 0.000000 0.000000 0.000000 -0.168374 0.000000 -0.012721
#
#
# Mechanical properties :
#
#
# Convention : Reuss Voigt Hill
#
# Bulk Modulus (GPa) = 39.32372 43.34397 41.33384
# Shear Modulus (GPa) = -8.15630 39.33860 15.59115
#
# Velocity S-wave (km/s) = -1.76394 3.87389 2.43880
# Velocity P-wave (km/s) = 3.29434 6.04519 4.86811
#
# Compressibility (1/GPa) = 0.02542994
#
# Stress axis : x y z
#
# Youngs Moduli (GPa) = 119.59820 134.67242 85.26977
#
# Poissons Ratio (x) = -0.03841 0.14155
# Poissons Ratio (y) = -0.03411 -0.02837
# Poissons Ratio (z) = 0.19854 -0.04481
#
# Static dielectric constant tensor:
#      x y z
#    x 4.331950 0.000000 -0.156410 
#    y 0.000000 4.842810 0.000000 
#    z -0.156410 0.000000 4.403090 
# 
# 
# High freq. dielectric constant tensor:
#      x y z
#    x 2.050850 0.000000 -0.005830 
#    y 0.000000 2.063950 0.000000 
#    z -0.005830 0.000000 2.036010 
# 
# From -- ./inp_files/6380.got.cif
#   From: 2010.03.12/outbox.cif.g09.slc.cpg/sg5_4_cif.got.tgz:6380.got - 2010.03.31 09:47:26.
