data_PCOD8051756
_publ_section_title
;
Structure prediction by ZEFSAII (Michael W. Deem and Ramdas Pophale) SiO2 
 PCOD8051756
Probable space group: C 2
;
_chemical_formula_sum "Si O2"
_cell_formula_units_Z 32
_cell_length_a 29.346936
_cell_length_b 11.151309
_cell_length_c 9.096778
_cell_angle_alpha 90.000000
_cell_angle_beta 30.010866
_cell_angle_gamma 90.000000
_cell_volume 1488.979920
_symmetry_space_group_name_H-M "C 2"
_symmetry_group_IT_number 5
_symmetry_cell_setting 'monoclinic'
loop_
_space_group_symop_operation_xyz
x,y,z
-x,y,-z
1/2+x,1/2+y,z
1/2-x,1/2+y,-z
loop_
_atom_site_type_symbol
_atom_site_label
_atom_site_fract_x
_atom_site_fract_y
_atom_site_fract_z
Si Si1 0.908227 0.073560 0.690442
Si Si2 0.316700 0.758423 0.140369
Si Si3 0.616454 0.022389 0.046469
Si Si4 0.755702 0.390100 0.854232
Si Si5 0.083859 0.035968 0.660791
Si Si6 0.346084 0.280059 0.596259
Si Si7 0.418331 0.045182 0.518657
Si Si8 0.226912 0.185969 0.425725
O O1 0.926749 0.100137 0.467375
O O2 0.000000 0.013471 0.500000
O O3 0.890273 0.198383 0.825508
O O4 0.821646 0.988958 0.959506
O O5 0.213333 0.736132 0.375654
O O6 0.328092 0.704192 0.270417
O O7 0.329693 0.899453 0.110100
O O8 0.523219 0.003901 0.215781
O O9 0.605398 0.061359 0.245435
O O10 0.674236 0.130464 0.812985
O O11 0.852304 0.451068 0.622240
O O12 0.766510 0.312198 0.677243
O O13 0.726061 0.307371 0.072553
O O14 0.176166 0.086354 0.470988
O O15 0.091334 0.893506 0.617444
O O16 0.000000 0.068316 0.000000
O O17 0.412926 0.174359 0.457059
#
# Coordination Sequence:
#
# PCOD8051756 Si02
#       8
#     4   4   4   4   4   4   4   4
#     4  11  25  42  71 101 134 179 241 280 350 419
#     4  12  25  41  72 101 139 188 228 290 349 411
#     4  11  25  44  69 107 141 178 235 291 348 412
#     4  11  23  42  70  98 138 184 231 284 345 422
#     4  11  25  46  70 100 141 178 232 295 348 414
#     4  11  22  44  71  97 136 185 231 283 353 410
#     4  11  23  44  73 102 136 183 238 286 349 419
#     4  12  26  44  69  99 147 181 231 291 350 408
#
# _framework density 21.491223999999999
#
# number of rings (size 3 to 8) (size 9 to 14) (size 15 to 20)
#    0.000    0.750    5.000    2.250    3.500    5.000 
#    0.000    1.250    0.000    0.000    0.000    0.000 
#    0.000    0.000    0.000    0.000    0.000    0.000 
#
# Total GULP energy -198469.685916 kJ/mol
# GULP energy per Si atom -12404.355370 kJ/mol
# Density = 2.144231 g / cm^3
# Si number density = 21.491224 Si / 1000 Ang^3
#
#
#
# Elastic Constant Matrix: (Units=GPa)
#
#
# Indices 1 2 3 4 5 6 
#
# 1 130.1084 46.2340 54.4171 0.0000 -6.5089 0.0000
# 2 46.2340 95.6611 34.4518 0.0000 5.2206 0.0000
# 3 54.4171 34.4518 108.8503 0.0000 3.8124 0.0000
# 4 0.0000 0.0000 0.0000 18.1395 0.0000 0.3402
# 5 -6.5089 5.2206 3.8124 0.0000 47.0993 0.0000
# 6 0.0000 0.0000 0.0000 0.3402 0.0000 30.8913
#
#
#
# Elastic Compliance Matrix: (Units=1/GPa)
#
#
# Indices 1 2 3 4 5 6 
#
# 1 0.010998 -0.003873 -0.004353 0.000000 0.002302 0.000000
# 2 -0.003873 0.013211 -0.002181 0.000000 -0.001823 0.000000
# 3 -0.004353 -0.002181 0.012100 0.000000 -0.001339 0.000000
# 4 0.000000 0.000000 0.000000 0.055140 0.000000 -0.000607
# 5 0.002302 -0.001823 -0.001339 0.000000 0.021860 0.000000
# 6 0.000000 0.000000 0.000000 -0.000607 0.000000 0.032378
#
#
# Mechanical properties :
#
#
# Convention : Reuss Voigt Hill
#
# Bulk Modulus (GPa) = 64.53950 67.20284 65.87117
# Shear Modulus (GPa) = 29.12627 32.52714 30.82670
#
# Velocity S-wave (km/s) = 3.68538 3.89460 3.79144
# Velocity P-wave (km/s) = 6.94300 7.18065 7.06282
#
# Compressibility (1/GPa) = 0.01549439
#
# Stress axis : x y z
#
# Youngs Moduli (GPa) = 90.92557 75.69691 82.64308
#
# Poissons Ratio (x) = 0.29320 0.35973
# Poissons Ratio (y) = 0.35219 0.18024
# Poissons Ratio (z) = 0.39578 0.16509
#
# Static dielectric constant tensor:
#      x y z
#    x 4.032140 0.000000 -0.023420 
#    y 0.000000 3.769750 0.000000 
#    z -0.023420 0.000000 3.816300 
# 
# 
# High freq. dielectric constant tensor:
#      x y z
#    x 1.853950 0.000000 -0.006200 
#    y 0.000000 1.845410 0.000000 
#    z -0.006200 0.000000 1.835070 
# 
# From -- ./inp_files/32637.got.cif
#   From: 2010.03.12/outbox.cif.g09.slc.cpg/sg5_17_cif.got.tgz:32637.got - 2010.03.31 09:47:26.
