data_PCOD8051357
_publ_section_title
;
Structure prediction by ZEFSAII (Michael W. Deem and Ramdas Pophale) SiO2 
 PCOD8051357
Probable space group: C 2
;
_chemical_formula_sum "Si O2"
_cell_formula_units_Z 26
_cell_length_a 11.693786
_cell_length_b 8.177105
_cell_length_c 14.158751
_cell_angle_alpha 90.000000
_cell_angle_beta 123.283076
_cell_angle_gamma 90.000000
_cell_volume 1131.801045
_symmetry_space_group_name_H-M "C 2"
_symmetry_group_IT_number 5
_symmetry_cell_setting 'monoclinic'
loop_
_space_group_symop_operation_xyz
x,y,z
-x,y,-z
1/2+x,1/2+y,z
1/2-x,1/2+y,-z
loop_
_atom_site_type_symbol
_atom_site_label
_atom_site_fract_x
_atom_site_fract_y
_atom_site_fract_z
Si Si1 0.700640 0.029710 0.012033
Si Si2 0.443759 0.732179 0.077134
Si Si3 0.344205 0.497054 0.434207
Si Si4 0.343865 0.319037 0.237999
Si Si5 0.161919 0.813839 0.375568
Si Si6 0.175350 0.028769 0.214260
Si Si7 0.500000 0.295557 0.000000
O O1 0.829224 0.092764 0.011541
O O2 0.602696 0.182124 0.987575
O O3 0.754594 0.933554 0.128930
O O4 0.619578 0.899295 0.909395
O O5 0.564084 0.665955 0.198650
O O6 0.500000 0.776019 0.000000
O O7 0.500000 0.566236 0.500000
O O8 0.318727 0.392685 0.329575
O O9 0.235147 0.641378 0.394335
O O10 0.318703 0.374812 0.509518
O O11 0.501138 0.309293 0.277255
O O12 0.295113 0.129159 0.215816
O O13 0.232625 0.937451 0.332573
O O14 0.095090 0.904778 0.109780
#
# Coordination Sequence:
#
# PCOD8051357 Si02
#       7
#     4   4   4   4   4   4   2
#     4  12  24  44  68  93 142 182 228 279 330 388
#     4  12  24  43  62  95 134 182 224 274 324 392
#     4  10  24  46  70  97 131 166 222 278 339 405
#     4  11  23  44  67  99 132 173 221 283 327 398
#     4  11  24  44  69  98 131 175 217 277 343 398
#     4  12  23  42  65 100 140 173 230 269 327 397
#     4  12  24  42  68 100 138 192 228 272 332 396
#
# _framework density 22.972235999999999
#
# number of rings (size 3 to 8) (size 9 to 14) (size 15 to 20)
#    0.000    0.615    4.615    2.769    0.000    1.231 
#    2.769    0.000    0.000    0.000    0.000    0.000 
#    0.000    0.000    0.000    0.000    0.000    0.000 
#
# Total GULP energy -161147.976740 kJ/mol
# GULP energy per Si atom -12395.998211 kJ/mol
# Density = 2.291995 g / cm^3
# Si number density = 22.972236 Si / 1000 Ang^3
#
#
#
# Elastic Constant Matrix: (Units=GPa)
#
#
# Indices 1 2 3 4 5 6 
#
# 1 59.4365 31.4821 -3.1341 0.0000 14.2413 0.0000
# 2 31.4821 126.0561 37.6391 0.0000 10.2361 0.0000
# 3 -3.1341 37.6391 65.7489 0.0000 0.2572 0.0000
# 4 0.0000 0.0000 0.0000 37.2563 0.0000 5.2761
# 5 14.2413 10.2361 0.2572 0.0000 30.5947 0.0000
# 6 0.0000 0.0000 0.0000 5.2761 0.0000 42.1095
#
#
#
# Elastic Compliance Matrix: (Units=1/GPa)
#
#
# Indices 1 2 3 4 5 6 
#
# 1 0.022434 -0.006336 0.004729 0.000000 -0.008362 0.000000
# 2 -0.006336 0.011673 -0.006981 0.000000 -0.000897 0.000000
# 3 0.004729 -0.006981 0.019431 0.000000 -0.000029 0.000000
# 4 0.000000 0.000000 0.000000 0.027326 0.000000 -0.003424
# 5 -0.008362 -0.000897 -0.000029 0.000000 0.036879 0.000000
# 6 0.000000 0.000000 0.000000 -0.003424 0.000000 0.024177
#
#
# Mechanical properties :
#
#
# Convention : Reuss Voigt Hill
#
# Bulk Modulus (GPa) = 27.50073 42.57953 35.04013
# Shear Modulus (GPa) = 29.20325 34.34239 31.77282
#
# Velocity S-wave (km/s) = 3.56931 3.87066 3.72304
# Velocity P-wave (km/s) = 5.38367 6.20898 5.81100
#
# Compressibility (1/GPa) = 0.03636267
#
# Stress axis : x y z
#
# Youngs Moduli (GPa) = 44.57593 85.67120 51.46387
#
# Poissons Ratio (x) = 0.54279 -0.24338
# Poissons Ratio (y) = 0.28242 0.35925
# Poissons Ratio (z) = -0.21080 0.59804
#
# Static dielectric constant tensor:
#      x y z
#    x 4.427820 0.000000 0.205970 
#    y 0.000000 4.450430 0.000000 
#    z 0.205970 0.000000 4.113340 
# 
# 
# High freq. dielectric constant tensor:
#      x y z
#    x 1.923350 0.000000 0.004870 
#    y 0.000000 1.923480 0.000000 
#    z 0.004870 0.000000 1.892510 
# 
# From -- ./inp_files/52344.got.cif
#   From: 2010.03.12/outbox.cif.g09.slc.cpg/sg5_27_cif.got.tgz:52344.got - 2010.03.31 09:47:26.
