data_PCOD8051203
_publ_section_title
;
Structure prediction by ZEFSAII (Michael W. Deem and Ramdas Pophale) SiO2 
 PCOD8051203
Probable space group: C 2
;
_chemical_formula_sum "Si O2"
_cell_formula_units_Z 32
_cell_length_a 8.829237
_cell_length_b 5.165903
_cell_length_c 31.794404
_cell_angle_alpha 90.000000
_cell_angle_beta 100.334111
_cell_angle_gamma 90.000000
_cell_volume 1426.649863
_symmetry_space_group_name_H-M "C 2"
_symmetry_group_IT_number 5
_symmetry_cell_setting 'monoclinic'
loop_
_space_group_symop_operation_xyz
x,y,z
-x,y,-z
1/2+x,1/2+y,z
1/2-x,1/2+y,-z
loop_
_atom_site_type_symbol
_atom_site_label
_atom_site_fract_x
_atom_site_fract_y
_atom_site_fract_z
Si Si1 0.223544 0.670800 0.783126
Si Si2 0.579527 0.619768 0.352135
Si Si3 0.968853 0.689559 0.949491
Si Si4 0.266593 0.622299 0.384574
Si Si5 0.111738 0.189799 0.916610
Si Si6 0.034023 0.327413 0.821665
Si Si7 0.516376 0.514654 0.256275
Si Si8 0.322039 0.601079 0.484013
O O1 0.349844 0.878437 0.807377
O O2 0.319482 0.464530 0.758998
O O3 0.140464 0.580790 0.822508
O O4 0.089428 0.760977 0.743946
O O5 0.428601 0.555229 0.371415
O O6 0.654124 0.880728 0.373009
O O7 0.537174 0.660290 0.301310
O O8 0.695670 0.378972 0.360614
O O9 0.790918 0.636376 0.931842
O O10 0.069544 0.474824 0.930836
O O11 0.014750 0.974030 0.936222
O O12 0.000000 0.666314 0.000000
O O13 0.290045 0.677509 0.434656
O O14 0.070767 0.169782 0.865494
O O15 0.088540 0.176720 0.782011
O O16 0.500000 0.536477 0.500000
O O17 0.274199 0.844493 0.509995
#
# Coordination Sequence:
#
# PCOD8051203 Si02
#       8
#     4   4   4   4   4   4   4   4
#     4  10  24  38  65  88 134 161 234 262 334 381
#     4  12  27  44  71  96 145 178 232 275 341 394
#     4  12  26  47  71 103 137 179 224 277 348 420
#     4  12  26  46  69 106 136 179 232 283 334 416
#     4  12  26  43  74  99 140 176 226 282 342 396
#     4  10  26  40  67  96 132 171 229 275 331 394
#     4  10  26  41  67  92 133 182 221 275 330 394
#     4  12  25  45  74 102 137 178 223 284 353 406
#
# _framework density 22.43017
#
# number of rings (size 3 to 8) (size 9 to 14) (size 15 to 20)
#    0.750    0.000    0.000    6.750    8.750    0.000 
#    0.000    0.000    0.000    0.000    0.000    0.000 
#    0.000    0.000    0.000    0.000    0.000    0.000 
#
# Total GULP energy -198299.734495 kJ/mol
# GULP energy per Si atom -12393.733406 kJ/mol
# Density = 2.237912 g / cm^3
# Si number density = 22.430170 Si / 1000 Ang^3
#
#
#
# Elastic Constant Matrix: (Units=GPa)
#
#
# Indices 1 2 3 4 5 6 
#
# 1 112.2648 29.2275 47.6828 0.0000 -4.8313 0.0000
# 2 29.2275 77.7917 18.8615 0.0000 0.9346 0.0000
# 3 47.6828 18.8615 141.1543 0.0000 11.6335 0.0000
# 4 0.0000 0.0000 0.0000 31.0269 0.0000 -7.1183
# 5 -4.8313 0.9346 11.6335 0.0000 29.7324 0.0000
# 6 0.0000 0.0000 0.0000 -7.1183 0.0000 32.3808
#
#
#
# Elastic Compliance Matrix: (Units=1/GPa)
#
#
# Indices 1 2 3 4 5 6 
#
# 1 0.011539 -0.003475 -0.003717 0.000000 0.003439 0.000000
# 2 -0.003475 0.014334 -0.000680 0.000000 -0.000749 0.000000
# 3 -0.003717 -0.000680 0.008761 0.000000 -0.004011 0.000000
# 4 0.000000 0.000000 0.000000 0.033942 0.000000 0.007462
# 5 0.003439 -0.000749 -0.004011 0.000000 0.035785 0.000000
# 6 0.000000 0.000000 0.000000 0.007462 0.000000 0.032523
#
#
# Mechanical properties :
#
#
# Convention : Reuss Voigt Hill
#
# Bulk Modulus (GPa) = 52.93586 58.08383 55.50984
# Shear Modulus (GPa) = 31.46127 34.32395 32.89261
#
# Velocity S-wave (km/s) = 3.74924 3.91610 3.83357
# Velocity P-wave (km/s) = 6.51106 6.81171 6.66308
#
# Compressibility (1/GPa) = 0.01889079
#
# Stress axis : x y z
#
# Youngs Moduli (GPa) = 86.66240 69.76214 114.13673
#
# Poissons Ratio (x) = 0.24246 0.42424
# Poissons Ratio (y) = 0.30119 0.07757
# Poissons Ratio (z) = 0.32212 0.04741
#
# Static dielectric constant tensor:
#      x y z
#    x 4.180540 0.000000 0.021250 
#    y 0.000000 4.134180 0.000000 
#    z 0.021250 0.000000 4.100200 
# 
# 
# High freq. dielectric constant tensor:
#      x y z
#    x 1.907500 0.000000 -0.000360 
#    y 0.000000 1.874050 0.000000 
#    z -0.000360 0.000000 1.892960 
# 
# From -- ./inp_files/71501.got.cif
#   From: 2010.03.12/outbox.cif.g09.slc.cpg/sg5_36_cif.got.tgz:71501.got - 2010.03.31 09:47:26.
