data_PCOD8051293
_publ_section_title
;
Structure prediction by ZEFSAII (Michael W. Deem and Ramdas Pophale) SiO2 
 PCOD8051293
Probable space group: C 2
;
_chemical_formula_sum "Si O2"
_cell_formula_units_Z 28
_cell_length_a 8.729301
_cell_length_b 20.456535
_cell_length_c 8.565741
_cell_angle_alpha 90.000000
_cell_angle_beta 51.344183
_cell_angle_gamma 90.000000
_cell_volume 1194.479657
_symmetry_space_group_name_H-M "C 2"
_symmetry_group_IT_number 5
_symmetry_cell_setting 'monoclinic'
loop_
_space_group_symop_operation_xyz
x,y,z
-x,y,-z
1/2+x,1/2+y,z
1/2-x,1/2+y,-z
loop_
_atom_site_type_symbol
_atom_site_label
_atom_site_fract_x
_atom_site_fract_y
_atom_site_fract_z
Si Si1 0.102739 0.689800 0.228215
Si Si2 0.642297 0.611431 0.681878
Si Si3 0.000000 0.801720 0.500000
Si Si4 0.775873 0.774533 0.101578
Si Si5 0.000000 0.206526 0.500000
Si Si6 0.278408 0.881823 0.107707
Si Si7 0.792223 0.021987 0.911042
Si Si8 0.095465 0.565362 0.723429
O O1 0.231575 0.651803 0.274038
O O2 0.967702 0.750354 0.377933
O O3 0.951831 0.642754 0.236386
O O4 0.256028 0.715701 0.002644
O O5 0.575506 0.661459 0.591498
O O6 0.464919 0.568428 0.868149
O O7 0.783282 0.555772 0.513626
O O8 0.182368 0.846233 0.322533
O O9 0.659177 0.757573 0.331563
O O10 0.703721 0.839356 0.059677
O O11 0.000000 0.784981 0.000000
O O12 0.148481 0.946147 0.149790
O O13 0.500000 0.905133 0.000000
O O14 0.731589 0.050005 0.782348
O O15 0.608852 0.025398 0.148006
#
# Coordination Sequence:
#
# PCOD8051293 Si02
#       8
#     4   4   2   4   2   4   4   4
#     4  11  24  45  71 109 150 179 235 302 372 430
#     4  12  24  42  71 111 140 186 234 293 371 429
#     4  10  24  43  72  99 140 182 234 300 348 420
#     4  11  28  46  71 105 147 189 234 304 359 426
#     4  12  26  39  76 107 142 178 234 296 370 430
#     4  11  26  48  72 100 140 198 251 287 348 436
#     4  11  25  43  69 103 139 188 243 289 356 423
#     4  11  21  41  67  98 142 180 224 307 353 412
#
# _framework density 23.441168000000001
#
# number of rings (size 3 to 8) (size 9 to 14) (size 15 to 20)
#    0.000    0.857    4.286    1.714   12.000    1.714 
#    2.571    0.000    0.000    0.000    0.000    0.000 
#    0.000    0.000    0.000    0.000    0.000    0.000 
#
# Total GULP energy -173451.291591 kJ/mol
# GULP energy per Si atom -12389.377971 kJ/mol
# Density = 2.338781 g / cm^3
# Si number density = 23.441168 Si / 1000 Ang^3
#
#
#
# Elastic Constant Matrix: (Units=GPa)
#
#
# Indices 1 2 3 4 5 6 
#
# 1 57.8196 18.4757 20.1495 0.0000 -4.8130 0.0000
# 2 18.4757 123.3680 26.7897 0.0000 -2.8387 0.0000
# 3 20.1495 26.7897 112.1163 0.0000 -13.3562 0.0000
# 4 0.0000 0.0000 0.0000 24.6599 0.0000 -2.3678
# 5 -4.8130 -2.8387 -13.3562 0.0000 33.2554 0.0000
# 6 0.0000 0.0000 0.0000 -2.3678 0.0000 29.2669
#
#
#
# Elastic Compliance Matrix: (Units=1/GPa)
#
#
# Indices 1 2 3 4 5 6 
#
# 1 0.019079 -0.002233 -0.002719 0.000000 0.001479 0.000000
# 2 -0.002233 0.008811 -0.001736 0.000000 -0.000268 0.000000
# 3 -0.002719 -0.001736 0.010249 0.000000 0.003574 0.000000
# 4 0.000000 0.000000 0.000000 0.040869 0.000000 0.003306
# 5 0.001479 -0.000268 0.003574 0.000000 0.031697 0.000000
# 6 0.000000 0.000000 0.000000 0.003306 0.000000 0.034436
#
#
# Mechanical properties :
#
#
# Convention : Reuss Voigt Hill
#
# Bulk Modulus (GPa) = 40.38317 47.12595 43.75456
# Shear Modulus (GPa) = 29.98117 32.62905 31.30511
#
# Velocity S-wave (km/s) = 3.58019 3.73494 3.65838
# Velocity P-wave (km/s) = 5.86133 6.22473 6.04576
#
# Compressibility (1/GPa) = 0.02476279
#
# Stress axis : x y z
#
# Youngs Moduli (GPa) = 52.41267 113.49410 97.57388
#
# Poissons Ratio (x) = 0.25341 0.26533
# Poissons Ratio (y) = 0.11703 0.16939
# Poissons Ratio (z) = 0.14252 0.19703
#
# Static dielectric constant tensor:
#      x y z
#    x 4.107190 0.000000 0.052120 
#    y 0.000000 4.273300 0.000000 
#    z 0.052120 0.000000 4.961730 
# 
# 
# High freq. dielectric constant tensor:
#      x y z
#    x 1.913370 0.000000 -0.002760 
#    y 0.000000 1.918400 0.000000 
#    z -0.002760 0.000000 1.945210 
# 
# From -- ./inp_files/17050.got.cif
#   From: 2010.03.12/outbox.cif.g09.slc.cpg/sg5_9_cif.got.tgz:17050.got - 2010.03.31 09:47:26.
