data_PCOD8051875
_publ_section_title
;
Structure prediction by ZEFSAII (Michael W. Deem and Ramdas Pophale) SiO2 
 PCOD8051875
Probable space group: C 2
;
_chemical_formula_sum "Si O2"
_cell_formula_units_Z 24
_cell_length_a 18.030490
_cell_length_b 8.830310
_cell_length_c 15.067042
_cell_angle_alpha 90.000000
_cell_angle_beta 26.008743
_cell_angle_gamma 90.000000
_cell_volume 1051.935930
_symmetry_space_group_name_H-M "C 2"
_symmetry_group_IT_number 5
_symmetry_cell_setting 'monoclinic'
loop_
_space_group_symop_operation_xyz
x,y,z
-x,y,-z
1/2+x,1/2+y,z
1/2-x,1/2+y,-z
loop_
_atom_site_type_symbol
_atom_site_label
_atom_site_fract_x
_atom_site_fract_y
_atom_site_fract_z
Si Si1 0.170131 0.361590 0.530241
Si Si2 0.355251 0.215650 0.992345
Si Si3 0.689942 0.485348 0.272360
Si Si4 0.152990 0.277877 0.044966
Si Si5 0.688338 0.044540 0.670571
Si Si6 0.970628 0.020260 0.132760
O O1 0.197593 0.190647 0.469715
O O2 0.247598 0.404268 0.544411
O O3 0.269362 0.479340 0.358725
O O4 0.966275 0.379819 0.760341
O O5 0.495930 0.085863 0.854167
O O6 0.418412 0.373232 0.963339
O O7 0.305519 0.218664 0.942294
O O8 0.196538 0.153051 0.220651
O O9 0.500000 0.442236 0.500000
O O10 0.802200 0.485133 0.240000
O O11 0.761295 0.362253 0.128257
O O12 0.029609 0.149667 0.137099
O O13 0.000000 0.070725 0.000000
#
# Coordination Sequence:
#
# PCOD8051875 Si02
#       6
#     4   4   4   4   4   4
#     4  11  23  44  74  99 141 186 235 284 364 416
#     4  11  24  46  70 101 140 187 232 289 354 423
#     4  12  27  45  72 105 143 189 243 292 357 421
#     4  12  26  45  72 104 143 184 238 297 353 421
#     4  11  24  43  75 102 140 186 238 292 354 426
#     4  11  26  46  69 104 138 183 237 293 355 422
#
# _framework density 22.815078
#
# number of rings (size 3 to 8) (size 9 to 14) (size 15 to 20)
#    0.000    0.667    3.333    4.500    7.000    0.000 
#    0.000    0.833    0.000    0.000    0.000    0.000 
#    0.000    0.000    0.000    0.000    0.000    0.000 
#
# Total GULP energy -148693.658924 kJ/mol
# GULP energy per Si atom -12391.138244 kJ/mol
# Density = 2.276315 g / cm^3
# Si number density = 22.815078 Si / 1000 Ang^3
#
#
#
# Elastic Constant Matrix: (Units=GPa)
#
#
# Indices 1 2 3 4 5 6 
#
# 1 154.8996 17.0862 47.6109 0.0000 12.3014 0.0000
# 2 17.0862 42.3745 38.7051 0.0000 -3.2373 0.0000
# 3 47.6109 38.7051 155.2919 0.0000 3.3052 0.0000
# 4 0.0000 0.0000 0.0000 32.7637 0.0000 16.1535
# 5 12.3014 -3.2373 3.3052 0.0000 37.0307 0.0000
# 6 0.0000 0.0000 0.0000 16.1535 0.0000 36.0324
#
#
#
# Elastic Compliance Matrix: (Units=1/GPa)
#
#
# Indices 1 2 3 4 5 6 
#
# 1 0.007377 -0.001476 -0.001842 0.000000 -0.002415 0.000000
# 2 -0.001476 0.031273 -0.007425 0.000000 0.003887 0.000000
# 3 -0.001842 -0.007425 0.008872 0.000000 -0.000829 0.000000
# 4 0.000000 0.000000 0.000000 0.039182 0.000000 -0.017565
# 5 -0.002415 0.003887 -0.000829 0.000000 0.028221 0.000000
# 6 0.000000 0.000000 0.000000 -0.017565 0.000000 0.035627
#
#
# Mechanical properties :
#
#
# Convention : Reuss Voigt Hill
#
# Bulk Modulus (GPa) = 38.40848 62.15226 50.28037
# Shear Modulus (GPa) = 27.66758 37.77631 32.72195
#
# Velocity S-wave (km/s) = 3.48615 4.07352 3.79122
# Velocity P-wave (km/s) = 5.75113 7.03034 6.42266
#
# Compressibility (1/GPa) = 0.02603592
#
# Stress axis : x y z
#
# Youngs Moduli (GPa) = 135.56242 31.97649 112.70804
#
# Poissons Ratio (x) = 0.04720 0.20764
# Poissons Ratio (y) = 0.20011 0.83682
# Poissons Ratio (z) = 0.24975 0.23741
#
# Static dielectric constant tensor:
#      x y z
#    x 4.061040 0.000000 0.138370 
#    y 0.000000 4.168410 0.000000 
#    z 0.138370 0.000000 4.510680 
# 
# 
# High freq. dielectric constant tensor:
#      x y z
#    x 1.890610 0.000000 0.012360 
#    y 0.000000 1.898560 0.000000 
#    z 0.012360 0.000000 1.917090 
# 
# From -- ./inp_files/55702.got.cif
#   From: 2010.03.12/outbox.cif.g09.slc.cpg/sg5_28_cif.got.tgz:55702.got - 2010.03.31 09:47:26.
