data_PCOD8051202
_publ_section_title
;
Structure prediction by ZEFSAII (Michael W. Deem and Ramdas Pophale) SiO2 
 PCOD8051202
Probable space group: C 2
;
_chemical_formula_sum "Si O2"
_cell_formula_units_Z 22
_cell_length_a 5.207862
_cell_length_b 8.721900
_cell_length_c 23.936294
_cell_angle_alpha 90.000000
_cell_angle_beta 115.996566
_cell_angle_gamma 90.000000
_cell_volume 977.238036
_symmetry_space_group_name_H-M "C 2"
_symmetry_group_IT_number 5
_symmetry_cell_setting 'monoclinic'
loop_
_space_group_symop_operation_xyz
x,y,z
-x,y,-z
1/2+x,1/2+y,z
1/2-x,1/2+y,-z
loop_
_atom_site_type_symbol
_atom_site_label
_atom_site_fract_x
_atom_site_fract_y
_atom_site_fract_z
Si Si1 0.630700 0.407300 0.306424
Si Si2 0.000000 0.754038 0.500000
Si Si3 0.262421 0.576309 0.882405
Si Si4 0.355383 0.242220 0.928667
Si Si5 0.537399 0.072939 0.260269
Si Si6 0.038137 0.465983 0.442913
O O1 0.605776 0.223699 0.302830
O O2 0.323735 0.484625 0.270463
O O3 0.759372 0.457447 0.378102
O O4 0.836641 0.460382 0.276280
O O5 0.870157 0.642666 0.536206
O O6 0.206654 0.862684 0.557224
O O7 0.268752 0.392357 0.885826
O O8 0.580669 0.640539 0.916021
O O9 0.077475 0.640485 0.915512
O O10 0.121420 0.626309 0.810821
O O11 0.500000 0.295146 0.000000
O O12 0.000000 0.385033 0.500000
#
# Coordination Sequence:
#
# PCOD8051202 Si02
#       6
#     4   2   4   4   4   4
#     4  12  26  43  71  96 136 171 239 272 335 406
#     4  10  24  38  64  86 128 160 216 256 364 388
#     4  12  25  45  69  98 144 176 225 274 333 392
#     4  12  24  42  69 101 135 178 223 276 331 394
#     4  12  26  46  69 101 132 186 221 278 329 396
#     4  10  26  40  66  92 130 168 215 281 342 392
#
# _framework density 22.512426000000001
#
# number of rings (size 3 to 8) (size 9 to 14) (size 15 to 20)
#    0.545    0.000    0.000    8.182    6.364    0.000 
#    0.000    0.000    0.000    0.000    0.000    0.000 
#    0.000    0.000    0.000    0.000    0.000    0.000 
#
# Total GULP energy -136393.938642 kJ/mol
# GULP energy per Si atom -12399.448967 kJ/mol
# Density = 2.246119 g / cm^3
# Si number density = 22.512426 Si / 1000 Ang^3
#
#
#
# Elastic Constant Matrix: (Units=GPa)
#
#
# Indices 1 2 3 4 5 6 
#
# 1 126.4219 46.0718 31.0779 0.0000 15.4116 0.0000
# 2 46.0718 128.4356 -3.3170 0.0000 17.2631 0.0000
# 3 31.0779 -3.3170 115.8408 0.0000 1.0639 0.0000
# 4 0.0000 0.0000 0.0000 32.3749 0.0000 6.3533
# 5 15.4116 17.2631 1.0639 0.0000 35.1686 0.0000
# 6 0.0000 0.0000 0.0000 6.3533 0.0000 27.5985
#
#
#
# Elastic Compliance Matrix: (Units=1/GPa)
#
#
# Indices 1 2 3 4 5 6 
#
# 1 0.010148 -0.003347 -0.002793 0.000000 -0.002720 0.000000
# 2 -0.003347 0.009449 0.001198 0.000000 -0.003208 0.000000
# 3 -0.002793 0.001198 0.009413 0.000000 0.000351 0.000000
# 4 0.000000 0.000000 0.000000 0.032350 0.000000 -0.007447
# 5 -0.002720 -0.003208 0.000351 0.000000 0.031190 0.000000
# 6 0.000000 0.000000 0.000000 -0.007447 0.000000 0.037948
#
#
# Mechanical properties :
#
#
# Convention : Reuss Voigt Hill
#
# Bulk Modulus (GPa) = 52.28743 57.59597 54.94170
# Shear Modulus (GPa) = 34.06993 38.81944 36.44469
#
# Velocity S-wave (km/s) = 3.89444 4.15704 4.02788
# Velocity P-wave (km/s) = 6.59535 6.97717 6.78895
#
# Compressibility (1/GPa) = 0.01912506
#
# Stress axis : x y z
#
# Youngs Moduli (GPa) = 98.54229 105.83551 106.23586
#
# Poissons Ratio (x) = 0.35421 0.29675
# Poissons Ratio (y) = 0.32980 -0.12726
# Poissons Ratio (z) = 0.27526 -0.12678
#
# Static dielectric constant tensor:
#      x y z
#    x 4.145240 0.000000 0.093550 
#    y 0.000000 4.044760 0.000000 
#    z 0.093550 0.000000 4.063560 
# 
# 
# High freq. dielectric constant tensor:
#      x y z
#    x 1.888590 0.000000 0.006320 
#    y 0.000000 1.904860 0.000000 
#    z 0.006320 0.000000 1.896200 
# 
# From -- ./inp_files/63852.got.cif
#   From: 2010.03.12/outbox.cif.g09.slc.cpg/sg5_32_cif.got.tgz:63852.got - 2010.03.31 09:47:26.
