data_PCOD8051591
_publ_section_title
;
Structure prediction by ZEFSAII (Michael W. Deem and Ramdas Pophale) SiO2 
 PCOD8051591
Probable space group: C 2
;
_chemical_formula_sum "Si O2"
_cell_formula_units_Z 26
_cell_length_a 17.440501
_cell_length_b 7.949602
_cell_length_c 9.020583
_cell_angle_alpha 90.000000
_cell_angle_beta 104.107011
_cell_angle_gamma 90.000000
_cell_volume 1212.941976
_symmetry_space_group_name_H-M "C 2"
_symmetry_group_IT_number 5
_symmetry_cell_setting 'monoclinic'
loop_
_space_group_symop_operation_xyz
x,y,z
-x,y,-z
1/2+x,1/2+y,z
1/2-x,1/2+y,-z
loop_
_atom_site_type_symbol
_atom_site_label
_atom_site_fract_x
_atom_site_fract_y
_atom_site_fract_z
Si Si1 0.074354 0.215880 0.768462
Si Si2 0.413958 0.425725 0.451209
Si Si3 0.758639 0.365930 0.129538
Si Si4 0.616589 0.314831 0.251847
Si Si5 0.500000 0.511642 0.000000
Si Si6 0.336209 0.220377 0.169880
Si Si7 0.993439 0.546078 0.166787
O O1 0.164571 0.252139 0.850518
O O2 0.024719 0.389781 0.731683
O O3 0.072230 0.109935 0.615028
O O4 0.036903 0.116188 0.885299
O O5 0.500000 0.335829 0.500000
O O6 0.381855 0.436095 0.603619
O O7 0.352046 0.312676 0.332269
O O8 0.706871 0.292534 0.241430
O O9 0.781642 0.558461 0.171456
O O10 0.709687 0.353093 0.954262
O O11 0.569808 0.398616 0.095612
O O12 0.574308 0.134416 0.262475
O O13 0.420455 0.176724 0.135735
O O14 0.000000 0.481713 0.000000
#
# Coordination Sequence:
#
# PCOD8051591 Si02
#       7
#     4   4   4   4   2   4   4
#     4  11  25  42  67 103 140 175 242 290 349 409
#     4  12  24  44  65  97 141 188 226 292 345 408
#     4  11  24  42  69 102 137 179 231 298 340 423
#     4  12  23  41  72  94 138 189 230 284 356 412
#     4  12  20  40  68 100 126 190 236 272 340 424
#     4  11  22  42  68 100 137 177 227 286 356 402
#     4  11  20  40  70 103 128 176 239 284 332 415
#
# _framework density 21.435486999999998
#
# number of rings (size 3 to 8) (size 9 to 14) (size 15 to 20)
#    0.000    0.615    6.154    2.769    0.000    1.231 
#    5.538    0.000    0.000    0.000    0.000    0.000 
#    0.000    0.000    0.000    0.000    0.000    0.000 
#
# Total GULP energy -161201.262482 kJ/mol
# GULP energy per Si atom -12400.097114 kJ/mol
# Density = 2.138670 g / cm^3
# Si number density = 21.435487 Si / 1000 Ang^3
#
#
#
# Elastic Constant Matrix: (Units=GPa)
#
#
# Indices 1 2 3 4 5 6 
#
# 1 96.7440 30.5642 8.2582 0.0000 -1.3254 0.0000
# 2 30.5642 107.9410 26.8187 0.0000 9.5134 0.0000
# 3 8.2582 26.8187 86.0418 0.0000 6.6561 0.0000
# 4 0.0000 0.0000 0.0000 21.8750 0.0000 -1.0015
# 5 -1.3254 9.5134 6.6561 0.0000 28.6724 0.0000
# 6 0.0000 0.0000 0.0000 -1.0015 0.0000 33.3725
#
#
#
# Elastic Compliance Matrix: (Units=1/GPa)
#
#
# Indices 1 2 3 4 5 6 
#
# 1 0.011430 -0.003338 -0.000186 0.000000 0.001679 0.000000
# 2 -0.003338 0.011219 -0.002929 0.000000 -0.003197 0.000000
# 3 -0.000186 -0.002929 0.012707 0.000000 -0.001987 0.000000
# 4 0.000000 0.000000 0.000000 0.045777 0.000000 0.001374
# 5 0.001679 -0.003197 -0.001987 0.000000 0.036476 0.000000
# 6 0.000000 0.000000 0.000000 0.001374 0.000000 0.030006
#
#
# Mechanical properties :
#
#
# Convention : Reuss Voigt Hill
#
# Bulk Modulus (GPa) = 44.54680 46.88988 45.71834
# Shear Modulus (GPa) = 29.76087 31.78970 30.77529
#
# Velocity S-wave (km/s) = 3.73016 3.85520 3.79320
# Velocity P-wave (km/s) = 6.27527 6.46059 6.36860
#
# Compressibility (1/GPa) = 0.02244830
#
# Stress axis : x y z
#
# Youngs Moduli (GPa) = 87.48820 89.13388 78.69769
#
# Poissons Ratio (x) = 0.29754 0.01467
# Poissons Ratio (y) = 0.29205 0.23052
# Poissons Ratio (z) = 0.01631 0.26109
#
# Static dielectric constant tensor:
#      x y z
#    x 4.067210 0.000000 -0.017490 
#    y 0.000000 3.919460 0.000000 
#    z -0.017490 0.000000 3.780670 
# 
# 
# High freq. dielectric constant tensor:
#      x y z
#    x 1.848790 0.000000 -0.005010 
#    y 0.000000 1.838210 0.000000 
#    z -0.005010 0.000000 1.830930 
# 
# From -- ./inp_files/26798.got.cif
#   From: 2010.03.12/outbox.cif.g09.slc.cpg/sg5_14_cif.got.tgz:26798.got - 2010.03.31 09:47:26.
