data_PCOD8051511
_publ_section_title
;
Structure prediction by ZEFSAII (Michael W. Deem and Ramdas Pophale) SiO2 
 PCOD8051511
Probable space group: C 2
;
_chemical_formula_sum "Si O2"
_cell_formula_units_Z 30
_cell_length_a 23.785862
_cell_length_b 6.310720
_cell_length_c 27.249279
_cell_angle_alpha 90.000000
_cell_angle_beta 159.477401
_cell_angle_gamma 90.000000
_cell_volume 1433.956569
_symmetry_space_group_name_H-M "C 2"
_symmetry_group_IT_number 5
_symmetry_cell_setting 'monoclinic'
loop_
_space_group_symop_operation_xyz
x,y,z
-x,y,-z
1/2+x,1/2+y,z
1/2-x,1/2+y,-z
loop_
_atom_site_type_symbol
_atom_site_label
_atom_site_fract_x
_atom_site_fract_y
_atom_site_fract_z
Si Si1 0.281333 0.804680 0.570732
Si Si2 0.581504 0.942279 0.420772
Si Si3 0.791203 0.930297 0.889230
Si Si4 0.977578 0.549724 0.896260
Si Si5 0.000000 0.240421 0.000000
Si Si6 0.187359 0.686965 0.328046
Si Si7 0.539767 0.488169 0.811456
Si Si8 0.303527 0.749365 0.983342
O O1 0.320043 0.866700 0.546854
O O2 0.104235 0.700373 0.437171
O O3 0.389246 0.597632 0.664734
O O4 0.314157 0.983878 0.637484
O O5 0.659149 0.831560 0.532665
O O6 0.395397 0.873661 0.272047
O O7 0.854173 0.093443 0.899358
O O8 0.797789 0.039934 0.946782
O O9 0.906249 0.725513 0.984345
O O10 0.067299 0.417454 0.928166
O O11 0.924458 0.389322 0.895859
O O12 0.820710 0.634228 0.737554
O O13 0.022599 0.817303 0.200170
O O14 0.632543 0.364859 0.844266
O O15 0.653500 0.668624 0.927285
#
# Coordination Sequence:
#
# PCOD8051511 Si02
#       8
#     4   4   4   4   2   4   4   4
#     4  11  22  38  56  93 141 185 218 248 310 395
#     4  11  24  37  63  94 141 182 214 254 320 402
#     4  11  24  44  66  97 128 167 224 287 337 393
#     4  11  22  44  68  95 121 169 222 287 344 386
#     4  10  26  44  74  94 120 160 228 302 356 380
#     4  11  22  39  61  91 133 181 216 260 318 391
#     4  11  22  33  54  95 135 177 215 260 310 392
#     4  11  22  32  59  94 131 171 220 263 320 387
#
# _framework density 20.921135
#
# number of rings (size 3 to 8) (size 9 to 14) (size 15 to 20)
#    0.000    1.067    4.000    2.800    3.733    2.133 
#    0.000    0.000    0.000   12.000    0.000    0.000 
#    0.000    0.000    0.000    0.000    0.000    0.000 
#
# Total GULP energy -185856.703754 kJ/mol
# GULP energy per Si atom -12390.446917 kJ/mol
# Density = 2.087352 g / cm^3
# Si number density = 20.921135 Si / 1000 Ang^3
#
#
#
# Elastic Constant Matrix: (Units=GPa)
#
#
# Indices 1 2 3 4 5 6 
#
# 1 70.4981 31.7581 40.6523 0.0128 -8.8979 0.0054
# 2 31.7581 108.4757 42.5399 0.0379 -6.0469 0.0214
# 3 40.6523 42.5399 104.0135 0.0775 -12.0390 0.0099
# 4 0.0128 0.0379 0.0775 20.3361 -0.0075 -3.2003
# 5 -8.8979 -6.0469 -12.0390 -0.0075 21.9056 0.0073
# 6 0.0054 0.0214 0.0099 -3.2003 0.0073 15.1733
#
#
#
# Elastic Compliance Matrix: (Units=1/GPa)
#
#
# Indices 1 2 3 4 5 6 
#
# 1 0.019488 -0.003191 -0.005871 0.000018 0.003809 0.000003
# 2 -0.003191 0.011510 -0.003463 -0.000009 -0.000022 -0.000015
# 3 -0.005871 -0.003463 0.013817 -0.000043 0.004253 -0.000013
# 4 0.000018 -0.000009 -0.000043 0.050862 -0.000005 0.010728
# 5 0.003809 -0.000022 0.004253 -0.000005 0.049529 -0.000029
# 6 0.000003 -0.000015 -0.000013 0.010728 -0.000029 0.068168
#
#
# Mechanical properties :
#
#
# Convention : Reuss Voigt Hill
#
# Bulk Modulus (GPa) = 50.59154 56.98754 53.78954
# Shear Modulus (GPa) = 20.40723 22.68549 21.54636
#
# Velocity S-wave (km/s) = 3.12659 3.29649 3.21266
# Velocity P-wave (km/s) = 6.10480 6.46433 6.28713
#
# Compressibility (1/GPa) = 0.01976615
#
# Stress axis : x y z
#
# Youngs Moduli (GPa) = 51.31270 86.88449 72.37361
#
# Poissons Ratio (x) = 0.27724 0.42490
# Poissons Ratio (y) = 0.16373 0.25060
# Poissons Ratio (z) = 0.30125 0.30085
#
# Static dielectric constant tensor:
#      x y z
#    x 3.595020 -0.000050 -0.118620 
#    y -0.000050 4.299780 -0.000230 
#    z -0.118620 -0.000230 3.797610 
# 
# 
# High freq. dielectric constant tensor:
#      x y z
#    x 1.786040 0.000000 -0.018330 
#    y 0.000000 1.846170 0.000000 
#    z -0.018330 0.000000 1.814410 
# 
# From -- ./inp_files/72368.got.cif
#   From: 2010.03.12/outbox.cif.g09.slc.cpg/sg5_37_cif.got.tgz:72368.got - 2010.03.31 09:47:26.
