data_PCOD8051141
_publ_section_title
;
Structure prediction by ZEFSAII (Michael W. Deem and Ramdas Pophale) SiO2 
 PCOD8051141
Probable space group: C 2
;
_chemical_formula_sum "Si O2"
_cell_formula_units_Z 20
_cell_length_a 22.381955
_cell_length_b 5.307818
_cell_length_c 7.400774
_cell_angle_alpha 90.000000
_cell_angle_beta 114.187177
_cell_angle_gamma 90.000000
_cell_volume 802.023117
_symmetry_space_group_name_H-M "C 2"
_symmetry_group_IT_number 5
_symmetry_cell_setting 'monoclinic'
loop_
_space_group_symop_operation_xyz
x,y,z
-x,y,-z
1/2+x,1/2+y,z
1/2-x,1/2+y,-z
loop_
_atom_site_type_symbol
_atom_site_label
_atom_site_fract_x
_atom_site_fract_y
_atom_site_fract_z
Si Si1 0.387504 0.681800 0.232869
Si Si2 0.091370 0.759200 0.252871
Si Si3 0.814666 0.137594 0.797330
Si Si4 0.052062 0.667330 0.819362
Si Si5 0.313361 0.907747 0.448336
O O1 0.410214 0.394893 0.234470
O O2 0.354543 0.696717 0.389749
O O3 0.442790 0.903654 0.284873
O O4 0.332846 0.750027 0.014003
O O5 0.139840 0.646583 0.462456
O O6 0.021169 0.778708 0.262412
O O7 0.120018 0.022964 0.216525
O O8 0.081421 0.599855 0.054395
O O9 0.789675 0.340323 0.621264
O O10 0.752378 0.954993 0.748723
#
# Coordination Sequence:
#
# PCOD8051141 Si02
#       5
#     4   4   4   4   4
#     4  11  27  46  72 105 144 184 241 299 360 419
#     4  10  23  44  74  99 143 193 235 292 363 423
#     4  11  25  46  70 103 145 188 244 296 359 429
#     4  10  24  47  72 104 144 189 235 298 356 428
#     4  12  25  44  75 101 143 193 239 298 359 430
#
# _framework density 24.936934999999998
#
# number of rings (size 3 to 8) (size 9 to 14) (size 15 to 20)
#    0.000    1.200    4.000    0.000    5.600    7.200 
#    0.000    0.000    0.000    0.000    0.000    0.000 
#    0.000    0.000    0.000    0.000    0.000    0.000 
#
# Total GULP energy -123917.295536 kJ/mol
# GULP energy per Si atom -12391.729554 kJ/mol
# Density = 2.488018 g / cm^3
# Si number density = 24.936935 Si / 1000 Ang^3
#
#
#
# Elastic Constant Matrix: (Units=GPa)
#
#
# Indices 1 2 3 4 5 6 
#
# 1 94.8468 6.8757 28.1755 0.0000 3.7865 0.0000
# 2 6.8757 73.7479 2.9556 0.0000 -5.8351 0.0000
# 3 28.1755 2.9556 70.8843 0.0000 1.9100 0.0000
# 4 0.0000 0.0000 0.0000 32.1605 0.0000 -5.6326
# 5 3.7865 -5.8351 1.9100 0.0000 42.6706 0.0000
# 6 0.0000 0.0000 0.0000 -5.6326 0.0000 35.8405
#
#
#
# Elastic Compliance Matrix: (Units=1/GPa)
#
#
# Indices 1 2 3 4 5 6 
#
# 1 0.012060 -0.001014 -0.004725 0.000000 -0.000997 0.000000
# 2 -0.001014 0.013821 -0.000227 0.000000 0.001990 0.000000
# 3 -0.004725 -0.000227 0.016004 0.000000 -0.000328 0.000000
# 4 0.000000 0.000000 0.000000 0.031974 0.000000 0.005025
# 5 -0.000997 0.001990 -0.000328 0.000000 0.023811 0.000000
# 6 0.000000 0.000000 0.000000 0.005025 0.000000 0.028691
#
#
# Mechanical properties :
#
#
# Convention : Reuss Voigt Hill
#
# Bulk Modulus (GPa) = 33.38466 35.05474 34.21970
# Shear Modulus (GPa) = 33.72090 35.56581 34.64335
#
# Velocity S-wave (km/s) = 3.68128 3.78064 3.73129
# Velocity P-wave (km/s) = 5.61122 5.75722 5.68469
#
# Compressibility (1/GPa) = 0.02995388
#
# Stress axis : x y z
#
# Youngs Moduli (GPa) = 82.91776 72.35469 62.48537
#
# Poissons Ratio (x) = 0.07337 0.29522
# Poissons Ratio (y) = 0.08408 0.01418
# Poissons Ratio (z) = 0.39175 0.01641
#
# Static dielectric constant tensor:
#      x y z
#    x 4.461170 0.000000 0.022260 
#    y 0.000000 4.035840 0.000000 
#    z 0.022260 0.000000 4.726090 
# 
# 
# High freq. dielectric constant tensor:
#      x y z
#    x 1.993780 0.000000 -0.001360 
#    y 0.000000 1.971980 0.000000 
#    z -0.001360 0.000000 2.002260 
# 
# From -- ./inp_files/28371.got.cif
#   From: 2010.03.12/outbox.cif.g09.slc.cpg/sg5_15_cif.got.tgz:28371.got - 2010.03.31 09:47:26.
