data_PCOD8051660
_publ_section_title
;
Structure prediction by ZEFSAII (Michael W. Deem and Ramdas Pophale) SiO2 
 PCOD8051660
Probable space group: C 2
;
_chemical_formula_sum "Si O2"
_cell_formula_units_Z 32
_cell_length_a 14.827940
_cell_length_b 8.766540
_cell_length_c 10.548872
_cell_angle_alpha 90.000000
_cell_angle_beta 83.431639
_cell_angle_gamma 90.000000
_cell_volume 1362.244275
_symmetry_space_group_name_H-M "C 2"
_symmetry_group_IT_number 5
_symmetry_cell_setting 'monoclinic'
loop_
_space_group_symop_operation_xyz
x,y,z
-x,y,-z
1/2+x,1/2+y,z
1/2-x,1/2+y,-z
loop_
_atom_site_type_symbol
_atom_site_label
_atom_site_fract_x
_atom_site_fract_y
_atom_site_fract_z
Si Si1 0.681992 0.580930 0.688707
Si Si2 0.120335 0.408295 0.722930
Si Si3 0.430486 0.021363 0.807237
Si Si4 0.260336 0.860020 0.868277
Si Si5 0.695874 0.541171 0.241866
Si Si6 0.867427 0.580775 0.544577
Si Si7 0.908562 0.843763 0.932339
Si Si8 0.096706 0.917476 0.494072
O O1 0.617336 0.725257 0.719424
O O2 0.717804 0.511854 0.813127
O O3 0.763716 0.630159 0.583284
O O4 0.629065 0.442262 0.632099
O O5 0.207809 0.456227 0.791771
O O6 0.120587 0.475936 0.580582
O O7 0.031869 0.461273 0.815008
O O8 0.406114 0.994618 0.662450
O O9 0.429978 0.199765 0.840998
O O10 0.357715 0.924474 0.904277
O O11 0.285743 0.721377 0.770647
O O12 0.183706 0.802058 0.976981
O O13 0.619819 0.486404 0.152272
O O14 0.664042 0.500814 0.387286
O O15 0.919449 0.738705 0.521078
O O16 0.000000 0.882880 0.000000
O O17 0.000000 0.999833 0.500000
#
# Coordination Sequence:
#
# PCOD8051660 Si02
#       8
#     4   4   4   4   4   4   4   4
#     4  11  24  42  66 109 150 196 238 301 373 454
#     4  12  24  42  74 107 154 191 241 306 382 453
#     4  11  25  45  72 108 142 194 251 305 375 446
#     4  11  27  46  74 102 152 187 253 308 374 439
#     4  12  25  46  71 106 142 196 244 313 375 444
#     4  11  21  44  66 105 151 197 237 299 369 452
#     4  12  27  51  76 100 140 200 260 315 369 442
#     4  12  25  38  67 102 150 182 244 297 376 445
#
# _framework density 23.490649000000001
#
# number of rings (size 3 to 8) (size 9 to 14) (size 15 to 20)
#    0.000    0.500    3.750    4.125    7.000    0.000 
#    0.000    0.625    0.000    0.000    0.000    0.000 
#    0.000    0.000    0.000    0.000    0.000    0.000 
#
# Total GULP energy -198329.386940 kJ/mol
# GULP energy per Si atom -12395.586684 kJ/mol
# Density = 2.343718 g / cm^3
# Si number density = 23.490649 Si / 1000 Ang^3
#
#
#
# Elastic Constant Matrix: (Units=GPa)
#
#
# Indices 1 2 3 4 5 6 
#
# 1 166.7562 31.1255 31.8904 0.0000 -2.7891 0.0000
# 2 31.1255 116.3489 32.4319 0.0000 -15.7791 0.0000
# 3 31.8904 32.4319 52.4836 0.0000 8.1197 0.0000
# 4 0.0000 0.0000 0.0000 31.5651 0.0000 1.2284
# 5 -2.7891 -15.7791 8.1197 0.0000 30.9186 0.0000
# 6 0.0000 0.0000 0.0000 1.2284 0.0000 31.5025
#
#
#
# Elastic Compliance Matrix: (Units=1/GPa)
#
#
# Indices 1 2 3 4 5 6 
#
# 1 0.006900 -0.000507 -0.004102 0.000000 0.001441 0.000000
# 2 -0.000507 0.012273 -0.008587 0.000000 0.008473 0.000000
# 3 -0.004102 -0.008587 0.028756 0.000000 -0.012304 0.000000
# 4 0.000000 0.000000 0.000000 0.031729 0.000000 -0.001237
# 5 0.001441 0.008473 -0.012304 0.000000 0.040028 0.000000
# 6 0.000000 0.000000 0.000000 -0.001237 0.000000 0.031792
#
#
# Mechanical properties :
#
#
# Convention : Reuss Voigt Hill
#
# Bulk Modulus (GPa) = 46.43202 58.49827 52.46514
# Shear Modulus (GPa) = 27.01987 34.80664 30.91326
#
# Velocity S-wave (km/s) = 3.39520 3.85349 3.63158
# Velocity P-wave (km/s) = 5.93118 6.69000 6.32198
#
# Compressibility (1/GPa) = 0.02153686
#
# Stress axis : x y z
#
# Youngs Moduli (GPa) = 144.92695 81.47914 34.77540
#
# Poissons Ratio (x) = 0.04131 0.14266
# Poissons Ratio (y) = 0.07347 0.29861
# Poissons Ratio (z) = 0.59454 0.69965
#
# Static dielectric constant tensor:
#      x y z
#    x 4.820060 0.000000 -0.065790 
#    y 0.000000 3.982300 0.000000 
#    z -0.065790 0.000000 4.036620 
# 
# 
# High freq. dielectric constant tensor:
#      x y z
#    x 1.953130 0.000000 -0.002160 
#    y 0.000000 1.925000 0.000000 
#    z -0.002160 0.000000 1.912240 
# 
# From -- ./inp_files/41980.got.cif
#   From: 2010.03.12/outbox.cif.g09.slc.cpg/sg5_21_cif.got.tgz:41980.got - 2010.03.31 09:47:26.
