data_PCOD8051932
_publ_section_title
;
Structure prediction by ZEFSAII (Michael W. Deem and Ramdas Pophale) SiO2 
 PCOD8051932
Probable space group: C 2
;
_chemical_formula_sum "Si O2"
_cell_formula_units_Z 18
_cell_length_a 5.380493
_cell_length_b 22.263542
_cell_length_c 7.499600
_cell_angle_alpha 90.000000
_cell_angle_beta 113.829144
_cell_angle_gamma 90.000000
_cell_volume 821.786271
_symmetry_space_group_name_H-M "C 2"
_symmetry_group_IT_number 5
_symmetry_cell_setting 'monoclinic'
loop_
_space_group_symop_operation_xyz
x,y,z
-x,y,-z
1/2+x,1/2+y,z
1/2-x,1/2+y,-z
loop_
_atom_site_type_symbol
_atom_site_label
_atom_site_fract_x
_atom_site_fract_y
_atom_site_fract_z
Si Si1 0.829013 0.238430 0.788190
Si Si2 0.000000 0.297114 0.500000
Si Si3 0.000000 0.070120 0.500000
Si Si4 0.477305 0.354263 0.203419
Si Si5 0.000000 0.647025 0.500000
Si Si6 0.819731 0.986537 0.126186
O O1 0.739269 0.305751 0.802022
O O2 0.591502 0.190404 0.688395
O O3 0.000290 0.248729 0.659663
O O4 0.000000 0.211299 0.000000
O O5 0.251857 0.341911 0.603267
O O6 0.254581 0.108527 0.506781
O O7 0.090259 0.031766 0.695206
O O8 0.368939 0.420172 0.218842
O O9 0.500000 0.347444 0.000000
O O10 0.500000 0.995865 0.000000
O O11 0.000000 0.997534 0.000000
#
# Coordination Sequence:
#
# PCOD8051932 Si02
#       6
#     4   2   2   4   2   4
#     4  12  25  44  70 104 149 186 231 299 362 434
#     4  12  23  41  68 106 153 187 228 278 364 442
#     4  12  29  51  76 103 140 199 256 302 342 422
#     4  11  24  41  73 109 146 184 230 290 373 442
#     4  12  28  48  74 107 141 196 258 288 360 418
#     4  11  27  49  76 108 147 188 241 301 365 428
#
# _framework density 21.903503000000001
#
# number of rings (size 3 to 8) (size 9 to 14) (size 15 to 20)
#    0.000    0.444    4.444    2.667    6.222    3.556 
#    0.000    2.222    0.000    0.000    0.000    0.000 
#    0.000    0.000    0.000    0.000    0.000    0.000 
#
# Total GULP energy -111575.882585 kJ/mol
# GULP energy per Si atom -12397.320287 kJ/mol
# Density = 2.185365 g / cm^3
# Si number density = 21.903503 Si / 1000 Ang^3
#
#
#
# Elastic Constant Matrix: (Units=GPa)
#
#
# Indices 1 2 3 4 5 6 
#
# 1 141.6942 66.8032 60.1285 0.0000 9.1556 0.0000
# 2 66.8032 146.6858 78.3245 0.0000 -0.7163 0.0000
# 3 60.1285 78.3245 182.7900 0.0000 19.9466 0.0000
# 4 0.0000 0.0000 0.0000 -81.9523 0.0000 32.5402
# 5 9.1556 -0.7163 19.9466 0.0000 40.1102 0.0000
# 6 0.0000 0.0000 0.0000 32.5402 0.0000 34.7432
#
#
#
# Elastic Compliance Matrix: (Units=1/GPa)
#
#
# Indices 1 2 3 4 5 6 
#
# 1 0.009427 -0.003544 -0.001418 0.000000 -0.001510 0.000000
# 2 -0.003544 0.010352 -0.003573 0.000000 0.002770 0.000000
# 3 -0.001418 -0.003573 0.007867 0.000000 -0.003652 0.000000
# 4 0.000000 0.000000 0.000000 -0.008894 0.000000 0.008331
# 5 -0.001510 0.002770 -0.003652 0.000000 0.027142 0.000000
# 6 0.000000 0.000000 0.000000 0.008331 0.000000 0.020980
#
#
# Mechanical properties :
#
#
# Convention : Reuss Voigt Hill
#
# Bulk Modulus (GPa) = 94.53577 97.96471 96.25024
# Shear Modulus (GPa) = 57.16388 16.30781 36.73584
#
# Velocity S-wave (km/s) = 5.11417 2.73157 4.09977
# Velocity P-wave (km/s) = 8.83893 7.40076 8.15163
#
# Compressibility (1/GPa) = 0.01057801
#
# Stress axis : x y z
#
# Youngs Moduli (GPa) = 106.07350 96.59738 127.12129
#
# Poissons Ratio (x) = 0.34231 0.18025
# Poissons Ratio (y) = 0.37589 0.45414
# Poissons Ratio (z) = 0.15040 0.34509
#
# Static dielectric constant tensor:
#      x y z
#    x 4.079850 0.000000 0.122530 
#    y 0.000000 4.231290 0.000000 
#    z 0.122530 0.000000 4.284700 
# 
# 
# High freq. dielectric constant tensor:
#      x y z
#    x 1.868730 0.000000 0.000430 
#    y 0.000000 1.865790 0.000000 
#    z 0.000430 0.000000 1.885110 
# 
# From -- ./inp_files/12025.got.cif
#   From: 2010.03.12/outbox.cif.g09.slc.cpg/sg5_7_cif.got.tgz:12025.got - 2010.03.31 09:47:26.
