data_PCOD8051184
_publ_section_title
;
Structure prediction by ZEFSAII (Michael W. Deem and Ramdas Pophale) SiO2 
 PCOD8051184
Probable space group: C 2
;
_chemical_formula_sum "Si O2"
_cell_formula_units_Z 16
_cell_length_a 11.295820
_cell_length_b 9.150302
_cell_length_c 12.427719
_cell_angle_alpha 90.000000
_cell_angle_beta 145.264790
_cell_angle_gamma 90.000000
_cell_volume 731.906089
_symmetry_space_group_name_H-M "C 2"
_symmetry_group_IT_number 5
_symmetry_cell_setting 'monoclinic'
loop_
_space_group_symop_operation_xyz
x,y,z
-x,y,-z
1/2+x,1/2+y,z
1/2-x,1/2+y,-z
loop_
_atom_site_type_symbol
_atom_site_label
_atom_site_fract_x
_atom_site_fract_y
_atom_site_fract_z
Si Si1 0.203572 0.199780 0.209412
Si Si2 0.597259 0.157188 0.861316
Si Si3 0.313295 0.474869 0.427495
Si Si4 0.504535 0.477529 0.802138
O O1 0.378044 0.167818 0.249882
O O2 0.281050 0.312794 0.356130
O O3 0.147879 0.045540 0.222779
O O4 0.000000 0.267690 0.000000
O O5 0.579846 0.319008 0.898576
O O6 0.392213 0.069252 0.738521
O O7 0.794989 0.080740 0.064579
O O8 0.500000 0.551399 0.500000
O O9 0.377039 0.459225 0.598025
#
# Coordination Sequence:
#
# PCOD8051184 Si02
#       4
#     4   4   4   4
#     4  10  23  48  71  97 133 181 221 276 338 390
#     4  11  24  47  66 100 139 172 225 278 331 397
#     4  12  25  43  70 100 136 180 221 272 336 397
#     4  11  24  44  73  99 131 181 220 278 335 393
#
# _framework density 21.860727000000001
#
# number of rings (size 3 to 8) (size 9 to 14) (size 15 to 20)
#    0.000    1.000    2.500    4.500    0.000    0.000 
#   22.500    0.000    0.000    0.000    0.000    0.000 
#    0.000    0.000    0.000    0.000    0.000    0.000 
#
# Total GULP energy -99219.753300 kJ/mol
# GULP energy per Si atom -12402.469162 kJ/mol
# Density = 2.181097 g / cm^3
# Si number density = 21.860727 Si / 1000 Ang^3
#
#
#
# Elastic Constant Matrix: (Units=GPa)
#
#
# Indices 1 2 3 4 5 6 
#
# 1 132.2656 56.0752 17.5420 0.0000 12.3201 0.0000
# 2 56.0752 146.5928 33.9138 0.0000 -0.2426 0.0000
# 3 17.5420 33.9138 99.3270 0.0000 -10.6316 0.0000
# 4 0.0000 0.0000 0.0000 38.2737 0.0000 -3.4922
# 5 12.3201 -0.2426 -10.6316 0.0000 30.4740 0.0000
# 6 0.0000 0.0000 0.0000 -3.4922 0.0000 39.8127
#
#
#
# Elastic Compliance Matrix: (Units=1/GPa)
#
#
# Indices 1 2 3 4 5 6 
#
# 1 0.009536 -0.003432 -0.000964 0.000000 -0.004219 0.000000
# 2 -0.003432 0.008663 -0.002281 0.000000 0.000661 0.000000
# 3 -0.000964 -0.002281 0.011486 0.000000 0.004379 0.000000
# 4 0.000000 0.000000 0.000000 0.026338 0.000000 0.002310
# 5 -0.004219 0.000661 0.004379 0.000000 0.036053 0.000000
# 6 0.000000 0.000000 0.000000 0.002310 0.000000 0.025320
#
#
# Mechanical properties :
#
#
# Convention : Reuss Voigt Hill
#
# Bulk Modulus (GPa) = 61.23293 65.91639 63.57466
# Shear Modulus (GPa) = 36.71213 39.75572 38.23393
#
# Velocity S-wave (km/s) = 4.10245 4.26912 4.18662
# Velocity P-wave (km/s) = 7.10714 7.38369 7.24673
#
# Compressibility (1/GPa) = 0.01633108
#
# Stress axis : x y z
#
# Youngs Moduli (GPa) = 104.86193 115.43080 87.06593
#
# Poissons Ratio (x) = 0.39614 0.08394
# Poissons Ratio (y) = 0.35987 0.19861
# Poissons Ratio (z) = 0.10109 0.26331
#
# Static dielectric constant tensor:
#      x y z
#    x 4.183780 0.000000 0.141370 
#    y 0.000000 4.050280 0.000000 
#    z 0.141370 0.000000 4.043930 
# 
# 
# High freq. dielectric constant tensor:
#      x y z
#    x 1.865200 0.000000 0.008660 
#    y 0.000000 1.855690 0.000000 
#    z 0.008660 0.000000 1.871180 
# 
# From -- ./inp_files/18080.got.cif
#   From: 2010.03.12/outbox.cif.g09.slc.cpg/sg5_10_cif.got.tgz:18080.got - 2010.03.31 09:47:26.
