data_PCOD8051395
_publ_section_title
;
Structure prediction by ZEFSAII (Michael W. Deem and Ramdas Pophale) SiO2 
 PCOD8051395
Probable space group: C 2
;
_chemical_formula_sum "Si O2"
_cell_formula_units_Z 20
_cell_length_a 16.342574
_cell_length_b 7.983003
_cell_length_c 11.287586
_cell_angle_alpha 90.000000
_cell_angle_beta 35.052839
_cell_angle_gamma 90.000000
_cell_volume 845.766651
_symmetry_space_group_name_H-M "C 2"
_symmetry_group_IT_number 5
_symmetry_cell_setting 'monoclinic'
loop_
_space_group_symop_operation_xyz
x,y,z
-x,y,-z
1/2+x,1/2+y,z
1/2-x,1/2+y,-z
loop_
_atom_site_type_symbol
_atom_site_label
_atom_site_fract_x
_atom_site_fract_y
_atom_site_fract_z
Si Si1 0.714856 0.046980 0.162207
Si Si2 0.981828 0.046286 0.297060
Si Si3 0.500000 0.768188 0.500000
Si Si4 0.201887 0.047956 0.692744
Si Si5 0.522310 0.175750 0.719913
Si Si6 0.500000 0.258716 0.000000
O O1 0.769079 0.145157 0.216671
O O2 0.608690 0.160775 0.214118
O O3 0.633771 0.876995 0.297251
O O4 0.850714 0.010940 0.919168
O O5 0.947608 0.151188 0.454162
O O6 0.909693 0.135528 0.266210
O O7 0.910678 0.860657 0.384318
O O8 0.357404 0.035038 0.446681
O O9 0.140555 0.868639 0.807045
O O10 0.470043 0.149762 0.917744
#
# Coordination Sequence:
#
# PCOD8051395 Si02
#       6
#     4   4   2   4   4   2
#     4  12  23  47  72  99 141 181 222 290 341 397
#     4  11  27  43  72 103 135 185 230 274 346 408
#     4  12  28  44  72 102 142 180 228 288 332 410
#     4  11  22  43  73  96 139 180 221 284 341 394
#     4  11  24  42  76 101 136 183 229 277 347 403
#     4  10  24  48  70 102 140 180 220 296 330 412
#
# _framework density 23.647183999999999
#
# number of rings (size 3 to 8) (size 9 to 14) (size 15 to 20)
#    0.000    0.800    6.000    1.200    8.400    0.000 
#    0.000    0.000    8.800    0.000    0.000    0.000 
#    0.000    0.000    0.000    0.000    0.000    0.000 
#
# Total GULP energy -123887.021807 kJ/mol
# GULP energy per Si atom -12388.702181 kJ/mol
# Density = 2.359336 g / cm^3
# Si number density = 23.647184 Si / 1000 Ang^3
#
#
#
# Elastic Constant Matrix: (Units=GPa)
#
#
# Indices 1 2 3 4 5 6 
#
# 1 215.7611 44.8426 57.5812 0.0000 19.4098 0.0000
# 2 44.8426 52.5316 31.8491 0.0000 15.5888 0.0000
# 3 57.5812 31.8491 125.4299 0.0000 2.5075 0.0000
# 4 0.0000 0.0000 0.0000 32.1973 0.0000 5.8146
# 5 19.4098 15.5888 2.5075 0.0000 52.8156 0.0000
# 6 0.0000 0.0000 0.0000 5.8146 0.0000 32.0678
#
#
#
# Elastic Compliance Matrix: (Units=1/GPa)
#
#
# Indices 1 2 3 4 5 6 
#
# 1 0.005974 -0.003721 -0.001777 0.000000 -0.001013 0.000000
# 2 -0.003721 0.027189 -0.005067 0.000000 -0.006417 0.000000
# 3 -0.001777 -0.005067 0.010042 0.000000 0.001672 0.000000
# 4 0.000000 0.000000 0.000000 0.032110 0.000000 -0.005822
# 5 -0.001013 -0.006417 0.001672 0.000000 0.021121 0.000000
# 6 0.000000 0.000000 0.000000 -0.005822 0.000000 0.032240
#
#
# Mechanical properties :
#
#
# Convention : Reuss Voigt Hill
#
# Bulk Modulus (GPa) = 45.30409 73.58538 59.44473
# Shear Modulus (GPa) = 31.81402 40.71278 36.26340
#
# Velocity S-wave (km/s) = 3.67190 4.15381 3.92027
# Velocity P-wave (km/s) = 6.09730 7.36146 6.75900
#
# Compressibility (1/GPa) = 0.02207306
#
# Stress axis : x y z
#
# Youngs Moduli (GPa) = 167.40534 36.77936 99.58522
#
# Poissons Ratio (x) = 0.13687 0.17698
# Poissons Ratio (y) = 0.62296 0.50462
# Poissons Ratio (z) = 0.29750 0.18637
#
# Static dielectric constant tensor:
#      x y z
#    x 5.039900 0.000000 0.181330 
#    y 0.000000 3.798690 0.000000 
#    z 0.181330 0.000000 4.328070 
# 
# 
# High freq. dielectric constant tensor:
#      x y z
#    x 1.977810 0.000000 0.002270 
#    y 0.000000 1.876200 0.000000 
#    z 0.002270 0.000000 1.938640 
# 
# From -- ./inp_files/44292.got.cif
#   From: 2010.03.12/outbox.cif.g09.slc.cpg/sg5_23_cif.got.tgz:44292.got - 2010.03.31 09:47:26.
