data_PCOD8051542
_publ_section_title
;
Structure prediction by ZEFSAII (Michael W. Deem and Ramdas Pophale) SiO2 
 PCOD8051542
Probable space group: C 2
;
_chemical_formula_sum "Si O2"
_cell_formula_units_Z 26
_cell_length_a 14.255985
_cell_length_b 8.608546
_cell_length_c 14.659054
_cell_angle_alpha 90.000000
_cell_angle_beta 140.884310
_cell_angle_gamma 90.000000
_cell_volume 1134.972793
_symmetry_space_group_name_H-M "C 2"
_symmetry_group_IT_number 5
_symmetry_cell_setting 'monoclinic'
loop_
_space_group_symop_operation_xyz
x,y,z
-x,y,-z
1/2+x,1/2+y,z
1/2-x,1/2+y,-z
loop_
_atom_site_type_symbol
_atom_site_label
_atom_site_fract_x
_atom_site_fract_y
_atom_site_fract_z
Si Si1 0.497485 0.089700 0.297555
Si Si2 0.432456 0.217492 0.826223
Si Si3 0.494229 0.744691 0.232454
Si Si4 0.829152 0.046232 0.754401
Si Si5 0.699300 0.736174 0.089740
Si Si6 0.500000 0.059229 0.500000
Si Si7 0.268360 0.088017 0.862364
O O1 0.600821 0.185542 0.305762
O O2 0.326142 0.125878 0.142344
O O3 0.519179 0.151312 0.418377
O O4 0.534704 0.907735 0.310633
O O5 0.442259 0.402377 0.848897
O O6 0.297754 0.142841 0.781195
O O7 0.589672 0.141274 0.971348
O O8 0.639785 0.638846 0.318103
O O9 0.383677 0.661629 0.218022
O O10 0.425345 0.762462 0.079928
O O11 0.862017 0.158531 0.864315
O O12 0.660172 0.973260 0.629240
O O13 0.760287 0.905294 0.160784
#
# Coordination Sequence:
#
# PCOD8051542 Si02
#       7
#     4   4   4   4   4   2   4
#     4  11  23  43  70  95 142 176 231 269 344 389
#     4  11  23  39  62 102 134 185 208 280 328 422
#     4  12  22  38  65 104 133 179 212 286 340 414
#     4  11  26  41  70  94 139 182 235 268 344 382
#     4  11  21  39  62 102 139 175 209 286 335 421
#     4  10  26  50  66  96 128 192 238 290 302 410
#     4  11  23  36  62 102 145 166 215 259 359 410
#
# _framework density 22.908038999999999
#
# number of rings (size 3 to 8) (size 9 to 14) (size 15 to 20)
#    0.000    0.923    3.077    4.154    8.615    1.231 
#    0.000    0.000    0.000   16.615    0.000    0.000 
#    0.000    0.000    0.000    0.000    0.000    0.000 
#
# Total GULP energy -161046.192513 kJ/mol
# GULP energy per Si atom -12388.168655 kJ/mol
# Density = 2.285590 g / cm^3
# Si number density = 22.908039 Si / 1000 Ang^3
#
#
#
# Elastic Constant Matrix: (Units=GPa)
#
#
# Indices 1 2 3 4 5 6 
#
# 1 192.5986 45.6500 34.3367 0.0000 -25.1928 0.0000
# 2 45.6500 127.9977 7.7173 0.0000 -3.8639 0.0000
# 3 34.3367 7.7173 61.9921 0.0000 -14.2862 0.0000
# 4 0.0000 0.0000 0.0000 8.2689 0.0000 -0.4856
# 5 -25.1928 -3.8639 -14.2862 0.0000 43.1928 0.0000
# 6 0.0000 0.0000 0.0000 -0.4856 0.0000 40.7229
#
#
#
# Elastic Compliance Matrix: (Units=1/GPa)
#
#
# Indices 1 2 3 4 5 6 
#
# 1 0.006528 -0.002081 -0.002730 0.000000 0.002718 0.000000
# 2 -0.002081 0.008542 -0.000015 0.000000 -0.000455 0.000000
# 3 -0.002730 -0.000015 0.018704 0.000000 0.004593 0.000000
# 4 0.000000 0.000000 0.000000 0.121020 0.000000 0.001443
# 5 0.002718 -0.000455 0.004593 0.000000 0.026216 0.000000
# 6 0.000000 0.000000 0.000000 0.001443 0.000000 0.024573
#
#
# Mechanical properties :
#
#
# Convention : Reuss Voigt Hill
#
# Bulk Modulus (GPa) = 41.46003 61.99961 51.72982
# Shear Modulus (GPa) = 22.39373 38.09587 30.24480
#
# Velocity S-wave (km/s) = 3.12997 4.08240 3.63749
# Velocity P-wave (km/s) = 5.58570 7.02458 6.34605
#
# Compressibility (1/GPa) = 0.02411962
#
# Stress axis : x y z
#
# Youngs Moduli (GPa) = 153.19147 117.06623 53.46584
#
# Poissons Ratio (x) = 0.24367 0.14597
# Poissons Ratio (y) = 0.31886 0.00082
# Poissons Ratio (z) = 0.41823 0.00180
#
# Static dielectric constant tensor:
#      x y z
#    x 4.774270 0.000000 -0.148190 
#    y 0.000000 4.006980 0.000000 
#    z -0.148190 0.000000 3.824410 
# 
# 
# High freq. dielectric constant tensor:
#      x y z
#    x 1.944970 0.000000 -0.009700 
#    y 0.000000 1.889450 0.000000 
#    z -0.009700 0.000000 1.861970 
# 
# From -- ./inp_files/54318.got.cif
#   From: 2010.03.12/outbox.cif.g09.slc.cpg/sg5_28_cif.got.tgz:54318.got - 2010.03.31 09:47:26.
