data_PCOD8051772
_publ_section_title
;
Structure prediction by ZEFSAII (Michael W. Deem and Ramdas Pophale) SiO2 
 PCOD8051772
Probable space group: C 2
;
_chemical_formula_sum "Si O2"
_cell_formula_units_Z 28
_cell_length_a 10.926011
_cell_length_b 8.604468
_cell_length_c 14.046035
_cell_angle_alpha 90.000000
_cell_angle_beta 72.318184
_cell_angle_gamma 90.000000
_cell_volume 1258.119730
_symmetry_space_group_name_H-M "C 2"
_symmetry_group_IT_number 5
_symmetry_cell_setting 'monoclinic'
loop_
_space_group_symop_operation_xyz
x,y,z
-x,y,-z
1/2+x,1/2+y,z
1/2-x,1/2+y,-z
loop_
_atom_site_type_symbol
_atom_site_label
_atom_site_fract_x
_atom_site_fract_y
_atom_site_fract_z
Si Si1 0.434578 0.987080 0.261380
Si Si2 0.687364 0.294369 0.721781
Si Si3 0.108422 0.479076 0.038596
Si Si4 0.198072 0.238514 0.594797
Si Si5 0.594068 0.992407 0.395849
Si Si6 0.896119 0.933338 0.445501
Si Si7 0.640237 0.321735 0.948925
O O1 0.544330 0.990952 0.156500
O O2 0.375662 0.816643 0.298057
O O3 0.501153 0.058630 0.337805
O O4 0.319504 0.107445 0.267314
O O5 0.831246 0.340683 0.659361
O O6 0.586578 0.364297 0.666125
O O7 0.661312 0.359106 0.833067
O O8 0.245517 0.394135 0.014095
O O9 0.135280 0.641497 0.979417
O O10 0.000000 0.389184 0.000000
O O11 0.254287 0.373245 0.512613
O O12 0.314408 0.134931 0.603639
O O13 0.103874 0.121294 0.559959
O O14 0.500000 0.933614 0.500000
O O15 0.000000 0.877914 0.500000
O O16 0.500000 0.398310 0.000000
#
# Coordination Sequence:
#
# PCOD8051772 Si02
#       7
#     4   4   4   4   4   4   4
#     4  12  23  44  71 100 143 189 240 304 366 438
#     4  11  22  45  75 102 144 194 248 296 374 435
#     4  11  25  49  75 107 148 193 249 315 384 437
#     4  11  25  41  66 100 140 186 239 287 357 430
#     4  11  24  43  69 103 145 192 238 302 359 442
#     4  11  24  45  65 100 145 189 233 292 351 433
#     4  11  24  51  75 108 146 196 249 320 376 447
#
# _framework density 22.255433
#
# number of rings (size 3 to 8) (size 9 to 14) (size 15 to 20)
#    0.000    0.857    4.286    4.714    0.000    5.714 
#    7.714    0.714    0.000    0.000    0.000    0.000 
#    0.000    0.000    0.000    0.000    0.000    0.000 
#
# Total GULP energy -173460.894846 kJ/mol
# GULP energy per Si atom -12390.063918 kJ/mol
# Density = 2.220478 g / cm^3
# Si number density = 22.255433 Si / 1000 Ang^3
#
#
#
# Elastic Constant Matrix: (Units=GPa)
#
#
# Indices 1 2 3 4 5 6 
#
# 1 148.5588 38.1616 54.2075 0.0000 -0.0635 0.0000
# 2 38.1616 92.2952 25.0918 0.0000 -15.1397 0.0000
# 3 54.2075 25.0918 146.9639 0.0000 0.0924 0.0000
# 4 0.0000 0.0000 0.0000 34.4165 0.0000 -2.1176
# 5 -0.0635 -15.1397 0.0924 0.0000 37.7432 0.0000
# 6 0.0000 0.0000 0.0000 -2.1176 0.0000 43.3174
#
#
#
# Elastic Compliance Matrix: (Units=1/GPa)
#
#
# Indices 1 2 3 4 5 6 
#
# 1 0.008446 -0.002976 -0.002607 0.000000 -0.001173 0.000000
# 2 -0.002976 0.013255 -0.001169 0.000000 0.005315 0.000000
# 3 -0.002607 -0.001169 0.007966 0.000000 -0.000493 0.000000
# 4 0.000000 0.000000 0.000000 0.029144 0.000000 0.001425
# 5 -0.001173 0.005315 -0.000493 0.000000 0.028626 0.000000
# 6 0.000000 0.000000 0.000000 0.001425 0.000000 0.023155
#
#
# Mechanical properties :
#
#
# Convention : Reuss Voigt Hill
#
# Bulk Modulus (GPa) = 61.86524 69.19328 65.52926
# Shear Modulus (GPa) = 38.61526 41.11922 39.86724
#
# Velocity S-wave (km/s) = 4.16996 4.30304 4.23702
# Velocity P-wave (km/s) = 7.14444 7.47303 7.31058
#
# Compressibility (1/GPa) = 0.01616417
#
# Stress axis : x y z
#
# Youngs Moduli (GPa) = 118.39247 75.44385 125.53869
#
# Poissons Ratio (x) = 0.22454 0.32723
# Poissons Ratio (y) = 0.35236 0.14671
# Poissons Ratio (z) = 0.30860 0.08817
#
# Static dielectric constant tensor:
#      x y z
#    x 4.383850 0.000000 0.105990 
#    y 0.000000 3.941680 0.000000 
#    z 0.105990 0.000000 4.044240 
# 
# 
# High freq. dielectric constant tensor:
#      x y z
#    x 1.888800 0.000000 0.007830 
#    y 0.000000 1.865340 0.000000 
#    z 0.007830 0.000000 1.881190 
# 
# From -- ./inp_files/52228.got.cif
#   From: 2010.03.12/outbox.cif.g09.slc.cpg/sg5_27_cif.got.tgz:52228.got - 2010.03.31 09:47:26.
