data_PCOD8051936
_publ_section_title
;
Structure prediction by ZEFSAII (Michael W. Deem and Ramdas Pophale) SiO2 
 PCOD8051936
Probable space group: C 2
;
_chemical_formula_sum "Si O2"
_cell_formula_units_Z 24
_cell_length_a 9.353394
_cell_length_b 9.563063
_cell_length_c 13.211139
_cell_angle_alpha 90.000000
_cell_angle_beta 79.744628
_cell_angle_gamma 90.000000
_cell_volume 1162.819223
_symmetry_space_group_name_H-M "C 2"
_symmetry_group_IT_number 5
_symmetry_cell_setting 'monoclinic'
loop_
_space_group_symop_operation_xyz
x,y,z
-x,y,-z
1/2+x,1/2+y,z
1/2-x,1/2+y,-z
loop_
_atom_site_type_symbol
_atom_site_label
_atom_site_fract_x
_atom_site_fract_y
_atom_site_fract_z
Si Si1 0.884972 0.315270 0.426544
Si Si2 0.855556 0.944196 0.230353
Si Si3 0.354660 0.500435 0.454716
Si Si4 0.563435 0.651130 0.100216
Si Si5 0.463442 0.927751 0.788475
Si Si6 0.390119 0.159652 0.106897
O O1 0.765683 0.433904 0.458066
O O2 0.965153 0.344539 0.312153
O O3 0.000000 0.325694 0.500000
O O4 0.813399 0.160899 0.433314
O O5 0.866420 0.912482 0.348920
O O6 0.692133 0.991968 0.223506
O O7 0.892974 0.808599 0.160437
O O8 0.971386 0.065643 0.194024
O O9 0.500000 0.492619 0.500000
O O10 0.551214 0.816742 0.118816
O O11 0.733095 0.611259 0.085864
O O12 0.500000 0.609481 0.000000
O O13 0.564898 0.051737 0.812365
O O14 0.500000 0.161051 0.000000
#
# Coordination Sequence:
#
# PCOD8051936 Si02
#       6
#     4   4   4   4   4   4
#     4  11  24  44  66  95 136 172 214 270 323 388
#     4  11  24  44  66  99 132 171 216 272 324 384
#     4  11  26  42  67  99 134 172 219 265 327 384
#     4  11  24  44  67  92 132 170 216 275 329 383
#     4  11  24  42  69  96 130 174 219 264 327 388
#     4  11  26  43  67  99 130 170 222 270 324 392
#
# _framework density 20.639493999999999
#
# number of rings (size 3 to 8) (size 9 to 14) (size 15 to 20)
#    0.000    1.000    3.333    2.000    4.667    7.333 
#    0.000    0.000    0.000    0.000    0.000    0.000 
#    0.000    0.000    0.000    0.000    0.000    0.000 
#
# Total GULP energy -148858.070794 kJ/mol
# GULP energy per Si atom -12404.839233 kJ/mol
# Density = 2.059252 g / cm^3
# Si number density = 20.639494 Si / 1000 Ang^3
#
#
#
# Elastic Constant Matrix: (Units=GPa)
#
#
# Indices 1 2 3 4 5 6 
#
# 1 143.8056 58.2582 46.4947 0.0000 -4.4070 0.0000
# 2 58.2582 87.9220 23.8529 0.0000 -1.1516 0.0000
# 3 46.4947 23.8529 92.5681 0.0000 6.0721 0.0000
# 4 0.0000 0.0000 0.0000 34.3881 0.0000 1.5014
# 5 -4.4070 -1.1516 6.0721 0.0000 39.5926 0.0000
# 6 0.0000 0.0000 0.0000 1.5014 0.0000 40.3553
#
#
#
# Elastic Compliance Matrix: (Units=1/GPa)
#
#
# Indices 1 2 3 4 5 6 
#
# 1 0.010710 -0.006007 -0.003938 0.000000 0.001621 0.000000
# 2 -0.006007 0.015626 -0.001005 0.000000 -0.000060 0.000000
# 3 -0.003938 -0.001005 0.013203 0.000000 -0.002493 0.000000
# 4 0.000000 0.000000 0.000000 0.029127 0.000000 -0.001084
# 5 0.001621 -0.000060 -0.002493 0.000000 0.025818 0.000000
# 6 0.000000 0.000000 0.000000 -0.001084 0.000000 0.024820
#
#
# Mechanical properties :
#
#
# Convention : Reuss Voigt Hill
#
# Bulk Modulus (GPa) = 56.69311 64.61192 60.65251
# Shear Modulus (GPa) = 33.99371 35.91320 34.95345
#
# Velocity S-wave (km/s) = 4.06275 4.17588 4.11971
# Velocity P-wave (km/s) = 7.03817 7.39078 7.21663
#
# Compressibility (1/GPa) = 0.01763883
#
# Stress axis : x y z
#
# Youngs Moduli (GPa) = 93.36754 63.99541 75.73827
#
# Poissons Ratio (x) = 0.38443 0.29826
# Poissons Ratio (y) = 0.56088 0.07614
# Poissons Ratio (z) = 0.36768 0.06434
#
# Static dielectric constant tensor:
#      x y z
#    x 3.807200 0.000000 0.037970 
#    y 0.000000 3.762890 0.000000 
#    z 0.037970 0.000000 3.689950 
# 
# 
# High freq. dielectric constant tensor:
#      x y z
#    x 1.815940 0.000000 0.000850 
#    y 0.000000 1.809600 0.000000 
#    z 0.000850 0.000000 1.822880 
# 
# From -- ./inp_files/49866.got.cif
#   From: 2010.03.12/outbox.cif.g09.slc.cpg/sg5_25_cif.got.tgz:49866.got - 2010.03.31 09:47:26.
