data_PCOD8051758
_publ_section_title
;
Structure prediction by ZEFSAII (Michael W. Deem and Ramdas Pophale) SiO2 
 PCOD8051758
Probable space group: C 2
;
_chemical_formula_sum "Si O2"
_cell_formula_units_Z 28
_cell_length_a 12.631669
_cell_length_b 12.993159
_cell_length_c 9.067889
_cell_angle_alpha 90.000000
_cell_angle_beta 58.768399
_cell_angle_gamma 90.000000
_cell_volume 1272.587431
_symmetry_space_group_name_H-M "C 2"
_symmetry_group_IT_number 5
_symmetry_cell_setting 'monoclinic'
loop_
_space_group_symop_operation_xyz
x,y,z
-x,y,-z
1/2+x,1/2+y,z
1/2-x,1/2+y,-z
loop_
_atom_site_type_symbol
_atom_site_label
_atom_site_fract_x
_atom_site_fract_y
_atom_site_fract_z
Si Si1 0.701805 0.115230 0.620727
Si Si2 0.152242 0.177548 0.207538
Si Si3 0.106528 0.182203 0.735958
Si Si4 0.732001 0.571569 0.884583
Si Si5 0.375337 0.911795 0.176559
Si Si6 0.779882 0.861292 0.980630
Si Si7 0.958591 0.710019 0.692986
O O1 0.801243 0.166410 0.660007
O O2 0.770742 0.126575 0.415757
O O3 0.575472 0.178689 0.706968
O O4 0.665393 0.997393 0.676247
O O5 0.008105 0.149986 0.284583
O O6 0.235041 0.098798 0.055272
O O7 0.174316 0.291617 0.130103
O O8 0.115225 0.133212 0.894881
O O9 0.113459 0.305155 0.742309
O O10 0.865925 0.612658 0.730497
O O11 0.702741 0.449307 0.905625
O O12 0.267081 0.908128 0.137230
O O13 0.500000 0.941445 0.000000
O O14 0.900678 0.798188 0.840915
O O15 0.000000 0.750792 0.500000
#
# Coordination Sequence:
#
# PCOD8051758 Si02
#       7
#     4   4   4   4   4   4   4
#     4  12  27  44  70 109 139 176 233 299 342 401
#     4  11  24  45  68  99 141 181 237 283 334 418
#     4  12  24  48  70 101 144 185 228 290 346 413
#     4  11  22  44  72 102 135 182 235 279 340 421
#     4  12  22  45  77  98 135 197 232 265 352 429
#     4  11  23  42  73 103 133 186 236 279 347 413
#     4  11  23  47  72 100 146 179 226 292 353 412
#
# _framework density 22.002419
#
# number of rings (size 3 to 8) (size 9 to 14) (size 15 to 20)
#    0.000    0.571    7.143    1.714    2.000    1.143 
#   10.286    0.000    0.000    0.000    0.000    0.000 
#    0.000    0.000    0.000    0.000    0.000    0.000 
#
# Total GULP energy -173475.752965 kJ/mol
# GULP energy per Si atom -12391.125212 kJ/mol
# Density = 2.195234 g / cm^3
# Si number density = 22.002419 Si / 1000 Ang^3
#
#
#
# Elastic Constant Matrix: (Units=GPa)
#
#
# Indices 1 2 3 4 5 6 
#
# 1 135.8754 24.7841 1.3395 0.0000 -0.2979 0.0000
# 2 24.7841 119.3210 30.7964 0.0000 -9.9836 0.0000
# 3 1.3395 30.7964 60.8705 0.0000 -11.7707 0.0000
# 4 0.0000 0.0000 0.0000 40.0435 0.0000 1.8008
# 5 -0.2979 -9.9836 -11.7707 0.0000 32.1039 0.0000
# 6 0.0000 0.0000 0.0000 1.8008 0.0000 6.1565
#
#
#
# Elastic Compliance Matrix: (Units=1/GPa)
#
#
# Indices 1 2 3 4 5 6 
#
# 1 0.007679 -0.001794 0.000694 0.000000 -0.000232 0.000000
# 2 -0.001794 0.010109 -0.004812 0.000000 0.001363 0.000000
# 3 0.000694 -0.004812 0.019976 0.000000 0.005834 0.000000
# 4 0.000000 0.000000 0.000000 0.025306 0.000000 -0.007402
# 5 -0.000232 0.001363 0.005834 0.000000 0.033710 0.000000
# 6 0.000000 0.000000 0.000000 -0.007402 0.000000 0.164596
#
#
# Mechanical properties :
#
#
# Convention : Reuss Voigt Hill
#
# Bulk Modulus (GPa) = 38.54893 47.76743 43.15818
# Shear Modulus (GPa) = 17.74022 32.93724 25.33873
#
# Velocity S-wave (km/s) = 2.84260 3.87328 3.39725
# Velocity P-wave (km/s) = 5.32280 6.46222 5.91999
#
# Compressibility (1/GPa) = 0.02594106
#
# Stress axis : x y z
#
# Youngs Moduli (GPa) = 130.21715 98.92012 50.06129
#
# Poissons Ratio (x) = 0.17742 -0.03472
# Poissons Ratio (y) = 0.23355 0.24087
# Poissons Ratio (z) = -0.09031 0.47596
#
# Static dielectric constant tensor:
#      x y z
#    x 3.915300 0.000000 -0.044160 
#    y 0.000000 3.986440 0.000000 
#    z -0.044160 0.000000 3.938440 
# 
# 
# High freq. dielectric constant tensor:
#      x y z
#    x 1.875480 0.000000 -0.001200 
#    y 0.000000 1.856920 0.000000 
#    z -0.001200 0.000000 1.864250 
# 
# From -- ./inp_files/20539.got.cif
#   From: 2010.03.12/outbox.cif.g09.slc.cpg/sg5_11_cif.got.tgz:20539.got - 2010.03.31 09:47:26.
