data_PCOD8051560
_publ_section_title
;
Structure prediction by ZEFSAII (Michael W. Deem and Ramdas Pophale) SiO2 
 PCOD8051560
Probable space group: C 2
;
_chemical_formula_sum "Si O2"
_cell_formula_units_Z 18
_cell_length_a 5.089737
_cell_length_b 25.295573
_cell_length_c 5.579025
_cell_angle_alpha 90.000000
_cell_angle_beta 87.526811
_cell_angle_gamma 90.000000
_cell_volume 717.618204
_symmetry_space_group_name_H-M "C 2"
_symmetry_group_IT_number 5
_symmetry_cell_setting 'monoclinic'
loop_
_space_group_symop_operation_xyz
x,y,z
-x,y,-z
1/2+x,1/2+y,z
1/2-x,1/2+y,-z
loop_
_atom_site_type_symbol
_atom_site_label
_atom_site_fract_x
_atom_site_fract_y
_atom_site_fract_z
Si Si1 0.238110 0.798900 0.650588
Si Si2 0.262162 0.910425 0.851272
Si Si3 0.000000 0.483853 0.500000
Si Si4 0.500000 0.212887 0.000000
Si Si5 0.127872 0.045712 0.240133
Si Si6 0.500000 0.646519 0.000000
O O1 0.500000 0.781245 0.500000
O O2 0.307262 0.847688 0.817515
O O3 0.131561 0.747682 0.789536
O O4 0.000000 0.820689 0.500000
O O5 0.269975 0.944156 0.603958
O O6 0.500000 0.931727 0.000000
O O7 0.000000 0.923043 0.000000
O O8 0.918168 0.521760 0.276415
O O9 0.254392 0.179678 0.900551
O O10 0.114612 0.109422 0.210468
O O11 0.000000 0.029643 0.500000
O O12 0.000000 0.020229 0.000000
#
# Coordination Sequence:
#
# PCOD8051560 Si02
#       6
#     4   4   2   2   4   2
#     4  12  26  47  79 117 165 214 273 338 413 509
#     4  12  29  48  78 116 169 221 274 338 417 510
#     4  12  30  48  84 118 174 220 284 342 436 496
#     4  12  26  50  84 117 163 216 270 348 434 488
#     4  10  28  51  83 118 171 216 296 352 421 503
#     4  10  28  50  82 121 157 220 286 354 424 498
#
# _framework density 25.082975999999999
#
# number of rings (size 3 to 8) (size 9 to 14) (size 15 to 20)
#    0.667    0.000    2.222    2.667   10.889    2.667 
#    0.000    0.000    0.000    0.000    0.000    0.000 
#    0.000    0.000    0.000    0.000    0.000    0.000 
#
# Total GULP energy -111511.035949 kJ/mol
# GULP energy per Si atom -12390.115105 kJ/mol
# Density = 2.502589 g / cm^3
# Si number density = 25.082976 Si / 1000 Ang^3
#
#
#
# Elastic Constant Matrix: (Units=GPa)
#
#
# Indices 1 2 3 4 5 6 
#
# 1 188.7611 74.8085 69.9019 0.0000 -16.9161 0.0000
# 2 74.8085 172.8314 56.6085 0.0000 -6.6029 0.0000
# 3 69.9019 56.6085 142.5216 0.0000 -11.7898 0.0000
# 4 0.0000 0.0000 0.0000 39.1290 0.0000 10.2996
# 5 -16.9161 -6.6029 -11.7898 0.0000 59.2124 0.0000
# 6 0.0000 0.0000 0.0000 10.2996 0.0000 30.7253
#
#
#
# Elastic Compliance Matrix: (Units=1/GPa)
#
#
# Indices 1 2 3 4 5 6 
#
# 1 0.007254 -0.002253 -0.002554 0.000000 0.001313 0.000000
# 2 -0.002253 0.007354 -0.001831 0.000000 -0.000188 0.000000
# 3 -0.002554 -0.001831 0.009069 0.000000 0.000872 0.000000
# 4 0.000000 0.000000 0.000000 0.028030 0.000000 -0.009396
# 5 0.001313 -0.000188 0.000872 0.000000 0.017416 0.000000
# 6 0.000000 0.000000 0.000000 -0.009396 0.000000 0.035696
#
#
# Mechanical properties :
#
#
# Convention : Reuss Voigt Hill
#
# Bulk Modulus (GPa) = 96.16260 100.75023 98.45641
# Shear Modulus (GPa) = 41.13093 45.99971 43.56532
#
# Velocity S-wave (km/s) = 4.05383 4.28705 4.17207
# Velocity P-wave (km/s) = 7.76739 8.04730 7.90859
#
# Compressibility (1/GPa) = 0.01039905
#
# Stress axis : x y z
#
# Youngs Moduli (GPa) = 137.85066 135.98263 110.26713
#
# Poissons Ratio (x) = 0.30638 0.28167
# Poissons Ratio (y) = 0.31059 0.20194
# Poissons Ratio (z) = 0.35213 0.24904
#
# Static dielectric constant tensor:
#      x y z
#    x 4.475700 0.000000 0.088310 
#    y 0.000000 4.483320 0.000000 
#    z 0.088310 0.000000 4.605790 
# 
# 
# High freq. dielectric constant tensor:
#      x y z
#    x 2.007680 0.000000 -0.005770 
#    y 0.000000 2.015960 0.000000 
#    z -0.005770 0.000000 1.989820 
# 
# From -- ./inp_files/1101.got.cif
#   From: 2010.03.12/outbox.cif.g09.slc.cpg/sg5_1_cif.got.tgz:1101.got - 2010.03.31 09:47:26.
