data_PCOD8051237
_publ_section_title
;
Structure prediction by ZEFSAII (Michael W. Deem and Ramdas Pophale) SiO2 
 PCOD8051237
Probable space group: C 2
;
_chemical_formula_sum "Si O2"
_cell_formula_units_Z 24
_cell_length_a 11.079654
_cell_length_b 8.626765
_cell_length_c 12.102004
_cell_angle_alpha 90.000000
_cell_angle_beta 107.793557
_cell_angle_gamma 90.000000
_cell_volume 1101.395017
_symmetry_space_group_name_H-M "C 2"
_symmetry_group_IT_number 5
_symmetry_cell_setting 'monoclinic'
loop_
_space_group_symop_operation_xyz
x,y,z
-x,y,-z
1/2+x,1/2+y,z
1/2-x,1/2+y,-z
loop_
_atom_site_type_symbol
_atom_site_label
_atom_site_fract_x
_atom_site_fract_y
_atom_site_fract_z
Si Si1 0.218434 0.505790 0.846589
Si Si2 0.990435 0.593791 0.626015
Si Si3 0.263015 0.657239 0.075223
Si Si4 0.181743 0.449410 0.249380
Si Si5 0.957685 0.129371 0.809336
Si Si6 0.971150 0.940092 0.371320
O O1 0.212634 0.335701 0.894530
O O2 0.358324 0.516194 0.837378
O O3 0.116637 0.535242 0.722855
O O4 0.192335 0.628437 0.938859
O O5 0.869261 0.518551 0.650432
O O6 0.000000 0.544658 0.500000
O O7 0.961464 0.776015 0.629821
O O8 0.182910 0.574162 0.149851
O O9 0.406257 0.594123 0.097380
O O10 0.092257 0.305204 0.191483
O O11 0.324180 0.397483 0.311862
O O12 0.973794 0.079135 0.686605
O O13 0.000000 0.004368 0.500000
#
# Coordination Sequence:
#
# PCOD8051237 Si02
#       6
#     4   4   4   4   4   4
#     4  12  24  45  70  98 136 178 222 286 334 404
#     4  11  25  45  68 100 137 178 224 275 340 400
#     4  11  26  44  68  99 134 177 227 277 345 395
#     4  11  23  45  67  98 138 175 224 283 333 403
#     4  11  23  44  66  99 134 173 225 278 339 398
#     4  10  24  41  67 100 133 181 226 274 334 401
#
# _framework density 21.790548000000001
#
# number of rings (size 3 to 8) (size 9 to 14) (size 15 to 20)
#    0.000    1.000    3.333    2.500    4.667    1.333 
#    3.000    0.000    0.000    0.000    0.000    0.000 
#    0.000    0.000    0.000    0.000    0.000    0.000 
#
# Total GULP energy -148783.794067 kJ/mol
# GULP energy per Si atom -12398.649506 kJ/mol
# Density = 2.174095 g / cm^3
# Si number density = 21.790548 Si / 1000 Ang^3
#
#
#
# Elastic Constant Matrix: (Units=GPa)
#
#
# Indices 1 2 3 4 5 6 
#
# 1 91.5617 20.6314 34.1927 0.0000 -24.6148 0.0000
# 2 20.6314 71.7907 37.1920 0.0000 3.5443 0.0000
# 3 34.1927 37.1920 152.2251 0.0000 -3.4472 0.0000
# 4 0.0000 0.0000 0.0000 35.7729 0.0000 -5.6433
# 5 -24.6148 3.5443 -3.4472 0.0000 14.0973 0.0000
# 6 0.0000 0.0000 0.0000 -5.6433 0.0000 31.5559
#
#
#
# Elastic Compliance Matrix: (Units=1/GPa)
#
#
# Indices 1 2 3 4 5 6 
#
# 1 0.027036 -0.008700 -0.002844 0.000000 0.048699 0.000000
# 2 -0.008700 0.019105 -0.003184 0.000000 -0.020773 0.000000
# 3 -0.002844 -0.003184 0.007936 0.000000 -0.002225 0.000000
# 4 0.000000 0.000000 0.000000 0.028766 0.000000 0.005144
# 5 0.048699 -0.020773 -0.002225 0.000000 0.160646 0.000000
# 6 0.000000 0.000000 0.000000 0.005144 0.000000 0.032610
#
#
# Mechanical properties :
#
#
# Convention : Reuss Voigt Hill
#
# Bulk Modulus (GPa) = 40.61861 55.51217 48.06539
# Shear Modulus (GPa) = 15.93570 31.18932 23.56251
#
# Velocity S-wave (km/s) = 2.70721 3.78739 3.29191
# Velocity P-wave (km/s) = 5.33413 6.68254 6.04605
#
# Compressibility (1/GPa) = 0.02461926
#
# Stress axis : x y z
#
# Youngs Moduli (GPa) = 36.98764 52.34310 126.01446
#
# Poissons Ratio (x) = 0.45541 0.35842
# Poissons Ratio (y) = 0.32181 0.40121
# Poissons Ratio (z) = 0.10520 0.16665
#
# Static dielectric constant tensor:
#      x y z
#    x 4.100480 0.000000 -0.057380 
#    y 0.000000 3.849740 0.000000 
#    z -0.057380 0.000000 4.028050 
# 
# 
# High freq. dielectric constant tensor:
#      x y z
#    x 1.865540 0.000000 -0.008070 
#    y 0.000000 1.858550 0.000000 
#    z -0.008070 0.000000 1.862090 
# 
# From -- ./inp_files/38409.got.cif
#   From: 2010.03.12/outbox.cif.g09.slc.cpg/sg5_20_cif.got.tgz:38409.got - 2010.03.31 09:47:26.
