data_PCOD8051948
_publ_section_title
;
Structure prediction by ZEFSAII (Michael W. Deem and Ramdas Pophale) SiO2 
 PCOD8051948
Probable space group: C 2
;
_chemical_formula_sum "Si O2"
_cell_formula_units_Z 20
_cell_length_a 19.164748
_cell_length_b 5.613281
_cell_length_c 15.095689
_cell_angle_alpha 90.000000
_cell_angle_beta 148.979053
_cell_angle_gamma 90.000000
_cell_volume 836.905284
_symmetry_space_group_name_H-M "C 2"
_symmetry_group_IT_number 5
_symmetry_cell_setting 'monoclinic'
loop_
_space_group_symop_operation_xyz
x,y,z
-x,y,-z
1/2+x,1/2+y,z
1/2-x,1/2+y,-z
loop_
_atom_site_type_symbol
_atom_site_label
_atom_site_fract_x
_atom_site_fract_y
_atom_site_fract_z
Si Si1 0.557439 0.736880 0.246281
Si Si2 0.650887 0.268371 0.666794
Si Si3 0.300879 0.960060 0.453104
Si Si4 0.365546 0.071807 0.820722
Si Si5 0.730453 0.594249 0.030816
O O1 0.565930 0.910602 0.341857
O O2 0.691744 0.577736 0.399553
O O3 0.560923 0.866022 0.155751
O O4 0.424480 0.575113 0.105761
O O5 0.500000 0.383635 0.500000
O O6 0.770211 0.466355 0.795734
O O7 0.671614 0.107024 0.776887
O O8 0.658585 0.114612 0.586519
O O9 0.234860 0.717428 0.348491
O O10 0.500000 0.218320 0.000000
O O11 0.757491 0.345817 0.009597
#
# Coordination Sequence:
#
# PCOD8051948 Si02
#       5
#     4   4   4   4   4
#     4  11  24  45  69 105 138 187 243 294 364 430
#     4  11  27  46  68 103 141 191 240 295 365 427
#     4  11  25  41  74  98 142 185 241 300 356 433
#     4  11  24  43  72 101 138 183 235 302 356 430
#     4  12  30  48  75 104 148 193 242 300 363 430
#
# _framework density 23.897566999999999
#
# number of rings (size 3 to 8) (size 9 to 14) (size 15 to 20)
#    0.000    0.800    4.000    1.200   11.200    0.800 
#    0.000    0.000    0.000    0.000    0.000    0.000 
#    0.000    0.000    0.000    0.000    0.000    0.000 
#
# Total GULP energy -123931.364869 kJ/mol
# GULP energy per Si atom -12393.136487 kJ/mol
# Density = 2.384317 g / cm^3
# Si number density = 23.897567 Si / 1000 Ang^3
#
#
#
# Elastic Constant Matrix: (Units=GPa)
#
#
# Indices 1 2 3 4 5 6 
#
# 1 109.2450 24.8984 35.4044 0.0000 3.3336 0.0000
# 2 24.8984 68.6139 -10.9236 0.0002 4.2142 0.0000
# 3 35.4044 -10.9236 102.6207 0.0000 16.3326 0.0000
# 4 0.0000 0.0002 0.0000 26.4155 0.0000 -6.2163
# 5 3.3336 4.2142 16.3326 0.0000 39.3072 0.0000
# 6 0.0000 0.0000 0.0000 -6.2163 0.0000 10.8467
#
#
#
# Elastic Compliance Matrix: (Units=1/GPa)
#
#
# Indices 1 2 3 4 5 6 
#
# 1 0.011876 -0.005187 -0.004902 0.000000 0.001586 0.000000
# 2 -0.005187 0.017307 0.004130 0.000000 -0.003132 0.000000
# 3 -0.004902 0.004130 0.012721 0.000000 -0.005313 0.000000
# 4 0.000000 0.000000 0.000000 0.043758 0.000000 0.025078
# 5 0.001586 -0.003132 -0.005313 0.000000 0.027849 0.000000
# 6 0.000000 0.000000 0.000000 0.025078 0.000000 0.106566
#
#
# Mechanical properties :
#
#
# Convention : Reuss Voigt Hill
#
# Bulk Modulus (GPa) = 33.34900 42.13756 37.74328
# Shear Modulus (GPa) = 20.66194 30.72057 25.69125
#
# Velocity S-wave (km/s) = 2.94361 3.58929 3.28236
# Velocity P-wave (km/s) = 5.05355 5.90324 5.49484
#
# Compressibility (1/GPa) = 0.02998590
#
# Stress axis : x y z
#
# Youngs Moduli (GPa) = 84.20167 57.78143 78.61009
#
# Poissons Ratio (x) = 0.29974 0.38534
# Poissons Ratio (y) = 0.43679 -0.32468
# Poissons Ratio (z) = 0.41275 -0.23866
#
# Static dielectric constant tensor:
#      x y z
#    x 4.557600 0.000000 0.080940 
#    y 0.000000 4.113990 0.000000 
#    z 0.080940 0.000000 4.345450 
# 
# 
# High freq. dielectric constant tensor:
#      x y z
#    x 1.958380 0.000000 -0.000160 
#    y 0.000000 1.923510 0.000000 
#    z -0.000160 0.000000 1.968820 
# 
# From -- ./inp_files/28207.got.cif
#   From: 2010.03.12/outbox.cif.g09.slc.cpg/sg5_15_cif.got.tgz:28207.got - 2010.03.31 09:47:26.
