data_PCOD8051656
_publ_section_title
;
Structure prediction by ZEFSAII (Michael W. Deem and Ramdas Pophale) SiO2 
 PCOD8051656
Probable space group: C 2
;
_chemical_formula_sum "Si O2"
_cell_formula_units_Z 30
_cell_length_a 18.444579
_cell_length_b 14.561681
_cell_length_c 13.021572
_cell_angle_alpha 90.000000
_cell_angle_beta 155.545394
_cell_angle_gamma 90.000000
_cell_volume 1447.820847
_symmetry_space_group_name_H-M "C 2"
_symmetry_group_IT_number 5
_symmetry_cell_setting 'monoclinic'
loop_
_space_group_symop_operation_xyz
x,y,z
-x,y,-z
1/2+x,1/2+y,z
1/2-x,1/2+y,-z
loop_
_atom_site_type_symbol
_atom_site_label
_atom_site_fract_x
_atom_site_fract_y
_atom_site_fract_z
Si Si1 0.500000 0.088151 0.500000
Si Si2 0.219668 0.333986 0.563609
Si Si3 0.600925 0.141939 0.235936
Si Si4 0.406340 0.471885 0.275478
Si Si5 0.823208 0.332014 0.104210
Si Si6 0.637215 0.481853 0.390204
Si Si7 0.159281 0.640330 0.912349
Si Si8 0.219191 0.948027 0.163871
O O1 0.576560 0.148306 0.691832
O O2 0.350230 0.029015 0.364428
O O3 0.332202 0.245910 0.677539
O O4 0.228552 0.407907 0.483364
O O5 0.300043 0.373012 0.772235
O O6 0.018125 0.309647 0.320309
O O7 0.477767 0.122111 0.173971
O O8 0.769565 0.077981 0.467776
O O9 0.500000 0.118124 0.000000
O O10 0.500000 0.500233 0.500000
O O11 0.562008 0.443192 0.399567
O O12 0.280434 0.382197 0.123289
O O13 0.302300 0.559688 0.097336
O O14 0.808643 0.403651 0.178696
O O15 0.745032 0.237826 0.044485
O O16 0.472155 0.491961 0.100336
#
# Coordination Sequence:
#
# PCOD8051656 Si02
#       8
#     2   4   4   4   4   4   4   4
#     4  12  22  44  72  96 132 180 230 268 326 406
#     4  12  23  41  68  98 135 171 222 285 329 393
#     4  12  25  42  66 100 137 175 224 283 344 388
#     4  11  23  44  66  91 129 175 223 271 331 402
#     4  11  23  41  65  95 130 174 229 263 332 403
#     4  11  23  39  64  98 132 162 217 281 337 388
#     4  12  25  43  67  98 133 180 227 274 329 411
#     4  11  21  43  69  98 128 179 225 276 329 393
#
# _framework density 20.720796
#
# number of rings (size 3 to 8) (size 9 to 14) (size 15 to 20)
#    0.000    0.533    4.000    6.800    0.933    1.067 
#    0.000    0.000    0.000    0.000    0.000    0.000 
#    0.000    0.000    0.000    0.000    0.000    0.000 
#
# Total GULP energy -186020.029632 kJ/mol
# GULP energy per Si atom -12401.335309 kJ/mol
# Density = 2.067363 g / cm^3
# Si number density = 20.720796 Si / 1000 Ang^3
#
#
#
# Elastic Constant Matrix: (Units=GPa)
#
#
# Indices 1 2 3 4 5 6 
#
# 1 94.8554 14.3158 43.3344 0.0000 -6.3935 0.0000
# 2 14.3158 82.6473 28.2514 0.0000 2.2229 0.0000
# 3 43.3344 28.2514 101.2528 0.0000 -4.6141 0.0000
# 4 0.0000 0.0000 0.0000 34.8701 0.0000 3.9967
# 5 -6.3935 2.2229 -4.6141 0.0000 36.8419 0.0000
# 6 0.0000 0.0000 0.0000 3.9967 0.0000 33.1488
#
#
#
# Elastic Compliance Matrix: (Units=1/GPa)
#
#
# Indices 1 2 3 4 5 6 
#
# 1 0.013213 -0.000470 -0.005449 0.000000 0.001639 0.000000
# 2 -0.000470 0.013452 -0.003614 0.000000 -0.001346 0.000000
# 3 -0.005449 -0.003614 0.013259 0.000000 0.000933 0.000000
# 4 0.000000 0.000000 0.000000 0.029080 0.000000 -0.003506
# 5 0.001639 -0.001346 0.000933 0.000000 0.027625 0.000000
# 6 0.000000 0.000000 0.000000 -0.003506 0.000000 0.030590
#
#
# Mechanical properties :
#
#
# Convention : Reuss Voigt Hill
#
# Bulk Modulus (GPa) = 47.94073 50.06209 49.00141
# Shear Modulus (GPa) = 32.62883 33.82906 33.22894
#
# Velocity S-wave (km/s) = 3.97254 4.04495 4.00891
# Velocity P-wave (km/s) = 6.65043 6.78441 6.71775
#
# Compressibility (1/GPa) = 0.02085909
#
# Stress axis : x y z
#
# Youngs Moduli (GPa) = 75.68175 74.33565 75.41936
#
# Poissons Ratio (x) = 0.03495 0.41097
# Poissons Ratio (y) = 0.03558 0.27254
# Poissons Ratio (z) = 0.41240 0.26862
#
# Static dielectric constant tensor:
#      x y z
#    x 3.813420 0.000000 0.043180 
#    y 0.000000 3.655170 0.000000 
#    z 0.043180 0.000000 3.903740 
# 
# 
# High freq. dielectric constant tensor:
#      x y z
#    x 1.820170 0.000000 0.010260 
#    y 0.000000 1.807830 0.000000 
#    z 0.010260 0.000000 1.817370 
# 
# From -- ./inp_files/44933.got.cif
#   From: 2010.03.12/outbox.cif.g09.slc.cpg/sg5_23_cif.got.tgz:44933.got - 2010.03.31 09:47:26.
