data_PCOD8051004
_publ_section_title
;
Structure prediction by ZEFSAII (Michael W. Deem and Ramdas Pophale) SiO2 
 PCOD8051004
Probable space group: C 2
;
_chemical_formula_sum "Si O2"
_cell_formula_units_Z 28
_cell_length_a 20.111176
_cell_length_b 6.553480
_cell_length_c 11.201018
_cell_angle_alpha 90.000000
_cell_angle_beta 109.204149
_cell_angle_gamma 90.000000
_cell_volume 1394.123022
_symmetry_space_group_name_H-M "C 2"
_symmetry_group_IT_number 5
_symmetry_cell_setting 'monoclinic'
loop_
_space_group_symop_operation_xyz
x,y,z
-x,y,-z
1/2+x,1/2+y,z
1/2-x,1/2+y,-z
loop_
_atom_site_type_symbol
_atom_site_label
_atom_site_fract_x
_atom_site_fract_y
_atom_site_fract_z
Si Si1 0.332884 0.077700 0.760734
Si Si2 0.908589 0.938750 0.070644
Si Si3 0.188421 0.630830 0.839917
Si Si4 0.327121 0.827281 0.972990
Si Si5 0.428590 0.413364 0.803719
Si Si6 0.214911 0.380398 0.642006
Si Si7 0.324664 0.689277 0.609939
O O1 0.397075 0.201219 0.733763
O O2 0.267599 0.232417 0.747821
O O3 0.364905 0.980379 0.902352
O O4 0.305395 0.903265 0.658125
O O5 0.868748 0.783477 0.136553
O O6 0.988574 0.930162 0.161025
O O7 0.902029 0.898384 0.925716
O O8 0.879805 0.168417 0.067220
O O9 0.263464 0.733698 0.857564
O O10 0.166290 0.517708 0.702989
O O11 0.208037 0.454001 0.943123
O O12 0.396288 0.604105 0.712423
O O13 0.261402 0.530367 0.587237
O O14 0.166187 0.241405 0.526142
#
# Coordination Sequence:
#
# PCOD8051004 Si02
#       7
#     4   4   4   4   4   4   4
#     4  11  20  38  64  92 127 160 204 265 314 371
#     4  11  23  40  60  92 129 166 203 257 317 380
#     4  12  23  36  61  98 130 159 202 260 325 375
#     4  12  21  37  63  94 129 159 197 261 329 373
#     4  10  23  41  60  90 128 167 213 253 310 381
#     4  11  23  37  63 100 124 162 212 264 315 369
#     4  11  21  39  63  94 125 163 214 261 309 368
#
# _framework density 20.084311
#
# number of rings (size 3 to 8) (size 9 to 14) (size 15 to 20)
#    0.000    0.857    7.143    1.714    0.000    1.143 
#    0.000    0.000    0.000    5.143    0.000    0.000 
#    0.000    0.000    0.000    0.000    0.000    0.000 
#
# Total GULP energy -173473.112099 kJ/mol
# GULP energy per Si atom -12390.936578 kJ/mol
# Density = 2.003860 g / cm^3
# Si number density = 20.084311 Si / 1000 Ang^3
#
#
#
# Elastic Constant Matrix: (Units=GPa)
#
#
# Indices 1 2 3 4 5 6 
#
# 1 94.2412 48.7397 43.0893 0.0000 11.4184 0.0000
# 2 48.7397 124.6068 52.8812 0.0000 0.5923 0.0000
# 3 43.0893 52.8812 110.5978 0.0000 -2.1377 0.0000
# 4 0.0000 0.0000 0.0000 42.3376 0.0000 -10.8337
# 5 11.4184 0.5923 -2.1377 0.0000 24.5001 0.0000
# 6 0.0000 0.0000 0.0000 -10.8337 0.0000 17.3416
#
#
#
# Elastic Compliance Matrix: (Units=1/GPa)
#
#
# Indices 1 2 3 4 5 6 
#
# 1 0.015677 -0.004318 -0.004189 0.000000 -0.007567 0.000000
# 2 -0.004318 0.011268 -0.003678 0.000000 0.001419 0.000000
# 3 -0.004189 -0.003678 0.012493 0.000000 0.003131 0.000000
# 4 0.000000 0.000000 0.000000 0.028114 0.000000 0.017564
# 5 -0.007567 0.001419 0.003131 0.000000 0.044582 0.000000
# 6 0.000000 0.000000 0.000000 0.017564 0.000000 0.068637
#
#
# Mechanical properties :
#
#
# Convention : Reuss Voigt Hill
#
# Bulk Modulus (GPa) = 66.36923 68.76290 67.56607
# Shear Modulus (GPa) = 23.79090 29.15157 26.47123
#
# Velocity S-wave (km/s) = 3.44546 3.81394 3.63437
# Velocity P-wave (km/s) = 6.99610 7.32846 7.16420
#
# Compressibility (1/GPa) = 0.01506722
#
# Stress axis : x y z
#
# Youngs Moduli (GPa) = 63.78945 88.74357 80.04406
#
# Poissons Ratio (x) = 0.38320 0.33533
# Poissons Ratio (y) = 0.27544 0.29441
# Poissons Ratio (z) = 0.26723 0.32641
#
# Static dielectric constant tensor:
#      x y z
#    x 3.224090 0.000000 -0.083720 
#    y 0.000000 4.072120 0.000000 
#    z -0.083720 0.000000 3.611700 
# 
# 
# High freq. dielectric constant tensor:
#      x y z
#    x 1.737610 0.000000 -0.004230 
#    y 0.000000 1.812270 0.000000 
#    z -0.004230 0.000000 1.775490 
# 
# From -- ./inp_files/45629.got.cif
#   From: 2010.03.12/outbox.cif.g09.slc.cpg/sg5_23_cif.got.tgz:45629.got - 2010.03.31 09:47:26.
