data_PCOD8051154
_publ_section_title
;
Structure prediction by ZEFSAII (Michael W. Deem and Ramdas Pophale) SiO2 
 PCOD8051154
Probable space group: C 2
;
_chemical_formula_sum "Si O2"
_cell_formula_units_Z 18
_cell_length_a 7.331040
_cell_length_b 13.910535
_cell_length_c 9.698466
_cell_angle_alpha 90.000000
_cell_angle_beta 56.422926
_cell_angle_gamma 90.000000
_cell_volume 824.008732
_symmetry_space_group_name_H-M "C 2"
_symmetry_group_IT_number 5
_symmetry_cell_setting 'monoclinic'
loop_
_space_group_symop_operation_xyz
x,y,z
-x,y,-z
1/2+x,1/2+y,z
1/2-x,1/2+y,-z
loop_
_atom_site_type_symbol
_atom_site_label
_atom_site_fract_x
_atom_site_fract_y
_atom_site_fract_z
Si Si1 0.669515 0.158700 0.822685
Si Si2 0.503043 0.545300 0.844063
Si Si3 0.103121 0.676984 0.310975
Si Si4 0.000000 0.277435 0.500000
Si Si5 0.916760 0.879719 0.392839
O O1 0.770681 0.072294 0.872192
O O2 0.526947 0.118269 0.753670
O O3 0.867433 0.219703 0.673440
O O4 0.500000 0.213417 0.000000
O O5 0.647600 0.642612 0.787042
O O6 0.604078 0.458583 0.715766
O O7 0.500000 0.505105 0.000000
O O8 0.000000 0.651480 0.500000
O O9 0.080474 0.791055 0.286235
O O10 0.172168 0.339014 0.516239
O O11 0.000000 0.927964 0.500000
#
# Coordination Sequence:
#
# PCOD8051154 Si02
#       5
#     4   4   4   2   4
#     4  11  22  43  72  99 139 182 233 283 352 423
#     4  12  25  42  67 105 141 182 230 290 356 419
#     4  10  23  45  70  97 137 184 234 290 354 417
#     4  10  24  46  74 100 132 188 232 298 358 402
#     4  10  24  43  69 103 134 180 242 285 351 428
#
# _framework density 21.844427
#
# number of rings (size 3 to 8) (size 9 to 14) (size 15 to 20)
#    0.000    1.333    2.222    4.000    6.222    3.556 
#    0.000    1.111    0.000    0.000    0.000    0.000 
#    0.000    0.000    0.000    0.000    0.000    0.000 
#
# Total GULP energy -111505.244661 kJ/mol
# GULP energy per Si atom -12389.471629 kJ/mol
# Density = 2.179471 g / cm^3
# Si number density = 21.844427 Si / 1000 Ang^3
#
#
#
# Elastic Constant Matrix: (Units=GPa)
#
#
# Indices 1 2 3 4 5 6 
#
# 1 135.9182 39.5620 48.2197 0.0000 34.0951 0.0000
# 2 39.5620 74.8372 42.2471 0.0000 1.2689 0.0000
# 3 48.2197 42.2471 157.5257 0.0000 15.0410 0.0000
# 4 0.0000 0.0000 0.0000 194.4807 0.0000 103.8107
# 5 34.0951 1.2689 15.0410 0.0000 45.8103 0.0000
# 6 0.0000 0.0000 0.0000 103.8107 0.0000 76.5529
#
#
#
# Elastic Compliance Matrix: (Units=1/GPa)
#
#
# Indices 1 2 3 4 5 6 
#
# 1 0.011266 -0.005064 -0.001345 0.000000 -0.007803 0.000000
# 2 -0.005064 0.018065 -0.003724 0.000000 0.004491 0.000000
# 3 -0.001345 -0.003724 0.007901 0.000000 -0.001490 0.000000
# 4 0.000000 0.000000 0.000000 0.018620 0.000000 -0.025250
# 5 -0.007803 0.004491 -0.001490 0.000000 0.028001 0.000000
# 6 0.000000 0.000000 0.000000 -0.025250 0.000000 0.047303
#
#
# Mechanical properties :
#
#
# Convention : Reuss Voigt Hill
#
# Bulk Modulus (GPa) = 58.94084 69.81541 64.37813
# Shear Modulus (GPa) = 31.83146 79.25225 55.54186
#
# Velocity S-wave (km/s) = 3.82146 6.02985 5.04790
# Velocity P-wave (km/s) = 6.81997 8.97265 7.96933
#
# Compressibility (1/GPa) = 0.01696616
#
# Stress axis : x y z
#
# Youngs Moduli (GPa) = 88.76272 55.35494 126.56740
#
# Poissons Ratio (x) = 0.28031 0.17029
# Poissons Ratio (y) = 0.44948 0.47130
# Poissons Ratio (z) = 0.11943 0.20613
#
# Static dielectric constant tensor:
#      x y z
#    x 4.246170 0.000000 -0.504430 
#    y 0.000000 3.563990 0.000000 
#    z -0.504430 0.000000 2.129880 
# 
# 
# High freq. dielectric constant tensor:
#      x y z
#    x 1.893450 0.000000 0.015040 
#    y 0.000000 1.814780 0.000000 
#    z 0.015040 0.000000 1.859540 
# 
# From -- ./inp_files/35321.got.cif
#   From: 2010.03.12/outbox.cif.g09.slc.cpg/sg5_18_cif.got.tgz:35321.got - 2010.03.31 09:47:26.
