data_PCOD8051528
_publ_section_title
;
Structure prediction by ZEFSAII (Michael W. Deem and Ramdas Pophale) SiO2 
 PCOD8051528
Probable space group: C 2
;
_chemical_formula_sum "Si O2"
_cell_formula_units_Z 14
_cell_length_a 22.860122
_cell_length_b 4.954473
_cell_length_c 4.896322
_cell_angle_alpha 90.000000
_cell_angle_beta 68.447097
_cell_angle_gamma 90.000000
_cell_volume 515.781442
_symmetry_space_group_name_H-M "C 2"
_symmetry_group_IT_number 5
_symmetry_cell_setting 'monoclinic'
loop_
_space_group_symop_operation_xyz
x,y,z
-x,y,-z
1/2+x,1/2+y,z
1/2-x,1/2+y,-z
loop_
_atom_site_type_symbol
_atom_site_label
_atom_site_fract_x
_atom_site_fract_y
_atom_site_fract_z
Si Si1 0.500000 0.210070 0.500000
Si Si2 0.388992 0.524117 0.420240
Si Si3 0.606348 0.886742 0.096025
Si Si4 0.291280 0.234711 0.907272
O O1 0.454801 0.388931 0.389814
O O2 0.538233 0.027598 0.216182
O O3 0.378171 0.785232 0.626207
O O4 0.331021 0.318231 0.568554
O O5 0.392290 0.629560 0.105040
O O6 0.660721 0.110993 0.945118
O O7 0.259449 0.504924 0.087865
#
# Coordination Sequence:
#
# PCOD8051528 Si02
#       4
#     2   4   4   4
#     4  10  26  46  84 120 164 214 264 334 404 486
#     4  11  26  50  79 120 161 211 269 329 404 479
#     4  11  26  50  79 120 161 211 269 329 404 479
#     4  11  24  53  82 123 160 215 268 336 398 481
#
# _framework density 27.143277999999999
#
# number of rings (size 3 to 8) (size 9 to 14) (size 15 to 20)
#    0.000    1.143    2.857    0.857    0.000   16.000 
#   10.286    0.000    0.000    0.000    0.000    0.000 
#    0.000    0.000    0.000    0.000    0.000    0.000 
#
# Total GULP energy -86789.167861 kJ/mol
# GULP energy per Si atom -12398.452552 kJ/mol
# Density = 2.708150 g / cm^3
# Si number density = 27.143278 Si / 1000 Ang^3
#
#
#
# Elastic Constant Matrix: (Units=GPa)
#
#
# Indices 1 2 3 4 5 6 
#
# 1 113.2096 55.9625 56.7102 0.0000 -51.8085 0.0000
# 2 55.9625 174.7340 51.4074 0.0000 -28.7438 0.0000
# 3 56.7102 51.4074 79.4882 0.0000 -15.7398 0.0000
# 4 0.0000 0.0000 0.0000 64.8459 0.0000 -9.6137
# 5 -51.8085 -28.7438 -15.7398 0.0000 38.5189 0.0000
# 6 0.0000 0.0000 0.0000 -9.6137 0.0000 64.7924
#
#
#
# Elastic Compliance Matrix: (Units=1/GPa)
#
#
# Indices 1 2 3 4 5 6 
#
# 1 0.038158 0.000577 -0.018876 0.000000 0.044040 0.000000
# 2 0.000577 0.007599 -0.004406 0.000000 0.004646 0.000000
# 3 -0.018876 -0.004406 0.025263 0.000000 -0.018353 0.000000
# 4 0.000000 0.000000 0.000000 0.015768 0.000000 0.002340
# 5 0.044040 0.004646 -0.018353 0.000000 0.081163 0.000000
# 6 0.000000 0.000000 0.000000 0.002340 0.000000 0.015781
#
#
# Mechanical properties :
#
#
# Convention : Reuss Voigt Hill
#
# Bulk Modulus (GPa) = 39.04825 77.28799 58.16812
# Shear Modulus (GPa) = 21.03687 47.18820 34.11254
#
# Velocity S-wave (km/s) = 2.78696 4.17404 3.54892
# Velocity P-wave (km/s) = 4.97729 7.19486 6.18625
#
# Compressibility (1/GPa) = 0.02560934
#
# Stress axis : x y z
#
# Youngs Moduli (GPa) = 26.20702 131.60097 39.58403
#
# Poissons Ratio (x) = -0.07595 0.74719
# Poissons Ratio (y) = -0.01513 0.17441
# Poissons Ratio (z) = 0.49468 0.57984
#
# Static dielectric constant tensor:
#      x y z
#    x 4.907900 0.000000 -0.593370 
#    y 0.000000 5.270220 0.000000 
#    z -0.593370 0.000000 4.679500 
# 
# 
# High freq. dielectric constant tensor:
#      x y z
#    x 2.090160 0.000000 -0.032990 
#    y 0.000000 2.125750 0.000000 
#    z -0.032990 0.000000 2.070380 
# 
# From -- ./inp_files/9002.got.cif
#   From: 2010.03.12/outbox.cif.g09.slc.cpg/sg5_5_cif.got.tgz:9002.got - 2010.03.31 09:47:26.
