data_PCOD8051380
_publ_section_title
;
Structure prediction by ZEFSAII (Michael W. Deem and Ramdas Pophale) SiO2 
 PCOD8051380
Probable space group: C 2
;
_chemical_formula_sum "Si O2"
_cell_formula_units_Z 18
_cell_length_a 13.648255
_cell_length_b 5.429965
_cell_length_c 14.862746
_cell_angle_alpha 90.000000
_cell_angle_beta 35.056625
_cell_angle_gamma 90.000000
_cell_volume 632.669425
_symmetry_space_group_name_H-M "C 2"
_symmetry_group_IT_number 5
_symmetry_cell_setting 'monoclinic'
loop_
_space_group_symop_operation_xyz
x,y,z
-x,y,-z
1/2+x,1/2+y,z
1/2-x,1/2+y,-z
loop_
_atom_site_type_symbol
_atom_site_label
_atom_site_fract_x
_atom_site_fract_y
_atom_site_fract_z
Si Si1 0.951758 0.851680 0.825012
Si Si2 0.841539 0.098939 0.458698
Si Si3 0.701379 0.939090 0.150418
Si Si4 0.000000 0.260034 0.000000
Si Si5 0.234700 0.648323 0.726727
O O1 0.961122 0.614811 0.748557
O O2 0.103631 0.846871 0.783369
O O3 0.979910 0.092005 0.735983
O O4 0.766428 0.802387 0.010200
O O5 0.750163 0.356056 0.510654
O O6 0.865406 0.064894 0.548635
O O7 0.873791 0.099713 0.035012
O O8 0.661706 0.776545 0.269482
O O9 0.879344 0.422461 0.154839
#
# Coordination Sequence:
#
# PCOD8051380 Si02
#       5
#     4   4   4   2   4
#     4  11  23  46  74 110 145 198 261 310 383 462
#     4  10  24  46  79 106 153 203 250 314 389 450
#     4  12  24  42  76 110 148 196 258 315 384 452
#     4  12  20  42  72 102 156 192 246 320 372 454
#     4  11  23  45  74 108 149 201 249 320 381 454
#
# _framework density 28.450880000000002
#
# number of rings (size 3 to 8) (size 9 to 14) (size 15 to 20)
#    0.000    0.889    4.444    2.667    3.111    1.778 
#    0.000    1.111   14.667    0.000    0.000    0.000 
#    0.000    0.000    0.000    0.000    0.000    0.000 
#
# Total GULP energy -111511.283789 kJ/mol
# GULP energy per Si atom -12390.142643 kJ/mol
# Density = 2.838612 g / cm^3
# Si number density = 28.450880 Si / 1000 Ang^3
#
#
#
# Elastic Constant Matrix: (Units=GPa)
#
#
# Indices 1 2 3 4 5 6 
#
# 1 102.5650 12.2990 -2.6788 -0.0002 35.6376 0.0001
# 2 12.2990 69.3865 24.5225 -0.0007 21.2791 0.0005
# 3 -2.6788 24.5225 220.7167 -0.0003 51.5793 0.0005
# 4 -0.0002 -0.0007 -0.0003 62.5976 -0.0002 -0.0676
# 5 35.6376 21.2791 51.5793 -0.0002 37.1371 0.0002
# 6 0.0001 0.0005 0.0005 -0.0676 0.0002 47.7348
#
#
#
# Elastic Compliance Matrix: (Units=1/GPa)
#
#
# Indices 1 2 3 4 5 6 
#
# 1 0.020664 0.003581 0.007353 0.000000 -0.032094 0.000000
# 2 0.003581 0.018157 0.001866 0.000000 -0.016432 0.000000
# 3 0.007353 0.001866 0.009344 0.000000 -0.021104 0.000000
# 4 0.000000 0.000000 0.000000 0.015975 0.000000 0.000023
# 5 -0.032094 -0.016432 -0.021104 0.000000 0.096451 0.000000
# 6 0.000000 0.000000 0.000000 0.000023 0.000000 0.020949
#
#
# Mechanical properties :
#
#
# Convention : Reuss Voigt Hill
#
# Bulk Modulus (GPa) = 13.55646 51.21706 32.38676
# Shear Modulus (GPa) = 27.69636 53.39560 40.54598
#
# Velocity S-wave (km/s) = 3.12345 4.33686 3.77917
# Velocity P-wave (km/s) = 4.21700 6.56650 5.51824
#
# Compressibility (1/GPa) = 0.07376555
#
# Stress axis : x y z
#
# Youngs Moduli (GPa) = 48.39327 55.07509 107.01715
#
# Poissons Ratio (x) = -0.19722 -0.78690
# Poissons Ratio (y) = -0.17329 -0.19971
# Poissons Ratio (z) = -0.35584 -0.10278
#
# Static dielectric constant tensor:
#      x y z
#    x 5.278090 0.000000 0.560120 
#    y 0.000000 5.395550 0.000000 
#    z 0.560120 0.000000 6.405630 
# 
# 
# High freq. dielectric constant tensor:
#      x y z
#    x 2.165760 0.000000 0.013670 
#    y 0.000000 2.159660 0.000000 
#    z 0.013670 0.000000 2.187000 
# 
# From -- ./inp_files/40914.got.cif
#   From: 2010.03.12/outbox.cif.g09.slc.cpg/sg5_21_cif.got.tgz:40914.got - 2010.03.31 09:47:26.
