data_PCOD8051768
_publ_section_title
;
Structure prediction by ZEFSAII (Michael W. Deem and Ramdas Pophale) SiO2 
 PCOD8051768
Probable space group: C 2
;
_chemical_formula_sum "Si O2"
_cell_formula_units_Z 28
_cell_length_a 15.164385
_cell_length_b 11.709749
_cell_length_c 7.815366
_cell_angle_alpha 90.000000
_cell_angle_beta 118.986603
_cell_angle_gamma 90.000000
_cell_volume 1213.940054
_symmetry_space_group_name_H-M "C 2"
_symmetry_group_IT_number 5
_symmetry_cell_setting 'monoclinic'
loop_
_space_group_symop_operation_xyz
x,y,z
-x,y,-z
1/2+x,1/2+y,z
1/2-x,1/2+y,-z
loop_
_atom_site_type_symbol
_atom_site_label
_atom_site_fract_x
_atom_site_fract_y
_atom_site_fract_z
Si Si1 0.017524 0.446270 0.707719
Si Si2 0.966221 0.216556 0.792638
Si Si3 0.778691 0.526537 0.987138
Si Si4 0.789410 0.062843 0.715291
Si Si5 0.422888 0.347275 0.785906
Si Si6 0.861223 0.602405 0.712545
Si Si7 0.055861 0.008315 0.717297
O O1 0.000000 0.494746 0.500000
O O2 0.969817 0.318900 0.660018
O O3 0.966777 0.534835 0.794038
O O4 0.135549 0.435626 0.874913
O O5 0.854363 0.166327 0.699157
O O6 0.045909 0.112050 0.843336
O O7 0.000000 0.276547 0.000000
O O8 0.819654 0.601413 0.867843
O O9 0.673487 0.472294 0.816475
O O10 0.756773 0.597287 0.142436
O O11 0.707927 0.038142 0.491761
O O12 0.850703 0.944253 0.798880
O O13 0.365816 0.235700 0.663688
O O14 0.488639 0.398077 0.693881
O O15 0.500000 0.302299 0.000000
O O16 0.000000 0.062153 0.500000
#
# Coordination Sequence:
#
# PCOD8051768 Si02
#       7
#     4   4   4   4   4   4   4
#     4  12  27  47  70 105 156 194 240 309 376 438
#     4  11  22  45  72 104 148 186 240 312 359 433
#     4  12  23  48  75 104 144 194 244 294 374 442
#     4  11  24  47  76 107 144 191 247 303 370 443
#     4  11  23  48  73 101 151 191 239 315 368 431
#     4  12  28  47  70 111 151 191 245 308 372 442
#     4  11  23  46  75 108 138 188 253 302 362 446
#
# _framework density 23.065391000000002
#
# number of rings (size 3 to 8) (size 9 to 14) (size 15 to 20)
#    0.000    0.571    4.286    5.143    2.000    1.714 
#   10.286    0.000    0.000    0.000    0.000    0.000 
#    0.000    0.000    0.000    0.000    0.000    0.000 
#
# Total GULP energy -173531.548926 kJ/mol
# GULP energy per Si atom -12395.110638 kJ/mol
# Density = 2.301289 g / cm^3
# Si number density = 23.065391 Si / 1000 Ang^3
#
#
#
# Elastic Constant Matrix: (Units=GPa)
#
#
# Indices 1 2 3 4 5 6 
#
# 1 152.9317 61.4834 51.6557 0.0000 -1.7572 0.0000
# 2 61.4834 126.1770 13.3757 0.0000 -4.1954 0.0000
# 3 51.6557 13.3757 120.1630 0.0000 8.2938 0.0000
# 4 0.0000 0.0000 0.0000 24.4540 0.0000 -0.2724
# 5 -1.7572 -4.1954 8.2938 0.0000 36.8128 0.0000
# 6 0.0000 0.0000 0.0000 -0.2724 0.0000 21.0383
#
#
#
# Elastic Compliance Matrix: (Units=1/GPa)
#
#
# Indices 1 2 3 4 5 6 
#
# 1 0.009473 -0.004202 -0.003660 0.000000 0.000798 0.000000
# 2 -0.004202 0.009930 0.000647 0.000000 0.000785 0.000000
# 3 -0.003660 0.000647 0.009986 0.000000 -0.002351 0.000000
# 4 0.000000 0.000000 0.000000 0.040899 0.000000 0.000529
# 5 0.000798 0.000785 -0.002351 0.000000 0.027822 0.000000
# 6 0.000000 0.000000 0.000000 0.000529 0.000000 0.047539
#
#
# Mechanical properties :
#
#
# Convention : Reuss Voigt Hill
#
# Bulk Modulus (GPa) = 66.84665 72.47791 69.66228
# Shear Modulus (GPa) = 30.29102 34.64482 32.46792
#
# Velocity S-wave (km/s) = 3.62783 3.87980 3.75593
# Velocity P-wave (km/s) = 6.82587 7.18063 7.00550
#
# Compressibility (1/GPa) = 0.01495961
#
# Stress axis : x y z
#
# Youngs Moduli (GPa) = 105.55847 100.70142 100.14438
#
# Poissons Ratio (x) = 0.42312 0.36651
# Poissons Ratio (y) = 0.44353 -0.06476
# Poissons Ratio (z) = 0.38632 -0.06512
#
# Static dielectric constant tensor:
#      x y z
#    x 4.517490 0.000000 -0.066410 
#    y 0.000000 3.558330 0.000000 
#    z -0.066410 0.000000 4.242890 
# 
# 
# High freq. dielectric constant tensor:
#      x y z
#    x 1.922670 0.000000 0.000310 
#    y 0.000000 1.877280 0.000000 
#    z 0.000310 0.000000 1.928500 
# 
# From -- ./inp_files/23955.got.cif
#   From: 2010.03.12/outbox.cif.g09.slc.cpg/sg5_12_cif.got.tgz:23955.got - 2010.03.31 09:47:26.
