data_PCOD8051648
_publ_section_title
;
Structure prediction by ZEFSAII (Michael W. Deem and Ramdas Pophale) SiO2 
 PCOD8051648
Probable space group: C 2
;
_chemical_formula_sum "Si O2"
_cell_formula_units_Z 28
_cell_length_a 14.157899
_cell_length_b 12.677885
_cell_length_c 7.901983
_cell_angle_alpha 90.000000
_cell_angle_beta 117.143667
_cell_angle_gamma 90.000000
_cell_volume 1262.135581
_symmetry_space_group_name_H-M "C 2"
_symmetry_group_IT_number 5
_symmetry_cell_setting 'monoclinic'
loop_
_space_group_symop_operation_xyz
x,y,z
-x,y,-z
1/2+x,1/2+y,z
1/2-x,1/2+y,-z
loop_
_atom_site_type_symbol
_atom_site_label
_atom_site_fract_x
_atom_site_fract_y
_atom_site_fract_z
Si Si1 0.619422 0.048610 0.545640
Si Si2 0.616356 0.837730 0.049287
Si Si3 0.940490 0.108406 0.115082
Si Si4 0.215171 0.539322 0.975602
Si Si5 0.720853 0.141761 0.306735
Si Si6 0.407000 0.494232 0.533169
Si Si7 0.772001 0.352584 0.504363
O O1 0.500000 0.063376 0.500000
O O2 0.686417 0.081303 0.765243
O O3 0.645703 0.123088 0.407177
O O4 0.641879 0.929842 0.506535
O O5 0.688314 0.819086 0.275695
O O6 0.500000 0.882421 0.000000
O O7 0.600632 0.728646 0.934310
O O8 0.671169 0.921805 0.970638
O O9 0.033300 0.091902 0.327374
O O10 0.842764 0.033016 0.079699
O O11 0.000000 0.066654 0.000000
O O12 0.166968 0.622081 0.077902
O O13 0.811644 0.052546 0.358830
O O14 0.769227 0.256741 0.369789
O O15 0.500000 0.437340 0.500000
O O16 0.346791 0.403969 0.592241
#
# Coordination Sequence:
#
# PCOD8051648 Si02
#       7
#     4   4   4   4   4   4   4
#     4  11  25  44  69  98 135 177 231 291 344 410
#     4  11  22  42  72 101 138 186 238 283 349 414
#     4  11  23  42  67 103 133 185 230 286 341 418
#     4  12  24  42  71 100 141 178 235 291 345 412
#     4  11  24  44  65 100 142 181 229 286 347 415
#     4  11  21  42  68  99 143 180 232 288 347 409
#     4  11  23  44  67 102 142 181 232 292 345 415
#
# _framework density 22.184621
#
# number of rings (size 3 to 8) (size 9 to 14) (size 15 to 20)
#    0.000    0.857    4.286    5.143    2.000    1.143 
#    0.000    1.429    3.143    0.000    0.000    0.000 
#    0.000    0.000    0.000    0.000    0.000    0.000 
#
# Total GULP energy -173471.539014 kJ/mol
# GULP energy per Si atom -12390.824215 kJ/mol
# Density = 2.213413 g / cm^3
# Si number density = 22.184621 Si / 1000 Ang^3
#
#
#
# Elastic Constant Matrix: (Units=GPa)
#
#
# Indices 1 2 3 4 5 6 
#
# 1 144.0028 13.8826 22.8738 0.0000 3.8129 0.0000
# 2 13.8826 67.2329 12.8751 0.0000 2.0912 0.0000
# 3 22.8738 12.8751 90.0890 0.0000 -22.3625 0.0000
# 4 0.0000 0.0000 0.0000 38.7530 0.0000 6.1149
# 5 3.8129 2.0912 -22.3625 0.0000 33.0684 0.0000
# 6 0.0000 0.0000 0.0000 6.1149 0.0000 25.9155
#
#
#
# Elastic Compliance Matrix: (Units=1/GPa)
#
#
# Indices 1 2 3 4 5 6 
#
# 1 0.007478 -0.001021 -0.002344 0.000000 -0.002383 0.000000
# 2 -0.001021 0.015673 -0.002641 0.000000 -0.002659 0.000000
# 3 -0.002344 -0.002641 0.014639 0.000000 0.010337 0.000000
# 4 0.000000 0.000000 0.000000 0.026802 0.000000 -0.006324
# 5 -0.002383 -0.002659 0.010337 0.000000 0.037673 0.000000
# 6 0.000000 0.000000 0.000000 -0.006324 0.000000 0.040079
#
#
# Mechanical properties :
#
#
# Convention : Reuss Voigt Hill
#
# Bulk Modulus (GPa) = 38.79359 44.50974 41.65167
# Shear Modulus (GPa) = 30.68436 36.32693 33.50564
#
# Velocity S-wave (km/s) = 3.72309 4.05097 3.89049
# Velocity P-wave (km/s) = 6.00054 6.47977 6.24475
#
# Compressibility (1/GPa) = 0.02577745
#
# Stress axis : x y z
#
# Youngs Moduli (GPa) = 133.72151 63.80432 68.31255
#
# Poissons Ratio (x) = 0.06515 0.16015
# Poissons Ratio (y) = 0.13654 0.18039
# Poissons Ratio (z) = 0.31349 0.16849
#
# Static dielectric constant tensor:
#      x y z
#    x 4.177000 0.000000 -0.068860 
#    y 0.000000 3.779370 0.000000 
#    z -0.068860 0.000000 4.461360 
# 
# 
# High freq. dielectric constant tensor:
#      x y z
#    x 1.887440 0.000000 -0.010640 
#    y 0.000000 1.849250 0.000000 
#    z -0.010640 0.000000 1.878530 
# 
# From -- ./inp_files/23725.got.cif
#   From: 2010.03.12/outbox.cif.g09.slc.cpg/sg5_12_cif.got.tgz:23725.got - 2010.03.31 09:47:26.
