data_PCOD8051155
_publ_section_title
;
Structure prediction by ZEFSAII (Michael W. Deem and Ramdas Pophale) SiO2 
 PCOD8051155
Probable space group: C 2
;
_chemical_formula_sum "Si O2"
_cell_formula_units_Z 32
_cell_length_a 11.261088
_cell_length_b 8.966758
_cell_length_c 14.727401
_cell_angle_alpha 90.000000
_cell_angle_beta 95.312305
_cell_angle_gamma 90.000000
_cell_volume 1480.718595
_symmetry_space_group_name_H-M "C 2"
_symmetry_group_IT_number 5
_symmetry_cell_setting 'monoclinic'
loop_
_space_group_symop_operation_xyz
x,y,z
-x,y,-z
1/2+x,1/2+y,z
1/2-x,1/2+y,-z
loop_
_atom_site_type_symbol
_atom_site_label
_atom_site_fract_x
_atom_site_fract_y
_atom_site_fract_z
Si Si1 0.107140 0.175900 0.764447
Si Si2 0.866991 0.187913 0.024995
Si Si3 0.464842 0.164683 0.597558
Si Si4 0.158833 0.168109 0.295675
Si Si5 0.871307 0.511465 0.244971
Si Si6 0.607145 0.481176 0.457662
Si Si7 0.249065 0.976433 0.640015
Si Si8 0.618479 0.029461 0.958903
O O1 0.152968 0.158262 0.869798
O O2 0.135601 0.339009 0.724727
O O3 0.967779 0.149539 0.757743
O O4 0.157399 0.047857 0.703735
O O5 0.860502 0.363119 0.001230
O O6 0.746160 0.114933 0.974134
O O7 0.000000 0.128685 0.000000
O O8 0.500000 0.105836 0.500000
O O9 0.561819 0.112890 0.676928
O O10 0.454467 0.343626 0.599717
O O11 0.338822 0.104677 0.619087
O O12 0.240280 0.081200 0.230331
O O13 0.186051 0.342359 0.304725
O O14 0.174223 0.092686 0.395684
O O15 0.926053 0.523350 0.148641
O O16 0.500000 0.572489 0.500000
O O17 0.692339 0.416243 0.542384
O O18 0.500000 0.100588 0.000000
#
# Coordination Sequence:
#
# PCOD8051155 Si02
#       8
#     4   4   4   4   4   4   4   4
#     4  11  25  43  67 102 133 178 225 276 338 407
#     4  10  23  45  71 102 139 173 224 281 343 411
#     4  11  24  42  66  96 136 180 224 277 337 396
#     4  12  24  43  66  95 133 178 223 280 333 390
#     4  11  24  45  67  98 138 179 223 276 338 403
#     4  11  22  41  61  96 135 172 228 279 326 399
#     4  12  24  41  67  96 133 178 227 279 335 394
#     4  10  24  45  71 102 138 177 223 282 342 412
#
# _framework density 21.611128000000001
#
# number of rings (size 3 to 8) (size 9 to 14) (size 15 to 20)
#    0.000    1.000    2.500    4.500    1.750    4.000 
#    0.000    0.000    0.000    0.000    0.000    0.000 
#    0.000    0.000    0.000    0.000    0.000    0.000 
#
# Total GULP energy -198338.058001 kJ/mol
# GULP energy per Si atom -12396.128625 kJ/mol
# Density = 2.156194 g / cm^3
# Si number density = 21.611128 Si / 1000 Ang^3
#
#
#
# Elastic Constant Matrix: (Units=GPa)
#
#
# Indices 1 2 3 4 5 6 
#
# 1 105.8289 36.2306 24.9418 0.0000 9.7815 0.0000
# 2 36.2306 87.2161 41.6595 0.0000 -8.5117 0.0000
# 3 24.9418 41.6595 87.1064 0.0000 4.1332 0.0000
# 4 0.0000 0.0000 0.0000 24.4559 0.0000 -0.8685
# 5 9.7815 -8.5117 4.1332 0.0000 25.5754 0.0000
# 6 0.0000 0.0000 0.0000 -0.8685 0.0000 38.1761
#
#
#
# Elastic Compliance Matrix: (Units=1/GPa)
#
#
# Indices 1 2 3 4 5 6 
#
# 1 0.011983 -0.005302 -0.000599 0.000000 -0.006251 0.000000
# 2 -0.005302 0.018230 -0.007643 0.000000 0.009330 0.000000
# 3 -0.000599 -0.007643 0.015536 0.000000 -0.004825 0.000000
# 4 0.000000 0.000000 0.000000 0.040923 0.000000 0.000931
# 5 -0.006251 0.009330 -0.004825 0.000000 0.045376 0.000000
# 6 0.000000 0.000000 0.000000 0.000931 0.000000 0.026216
#
#
# Mechanical properties :
#
#
# Convention : Reuss Voigt Hill
#
# Bulk Modulus (GPa) = 53.58766 53.97948 53.78357
# Shear Modulus (GPa) = 26.09997 29.46276 27.78136
#
# Velocity S-wave (km/s) = 3.47898 3.69631 3.58929
# Velocity P-wave (km/s) = 6.40218 6.57639 6.48987
#
# Compressibility (1/GPa) = 0.01866101
#
# Stress axis : x y z
#
# Youngs Moduli (GPa) = 83.44994 54.85605 64.36646
#
# Poissons Ratio (x) = 0.29084 0.03855
# Poissons Ratio (y) = 0.44244 0.49195
# Poissons Ratio (z) = 0.04998 0.41927
#
# Static dielectric constant tensor:
#      x y z
#    x 4.384190 0.000000 0.013490 
#    y 0.000000 3.824190 0.000000 
#    z 0.013490 0.000000 4.121140 
# 
# 
# High freq. dielectric constant tensor:
#      x y z
#    x 1.866730 0.000000 -0.004060 
#    y 0.000000 1.839220 0.000000 
#    z -0.004060 0.000000 1.852540 
# 
# From -- ./inp_files/52448.got.cif
#   From: 2010.03.12/outbox.cif.g09.slc.cpg/sg5_27_cif.got.tgz:52448.got - 2010.03.31 09:47:26.
