data_PCOD8051417
_publ_section_title
;
Structure prediction by ZEFSAII (Michael W. Deem and Ramdas Pophale) SiO2 
 PCOD8051417
Probable space group: C 2
;
_chemical_formula_sum "Si O2"
_cell_formula_units_Z 20
_cell_length_a 23.642436
_cell_length_b 5.165968
_cell_length_c 13.987434
_cell_angle_alpha 90.000000
_cell_angle_beta 27.498641
_cell_angle_gamma 90.000000
_cell_volume 788.801622
_symmetry_space_group_name_H-M "C 2"
_symmetry_group_IT_number 5
_symmetry_cell_setting 'monoclinic'
loop_
_space_group_symop_operation_xyz
x,y,z
-x,y,-z
1/2+x,1/2+y,z
1/2-x,1/2+y,-z
loop_
_atom_site_type_symbol
_atom_site_label
_atom_site_fract_x
_atom_site_fract_y
_atom_site_fract_z
Si Si1 0.172663 0.968110 0.595242
Si Si2 0.646895 0.957159 0.930902
Si Si3 0.000000 0.726577 0.000000
Si Si4 0.000000 0.377002 0.500000
Si Si5 0.240371 0.970109 0.865836
Si Si6 0.997557 0.165520 0.707800
O O1 0.260684 0.720569 0.462826
O O2 0.055109 0.913418 0.837522
O O3 0.115523 0.017633 0.575536
O O4 0.601421 0.038594 0.894183
O O5 0.738003 0.179246 0.830752
O O6 0.719657 0.684145 0.812840
O O7 0.533050 0.914828 0.177277
O O8 0.874129 0.532755 0.711810
O O9 0.965544 0.222466 0.455856
O O10 0.129097 0.998853 0.108768
#
# Coordination Sequence:
#
# PCOD8051417 Si02
#       6
#     4   4   2   2   4   4
#     4  12  29  49  83 125 163 207 272 323 399 499
#     4  10  24  49  81 111 163 202 259 325 402 471
#     4  12  24  56  82 116 168 220 236 354 410 458
#     4  12  28  56  86 112 158 230 260 338 410 450
#     4  10  26  51  75 118 156 202 274 329 381 481
#     4  10  27  53  79 119 165 204 272 333 387 487
#
# _framework density 25.354918999999999
#
# number of rings (size 3 to 8) (size 9 to 14) (size 15 to 20)
#    1.200    0.000    2.000    1.200    5.600    8.000 
#    7.200    0.000    0.000    0.000    0.000    0.000 
#    0.000    0.000    0.000    0.000    0.000    0.000 
#
# Total GULP energy -123904.119316 kJ/mol
# GULP energy per Si atom -12390.411932 kJ/mol
# Density = 2.529721 g / cm^3
# Si number density = 25.354919 Si / 1000 Ang^3
#
#
#
# Elastic Constant Matrix: (Units=GPa)
#
#
# Indices 1 2 3 4 5 6 
#
# 1 141.8205 37.1271 45.3115 -0.0047 -1.7316 0.0024
# 2 37.1271 138.7104 25.2302 -0.0415 -13.2741 0.0578
# 3 45.3115 25.2302 76.3582 -0.0379 -36.6063 0.0018
# 4 -0.0047 -0.0415 -0.0379 25.8373 0.0053 -1.1916
# 5 -1.7316 -13.2741 -36.6063 0.0053 51.9984 0.0014
# 6 0.0024 0.0578 0.0018 -1.1916 0.0014 26.3369
#
#
#
# Elastic Compliance Matrix: (Units=1/GPa)
#
#
# Indices 1 2 3 4 5 6 
#
# 1 0.010068 -0.001764 -0.008221 -0.000012 -0.005903 0.000003
# 2 -0.001764 0.007982 -0.000969 0.000010 0.001297 -0.000017
# 3 -0.008221 -0.000969 0.027237 0.000033 0.018654 0.000002
# 4 -0.000012 0.000010 0.000033 0.038785 0.000021 0.001755
# 5 -0.005903 0.001297 0.018654 0.000021 0.032498 -0.000004
# 6 0.000003 -0.000017 0.000002 0.001755 -0.000004 0.038049
#
#
# Mechanical properties :
#
#
# Convention : Reuss Voigt Hill
#
# Bulk Modulus (GPa) = 42.77373 63.58078 53.17725
# Shear Modulus (GPa) = 27.12693 37.44919 32.28806
#
# Velocity S-wave (km/s) = 3.27446 3.84734 3.57241
# Velocity P-wave (km/s) = 5.58594 6.69827 6.16724
#
# Compressibility (1/GPa) = 0.02337884
#
# Stress axis : x y z
#
# Youngs Moduli (GPa) = 99.32932 125.28523 36.71449
#
# Poissons Ratio (x) = 0.22103 0.30183
# Poissons Ratio (y) = 0.17524 0.03557
# Poissons Ratio (z) = 0.81658 0.12137
#
# Static dielectric constant tensor:
#      x y z
#    x 4.285440 0.000000 -0.218430 
#    y 0.000000 4.373560 0.000020 
#    z -0.218430 0.000020 4.597180 
# 
# 
# High freq. dielectric constant tensor:
#      x y z
#    x 2.002540 0.000000 -0.019170 
#    y 0.000000 1.996960 0.000000 
#    z -0.019170 0.000000 2.024100 
# 
# From -- ./inp_files/57418.got.cif
#   From: 2010.03.12/outbox.cif.g09.slc.cpg/sg5_29_cif.got.tgz:57418.got - 2010.03.31 09:47:26.
