data_PCOD8051044
_publ_section_title
;
Structure prediction by ZEFSAII (Michael W. Deem and Ramdas Pophale) SiO2 
 PCOD8051044
Probable space group: C 2
;
_chemical_formula_sum "Si O2"
_cell_formula_units_Z 24
_cell_length_a 15.232795
_cell_length_b 8.202778
_cell_length_c 18.971534
_cell_angle_alpha 90.000000
_cell_angle_beta 27.973574
_cell_angle_gamma 90.000000
_cell_volume 1111.924668
_symmetry_space_group_name_H-M "C 2"
_symmetry_group_IT_number 5
_symmetry_cell_setting 'monoclinic'
loop_
_space_group_symop_operation_xyz
x,y,z
-x,y,-z
1/2+x,1/2+y,z
1/2-x,1/2+y,-z
loop_
_atom_site_type_symbol
_atom_site_label
_atom_site_fract_x
_atom_site_fract_y
_atom_site_fract_z
Si Si1 0.458607 0.637930 0.793772
Si Si2 0.208719 0.580704 0.350146
Si Si3 0.711761 0.753544 0.843424
Si Si4 0.758304 0.705472 0.334448
Si Si5 0.571050 0.574713 0.342146
Si Si6 0.651338 0.266757 0.104914
O O1 0.659912 0.675507 0.686842
O O2 0.465818 0.667565 0.705177
O O3 0.395355 0.455046 0.854172
O O4 0.307082 0.759054 0.934056
O O5 0.287038 0.608302 0.215222
O O6 0.203066 0.394312 0.379524
O O7 0.000000 0.653965 0.500000
O O8 0.773785 0.685885 0.875824
O O9 0.864396 0.889004 0.713648
O O10 0.500000 0.823777 0.000000
O O11 0.739339 0.660203 0.265590
O O12 0.621204 0.591012 0.477619
O O13 0.967442 0.668099 0.211561
#
# Coordination Sequence:
#
# PCOD8051044 Si02
#       6
#     4   4   4   4   4   4
#     4  10  23  42  63  93 127 164 212 259 312 374
#     4  11  23  43  64  93 131 165 211 260 315 381
#     4  11  24  43  65  95 129 165 210 261 320 379
#     4  10  23  45  63  91 126 165 216 260 313 373
#     4  10  23  43  63  92 125 163 215 260 312 369
#     4  10  23  42  63  93 126 165 210 259 314 376
#
# _framework density 21.584195000000001
#
# number of rings (size 3 to 8) (size 9 to 14) (size 15 to 20)
#    0.000    1.667    3.333    0.000    9.333    1.333 
#    0.000    0.000    0.000    0.000    0.000    0.000 
#    0.000    0.000    0.000    0.000    0.000    0.000 
#
# Total GULP energy -148777.427779 kJ/mol
# GULP energy per Si atom -12398.118982 kJ/mol
# Density = 2.153507 g / cm^3
# Si number density = 21.584195 Si / 1000 Ang^3
#
#
#
# Elastic Constant Matrix: (Units=GPa)
#
#
# Indices 1 2 3 4 5 6 
#
# 1 215.0632 13.1947 77.0950 -0.0008 -8.7052 0.0004
# 2 13.1947 28.8903 31.1617 -0.0010 -0.8511 0.0004
# 3 77.0950 31.1617 126.6991 -0.0013 -13.2172 0.0009
# 4 -0.0008 -0.0010 -0.0013 31.2702 0.0008 6.1223
# 5 -8.7052 -0.8511 -13.2172 0.0008 45.7786 -0.0003
# 6 0.0004 0.0004 0.0009 6.1223 -0.0003 26.6039
#
#
#
# Elastic Compliance Matrix: (Units=1/GPa)
#
#
# Indices 1 2 3 4 5 6 
#
# 1 0.006003 0.001631 -0.004054 0.000000 0.000001 0.000000
# 2 0.001631 0.047844 -0.013027 0.000001 -0.002562 -0.000001
# 3 -0.004054 -0.013027 0.013876 0.000000 0.002993 0.000000
# 4 0.000000 0.000001 0.000000 0.033488 -0.000001 -0.007707
# 5 0.000001 -0.002562 0.002993 -0.000001 0.022661 0.000000
# 6 0.000000 -0.000001 0.000000 -0.007707 0.000000 0.039362
#
#
# Mechanical properties :
#
#
# Convention : Reuss Voigt Hill
#
# Bulk Modulus (GPa) = 27.15669 68.17283 47.66476
# Shear Modulus (GPa) = 24.22385 37.34396 30.78391
#
# Velocity S-wave (km/s) = 3.35370 4.16402 3.78064
# Velocity P-wave (km/s) = 5.25409 7.40081 6.41784
#
# Compressibility (1/GPa) = 0.03682335
#
# Stress axis : x y z
#
# Youngs Moduli (GPa) = 166.58496 20.90109 72.06938
#
# Poissons Ratio (x) = -0.03408 0.29214
# Poissons Ratio (y) = -0.27166 0.93884
# Poissons Ratio (z) = 0.67528 0.27228
#
# Static dielectric constant tensor:
#      x y z
#    x 4.538180 0.000000 -0.114700 
#    y 0.000000 3.451200 0.000000 
#    z -0.114700 0.000000 3.876810 
# 
# 
# High freq. dielectric constant tensor:
#      x y z
#    x 1.874650 0.000000 -0.007580 
#    y 0.000000 1.816870 0.000000 
#    z -0.007580 0.000000 1.846810 
# 
# From -- ./inp_files/22868.got.cif
#   From: 2010.03.12/outbox.cif.g09.slc.cpg/sg5_12_cif.got.tgz:22868.got - 2010.03.31 09:47:26.
