data_PCOD8051850
_publ_section_title
;
Structure prediction by ZEFSAII (Michael W. Deem and Ramdas Pophale) SiO2 
 PCOD8051850
Probable space group: C 2
;
_chemical_formula_sum "Si O2"
_cell_formula_units_Z 24
_cell_length_a 15.185148
_cell_length_b 13.470165
_cell_length_c 9.791270
_cell_angle_alpha 90.000000
_cell_angle_beta 144.502921
_cell_angle_gamma 90.000000
_cell_volume 1162.931049
_symmetry_space_group_name_H-M "C 2"
_symmetry_group_IT_number 5
_symmetry_cell_setting 'monoclinic'
loop_
_space_group_symop_operation_xyz
x,y,z
-x,y,-z
1/2+x,1/2+y,z
1/2-x,1/2+y,-z
loop_
_atom_site_type_symbol
_atom_site_label
_atom_site_fract_x
_atom_site_fract_y
_atom_site_fract_z
Si Si1 0.636031 0.262410 0.360101
Si Si2 0.329386 0.562572 0.243146
Si Si3 0.882728 0.543529 0.549573
Si Si4 0.799141 0.477175 0.167598
Si Si5 0.171127 0.419448 0.258762
Si Si6 0.201945 0.772672 0.136044
O O1 0.618719 0.152459 0.393309
O O2 0.724842 0.322070 0.590749
O O3 0.725572 0.263814 0.329258
O O4 0.468206 0.304064 0.120561
O O5 0.500000 0.582383 0.500000
O O6 0.239451 0.491532 0.231912
O O7 0.245300 0.667922 0.124079
O O8 0.336415 0.509512 0.103956
O O9 0.776173 0.535189 0.281501
O O10 0.818924 0.471573 0.583321
O O11 0.049436 0.509131 0.718697
O O12 0.807041 0.359301 0.206866
O O13 0.000000 0.390082 0.000000
#
# Coordination Sequence:
#
# PCOD8051850 Si02
#       6
#     4   4   4   4   4   4
#     4  11  23  44  72 100 135 194 236 282 359 429
#     4  12  26  44  70 105 146 185 238 297 355 421
#     4  11  23  45  70  98 139 186 230 293 350 419
#     4  11  24  44  68 102 140 179 232 298 351 406
#     4  12  23  46  71 101 143 190 237 291 354 429
#     4  11  23  43  72  99 139 185 238 288 358 420
#
# _framework density 20.637508
#
# number of rings (size 3 to 8) (size 9 to 14) (size 15 to 20)
#    0.000    0.667    6.667    1.000    2.333    1.333 
#    6.000    0.000    0.000    0.000    0.000    0.000 
#    0.000    0.000    0.000    0.000    0.000    0.000 
#
# Total GULP energy -148817.867204 kJ/mol
# GULP energy per Si atom -12401.488934 kJ/mol
# Density = 2.059054 g / cm^3
# Si number density = 20.637508 Si / 1000 Ang^3
#
#
#
# Elastic Constant Matrix: (Units=GPa)
#
#
# Indices 1 2 3 4 5 6 
#
# 1 93.0135 52.8935 47.1077 0.0000 -20.9386 0.0000
# 2 52.8935 143.2292 40.7568 0.0000 -2.2332 0.0000
# 3 47.1077 40.7568 113.1680 0.0000 -8.6765 0.0000
# 4 0.0000 0.0000 0.0000 31.7606 0.0000 -4.1717
# 5 -20.9386 -2.2332 -8.6765 0.0000 35.7584 0.0000
# 6 0.0000 0.0000 0.0000 -4.1717 0.0000 43.4278
#
#
#
# Elastic Compliance Matrix: (Units=1/GPa)
#
#
# Indices 1 2 3 4 5 6 
#
# 1 0.018329 -0.005186 -0.005058 0.000000 0.009181 0.000000
# 2 -0.005186 0.009248 -0.001386 0.000000 -0.002796 0.000000
# 3 -0.005058 -0.001386 0.011420 0.000000 -0.000277 0.000000
# 4 0.000000 0.000000 0.000000 0.031888 0.000000 0.003063
# 5 0.009181 -0.002796 -0.000277 0.000000 0.033100 0.000000
# 6 0.000000 0.000000 0.000000 0.003063 0.000000 0.023321
#
#
# Mechanical properties :
#
#
# Convention : Reuss Voigt Hill
#
# Bulk Modulus (GPa) = 63.54834 70.10296 66.82565
# Shear Modulus (GPa) = 32.09013 36.09954 34.09484
#
# Velocity S-wave (km/s) = 3.94755 4.18690 4.06899
# Velocity P-wave (km/s) = 7.18589 7.57734 7.38421
#
# Compressibility (1/GPa) = 0.01573605
#
# Stress axis : x y z
#
# Youngs Moduli (GPa) = 54.55869 108.13267 87.56761
#
# Poissons Ratio (x) = 0.56081 0.44291
# Poissons Ratio (y) = 0.28296 0.12137
# Poissons Ratio (z) = 0.27595 0.14988
#
# Static dielectric constant tensor:
#      x y z
#    x 3.898740 0.000000 -0.281750 
#    y 0.000000 3.771330 0.000000 
#    z -0.281750 0.000000 4.049900 
# 
# 
# High freq. dielectric constant tensor:
#      x y z
#    x 1.808390 0.000000 -0.014270 
#    y 0.000000 1.812450 0.000000 
#    z -0.014270 0.000000 1.814010 
# 
# From -- ./inp_files/44735.got.cif
#   From: 2010.03.12/outbox.cif.g09.slc.cpg/sg5_23_cif.got.tgz:44735.got - 2010.03.31 09:47:26.
