data_PCOD8051962
_publ_section_title
;
Structure prediction by ZEFSAII (Michael W. Deem and Ramdas Pophale) SiO2 
 PCOD8051962
Probable space group: C 2
;
_chemical_formula_sum "Si O2"
_cell_formula_units_Z 22
_cell_length_a 5.393388
_cell_length_b 28.841581
_cell_length_c 5.475134
_cell_angle_alpha 90.000000
_cell_angle_beta 89.368618
_cell_angle_gamma 90.000000
_cell_volume 851.626390
_symmetry_space_group_name_H-M "C 2"
_symmetry_group_IT_number 5
_symmetry_cell_setting 'monoclinic'
loop_
_space_group_symop_operation_xyz
x,y,z
-x,y,-z
1/2+x,1/2+y,z
1/2-x,1/2+y,-z
loop_
_atom_site_type_symbol
_atom_site_label
_atom_site_fract_x
_atom_site_fract_y
_atom_site_fract_z
Si Si1 0.249465 0.425590 0.128961
Si Si2 0.754245 0.613763 0.849444
Si Si3 0.850147 0.212678 0.254995
Si Si4 0.752965 0.015714 0.365605
Si Si5 0.500000 0.868008 0.500000
Si Si6 0.635030 0.309201 0.247463
O O1 0.257116 0.482086 0.130766
O O2 0.222197 0.401152 0.395372
O O3 0.500000 0.406703 0.000000
O O4 0.000000 0.409222 0.000000
O O5 0.783125 0.662639 0.707535
O O6 0.736918 0.570702 0.669190
O O7 0.500000 0.614078 0.000000
O O8 0.000000 0.604968 0.000000
O O9 0.652832 0.253471 0.229083
O O10 0.000000 0.223045 0.500000
O O11 0.000000 0.211558 0.000000
O O12 0.500000 0.002103 0.500000
O O13 0.000000 0.000027 0.500000
O O14 0.399595 0.834969 0.278735
O O15 0.500000 0.322434 0.500000
O O16 0.500000 0.326502 0.000000
#
# Coordination Sequence:
#
# PCOD8051962 Si02
#       6
#     4   4   4   4   2   4
#     4  12  29  51  81 111 162 211 270 341 418 490
#     4  11  24  44  73 113 156 207 261 321 401 487
#     4  11  24  48  77 115 160 208 266 333 406 490
#     4  12  24  45  74 113 158 206 262 332 401 489
#     4  12  32  52  74 120 160 208 290 342 422 498
#     4  12  29  50  82 115 161 215 274 345 418 493
#
# _framework density 25.832926
#
# number of rings (size 3 to 8) (size 9 to 14) (size 15 to 20)
#    0.000    0.364    1.818    5.455    5.091    3.636 
#    0.000    0.000    0.000    0.000    0.000    0.000 
#    0.000    0.000    0.000    0.000    0.000    0.000 
#
# Total GULP energy -136322.597143 kJ/mol
# GULP energy per Si atom -12392.963377 kJ/mol
# Density = 2.577413 g / cm^3
# Si number density = 25.832926 Si / 1000 Ang^3
#
#
#
# Elastic Constant Matrix: (Units=GPa)
#
#
# Indices 1 2 3 4 5 6 
#
# 1 183.0678 31.5992 55.4560 0.0000 3.8206 0.0000
# 2 31.5992 173.4083 32.3415 0.0000 -1.8519 0.0000
# 3 55.4560 32.3415 143.5849 0.0000 5.4685 0.0000
# 4 0.0000 0.0000 0.0000 21.9603 0.0000 -8.3221
# 5 3.8206 -1.8519 5.4685 0.0000 50.9704 0.0000
# 6 0.0000 0.0000 0.0000 -8.3221 0.0000 19.0004
#
#
#
# Elastic Compliance Matrix: (Units=1/GPa)
#
#
# Indices 1 2 3 4 5 6 
#
# 1 0.006275 -0.000726 -0.002250 0.000000 -0.000255 0.000000
# 2 -0.000726 0.006111 -0.001111 0.000000 0.000396 0.000000
# 3 -0.002250 -0.001111 0.008112 0.000000 -0.000742 0.000000
# 4 0.000000 0.000000 0.000000 0.054599 0.000000 0.023914
# 5 -0.000255 0.000396 -0.000742 0.000000 0.019732 0.000000
# 6 0.000000 0.000000 0.000000 0.023914 0.000000 0.063105
#
#
# Mechanical properties :
#
#
# Convention : Reuss Voigt Hill
#
# Bulk Modulus (GPa) = 81.15252 82.09495 81.62374
# Shear Modulus (GPa) = 29.37441 43.76384 36.56913
#
# Velocity S-wave (km/s) = 3.37574 4.12042 3.76653
# Velocity P-wave (km/s) = 6.83204 7.38142 7.11203
#
# Compressibility (1/GPa) = 0.01232248
#
# Stress axis : x y z
#
# Youngs Moduli (GPa) = 159.36756 163.65219 123.27355
#
# Poissons Ratio (x) = 0.11889 0.27738
# Poissons Ratio (y) = 0.11578 0.13694
# Poissons Ratio (z) = 0.35860 0.18179
#
# Static dielectric constant tensor:
#      x y z
#    x 4.705560 0.000000 0.067150 
#    y 0.000000 5.215820 0.000000 
#    z 0.067150 0.000000 4.540490 
# 
# 
# High freq. dielectric constant tensor:
#      x y z
#    x 2.036240 0.000000 0.003630 
#    y 0.000000 2.070710 0.000000 
#    z 0.003630 0.000000 2.019610 
# 
# From -- ./inp_files/1284.got.cif
#   From: 2010.03.12/outbox.cif.g09.slc.cpg/sg5_1_cif.got.tgz:1284.got - 2010.03.31 09:47:26.
