data_PCOD8051177
_publ_section_title
;
Structure prediction by ZEFSAII (Michael W. Deem and Ramdas Pophale) SiO2 
 PCOD8051177
Probable space group: C 2
;
_chemical_formula_sum "Si O2"
_cell_formula_units_Z 32
_cell_length_a 8.774815
_cell_length_b 22.216026
_cell_length_c 14.384888
_cell_angle_alpha 90.000000
_cell_angle_beta 149.251674
_cell_angle_gamma 90.000000
_cell_volume 1433.703747
_symmetry_space_group_name_H-M "C 2"
_symmetry_group_IT_number 5
_symmetry_cell_setting 'monoclinic'
loop_
_space_group_symop_operation_xyz
x,y,z
-x,y,-z
1/2+x,1/2+y,z
1/2-x,1/2+y,-z
loop_
_atom_site_type_symbol
_atom_site_label
_atom_site_fract_x
_atom_site_fract_y
_atom_site_fract_z
Si Si1 0.351346 0.268160 0.688857
Si Si2 0.701041 0.236364 0.695211
Si Si3 0.851924 0.038468 0.322673
Si Si4 0.562106 0.608713 0.136400
Si Si5 0.768356 0.820416 0.962932
Si Si6 0.815471 0.999255 0.681131
Si Si7 0.117833 0.440154 0.960229
Si Si8 0.543765 0.156478 0.124251
O O1 0.500302 0.271100 0.665415
O O2 0.407252 0.205142 0.770481
O O3 0.000000 0.282021 0.500000
O O4 0.525048 0.318959 0.837099
O O5 0.500000 0.229350 0.500000
O O6 0.761824 0.171550 0.771753
O O7 0.014914 0.268228 0.833073
O O8 0.807730 0.107893 0.268902
O O9 0.000000 0.036408 0.500000
O O10 0.066451 0.010358 0.359795
O O11 0.552381 0.998314 0.169001
O O12 0.745669 0.559985 0.291588
O O13 0.500000 0.585910 0.000000
O O14 0.245355 0.615885 0.017580
O O15 0.593931 0.884218 0.875617
O O16 0.000000 0.813523 0.000000
O O17 0.500000 0.966313 0.500000
O O18 0.034192 0.956653 0.853084
O O19 0.000000 0.421164 0.000000
O O20 0.500000 0.188013 0.000000
#
# Coordination Sequence:
#
# PCOD8051177 Si02
#       8
#     4   4   4   4   4   4   4   4
#     4  12  26  43  68 100 133 176 218 270 329 393
#     4  12  26  44  67  99 135 174 220 270 328 392
#     4  11  24  42  66  97 131 175 216 264 327 388
#     4  12  23  40  67  97 134 178 214 265 330 385
#     4  12  26  46  71  97 128 172 220 276 332 390
#     4  11  25  41  66  98 133 170 216 269 323 388
#     4  10  23  47  68  90 129 174 218 272 328 386
#     4  12  22  41  69  96 135 175 218 263 324 393
#
# _framework density 22.319814000000001
#
# number of rings (size 3 to 8) (size 9 to 14) (size 15 to 20)
#    0.000    0.500    5.000    3.375    3.500    4.500 
#    0.000    2.500    0.000    0.000    0.000    0.000 
#    0.000    0.000    0.000    0.000    0.000    0.000 
#
# Total GULP energy -198376.985208 kJ/mol
# GULP energy per Si atom -12398.561576 kJ/mol
# Density = 2.226901 g / cm^3
# Si number density = 22.319814 Si / 1000 Ang^3
#
#
#
# Elastic Constant Matrix: (Units=GPa)
#
#
# Indices 1 2 3 4 5 6 
#
# 1 110.4960 7.1628 32.1958 0.0010 -3.6518 0.0014
# 2 7.1628 79.4335 12.9321 0.0001 0.6334 -0.0001
# 3 32.1958 12.9321 133.7777 -0.0006 1.5116 0.0005
# 4 0.0010 0.0001 -0.0006 19.7042 -0.0005 -4.7270
# 5 -3.6518 0.6334 1.5116 -0.0005 47.3322 0.0000
# 6 0.0014 -0.0001 0.0005 -4.7270 0.0000 28.7880
#
#
#
# Elastic Compliance Matrix: (Units=1/GPa)
#
#
# Indices 1 2 3 4 5 6 
#
# 1 0.009785 -0.000512 -0.002315 -0.000001 0.000836 -0.000001
# 2 -0.000512 0.012818 -0.001114 0.000000 -0.000175 0.000000
# 3 -0.002315 -0.001114 0.008145 0.000000 -0.000424 0.000000
# 4 -0.000001 0.000000 0.000000 0.052832 0.000001 0.008675
# 5 0.000836 -0.000175 -0.000424 0.000001 0.021208 0.000000
# 6 -0.000001 0.000000 0.000000 0.008675 0.000000 0.036161
#
#
# Mechanical properties :
#
#
# Convention : Reuss Voigt Hill
#
# Bulk Modulus (GPa) = 43.73263 47.58763 45.66013
# Shear Modulus (GPa) = 31.95856 37.25932 34.60894
#
# Velocity S-wave (km/s) = 3.78808 4.09019 3.94203
# Velocity P-wave (km/s) = 6.22647 6.60857 6.42036
#
# Compressibility (1/GPa) = 0.02286622
#
# Stress axis : x y z
#
# Youngs Moduli (GPa) = 102.19257 78.01486 122.77946
#
# Poissons Ratio (x) = 0.03996 0.28423
# Poissons Ratio (y) = 0.05234 0.13676
# Poissons Ratio (z) = 0.23657 0.08690
#
# Static dielectric constant tensor:
#      x y z
#    x 3.753800 0.000010 0.223730 
#    y 0.000010 3.899740 0.000010 
#    z 0.223730 0.000010 4.064790 
# 
# 
# High freq. dielectric constant tensor:
#      x y z
#    x 1.889190 0.000000 0.001900 
#    y 0.000000 1.870030 0.000000 
#    z 0.001900 0.000000 1.884740 
# 
# From -- ./inp_files/51663.got.cif
#   From: 2010.03.12/outbox.cif.g09.slc.cpg/sg5_26_cif.got.tgz:51663.got - 2010.03.31 09:47:26.
