data_PCOD8051587
_publ_section_title
;
Structure prediction by ZEFSAII (Michael W. Deem and Ramdas Pophale) SiO2 
 PCOD8051587
Probable space group: C 2
;
_chemical_formula_sum "Si O2"
_cell_formula_units_Z 26
_cell_length_a 17.961209
_cell_length_b 9.001261
_cell_length_c 8.328584
_cell_angle_alpha 90.000000
_cell_angle_beta 125.806228
_cell_angle_gamma 90.000000
_cell_volume 1092.021198
_symmetry_space_group_name_H-M "C 2"
_symmetry_group_IT_number 5
_symmetry_cell_setting 'monoclinic'
loop_
_space_group_symop_operation_xyz
x,y,z
-x,y,-z
1/2+x,1/2+y,z
1/2-x,1/2+y,-z
loop_
_atom_site_type_symbol
_atom_site_label
_atom_site_fract_x
_atom_site_fract_y
_atom_site_fract_z
Si Si1 0.500000 0.591440 0.500000
Si Si2 0.989624 0.749288 0.807594
Si Si3 0.198929 0.956760 0.761949
Si Si4 0.463011 0.587954 0.116905
Si Si5 0.326412 0.159723 0.110475
Si Si6 0.728572 0.522724 0.258909
Si Si7 0.787051 0.776027 0.521049
O O1 0.591046 0.491392 0.613351
O O2 0.490563 0.680468 0.315885
O O3 0.888321 0.707780 0.620362
O O4 0.065961 0.667864 0.796405
O O5 0.989389 0.928331 0.804367
O O6 0.000000 0.688961 0.000000
O O7 0.211705 0.825905 0.909275
O O8 0.235980 0.901831 0.637942
O O9 0.265042 0.093529 0.889262
O O10 0.500000 0.667059 0.000000
O O11 0.354568 0.558663 0.968694
O O12 0.317596 0.060092 0.262446
O O13 0.720767 0.634740 0.403332
O O14 0.726331 0.352028 0.319525
#
# Coordination Sequence:
#
# PCOD8051587 Si02
#       7
#     2   4   4   4   4   4   4
#     4  12  18  38  68  98 132 186 234 282 344 418
#     4  11  21  39  68  96 134 185 241 275 342 426
#     4  11  22  37  66 101 136 177 237 282 353 407
#     4  11  20  39  67 101 130 181 239 287 326 423
#     4  11  23  40  67 101 142 178 232 295 341 414
#     4  11  23  41  66 106 143 175 237 294 351 411
#     4  11  24  40  68 100 134 186 232 293 346 423
#
# _framework density 23.809063999999999
#
# number of rings (size 3 to 8) (size 9 to 14) (size 15 to 20)
#    0.000    0.923    7.692    0.000    2.154    1.846 
#    0.000    0.000    6.769    6.462    0.000    2.154 
#    0.000    0.000    0.000    0.000    0.000    0.000 
#
# Total GULP energy -161075.316884 kJ/mol
# GULP energy per Si atom -12390.408991 kJ/mol
# Density = 2.375487 g / cm^3
# Si number density = 23.809064 Si / 1000 Ang^3
#
#
#
# Elastic Constant Matrix: (Units=GPa)
#
#
# Indices 1 2 3 4 5 6 
#
# 1 92.8641 23.6230 26.8374 0.0000 -24.9658 0.0000
# 2 23.6230 51.2757 33.3677 0.0000 6.6929 0.0000
# 3 26.8374 33.3677 152.6335 0.0000 -13.3427 0.0000
# 4 0.0000 0.0000 0.0000 29.7235 0.0000 -1.2003
# 5 -24.9658 6.6929 -13.3427 0.0000 36.1730 0.0000
# 6 0.0000 0.0000 0.0000 -1.2003 0.0000 21.2317
#
#
#
# Elastic Compliance Matrix: (Units=1/GPa)
#
#
# Indices 1 2 3 4 5 6 
#
# 1 0.016768 -0.009720 0.000357 0.000000 0.013503 0.000000
# 2 -0.009720 0.029822 -0.006075 0.000000 -0.014467 0.000000
# 3 0.000357 -0.006075 0.008201 0.000000 0.004396 0.000000
# 4 0.000000 0.000000 0.000000 0.033720 0.000000 0.001906
# 5 0.013503 -0.014467 0.004396 0.000000 0.041263 0.000000
# 6 0.000000 0.000000 0.000000 0.001906 0.000000 0.047207
#
#
# Mechanical properties :
#
#
# Convention : Reuss Voigt Hill
#
# Bulk Modulus (GPa) = 41.81432 51.60326 46.70879
# Shear Modulus (GPa) = 23.16646 31.62199 27.39422
#
# Velocity S-wave (km/s) = 3.12269 3.64833 3.39570
# Velocity P-wave (km/s) = 5.53192 6.28235 5.91904
#
# Compressibility (1/GPa) = 0.02391525
#
# Stress axis : x y z
#
# Youngs Moduli (GPa) = 59.63743 33.53208 121.93305
#
# Poissons Ratio (x) = 0.32593 -0.04353
# Poissons Ratio (y) = 0.57967 0.74076
# Poissons Ratio (z) = -0.02129 0.20371
#
# Static dielectric constant tensor:
#      x y z
#    x 4.384500 0.000000 -0.380920 
#    y 0.000000 3.772660 0.000000 
#    z -0.380920 0.000000 4.741130 
# 
# 
# High freq. dielectric constant tensor:
#      x y z
#    x 1.944300 0.000000 -0.017930 
#    y 0.000000 1.882330 0.000000 
#    z -0.017930 0.000000 1.968910 
# 
# From -- ./inp_files/29021.got.cif
#   From: 2010.03.12/outbox.cif.g09.slc.cpg/sg5_15_cif.got.tgz:29021.got - 2010.03.31 09:47:26.
