data_PCOD8051679
_publ_section_title
;
Structure prediction by ZEFSAII (Michael W. Deem and Ramdas Pophale) SiO2 
 PCOD8051679
Probable space group: C 2
;
_chemical_formula_sum "Si O2"
_cell_formula_units_Z 30
_cell_length_a 15.532269
_cell_length_b 17.888454
_cell_length_c 12.289831
_cell_angle_alpha 90.000000
_cell_angle_beta 154.093987
_cell_angle_gamma 90.000000
_cell_volume 1491.873095
_symmetry_space_group_name_H-M "C 2"
_symmetry_group_IT_number 5
_symmetry_cell_setting 'monoclinic'
loop_
_space_group_symop_operation_xyz
x,y,z
-x,y,-z
1/2+x,1/2+y,z
1/2-x,1/2+y,-z
loop_
_atom_site_type_symbol
_atom_site_label
_atom_site_fract_x
_atom_site_fract_y
_atom_site_fract_z
Si Si1 0.531838 0.470520 0.748165
Si Si2 0.944243 0.816420 0.556329
Si Si3 0.390949 0.030710 0.263833
Si Si4 0.362303 0.147424 0.929371
Si Si5 0.173058 0.567793 0.416840
Si Si6 0.250735 0.692989 0.965737
Si Si7 0.616758 0.703568 0.238977
Si Si8 0.500000 0.555532 0.500000
O O1 0.459051 0.385659 0.656011
O O2 0.363460 0.524978 0.596925
O O3 0.593620 0.504937 0.701801
O O4 0.711182 0.473244 0.038285
O O5 0.728303 0.780009 0.329346
O O6 0.000000 0.846789 0.500000
O O7 0.107207 0.755313 0.761243
O O8 0.500000 0.016809 0.500000
O O9 0.557644 0.012455 0.365565
O O10 0.305170 0.114266 0.152304
O O11 0.179569 0.107269 0.660254
O O12 0.500000 0.195812 0.000000
O O13 0.522783 0.086173 0.149332
O O14 0.267148 0.191836 0.922938
O O15 0.222478 0.643159 0.540974
O O16 0.469595 0.716013 0.174189
O O17 0.500000 0.673796 0.000000
#
# Coordination Sequence:
#
# PCOD8051679 Si02
#       8
#     4   4   4   4   4   4   4   2
#     4  12  25  40  65  99 137 175 217 278 340 407
#     4  12  25  42  64  98 141 172 215 282 345 404
#     4  11  22  41  70  96 130 173 231 282 327 396
#     4  11  22  37  66  93 130 171 229 275 325 393
#     4  11  22  38  65  98 127 171 225 279 325 400
#     4  11  22  40  65  99 129 174 223 277 340 391
#     4  12  22  39  69 101 130 171 223 282 340 397
#     4  12  20  40  60  96 134 174 218 266 336 398
#
# _framework density 20.108948999999999
#
# number of rings (size 3 to 8) (size 9 to 14) (size 15 to 20)
#    0.000    0.533   10.000    1.200    0.000    1.067 
#    2.400    0.000    4.400    0.000    0.000    0.000 
#    0.000    0.000    0.000    0.000    0.000    0.000 
#
# Total GULP energy -185890.550539 kJ/mol
# GULP energy per Si atom -12392.703369 kJ/mol
# Density = 2.006318 g / cm^3
# Si number density = 20.108949 Si / 1000 Ang^3
#
#
#
# Elastic Constant Matrix: (Units=GPa)
#
#
# Indices 1 2 3 4 5 6 
#
# 1 127.0671 18.7608 38.3597 -0.0001 19.2783 -0.0001
# 2 18.7608 67.1163 29.4816 0.0000 -4.7389 0.0000
# 3 38.3597 29.4816 123.0577 -0.0001 -0.9023 -0.0001
# 4 -0.0001 0.0000 -0.0001 9.8065 -0.0001 -12.0923
# 5 19.2783 -4.7389 -0.9023 -0.0001 34.5343 -0.0001
# 6 -0.0001 0.0000 -0.0001 -12.0923 -0.0001 9.0852
#
#
#
# Elastic Compliance Matrix: (Units=1/GPa)
#
#
# Indices 1 2 3 4 5 6 
#
# 1 0.009847 -0.002009 -0.002631 0.000000 -0.005841 0.000000
# 2 -0.002009 0.017228 -0.003476 0.000000 0.003395 0.000000
# 3 -0.002631 -0.003476 0.009788 0.000000 0.001247 0.000000
# 4 0.000000 0.000000 0.000000 -0.159026 -0.000001 -0.211662
# 5 -0.005841 0.003395 0.001247 -0.000001 0.032716 -0.000001
# 6 0.000000 0.000000 0.000000 -0.211662 -0.000001 -0.171651
#
#
# Mechanical properties :
#
#
# Convention : Reuss Voigt Hill
#
# Bulk Modulus (GPa) = 48.47219 54.49393 51.48306
# Shear Modulus (GPa) = -21.00948 26.06112 2.52582
#
# Velocity S-wave (km/s) = -3.23582 3.60390 1.12196
# Velocity P-wave (km/s) = 3.19319 6.66901 5.22839
#
# Compressibility (1/GPa) = 0.02063039
#
# Stress axis : x y z
#
# Youngs Moduli (GPa) = 101.55358 58.04580 102.16236
#
# Poissons Ratio (x) = 0.11663 0.26879
# Poissons Ratio (y) = 0.20405 0.35513
# Poissons Ratio (z) = 0.26719 0.20177
#
# Static dielectric constant tensor:
#      x y z
#    x 4.291840 0.000000 0.025440 
#    y 0.000000 3.339400 0.000000 
#    z 0.025440 0.000000 3.879480 
# 
# 
# High freq. dielectric constant tensor:
#      x y z
#    x 1.803400 0.000000 0.012930 
#    y 0.000000 1.735120 0.000000 
#    z 0.012930 0.000000 1.799480 
# 
# From -- ./inp_files/43311.got.cif
#   From: 2010.03.12/outbox.cif.g09.slc.cpg/sg5_22_cif.got.tgz:43311.got - 2010.03.31 09:47:26.
