data_PCOD8051337
_publ_section_title
;
Structure prediction by ZEFSAII (Michael W. Deem and Ramdas Pophale) SiO2 
 PCOD8051337
Probable space group: C 2
;
_chemical_formula_sum "Si O2"
_cell_formula_units_Z 28
_cell_length_a 27.135389
_cell_length_b 8.208178
_cell_length_c 5.257341
_cell_angle_alpha 90.000000
_cell_angle_beta 92.668169
_cell_angle_gamma 90.000000
_cell_volume 1169.709149
_symmetry_space_group_name_H-M "C 2"
_symmetry_group_IT_number 5
_symmetry_cell_setting 'monoclinic'
loop_
_space_group_symop_operation_xyz
x,y,z
-x,y,-z
1/2+x,1/2+y,z
1/2-x,1/2+y,-z
loop_
_atom_site_type_symbol
_atom_site_label
_atom_site_fract_x
_atom_site_fract_y
_atom_site_fract_z
Si Si1 0.313957 0.248580 0.632666
Si Si2 0.731399 0.369843 0.890864
Si Si3 0.676988 0.886025 0.381089
Si Si4 0.000000 0.718135 0.500000
Si Si5 0.664743 0.639106 0.777628
Si Si6 0.500000 0.994568 0.000000
Si Si7 0.911713 0.260581 0.868059
Si Si8 0.593134 0.437964 0.416116
O O1 0.288653 0.350319 0.403275
O O2 0.368520 0.317514 0.718098
O O3 0.316123 0.068021 0.516679
O O4 0.283563 0.245028 0.890823
O O5 0.790877 0.367956 0.874901
O O6 0.705608 0.542725 0.957842
O O7 0.695732 0.748480 0.583340
O O8 0.617612 0.858444 0.357860
O O9 0.002003 0.605709 0.750652
O O10 0.952393 0.833825 0.489154
O O11 0.623866 0.516335 0.651482
O O12 0.632328 0.755802 0.942077
O O13 0.454892 0.869747 0.987259
O O14 0.928085 0.080321 0.776406
#
# Coordination Sequence:
#
# PCOD8051337 Si02
#       8
#     4   4   4   2   4   2   4   4
#     4  11  25  44  68 105 141 191 241 306 358 432
#     4  11  25  44  69 102 148 190 247 295 365 435
#     4  11  26  41  72 102 146 191 246 304 363 425
#     4  12  30  50  80 114 144 188 248 310 374 436
#     4  10  24  45  69 106 145 196 243 300 364 442
#     4  12  32  48  78 112 154 184 248 308 378 428
#     4  11  26  47  74 104 149 195 244 299 373 438
#     4  10  25  46  74 102 147 188 247 296 373 440
#
# _framework density 23.937574000000001
#
# number of rings (size 3 to 8) (size 9 to 14) (size 15 to 20)
#    0.000    1.143    1.429    1.714   16.000    1.143 
#    0.000    0.000    0.000    0.000    0.000    0.000 
#    0.000    0.000    0.000    0.000    0.000    0.000 
#
# Total GULP energy -173488.529188 kJ/mol
# GULP energy per Si atom -12392.037799 kJ/mol
# Density = 2.388309 g / cm^3
# Si number density = 23.937574 Si / 1000 Ang^3
#
#
#
# Elastic Constant Matrix: (Units=GPa)
#
#
# Indices 1 2 3 4 5 6 
#
# 1 135.4091 59.7885 29.2828 0.0000 -15.3992 0.0000
# 2 59.7885 137.9602 28.9675 0.0000 -3.9435 0.0000
# 3 29.2828 28.9675 95.4774 0.0000 -6.9794 0.0000
# 4 0.0000 0.0000 0.0000 29.9402 0.0000 -15.4966
# 5 -15.3992 -3.9435 -6.9794 0.0000 29.0917 0.0000
# 6 0.0000 0.0000 0.0000 -15.4966 0.0000 39.8774
#
#
#
# Elastic Compliance Matrix: (Units=1/GPa)
#
#
# Indices 1 2 3 4 5 6 
#
# 1 0.009915 -0.003846 -0.001556 0.000000 0.004354 0.000000
# 2 -0.003846 0.009240 -0.001711 0.000000 -0.001194 0.000000
# 3 -0.001556 -0.001711 0.011596 0.000000 0.001727 0.000000
# 4 0.000000 0.000000 0.000000 0.041809 0.000000 0.016247
# 5 0.004354 -0.001194 0.001727 0.000000 0.036931 0.000000
# 6 0.000000 0.000000 0.000000 0.016247 0.000000 0.031391
#
#
# Mechanical properties :
#
#
# Convention : Reuss Voigt Hill
#
# Bulk Modulus (GPa) = 60.51175 67.21381 63.86278
# Shear Modulus (GPa) = 31.13015 36.50239 33.81627
#
# Velocity S-wave (km/s) = 3.61012 3.90923 3.76265
# Velocity P-wave (km/s) = 6.53538 6.96533 6.75378
#
# Compressibility (1/GPa) = 0.01652572
#
# Stress axis : x y z
#
# Youngs Moduli (GPa) = 100.86163 108.22208 86.23483
#
# Poissons Ratio (x) = 0.41618 0.13416
# Poissons Ratio (y) = 0.38788 0.14757
# Poissons Ratio (z) = 0.15692 0.18520
#
# Static dielectric constant tensor:
#      x y z
#    x 4.360470 0.000000 -0.014820 
#    y 0.000000 4.498430 0.000000 
#    z -0.014820 0.000000 4.143320 
# 
# 
# High freq. dielectric constant tensor:
#      x y z
#    x 1.956840 0.000000 -0.004740 
#    y 0.000000 1.964520 0.000000 
#    z -0.004740 0.000000 1.939360 
# 
# From -- ./inp_files/11091.got.cif
#   From: 2010.03.12/outbox.cif.g09.slc.cpg/sg5_6_cif.got.tgz:11091.got - 2010.03.31 09:47:26.
