data_PCOD8051863
_publ_section_title
;
Structure prediction by ZEFSAII (Michael W. Deem and Ramdas Pophale) SiO2 
 PCOD8051863
Probable space group: C 2
;
_chemical_formula_sum "Si O2"
_cell_formula_units_Z 26
_cell_length_a 20.623097
_cell_length_b 8.874281
_cell_length_c 8.238055
_cell_angle_alpha 90.000000
_cell_angle_beta 132.875919
_cell_angle_gamma 90.000000
_cell_volume 1104.878079
_symmetry_space_group_name_H-M "C 2"
_symmetry_group_IT_number 5
_symmetry_cell_setting 'monoclinic'
loop_
_space_group_symop_operation_xyz
x,y,z
-x,y,-z
1/2+x,1/2+y,z
1/2-x,1/2+y,-z
loop_
_atom_site_type_symbol
_atom_site_label
_atom_site_fract_x
_atom_site_fract_y
_atom_site_fract_z
Si Si1 0.000000 0.955341 0.000000
Si Si2 0.685518 0.301599 0.370189
Si Si3 0.321808 0.013531 0.466731
Si Si4 0.041573 0.105286 0.743693
Si Si5 0.487341 0.952188 0.295253
Si Si6 0.183088 0.620003 0.060109
Si Si7 0.785501 0.928831 0.016159
O O1 0.911337 0.856555 0.849539
O O2 0.989326 0.052568 0.816125
O O3 0.759262 0.433896 0.497945
O O4 0.684483 0.196906 0.529249
O O5 0.717204 0.185900 0.285758
O O6 0.423729 0.962737 0.661102
O O7 0.296148 0.958024 0.244527
O O8 0.137069 0.032424 0.920303
O O9 0.000000 0.051869 0.500000
O O10 0.050341 0.283833 0.763890
O O11 0.500000 0.011599 0.500000
O O12 0.416120 0.059717 0.089184
O O13 0.187398 0.753494 0.931019
O O14 0.251633 0.485675 0.132977
#
# Coordination Sequence:
#
# PCOD8051863 Si02
#       7
#     2   4   4   4   4   4   4
#     4  12  24  52  72 106 154 184 254 298 354 450
#     4  11  27  45  68 104 143 190 245 296 368 433
#     4  11  25  45  70  99 142 185 236 303 361 430
#     4  11  27  44  77 107 143 194 244 299 368 425
#     4  11  24  44  70 104 141 184 241 295 363 434
#     4  11  23  44  70 101 143 182 239 301 355 431
#     4  11  24  45  70 103 142 183 243 296 361 432
#
# _framework density 23.532008000000001
#
# number of rings (size 3 to 8) (size 9 to 14) (size 15 to 20)
#    0.000    0.923    4.615    1.846    8.615    5.538 
#    0.000    0.000    0.000    0.000    0.000    0.000 
#    0.000    0.000    0.000    0.000    0.000    0.000 
#
# Total GULP energy -161171.857344 kJ/mol
# GULP energy per Si atom -12397.835180 kJ/mol
# Density = 2.347845 g / cm^3
# Si number density = 23.532008 Si / 1000 Ang^3
#
#
#
# Elastic Constant Matrix: (Units=GPa)
#
#
# Indices 1 2 3 4 5 6 
#
# 1 106.8662 28.6556 27.1770 0.0000 18.0108 0.0000
# 2 28.6556 100.8570 30.7762 0.0000 16.7474 0.0000
# 3 27.1770 30.7762 46.5939 0.0000 1.6426 0.0000
# 4 0.0000 0.0000 0.0000 36.6794 0.0000 -1.5012
# 5 18.0108 16.7474 1.6426 0.0000 49.8459 0.0000
# 6 0.0000 0.0000 0.0000 -1.5012 0.0000 47.9207
#
#
#
# Elastic Compliance Matrix: (Units=1/GPa)
#
#
# Indices 1 2 3 4 5 6 
#
# 1 0.011793 -0.000833 -0.006195 0.000000 -0.003777 0.000000
# 2 -0.000833 0.013286 -0.008153 0.000000 -0.003894 0.000000
# 3 -0.006195 -0.008153 0.030320 0.000000 0.003978 0.000000
# 4 0.000000 0.000000 0.000000 0.027298 0.000000 0.000855
# 5 -0.003777 -0.003894 0.003978 0.000000 0.022604 0.000000
# 6 0.000000 0.000000 0.000000 0.000855 0.000000 0.020895
#
#
# Mechanical properties :
#
#
# Convention : Reuss Voigt Hill
#
# Bulk Modulus (GPa) = 39.93966 47.50386 43.72176
# Shear Modulus (GPa) = 30.32081 38.06974 34.19528
#
# Velocity S-wave (km/s) = 3.59345 4.02653 3.81614
# Velocity P-wave (km/s) = 5.85034 6.46901 6.16744
#
# Compressibility (1/GPa) = 0.02503777
#
# Stress axis : x y z
#
# Youngs Moduli (GPa) = 84.79667 75.26681 32.98134
#
# Poissons Ratio (x) = 0.06270 0.20432
# Poissons Ratio (y) = 0.07064 0.26888
# Poissons Ratio (z) = 0.52533 0.61362
#
# Static dielectric constant tensor:
#      x y z
#    x 4.325800 0.000000 -0.025140 
#    y 0.000000 4.451410 0.000000 
#    z -0.025140 0.000000 3.951290 
# 
# 
# High freq. dielectric constant tensor:
#      x y z
#    x 1.943010 0.000000 0.004640 
#    y 0.000000 1.940910 0.000000 
#    z 0.004640 0.000000 1.914410 
# 
# From -- ./inp_files/29013.got.cif
#   From: 2010.03.12/outbox.cif.g09.slc.cpg/sg5_15_cif.got.tgz:29013.got - 2010.03.31 09:47:26.
