data_PCOD8051792
_publ_section_title
;
Structure prediction by ZEFSAII (Michael W. Deem and Ramdas Pophale) SiO2 
 PCOD8051792
Probable space group: C 2
;
_chemical_formula_sum "Si O2"
_cell_formula_units_Z 24
_cell_length_a 21.855212
_cell_length_b 7.925830
_cell_length_c 10.836359
_cell_angle_alpha 90.000000
_cell_angle_beta 148.170911
_cell_angle_gamma 90.000000
_cell_volume 989.948860
_symmetry_space_group_name_H-M "C 2"
_symmetry_group_IT_number 5
_symmetry_cell_setting 'monoclinic'
loop_
_space_group_symop_operation_xyz
x,y,z
-x,y,-z
1/2+x,1/2+y,z
1/2-x,1/2+y,-z
loop_
_atom_site_type_symbol
_atom_site_label
_atom_site_fract_x
_atom_site_fract_y
_atom_site_fract_z
Si Si1 0.223960 0.576670 0.604461
Si Si2 0.743572 0.561606 0.844379
Si Si3 0.393938 0.320700 0.232522
Si Si4 0.434395 0.849280 0.503923
Si Si5 0.806070 0.945775 0.500315
Si Si6 0.042336 0.100972 0.855652
O O1 0.154087 0.486054 0.593425
O O2 0.160663 0.750967 0.463588
O O3 0.227508 0.461121 0.488204
O O4 0.354248 0.615502 0.870862
O O5 0.712671 0.392490 0.868056
O O6 0.633786 0.686111 0.663203
O O7 0.766918 0.516477 0.741381
O O8 0.855831 0.651448 0.095032
O O9 0.500000 0.267299 0.500000
O O10 0.433281 0.460811 0.204418
O O11 0.500000 0.932015 0.500000
O O12 0.525691 0.785243 0.763959
O O13 0.924075 0.050457 0.723042
#
# Coordination Sequence:
#
# PCOD8051792 Si02
#       6
#     4   4   4   4   4   4
#     4  12  27  50  76 104 153 198 246 317 366 436
#     4  11  24  44  73 107 149 195 243 307 371 434
#     4  12  23  45  73 109 151 191 244 306 370 435
#     4  11  22  47  74 112 147 193 246 301 375 446
#     4  11  26  51  73 109 147 197 258 300 373 449
#     4  11  23  46  75 106 148 191 240 307 372 434
#
# _framework density 24.243677000000002
#
# number of rings (size 3 to 8) (size 9 to 14) (size 15 to 20)
#    0.000    0.667    6.667    2.500    2.333    0.000 
#    9.000    2.500    0.000    0.000    0.000    0.000 
#    0.000    0.000    0.000    0.000    0.000    0.000 
#
# Total GULP energy -148889.462527 kJ/mol
# GULP energy per Si atom -12407.455211 kJ/mol
# Density = 2.418850 g / cm^3
# Si number density = 24.243677 Si / 1000 Ang^3
#
#
#
# Elastic Constant Matrix: (Units=GPa)
#
#
# Indices 1 2 3 4 5 6 
#
# 1 147.5597 38.8267 29.0515 0.0000 -4.9860 0.0000
# 2 38.8267 106.3979 32.9371 0.0000 -2.4713 0.0000
# 3 29.0515 32.9371 97.5917 0.0000 -11.0552 0.0000
# 4 0.0000 0.0000 0.0000 35.3430 0.0000 -6.3718
# 5 -4.9860 -2.4713 -11.0552 0.0000 23.4711 0.0000
# 6 0.0000 0.0000 0.0000 -6.3718 0.0000 31.4147
#
#
#
# Elastic Compliance Matrix: (Units=1/GPa)
#
#
# Indices 1 2 3 4 5 6 
#
# 1 0.007700 -0.002355 -0.001416 0.000000 0.000721 0.000000
# 2 -0.002355 0.011223 -0.003179 0.000000 -0.000816 0.000000
# 3 -0.001416 -0.003179 0.012327 0.000000 0.005171 0.000000
# 4 0.000000 0.000000 0.000000 0.029368 0.000000 0.005957
# 5 0.000721 -0.000816 0.005171 0.000000 0.045108 0.000000
# 6 0.000000 0.000000 0.000000 0.005957 0.000000 0.033040
#
#
# Mechanical properties :
#
#
# Convention : Reuss Voigt Hill
#
# Bulk Modulus (GPa) = 57.63572 61.46442 59.55007
# Shear Modulus (GPa) = 31.55584 34.76137 33.15860
#
# Velocity S-wave (km/s) = 3.61170 3.79071 3.70228
# Velocity P-wave (km/s) = 6.42009 6.67586 6.54922
#
# Compressibility (1/GPa) = 0.01735035
#
# Stress axis : x y z
#
# Youngs Moduli (GPa) = 129.87716 89.10097 81.12323
#
# Poissons Ratio (x) = 0.20981 0.11484
# Poissons Ratio (y) = 0.30583 0.25791
# Poissons Ratio (z) = 0.18386 0.28328
#
# Static dielectric constant tensor:
#      x y z
#    x 4.305900 0.000000 -0.132820 
#    y 0.000000 4.340920 0.000000 
#    z -0.132820 0.000000 4.418020 
# 
# 
# High freq. dielectric constant tensor:
#      x y z
#    x 1.962560 0.000000 -0.009900 
#    y 0.000000 1.967560 0.000000 
#    z -0.009900 0.000000 1.960790 
# 
# From -- ./inp_files/47357.got.cif
#   From: 2010.03.12/outbox.cif.g09.slc.cpg/sg5_24_cif.got.tgz:47357.got - 2010.03.31 09:47:26.
