data_PCOD8051139
_publ_section_title
;
Structure prediction by ZEFSAII (Michael W. Deem and Ramdas Pophale) SiO2 
 PCOD8051139
Probable space group: C 2
;
_chemical_formula_sum "Si O2"
_cell_formula_units_Z 24
_cell_length_a 17.898360
_cell_length_b 4.830898
_cell_length_c 10.334995
_cell_angle_alpha 90.000000
_cell_angle_beta 95.365879
_cell_angle_gamma 90.000000
_cell_volume 889.700929
_symmetry_space_group_name_H-M "C 2"
_symmetry_group_IT_number 5
_symmetry_cell_setting 'monoclinic'
loop_
_space_group_symop_operation_xyz
x,y,z
-x,y,-z
1/2+x,1/2+y,z
1/2-x,1/2+y,-z
loop_
_atom_site_type_symbol
_atom_site_label
_atom_site_fract_x
_atom_site_fract_y
_atom_site_fract_z
Si Si1 0.772775 0.705730 0.083912
Si Si2 0.699203 0.186663 0.485180
Si Si3 0.425084 0.302195 0.033787
Si Si4 0.944754 0.716621 0.378974
Si Si5 0.851122 0.004829 0.768966
Si Si6 0.508260 0.720197 0.765567
O O1 0.863424 0.663605 0.121840
O O2 0.728601 0.651318 0.211598
O O3 0.742472 0.521321 0.960053
O O4 0.770388 0.377555 0.535414
O O5 0.658024 0.295585 0.350914
O O6 0.641052 0.179058 0.593936
O O7 0.456457 0.592307 0.097330
O O8 0.500000 0.125093 0.000000
O O9 0.374988 0.335887 0.898778
O O10 0.000000 0.609838 0.500000
O O11 0.961140 0.035464 0.348896
O O12 0.964719 0.536337 0.252322
O O13 0.917560 0.221910 0.749178
#
# Coordination Sequence:
#
# PCOD8051139 Si02
#       6
#     4   4   4   4   4   4
#     4  10  23  44  72 106 148 193 242 301 373 446
#     4  12  29  50  76 111 151 204 259 317 376 453
#     4   9  22  47  76 112 148 192 247 307 379 445
#     4  12  26  50  75 107 149 200 254 310 377 441
#     4  10  24  49  76 108 152 197 248 315 379 445
#     4  11  25  45  79 111 147 192 251 314 374 456
#
# _framework density 26.975356000000001
#
# number of rings (size 3 to 8) (size 9 to 14) (size 15 to 20)
#    0.000    1.333    1.667    1.500    4.667    9.333 
#   12.000    7.500    0.000    0.000    0.000    0.000 
#    0.000    0.000    0.000    0.000    0.000    0.000 
#
# Total GULP energy -148793.919916 kJ/mol
# GULP energy per Si atom -12399.493326 kJ/mol
# Density = 2.691396 g / cm^3
# Si number density = 26.975356 Si / 1000 Ang^3
#
#
#
# Elastic Constant Matrix: (Units=GPa)
#
#
# Indices 1 2 3 4 5 6 
#
# 1 240.4668 16.3215 36.3129 0.0000 -46.4995 0.0000
# 2 16.3215 56.7090 -8.5864 0.0000 -8.7539 0.0000
# 3 36.3129 -8.5864 83.8540 0.0000 -10.7036 0.0000
# 4 0.0000 0.0000 0.0000 31.5108 0.0000 -8.6372
# 5 -46.4995 -8.7539 -10.7036 0.0000 64.7713 0.0000
# 6 0.0000 0.0000 0.0000 -8.6372 0.0000 40.1515
#
#
#
# Elastic Compliance Matrix: (Units=1/GPa)
#
#
# Indices 1 2 3 4 5 6 
#
# 1 0.005162 -0.001287 -0.001958 0.000000 0.003208 0.000000
# 2 -0.001287 0.018737 0.002739 0.000000 0.002061 0.000000
# 3 -0.001958 0.002739 0.013200 0.000000 0.001146 0.000000
# 4 0.000000 0.000000 0.000000 0.033724 0.000000 0.007254
# 5 0.003208 0.002061 0.001146 0.000000 0.018210 0.000000
# 6 0.000000 0.000000 0.000000 0.007254 0.000000 0.026466
#
#
# Mechanical properties :
#
#
# Convention : Reuss Voigt Hill
#
# Bulk Modulus (GPa) = 27.70989 52.12507 39.91748
# Shear Modulus (GPa) = 38.89859 49.75219 44.32539
#
# Velocity S-wave (km/s) = 3.80149 4.29926 4.05801
# Velocity P-wave (km/s) = 5.43719 6.63400 6.06519
#
# Compressibility (1/GPa) = 0.03608820
#
# Stress axis : x y z
#
# Youngs Moduli (GPa) = 193.72556 53.36999 75.75762
#
# Poissons Ratio (x) = 0.06868 0.14830
# Poissons Ratio (y) = 0.24929 -0.20750
# Poissons Ratio (z) = 0.37924 -0.14618
#
# Static dielectric constant tensor:
#      x y z
#    x 5.568950 0.000000 -0.323680 
#    y 0.000000 4.282620 0.000000 
#    z -0.323680 0.000000 4.892700 
# 
# 
# High freq. dielectric constant tensor:
#      x y z
#    x 2.116760 0.000000 -0.006970 
#    y 0.000000 2.054110 0.000000 
#    z -0.006970 0.000000 2.100550 
# 
# From -- ./inp_files/43748.got.cif
#   From: 2010.03.12/outbox.cif.g09.slc.cpg/sg5_22_cif.got.tgz:43748.got - 2010.03.31 09:47:26.
