data_PCOD8051315
_publ_section_title
;
Structure prediction by ZEFSAII (Michael W. Deem and Ramdas Pophale) SiO2 
 PCOD8051315
Probable space group: C 2
;
_chemical_formula_sum "Si O2"
_cell_formula_units_Z 22
_cell_length_a 13.008389
_cell_length_b 6.797661
_cell_length_c 11.521462
_cell_angle_alpha 90.000000
_cell_angle_beta 110.075274
_cell_angle_gamma 90.000000
_cell_volume 956.903917
_symmetry_space_group_name_H-M "C 2"
_symmetry_group_IT_number 5
_symmetry_cell_setting 'monoclinic'
loop_
_space_group_symop_operation_xyz
x,y,z
-x,y,-z
1/2+x,1/2+y,z
1/2-x,1/2+y,-z
loop_
_atom_site_type_symbol
_atom_site_label
_atom_site_fract_x
_atom_site_fract_y
_atom_site_fract_z
Si Si1 0.786449 0.939830 0.653796
Si Si2 0.335408 0.461867 0.925385
Si Si3 0.906893 0.726269 0.373623
Si Si4 0.000000 0.307313 0.000000
Si Si5 0.383320 0.619999 0.475767
Si Si6 0.401712 0.114747 0.116677
O O1 0.839318 0.872993 0.796187
O O2 0.719985 0.759925 0.572841
O O3 0.706050 0.119067 0.645598
O O4 0.879686 0.007096 0.598798
O O5 0.394118 0.672366 0.944399
O O6 0.213808 0.502402 0.922629
O O7 0.395748 0.305684 0.031253
O O8 0.946613 0.681914 0.258753
O O9 0.000000 0.658465 0.500000
O O10 0.880477 0.957183 0.373469
O O11 0.012435 0.451936 0.894527
O O12 0.500000 0.732465 0.500000
#
# Coordination Sequence:
#
# PCOD8051315 Si02
#       6
#     4   4   4   2   4   4
#     4  11  24  44  70 103 140 183 233 289 349 410
#     4  11  26  45  73 105 141 189 237 290 354 417
#     4  10  24  44  70 104 141 182 231 289 349 411
#     4  12  26  46  74 102 140 190 230 292 356 416
#     4  11  24  43  70 102 138 182 231 289 346 420
#     4  11  25  47  72 107 144 182 239 294 345 425
#
# _framework density 22.990815000000001
#
# number of rings (size 3 to 8) (size 9 to 14) (size 15 to 20)
#    0.000    1.091    3.636    1.091    2.545   10.182 
#    0.000    0.000    0.000    0.000    0.000    0.000 
#    0.000    0.000    0.000    0.000    0.000    0.000 
#
# Total GULP energy -136415.541010 kJ/mol
# GULP energy per Si atom -12401.412819 kJ/mol
# Density = 2.293849 g / cm^3
# Si number density = 22.990815 Si / 1000 Ang^3
#
#
#
# Elastic Constant Matrix: (Units=GPa)
#
#
# Indices 1 2 3 4 5 6 
#
# 1 70.6770 21.1871 49.3167 0.0000 -23.1028 0.0000
# 2 21.1871 96.8170 53.4021 0.0000 -14.4863 0.0000
# 3 49.3167 53.4021 173.9673 0.0000 -13.1083 0.0000
# 4 0.0000 0.0000 0.0000 34.7152 0.0000 -4.9210
# 5 -23.1028 -14.4863 -13.1083 0.0000 37.6784 0.0000
# 6 0.0000 0.0000 0.0000 -4.9210 0.0000 33.4750
#
#
#
# Elastic Compliance Matrix: (Units=1/GPa)
#
#
# Indices 1 2 3 4 5 6 
#
# 1 0.021529 -0.000145 -0.005205 0.000000 0.011334 0.000000
# 2 -0.000145 0.012914 -0.003651 0.000000 0.003606 0.000000
# 3 -0.005205 -0.003651 0.008214 0.000000 -0.001738 0.000000
# 4 0.000000 0.000000 0.000000 0.029419 0.000000 0.004325
# 5 0.011334 0.003606 -0.001738 0.000000 0.034272 0.000000
# 6 0.000000 0.000000 0.000000 0.004325 0.000000 0.030509
#
#
# Mechanical properties :
#
#
# Convention : Reuss Voigt Hill
#
# Bulk Modulus (GPa) = 40.55977 65.47480 53.01728
# Shear Modulus (GPa) = 30.66059 35.67743 33.16901
#
# Velocity S-wave (km/s) = 3.65581 3.94358 3.80242
# Velocity P-wave (km/s) = 5.95819 7.01970 6.51062
#
# Compressibility (1/GPa) = 0.02465497
#
# Stress axis : x y z
#
# Youngs Moduli (GPa) = 46.44940 77.43515 121.74979
#
# Poissons Ratio (x) = 0.01120 0.63366
# Poissons Ratio (y) = 0.00672 0.44456
# Poissons Ratio (z) = 0.24175 0.28275
#
# Static dielectric constant tensor:
#      x y z
#    x 4.207970 0.000000 -0.271870 
#    y 0.000000 4.081810 0.000000 
#    z -0.271870 0.000000 4.542780 
# 
# 
# High freq. dielectric constant tensor:
#      x y z
#    x 1.921390 0.000000 -0.017720 
#    y 0.000000 1.912920 0.000000 
#    z -0.017720 0.000000 1.904920 
# 
# From -- ./inp_files/41157.got.cif
#   From: 2010.03.12/outbox.cif.g09.slc.cpg/sg5_21_cif.got.tgz:41157.got - 2010.03.31 09:47:26.
