data_PCOD8051107
_publ_section_title
;
Structure prediction by ZEFSAII (Michael W. Deem and Ramdas Pophale) SiO2 
 PCOD8051107
Probable space group: C 2
;
_chemical_formula_sum "Si O2"
_cell_formula_units_Z 20
_cell_length_a 16.565381
_cell_length_b 5.601765
_cell_length_c 16.532135
_cell_angle_alpha 90.000000
_cell_angle_beta 147.233942
_cell_angle_gamma 90.000000
_cell_volume 830.273548
_symmetry_space_group_name_H-M "C 2"
_symmetry_group_IT_number 5
_symmetry_cell_setting 'monoclinic'
loop_
_space_group_symop_operation_xyz
x,y,z
-x,y,-z
1/2+x,1/2+y,z
1/2-x,1/2+y,-z
loop_
_atom_site_type_symbol
_atom_site_label
_atom_site_fract_x
_atom_site_fract_y
_atom_site_fract_z
Si Si1 0.961103 0.606570 0.383451
Si Si2 0.168614 0.822027 0.137991
Si Si3 0.270084 0.751878 0.391722
Si Si4 0.719425 0.669812 0.928940
Si Si5 0.072959 0.965981 0.354137
O O1 0.786286 0.539178 0.233203
O O2 0.000000 0.754153 0.500000
O O3 0.070442 0.379458 0.481926
O O4 0.985981 0.745522 0.321044
O O5 0.207763 0.669961 0.251993
O O6 0.184433 0.654819 0.072505
O O7 0.000000 0.922540 0.000000
O O8 0.143170 0.914269 0.326092
O O9 0.294103 0.528299 0.471524
O O10 0.544161 0.681288 0.758363
O O11 0.745234 0.420462 0.997570
#
# Coordination Sequence:
#
# PCOD8051107 Si02
#       5
#     4   4   4   4   4
#     4  10  23  43  72 106 148 197 248 315 371 449
#     4  11  25  48  73 106 152 197 259 309 382 449
#     4  11  24  44  73 110 144 198 251 310 380 451
#     4  12  28  50  78 109 158 204 252 315 384 449
#     4  12  24  44  77 108 149 196 259 309 385 451
#
# _framework density 24.088450000000002
#
# number of rings (size 3 to 8) (size 9 to 14) (size 15 to 20)
#    0.000    0.800    4.000    2.400    2.800    1.600 
#    0.000    4.000    0.000    0.000    0.000    0.000 
#    0.000    0.000    0.000    0.000    0.000    0.000 
#
# Total GULP energy -123935.242599 kJ/mol
# GULP energy per Si atom -12393.524260 kJ/mol
# Density = 2.403362 g / cm^3
# Si number density = 24.088450 Si / 1000 Ang^3
#
#
#
# Elastic Constant Matrix: (Units=GPa)
#
#
# Indices 1 2 3 4 5 6 
#
# 1 179.4279 38.1191 74.2974 0.0000 -8.4002 0.0000
# 2 38.1191 78.0099 45.5077 0.0000 -12.4647 0.0001
# 3 74.2974 45.5077 150.8294 0.0000 5.9195 0.0000
# 4 0.0000 0.0000 0.0000 37.6747 0.0000 3.3042
# 5 -8.4002 -12.4647 5.9195 0.0000 61.6402 0.0000
# 6 0.0000 0.0001 0.0000 3.3042 0.0000 19.5999
#
#
#
# Elastic Compliance Matrix: (Units=1/GPa)
#
#
# Indices 1 2 3 4 5 6 
#
# 1 0.007250 -0.001555 -0.003140 0.000000 0.000975 0.000000
# 2 -0.001555 0.016734 -0.004424 0.000000 0.003597 0.000000
# 3 -0.003140 -0.004424 0.009600 0.000000 -0.002245 0.000000
# 4 0.000000 0.000000 0.000000 0.026941 0.000000 -0.004542
# 5 0.000975 0.003597 -0.002245 0.000000 0.017299 0.000000
# 6 0.000000 0.000000 0.000000 -0.004542 0.000000 0.051786
#
#
# Mechanical properties :
#
#
# Convention : Reuss Voigt Hill
#
# Bulk Modulus (GPa) = 65.16754 80.45727 72.81240
# Shear Modulus (GPa) = 32.68743 40.47251 36.57997
#
# Velocity S-wave (km/s) = 3.68771 4.10343 3.90111
# Velocity P-wave (km/s) = 6.72640 7.47824 7.11226
#
# Compressibility (1/GPa) = 0.01534506
#
# Stress axis : x y z
#
# Youngs Moduli (GPa) = 137.94001 59.75744 104.16836
#
# Poissons Ratio (x) = 0.09291 0.32711
# Poissons Ratio (y) = 0.21446 0.46088
# Poissons Ratio (z) = 0.43316 0.26439
#
# Static dielectric constant tensor:
#      x y z
#    x 4.824730 0.000000 -0.285990 
#    y 0.000000 3.768640 0.000000 
#    z -0.285990 0.000000 4.743590 
# 
# 
# High freq. dielectric constant tensor:
#      x y z
#    x 1.984180 0.000000 -0.008350 
#    y 0.000000 1.909690 0.000000 
#    z -0.008350 0.000000 1.973760 
# 
# From -- ./inp_files/25943.got.cif
#   From: 2010.03.12/outbox.cif.g09.slc.cpg/sg5_13_cif.got.tgz:25943.got - 2010.03.31 09:47:26.
