data_PCOD8051191
_publ_section_title
;
Structure prediction by ZEFSAII (Michael W. Deem and Ramdas Pophale) SiO2 
 PCOD8051191
Probable space group: C 2
;
_chemical_formula_sum "Si O2"
_cell_formula_units_Z 28
_cell_length_a 9.544970
_cell_length_b 7.871745
_cell_length_c 27.653496
_cell_angle_alpha 90.000000
_cell_angle_beta 34.676779
_cell_angle_gamma 90.000000
_cell_volume 1182.134486
_symmetry_space_group_name_H-M "C 2"
_symmetry_group_IT_number 5
_symmetry_cell_setting 'monoclinic'
loop_
_space_group_symop_operation_xyz
x,y,z
-x,y,-z
1/2+x,1/2+y,z
1/2-x,1/2+y,-z
loop_
_atom_site_type_symbol
_atom_site_label
_atom_site_fract_x
_atom_site_fract_y
_atom_site_fract_z
Si Si1 0.205304 0.422790 0.478716
Si Si2 0.271837 0.038427 0.428555
Si Si3 0.487159 0.329994 0.203486
Si Si4 0.758025 0.517493 0.324460
Si Si5 0.486750 0.706369 0.203692
Si Si6 0.494468 0.211533 0.904458
Si Si7 0.994642 0.327203 0.904242
O O1 0.268425 0.234513 0.444419
O O2 0.096843 0.433316 0.564908
O O3 0.459717 0.530707 0.407784
O O4 0.000000 0.499976 0.500000
O O5 0.383674 0.017720 0.342718
O O6 0.000000 0.962226 0.500000
O O7 0.345684 0.186101 0.272777
O O8 0.408553 0.518177 0.245004
O O9 0.431458 0.323451 0.162570
O O10 0.781208 0.306578 0.122422
O O11 0.835768 0.344021 0.276607
O O12 0.428862 0.716191 0.163551
O O13 0.779559 0.733437 0.123133
O O14 0.460290 0.019483 0.896189
O O15 0.250676 0.268685 0.000275
#
# Coordination Sequence:
#
# PCOD8051191 Si02
#       7
#     4   4   4   4   4   4   4
#     4  10  23  49  74 103 137 181 228 279 348 430
#     4   9  22  47  70 102 140 178 225 277 352 427
#     4  11  26  45  67 105 143 180 242 289 349 408
#     4  11  25  48  73 102 146 181 226 296 351 411
#     4  11  26  45  67 106 140 183 241 286 354 408
#     4  11  24  43  68 101 140 192 240 289 347 416
#     4  11  24  43  69  99 143 189 241 290 345 417
#
# _framework density 23.685967000000002
#
# number of rings (size 3 to 8) (size 9 to 14) (size 15 to 20)
#    0.000    1.429    1.429    1.714    6.000    5.143 
#   20.571    0.000    0.000    0.000    0.000    0.000 
#    0.000    0.000    0.000    0.000    0.000    0.000 
#
# Total GULP energy -173560.411871 kJ/mol
# GULP energy per Si atom -12397.172277 kJ/mol
# Density = 2.363206 g / cm^3
# Si number density = 23.685967 Si / 1000 Ang^3
#
#
#
# Elastic Constant Matrix: (Units=GPa)
#
#
# Indices 1 2 3 4 5 6 
#
# 1 120.5790 39.7795 32.0156 0.0082 22.2655 -0.0009
# 2 39.7795 128.9882 52.7409 -0.0092 5.3706 0.0003
# 3 32.0156 52.7409 103.2616 -0.0134 19.0157 0.0019
# 4 0.0082 -0.0092 -0.0134 43.2206 -0.0052 3.9132
# 5 22.2655 5.3706 19.0157 -0.0052 47.1542 -0.0002
# 6 -0.0009 0.0003 0.0019 3.9132 -0.0002 32.7815
#
#
#
# Elastic Compliance Matrix: (Units=1/GPa)
#
#
# Indices 1 2 3 4 5 6 
#
# 1 0.010169 -0.002507 -0.001124 -0.000003 -0.004063 0.000001
# 2 -0.002507 0.010459 -0.004929 0.000001 0.001981 0.000000
# 3 -0.001124 -0.004929 0.013340 0.000003 -0.004287 -0.000001
# 4 -0.000003 0.000001 0.000003 0.023390 0.000003 -0.002792
# 5 -0.004063 0.001981 -0.004287 0.000003 0.024629 0.000000
# 6 0.000001 0.000000 -0.000001 -0.002792 0.000000 0.030838
#
#
# Mechanical properties :
#
#
# Convention : Reuss Voigt Hill
#
# Bulk Modulus (GPa) = 59.35929 66.87785 63.11857
# Shear Modulus (GPa) = 36.88357 39.85077 38.36717
#
# Velocity S-wave (km/s) = 3.95041 4.10623 4.02907
# Velocity P-wave (km/s) = 6.77665 7.12587 6.95345
#
# Compressibility (1/GPa) = 0.01684656
#
# Stress axis : x y z
#
# Youngs Moduli (GPa) = 98.33613 95.61228 74.96389
#
# Poissons Ratio (x) = 0.23973 0.08427
# Poissons Ratio (y) = 0.24656 0.36951
# Poissons Ratio (z) = 0.11054 0.47129
#
# Static dielectric constant tensor:
#      x y z
#    x 4.682080 0.000020 0.029760 
#    y 0.000020 4.278440 0.000010 
#    z 0.029760 0.000010 4.192570 
# 
# 
# High freq. dielectric constant tensor:
#      x y z
#    x 1.951850 0.000000 0.000380 
#    y 0.000000 1.943120 0.000000 
#    z 0.000380 0.000000 1.935600 
# 
# From -- ./inp_files/70144.got.cif
#   From: 2010.03.12/outbox.cif.g09.slc.cpg/sg5_36_cif.got.tgz:70144.got - 2010.03.31 09:47:26.
