data_PCOD8051462
_publ_section_title
;
Structure prediction by ZEFSAII (Michael W. Deem and Ramdas Pophale) SiO2 
 PCOD8051462
Probable space group: C 2
;
_chemical_formula_sum "Si O2"
_cell_formula_units_Z 22
_cell_length_a 12.881870
_cell_length_b 15.753443
_cell_length_c 4.934484
_cell_angle_alpha 90.000000
_cell_angle_beta 74.809030
_cell_angle_gamma 90.000000
_cell_volume 966.383420
_symmetry_space_group_name_H-M "C 2"
_symmetry_group_IT_number 5
_symmetry_cell_setting 'monoclinic'
loop_
_space_group_symop_operation_xyz
x,y,z
-x,y,-z
1/2+x,1/2+y,z
1/2-x,1/2+y,-z
loop_
_atom_site_type_symbol
_atom_site_label
_atom_site_fract_x
_atom_site_fract_y
_atom_site_fract_z
Si Si1 0.000000 0.331110 0.000000
Si Si2 0.288497 0.622814 0.607870
Si Si3 0.178545 0.931931 0.492396
Si Si4 0.500000 0.716979 0.500000
Si Si5 0.211798 0.370922 0.082055
Si Si6 0.500000 0.308335 0.500000
Si Si7 0.309190 0.202373 0.855253
O O1 0.959966 0.273222 0.275488
O O2 0.093369 0.392588 0.051083
O O3 0.326821 0.532241 0.463317
O O4 0.398517 0.660490 0.650425
O O5 0.231937 0.674447 0.407879
O O6 0.200292 0.624813 0.917962
O O7 0.275403 0.898199 0.615171
O O8 0.073611 0.873359 0.630919
O O9 0.201213 0.919504 0.159038
O O10 0.227303 0.270162 0.043347
O O11 0.427225 0.246029 0.739689
#
# Coordination Sequence:
#
# PCOD8051462 Si02
#       7
#     2   4   4   2   4   2   4
#     4  12  22  38  68  96 124 168 228 282 314 420
#     4  12  23  42  66 106 139 172 224 304 348 412
#     4  11  25  42  67  97 143 176 228 285 357 401
#     4  12  21  38  68 101 126 166 214 286 359 394
#     4  11  22  42  64  97 129 184 225 281 336 419
#     4  10  25  46  70 103 136 200 230 288 341 446
#     4  11  23  42  68  98 138 181 237 277 345 416
#
# _framework density 22.765291000000001
#
# number of rings (size 3 to 8) (size 9 to 14) (size 15 to 20)
#    0.000    0.727    3.636    4.909    0.000    6.545 
#    0.000    9.091    0.000    0.000    0.000    0.000 
#    0.000    0.000    0.000    0.000    0.000    0.000 
#
# Total GULP energy -136302.359816 kJ/mol
# GULP energy per Si atom -12391.123620 kJ/mol
# Density = 2.271348 g / cm^3
# Si number density = 22.765291 Si / 1000 Ang^3
#
#
#
# Elastic Constant Matrix: (Units=GPa)
#
#
# Indices 1 2 3 4 5 6 
#
# 1 137.5724 59.4206 39.6897 0.0000 3.4799 0.0000
# 2 59.4206 93.4991 36.3293 0.0000 -3.4083 0.0000
# 3 39.6897 36.3293 101.5769 0.0000 9.2527 0.0000
# 4 0.0000 0.0000 0.0000 33.0322 0.0000 4.3581
# 5 3.4799 -3.4083 9.2527 0.0000 37.9504 0.0000
# 6 0.0000 0.0000 0.0000 4.3581 0.0000 37.9947
#
#
#
# Elastic Compliance Matrix: (Units=1/GPa)
#
#
# Indices 1 2 3 4 5 6 
#
# 1 0.010385 -0.005920 -0.001846 0.000000 -0.001034 0.000000
# 2 -0.005920 0.015987 -0.003666 0.000000 0.002872 0.000000
# 3 -0.001846 -0.003666 0.012162 0.000000 -0.003125 0.000000
# 4 0.000000 0.000000 0.000000 0.030739 0.000000 -0.003526
# 5 -0.001034 0.002872 -0.003125 0.000000 0.027465 0.000000
# 6 0.000000 0.000000 0.000000 -0.003526 0.000000 0.026724
#
#
# Mechanical properties :
#
#
# Convention : Reuss Voigt Hill
#
# Bulk Modulus (GPa) = 63.82161 67.05863 65.44012
# Shear Modulus (GPa) = 32.99267 34.94269 33.96768
#
# Velocity S-wave (km/s) = 3.81104 3.92204 3.86694
# Velocity P-wave (km/s) = 6.88918 7.07322 6.98180
#
# Compressibility (1/GPa) = 0.01566867
#
# Stress axis : x y z
#
# Youngs Moduli (GPa) = 96.29592 62.55155 82.22300
#
# Poissons Ratio (x) = 0.37031 0.15180
# Poissons Ratio (y) = 0.57007 0.30145
# Poissons Ratio (z) = 0.17778 0.22933
#
# Static dielectric constant tensor:
#      x y z
#    x 4.036290 0.000000 -0.031080 
#    y 0.000000 4.068460 0.000000 
#    z -0.031080 0.000000 4.039370 
# 
# 
# High freq. dielectric constant tensor:
#      x y z
#    x 1.896310 0.000000 0.005680 
#    y 0.000000 1.879790 0.000000 
#    z 0.005680 0.000000 1.905490 
# 
# From -- ./inp_files/4795.got.cif
#   From: 2010.03.12/outbox.cif.g09.slc.cpg/sg5_3_cif.got.tgz:4795.got - 2010.03.31 09:47:26.
