data_PCOD8051814
_publ_section_title
;
Structure prediction by ZEFSAII (Michael W. Deem and Ramdas Pophale) SiO2 
 PCOD8051814
Probable space group: C 2
;
_chemical_formula_sum "Si O2"
_cell_formula_units_Z 24
_cell_length_a 10.926256
_cell_length_b 21.875500
_cell_length_c 10.805723
_cell_angle_alpha 90.000000
_cell_angle_beta 154.110033
_cell_angle_gamma 90.000000
_cell_volume 1127.745095
_symmetry_space_group_name_H-M "C 2"
_symmetry_group_IT_number 5
_symmetry_cell_setting 'monoclinic'
loop_
_space_group_symop_operation_xyz
x,y,z
-x,y,-z
1/2+x,1/2+y,z
1/2-x,1/2+y,-z
loop_
_atom_site_type_symbol
_atom_site_label
_atom_site_fract_x
_atom_site_fract_y
_atom_site_fract_z
Si Si1 0.600332 0.574230 0.228921
Si Si2 0.500000 0.753849 0.500000
Si Si3 0.418309 0.135445 0.182756
Si Si4 0.500000 0.177768 0.000000
Si Si5 0.752783 0.323246 0.493566
Si Si6 0.788192 0.934620 0.699291
Si Si7 0.799992 0.265966 0.936145
O O1 0.856635 0.616746 0.507378
O O2 0.694646 0.504569 0.326875
O O3 0.500000 0.592706 0.000000
O O4 0.320309 0.583937 0.054926
O O5 0.717050 0.714329 0.779514
O O6 0.281370 0.790863 0.386206
O O7 0.253434 0.196567 0.072266
O O8 0.574421 0.140129 0.192351
O O9 0.685525 0.394229 0.402097
O O10 0.507896 0.296086 0.358552
O O11 0.048901 0.310107 0.827441
O O12 0.500000 0.918935 0.500000
O O13 0.000000 0.916918 0.000000
O O14 0.000000 0.266419 0.000000
#
# Coordination Sequence:
#
# PCOD8051814 Si02
#       7
#     4   2   4   2   4   4   4
#     4  11  24  42  66  96 132 173 221 275 326 388
#     4  12  20  40  64 102 128 160 214 272 340 386
#     4  12  23  42  66  95 133 175 220 272 329 397
#     4  12  24  40  66  98 134 172 218 270 336 394
#     4  12  23  41  68  97 129 166 211 278 329 391
#     4  11  23  40  68 100 128 166 220 280 330 376
#     4  12  26  42  64  97 132 176 213 261 334 402
#
# _framework density 21.281403999999998
#
# number of rings (size 3 to 8) (size 9 to 14) (size 15 to 20)
#    0.000    0.333    4.167    6.500    1.167    1.333 
#    0.000    0.000   11.000    0.000    0.000    0.000 
#    0.000    0.000    0.000    0.000    0.000    0.000 
#
# Total GULP energy -148730.451399 kJ/mol
# GULP energy per Si atom -12394.204283 kJ/mol
# Density = 2.123297 g / cm^3
# Si number density = 21.281404 Si / 1000 Ang^3
#
#
#
# Elastic Constant Matrix: (Units=GPa)
#
#
# Indices 1 2 3 4 5 6 
#
# 1 115.8124 50.2150 27.7706 0.0015 11.7035 -0.0044
# 2 50.2150 81.9035 41.1931 -0.0001 -13.9701 -0.0001
# 3 27.7706 41.1931 136.6639 0.0063 2.6286 -0.0085
# 4 0.0015 -0.0001 0.0063 40.7698 0.0021 -0.9429
# 5 11.7035 -13.9701 2.6286 0.0021 42.6859 -0.0038
# 6 -0.0044 -0.0001 -0.0085 -0.9429 -0.0038 23.7646
#
#
#
# Elastic Compliance Matrix: (Units=1/GPa)
#
#
# Indices 1 2 3 4 5 6 
#
# 1 0.013372 -0.009495 0.000275 0.000000 -0.006791 0.000001
# 2 -0.009495 0.022276 -0.004981 0.000001 0.010200 -0.000002
# 3 0.000275 -0.004981 0.008806 -0.000001 -0.002248 0.000003
# 4 0.000000 0.000001 -0.000001 0.024550 -0.000001 0.000974
# 5 -0.006791 0.010200 -0.002248 -0.000001 0.028766 0.000003
# 6 0.000001 -0.000002 0.000003 0.000974 0.000003 0.042118
#
#
# Mechanical properties :
#
#
# Convention : Reuss Voigt Hill
#
# Bulk Modulus (GPa) = 62.29712 63.63748 62.96730
# Shear Modulus (GPa) = 28.79516 35.79081 32.29299
#
# Velocity S-wave (km/s) = 3.68240 4.10541 3.89964
# Velocity P-wave (km/s) = 6.88597 7.24157 7.06601
#
# Compressibility (1/GPa) = 0.01605211
#
# Stress axis : x y z
#
# Youngs Moduli (GPa) = 74.78415 44.89124 113.55992
#
# Poissons Ratio (x) = 0.42624 -0.03127
# Poissons Ratio (y) = 0.71008 0.56566
# Poissons Ratio (z) = -0.02060 0.22361
#
# Static dielectric constant tensor:
#      x y z
#    x 3.909300 0.000010 0.108720 
#    y 0.000010 3.781410 0.000000 
#    z 0.108720 0.000000 4.011110 
# 
# 
# High freq. dielectric constant tensor:
#      x y z
#    x 1.825750 0.000000 0.011300 
#    y 0.000000 1.817320 0.000000 
#    z 0.011300 0.000000 1.860320 
# 
# From -- ./inp_files/40793.got.cif
#   From: 2010.03.12/outbox.cif.g09.slc.cpg/sg5_21_cif.got.tgz:40793.got - 2010.03.31 09:47:26.
