data_PCOD8051120
_publ_section_title
;
Structure prediction by ZEFSAII (Michael W. Deem and Ramdas Pophale) SiO2 
 PCOD8051120
Probable space group: C 2
;
_chemical_formula_sum "Si O2"
_cell_formula_units_Z 32
_cell_length_a 29.049141
_cell_length_b 8.244598
_cell_length_c 11.556804
_cell_angle_alpha 90.000000
_cell_angle_beta 147.424260
_cell_angle_gamma 90.000000
_cell_volume 1490.242325
_symmetry_space_group_name_H-M "C 2"
_symmetry_group_IT_number 5
_symmetry_cell_setting 'monoclinic'
loop_
_space_group_symop_operation_xyz
x,y,z
-x,y,-z
1/2+x,1/2+y,z
1/2-x,1/2+y,-z
loop_
_atom_site_type_symbol
_atom_site_label
_atom_site_fract_x
_atom_site_fract_y
_atom_site_fract_z
Si Si1 0.099669 0.099260 0.439448
Si Si2 0.542666 0.438311 0.715651
Si Si3 0.277146 0.661170 0.481436
Si Si4 0.701243 0.012738 0.532174
Si Si5 0.117174 0.615338 0.982640
Si Si6 0.253098 0.959113 0.899715
Si Si7 0.718899 0.587268 0.067216
Si Si8 0.027405 0.427533 0.187325
O O1 0.149157 0.048150 0.423657
O O2 0.064226 0.280923 0.345532
O O3 0.175158 0.075873 0.693817
O O4 0.021719 0.989859 0.317784
O O5 0.500000 0.411651 0.500000
O O6 0.580340 0.271215 0.840728
O O7 0.615571 0.575733 0.851611
O O8 0.312058 0.841887 0.559709
O O9 0.262215 0.622384 0.583332
O O10 0.187909 0.661253 0.225985
O O11 0.747261 0.991751 0.750617
O O12 0.601976 0.066914 0.335722
O O13 0.048409 0.508677 0.903480
O O14 0.157454 0.507452 0.967005
O O15 0.242193 0.768297 0.849994
O O16 0.258949 0.983474 0.048582
O O17 0.000000 0.369381 0.000000
#
# Coordination Sequence:
#
# PCOD8051120 Si02
#       8
#     4   4   4   4   4   4   4   4
#     4  10  25  44  69  99 140 177 229 285 342 409
#     4  12  25  45  68 106 141 179 230 291 345 413
#     4  10  23  44  66 100 139 180 231 279 347 414
#     4  11  25  42  72 101 139 184 231 285 348 411
#     4  11  24  46  68 101 140 180 227 290 342 415
#     4  11  26  45  71 101 139 185 231 283 350 422
#     4  12  26  45  73 100 143 184 233 286 352 414
#     4  11  24  45  69 104 143 181 230 287 348 412
#
# _framework density 21.473016999999999
#
# number of rings (size 3 to 8) (size 9 to 14) (size 15 to 20)
#    0.000    1.000    3.750    1.500    8.750    2.000 
#    0.000    0.000    0.000    0.000    0.000    0.000 
#    0.000    0.000    0.000    0.000    0.000    0.000 
#
# Total GULP energy -198258.711255 kJ/mol
# GULP energy per Si atom -12391.169453 kJ/mol
# Density = 2.142414 g / cm^3
# Si number density = 21.473017 Si / 1000 Ang^3
#
#
#
# Elastic Constant Matrix: (Units=GPa)
#
#
# Indices 1 2 3 4 5 6 
#
# 1 149.1536 36.4990 53.3892 0.0000 13.2265 0.0000
# 2 36.4990 82.2353 23.8980 0.0000 2.2384 0.0000
# 3 53.3892 23.8980 95.6125 0.0000 3.8753 0.0000
# 4 0.0000 0.0000 0.0000 25.6785 0.0000 3.7796
# 5 13.2265 2.2384 3.8753 0.0000 41.6754 0.0000
# 6 0.0000 0.0000 0.0000 3.7796 0.0000 30.1788
#
#
#
# Elastic Compliance Matrix: (Units=1/GPa)
#
#
# Indices 1 2 3 4 5 6 
#
# 1 0.009127 -0.002732 -0.004318 0.000000 -0.002348 0.000000
# 2 -0.002732 0.013937 -0.001970 0.000000 0.000302 0.000000
# 3 -0.004318 -0.001970 0.013353 0.000000 0.000235 0.000000
# 4 0.000000 0.000000 0.000000 0.039674 0.000000 -0.004969
# 5 -0.002348 0.000302 0.000235 0.000000 0.024702 0.000000
# 6 0.000000 0.000000 0.000000 -0.004969 0.000000 0.033758
#
#
# Mechanical properties :
#
#
# Convention : Reuss Voigt Hill
#
# Bulk Modulus (GPa) = 54.41874 61.61931 58.01903
# Shear Modulus (GPa) = 31.50221 33.72088 32.61155
#
# Velocity S-wave (km/s) = 3.83438 3.96711 3.90131
# Velocity P-wave (km/s) = 6.70829 7.05283 6.88271
#
# Compressibility (1/GPa) = 0.01837602
#
# Stress axis : x y z
#
# Youngs Moduli (GPa) = 109.56420 71.75067 74.88846
#
# Poissons Ratio (x) = 0.19603 0.32340
# Poissons Ratio (y) = 0.29933 0.14755
# Poissons Ratio (z) = 0.47315 0.14137
#
# Static dielectric constant tensor:
#      x y z
#    x 4.442150 0.000000 0.249310 
#    y 0.000000 3.659150 0.000000 
#    z 0.249310 0.000000 3.932300 
# 
# 
# High freq. dielectric constant tensor:
#      x y z
#    x 1.872270 0.000000 0.011180 
#    y 0.000000 1.825070 0.000000 
#    z 0.011180 0.000000 1.845980 
# 
# From -- ./inp_files/48416.got.cif
#   From: 2010.03.12/outbox.cif.g09.slc.cpg/sg5_25_cif.got.tgz:48416.got - 2010.03.31 09:47:26.
