data_PCOD8051453
_publ_section_title
;
Structure prediction by ZEFSAII (Michael W. Deem and Ramdas Pophale) SiO2 
 PCOD8051453
Probable space group: C 2
;
_chemical_formula_sum "Si O2"
_cell_formula_units_Z 22
_cell_length_a 24.332977
_cell_length_b 8.841418
_cell_length_c 15.517995
_cell_angle_alpha 90.000000
_cell_angle_beta 161.671922
_cell_angle_gamma 90.000000
_cell_volume 1049.820365
_symmetry_space_group_name_H-M "C 2"
_symmetry_group_IT_number 5
_symmetry_cell_setting 'monoclinic'
loop_
_space_group_symop_operation_xyz
x,y,z
-x,y,-z
1/2+x,1/2+y,z
1/2-x,1/2+y,-z
loop_
_atom_site_type_symbol
_atom_site_label
_atom_site_fract_x
_atom_site_fract_y
_atom_site_fract_z
Si Si1 0.297839 0.812810 0.500084
Si Si2 0.000000 0.037936 0.000000
Si Si3 0.860135 0.322463 0.075021
Si Si4 0.328089 0.992800 0.702287
Si Si5 0.744098 0.263670 0.715348
Si Si6 0.914206 0.584332 0.282008
O O1 0.428230 0.807882 0.612792
O O2 0.395711 0.878863 0.729313
O O3 0.265446 0.638623 0.476018
O O4 0.131350 0.921591 0.242353
O O5 0.106154 0.142478 0.090115
O O6 0.830082 0.456205 0.097244
O O7 0.788064 0.347248 0.870863
O O8 0.761542 0.177300 0.963325
O O9 0.214491 0.895681 0.600914
O O10 0.500000 0.062644 0.000000
O O11 0.558828 0.178770 0.445280
O O12 0.000000 0.525509 0.500000
#
# Coordination Sequence:
#
# PCOD8051453 Si02
#       6
#     4   2   4   4   4   4
#     4  12  25  42  70 100 141 174 222 273 345 402
#     4  12  22  44  72 104 138 180 210 284 344 406
#     4  11  23  46  67  93 131 178 223 274 327 391
#     4  12  24  42  66 104 131 174 217 273 342 408
#     4  11  22  44  69  95 140 169 219 280 339 391
#     4  10  25  45  65  94 129 178 225 274 325 389
#
# _framework density 20.955967000000001
#
# number of rings (size 3 to 8) (size 9 to 14) (size 15 to 20)
#    0.000    0.727    5.455    2.182    2.545    0.000 
#    3.273    0.000    0.000    0.000    0.000    0.000 
#    0.000    0.000    0.000    0.000    0.000    0.000 
#
# Total GULP energy -136308.859761 kJ/mol
# GULP energy per Si atom -12391.714524 kJ/mol
# Density = 2.090827 g / cm^3
# Si number density = 20.955967 Si / 1000 Ang^3
#
#
#
# Elastic Constant Matrix: (Units=GPa)
#
#
# Indices 1 2 3 4 5 6 
#
# 1 122.7871 71.8849 35.0369 0.0000 3.6655 0.0000
# 2 71.8849 146.8458 43.3387 0.0000 -16.9686 0.0000
# 3 35.0369 43.3387 67.1810 0.0000 2.5524 0.0000
# 4 0.0000 0.0000 0.0000 31.5262 0.0000 -3.4173
# 5 3.6655 -16.9686 2.5524 0.0000 28.7724 0.0000
# 6 0.0000 0.0000 0.0000 -3.4173 0.0000 39.5424
#
#
#
# Elastic Compliance Matrix: (Units=1/GPa)
#
#
# Indices 1 2 3 4 5 6 
#
# 1 0.012474 -0.005933 -0.002493 0.000000 -0.004867 0.000000
# 2 -0.005933 0.012185 -0.005085 0.000000 0.008393 0.000000
# 3 -0.002493 -0.005085 0.019634 0.000000 -0.004423 0.000000
# 4 0.000000 0.000000 0.000000 0.032020 0.000000 0.002767
# 5 -0.004867 0.008393 -0.004423 0.000000 0.040718 0.000000
# 6 0.000000 0.000000 0.000000 0.002767 0.000000 0.025528
#
#
# Mechanical properties :
#
#
# Convention : Reuss Voigt Hill
#
# Bulk Modulus (GPa) = 57.90348 70.81498 64.35923
# Shear Modulus (GPa) = 28.51615 32.40507 30.46061
#
# Velocity S-wave (km/s) = 3.69286 3.93662 3.81669
# Velocity P-wave (km/s) = 6.77303 7.38433 7.08527
#
# Compressibility (1/GPa) = 0.01727012
#
# Stress axis : x y z
#
# Youngs Moduli (GPa) = 80.16387 82.06890 50.93192
#
# Poissons Ratio (x) = 0.48692 0.12700
# Poissons Ratio (y) = 0.47562 0.25899
# Poissons Ratio (z) = 0.19988 0.41733
#
# Static dielectric constant tensor:
#      x y z
#    x 4.025010 0.000000 0.069410 
#    y 0.000000 3.685310 0.000000 
#    z 0.069410 0.000000 3.801980 
# 
# 
# High freq. dielectric constant tensor:
#      x y z
#    x 1.829620 0.000000 0.005950 
#    y 0.000000 1.821740 0.000000 
#    z 0.005950 0.000000 1.824150 
# 
# From -- ./inp_files/52052.got.cif
#   From: 2010.03.12/outbox.cif.g09.slc.cpg/sg5_27_cif.got.tgz:52052.got - 2010.03.31 09:47:26.
