data_PCOD8051856
_publ_section_title
;
Structure prediction by ZEFSAII (Michael W. Deem and Ramdas Pophale) SiO2 
 PCOD8051856
Probable space group: C 2
;
_chemical_formula_sum "Si O2"
_cell_formula_units_Z 28
_cell_length_a 12.972685
_cell_length_b 6.693510
_cell_length_c 18.847292
_cell_angle_alpha 90.000000
_cell_angle_beta 57.445134
_cell_angle_gamma 90.000000
_cell_volume 1379.420632
_symmetry_space_group_name_H-M "C 2"
_symmetry_group_IT_number 5
_symmetry_cell_setting 'monoclinic'
loop_
_space_group_symop_operation_xyz
x,y,z
-x,y,-z
1/2+x,1/2+y,z
1/2-x,1/2+y,-z
loop_
_atom_site_type_symbol
_atom_site_label
_atom_site_fract_x
_atom_site_fract_y
_atom_site_fract_z
Si Si1 0.593736 0.133170 0.522798
Si Si2 0.333038 0.928564 0.887805
Si Si3 0.085984 0.614792 0.756273
Si Si4 0.659321 0.812835 0.612428
Si Si5 0.508763 0.420338 0.673427
Si Si6 0.360076 0.766029 0.034405
Si Si7 0.262845 0.573597 0.816412
O O1 0.500000 0.046102 0.500000
O O2 0.704276 0.230468 0.438583
O O3 0.524150 0.295971 0.595982
O O4 0.643500 0.950901 0.549911
O O5 0.450903 0.066154 0.833721
O O6 0.329036 0.758428 0.829693
O O7 0.213095 0.063332 0.923590
O O8 0.339436 0.824094 0.961104
O O9 0.140318 0.430077 0.692380
O O10 0.081595 0.813723 0.710409
O O11 0.173672 0.661125 0.789496
O O12 0.559950 0.640130 0.643415
O O13 0.365164 0.431501 0.743971
O O14 0.316919 0.947910 0.099058
O O15 0.500000 0.717396 0.000000
#
# Coordination Sequence:
#
# PCOD8051856 Si02
#       7
#     4   4   4   4   4   4   4
#     4  11  24  43  68  97 137 176 219 266 326 381
#     4  12  25  43  67  98 130 168 219 270 324 398
#     4  11  25  43  68  97 132 171 219 271 329 384
#     4  11  23  44  67  99 134 174 222 269 317 393
#     4  11  24  44  68  99 134 171 222 273 318 391
#     4  12  26  43  69  96 129 172 216 267 332 392
#     4  12  25  43  70  96 131 175 217 267 333 387
#
# _framework density 20.298376999999999
#
# number of rings (size 3 to 8) (size 9 to 14) (size 15 to 20)
#    0.000    0.571    7.143    0.857    0.000    5.714 
#    0.000    0.000    0.000    0.000    0.000    0.000 
#    0.000    0.000    0.000    0.000    0.000    0.000 
#
# Total GULP energy -173711.500299 kJ/mol
# GULP energy per Si atom -12407.964307 kJ/mol
# Density = 2.025218 g / cm^3
# Si number density = 20.298377 Si / 1000 Ang^3
#
#
#
# Elastic Constant Matrix: (Units=GPa)
#
#
# Indices 1 2 3 4 5 6 
#
# 1 115.5827 12.2715 25.1080 0.0000 -3.5199 0.0001
# 2 12.2715 67.2931 9.0948 0.0000 -6.6407 0.0002
# 3 25.1080 9.0948 82.6647 0.0000 -12.8108 -0.0001
# 4 0.0000 0.0000 0.0000 30.5046 0.0000 -2.9071
# 5 -3.5199 -6.6407 -12.8108 0.0000 33.3387 0.0000
# 6 0.0001 0.0002 -0.0001 -2.9071 0.0000 4.0609
#
#
#
# Elastic Compliance Matrix: (Units=1/GPa)
#
#
# Indices 1 2 3 4 5 6 
#
# 1 0.009385 -0.001373 -0.002752 0.000000 -0.000340 0.000000
# 2 -0.001373 0.015487 -0.000884 0.000000 0.002600 -0.000001
# 3 -0.002752 -0.000884 0.013778 0.000000 0.004828 0.000000
# 4 0.000000 0.000000 0.000000 0.035182 0.000000 0.025187
# 5 -0.000340 0.002600 0.004828 0.000000 0.032332 0.000000
# 6 0.000000 -0.000001 0.000000 0.025187 0.000000 0.264284
#
#
# Mechanical properties :
#
#
# Convention : Reuss Voigt Hill
#
# Bulk Modulus (GPa) = 34.92587 39.83212 37.37900
# Shear Modulus (GPa) = 12.82013 28.18523 20.50268
#
# Velocity S-wave (km/s) = 2.51586 3.73036 3.18160
# Velocity P-wave (km/s) = 5.06784 6.18224 5.65257
#
# Compressibility (1/GPa) = 0.02863207
#
# Stress axis : x y z
#
# Youngs Moduli (GPa) = 106.55187 64.57105 72.57708
#
# Poissons Ratio (x) = 0.08866 0.19975
# Poissons Ratio (y) = 0.14630 0.06415
# Poissons Ratio (z) = 0.29325 0.05707
#
# Static dielectric constant tensor:
#      x y z
#    x 3.629610 0.000000 -0.000670 
#    y 0.000000 3.648400 0.000000 
#    z -0.000670 0.000000 3.942500 
# 
# 
# High freq. dielectric constant tensor:
#      x y z
#    x 1.797920 0.000000 -0.003940 
#    y 0.000000 1.796260 0.000000 
#    z -0.003940 0.000000 1.814040 
# 
# From -- ./inp_files/61261.got.cif
#   From: 2010.03.12/outbox.cif.g09.slc.cpg/sg5_31_cif.got.tgz:61261.got - 2010.03.31 09:47:26.
