data_PCOD8051060
_publ_section_title
;
Structure prediction by ZEFSAII (Michael W. Deem and Ramdas Pophale) SiO2 
 PCOD8051060
Probable space group: C 2
;
_chemical_formula_sum "Si O2"
_cell_formula_units_Z 26
_cell_length_a 9.647298
_cell_length_b 20.212511
_cell_length_c 7.940776
_cell_angle_alpha 90.000000
_cell_angle_beta 130.557369
_cell_angle_gamma 90.000000
_cell_volume 1176.420681
_symmetry_space_group_name_H-M "C 2"
_symmetry_group_IT_number 5
_symmetry_cell_setting 'monoclinic'
loop_
_space_group_symop_operation_xyz
x,y,z
-x,y,-z
1/2+x,1/2+y,z
1/2-x,1/2+y,-z
loop_
_atom_site_type_symbol
_atom_site_label
_atom_site_fract_x
_atom_site_fract_y
_atom_site_fract_z
Si Si1 0.641037 0.062110 0.323525
Si Si2 0.565917 0.662911 0.361901
Si Si3 0.357286 0.798561 0.737602
Si Si4 0.509712 0.925507 0.315570
Si Si5 0.753043 0.083001 0.030713
Si Si6 0.000000 0.871021 0.500000
Si Si7 0.602877 0.444300 0.910785
O O1 0.791220 0.101929 0.550699
O O2 0.688351 0.077048 0.170428
O O3 0.641379 0.982034 0.339367
O O4 0.437344 0.086577 0.222558
O O5 0.500000 0.672663 0.500000
O O6 0.659893 0.728952 0.370245
O O7 0.381531 0.647396 0.108115
O O8 0.405485 0.853572 0.636904
O O9 0.164824 0.820454 0.658376
O O10 0.500000 0.795069 0.000000
O O11 0.500000 0.946131 0.500000
O O12 0.312427 0.920509 0.072207
O O13 0.887093 0.023374 0.086813
O O14 0.992586 0.916552 0.662080
O O15 0.500000 0.421177 0.000000
#
# Coordination Sequence:
#
# PCOD8051060 Si02
#       7
#     4   4   4   4   4   2   4
#     4   9  20  40  66  99 130 177 221 278 346 398
#     4  10  23  42  67  95 129 182 225 274 345 411
#     4  12  26  46  66  96 139 185 226 280 351 412
#     4  11  23  43  69 102 139 174 229 293 343 407
#     4   9  20  38  66  96 136 169 222 280 334 411
#     4  12  26  46  70 100 140 182 232 288 344 416
#     4  11  24  40  69 109 135 180 232 287 347 406
#
# _framework density 22.100936000000001
#
# number of rings (size 3 to 8) (size 9 to 14) (size 15 to 20)
#    0.000    1.538    1.538    2.308    9.692    1.846 
#    4.154    0.000    0.000    0.000    0.000    0.000 
#    0.000    0.000    0.000    0.000    0.000    0.000 
#
# Total GULP energy -161122.592302 kJ/mol
# GULP energy per Si atom -12394.045562 kJ/mol
# Density = 2.205063 g / cm^3
# Si number density = 22.100936 Si / 1000 Ang^3
#
#
#
# Elastic Constant Matrix: (Units=GPa)
#
#
# Indices 1 2 3 4 5 6 
#
# 1 80.3379 42.6845 31.5405 0.0000 10.3272 0.0000
# 2 42.6845 102.9710 29.3225 0.0000 8.8574 0.0000
# 3 31.5405 29.3225 105.4197 0.0000 10.8947 0.0000
# 4 0.0000 0.0000 0.0000 36.1840 0.0000 9.2471
# 5 10.3272 8.8574 10.8947 0.0000 21.8072 0.0000
# 6 0.0000 0.0000 0.0000 9.2471 0.0000 38.1418
#
#
#
# Elastic Compliance Matrix: (Units=1/GPa)
#
#
# Indices 1 2 3 4 5 6 
#
# 1 0.017376 -0.005953 -0.003103 0.000000 -0.004261 0.000000
# 2 -0.005953 0.012772 -0.001610 0.000000 -0.001564 0.000000
# 3 -0.003103 -0.001610 0.011222 0.000000 -0.003483 0.000000
# 4 0.000000 0.000000 0.000000 0.029462 0.000000 -0.007143
# 5 -0.004261 -0.001564 -0.003483 0.000000 0.050250 0.000000
# 6 0.000000 0.000000 0.000000 -0.007143 0.000000 0.027950
#
#
# Mechanical properties :
#
#
# Convention : Reuss Voigt Hill
#
# Bulk Modulus (GPa) = 49.90167 55.09149 52.49658
# Shear Modulus (GPa) = 28.24192 31.57201 29.90697
#
# Velocity S-wave (km/s) = 3.57860 3.78370 3.68258
# Velocity P-wave (km/s) = 6.30104 6.63851 6.47198
#
# Compressibility (1/GPa) = 0.02003941
#
# Stress axis : x y z
#
# Youngs Moduli (GPa) = 57.55046 78.29567 89.11132
#
# Poissons Ratio (x) = 0.46608 0.27648
# Poissons Ratio (y) = 0.34259 0.14346
# Poissons Ratio (z) = 0.17856 0.12605
#
# Static dielectric constant tensor:
#      x y z
#    x 3.902540 0.000000 0.171300 
#    y 0.000000 3.870650 0.000000 
#    z 0.171300 0.000000 3.867280 
# 
# 
# High freq. dielectric constant tensor:
#      x y z
#    x 1.872820 0.000000 0.016460 
#    y 0.000000 1.854740 0.000000 
#    z 0.016460 0.000000 1.875130 
# 
# From -- ./inp_files/16981.got.cif
#   From: 2010.03.12/outbox.cif.g09.slc.cpg/sg5_9_cif.got.tgz:16981.got - 2010.03.31 09:47:26.
