data_PCOD8051222
_publ_section_title
;
Structure prediction by ZEFSAII (Michael W. Deem and Ramdas Pophale) SiO2 
 PCOD8051222
Probable space group: C 2
;
_chemical_formula_sum "Si O2"
_cell_formula_units_Z 22
_cell_length_a 5.211523
_cell_length_b 8.848860
_cell_length_c 21.812497
_cell_angle_alpha 90.000000
_cell_angle_beta 89.726669
_cell_angle_gamma 90.000000
_cell_volume 1005.894482
_symmetry_space_group_name_H-M "C 2"
_symmetry_group_IT_number 5
_symmetry_cell_setting 'monoclinic'
loop_
_space_group_symop_operation_xyz
x,y,z
-x,y,-z
1/2+x,1/2+y,z
1/2-x,1/2+y,-z
loop_
_atom_site_type_symbol
_atom_site_label
_atom_site_fract_x
_atom_site_fract_y
_atom_site_fract_z
Si Si1 0.502987 0.422440 0.927401
Si Si2 0.987984 0.887162 0.690566
Si Si3 0.500000 0.717382 0.500000
Si Si4 0.155514 0.931867 0.555591
Si Si5 0.512157 0.721303 0.264450
Si Si6 0.004012 0.258410 0.878835
O O1 0.254278 0.340968 0.902379
O O2 0.504100 0.591087 0.903841
O O3 0.753877 0.340755 0.903148
O O4 0.500000 0.419000 0.000000
O O5 0.218385 0.777525 0.709255
O O6 0.721198 0.801109 0.700230
O O7 0.005422 0.929217 0.619293
O O8 0.001744 0.040588 0.729594
O O9 0.704945 0.606417 0.534579
O O10 0.406710 0.826156 0.555961
O O11 0.000000 0.852014 0.500000
O O12 0.492836 0.764088 0.193945
#
# Coordination Sequence:
#
# PCOD8051222 Si02
#       6
#     4   4   2   4   4   4
#     4  12  25  44  72 105 136 178 223 276 331 394
#     4  12  27  44  71  97 137 171 239 272 335 406
#     4  10  24  40  66  90 128 162 216 256 364 388
#     4  10  26  41  68  93 130 168 215 281 342 392
#     4  12  26  47  68 102 131 187 221 278 329 396
#     4  12  25  45  70  97 145 176 225 274 333 392
#
# _framework density 21.871081
#
# number of rings (size 3 to 8) (size 9 to 14) (size 15 to 20)
#    0.545    0.000    0.000    8.182    6.364    0.000 
#    0.000    0.000    0.000    0.000    0.000    0.000 
#    0.000    0.000    0.000    0.000    0.000    0.000 
#
# Total GULP energy -136367.504974 kJ/mol
# GULP energy per Si atom -12397.045907 kJ/mol
# Density = 2.182130 g / cm^3
# Si number density = 21.871081 Si / 1000 Ang^3
#
#
#
# Elastic Constant Matrix: (Units=GPa)
#
#
# Indices 1 2 3 4 5 6 
#
# 1 123.1688 65.8592 36.4609 0.0000 -12.4139 0.0000
# 2 65.8592 159.4982 12.7837 0.0000 -16.2498 0.0000
# 3 36.4609 12.7837 122.1773 0.0000 -0.0044 0.0000
# 4 0.0000 0.0000 0.0000 34.7911 0.0000 -8.6628
# 5 -12.4139 -16.2498 -0.0044 0.0000 38.6656 0.0000
# 6 0.0000 0.0000 0.0000 -8.6628 0.0000 40.6171
#
#
#
# Elastic Compliance Matrix: (Units=1/GPa)
#
#
# Indices 1 2 3 4 5 6 
#
# 1 0.011499 -0.004318 -0.002980 0.000000 0.001877 0.000000
# 2 -0.004318 0.008230 0.000428 0.000000 0.002072 0.000000
# 3 -0.002980 0.000428 0.009029 0.000000 -0.000776 0.000000
# 4 0.000000 0.000000 0.000000 0.030355 0.000000 0.006474
# 5 0.001877 0.002072 -0.000776 0.000000 0.027336 0.000000
# 6 0.000000 0.000000 0.000000 0.006474 0.000000 0.026001
#
#
# Mechanical properties :
#
#
# Convention : Reuss Voigt Hill
#
# Bulk Modulus (GPa) = 66.58915 70.56133 68.57524
# Shear Modulus (GPa) = 38.11082 42.13079 40.12081
#
# Velocity S-wave (km/s) = 4.17888 4.39375 4.28766
# Velocity P-wave (km/s) = 7.33460 7.62053 7.47893
#
# Compressibility (1/GPa) = 0.01501746
#
# Stress axis : x y z
#
# Youngs Moduli (GPa) = 86.96336 121.51368 110.75065
#
# Poissons Ratio (x) = 0.52471 0.33001
# Poissons Ratio (y) = 0.37552 -0.04736
# Poissons Ratio (z) = 0.25913 -0.05196
#
# Static dielectric constant tensor:
#      x y z
#    x 4.097560 0.000000 -0.056000 
#    y 0.000000 4.168610 0.000000 
#    z -0.056000 0.000000 4.170290 
# 
# 
# High freq. dielectric constant tensor:
#      x y z
#    x 1.863660 0.000000 -0.005570 
#    y 0.000000 1.884480 0.000000 
#    z -0.005570 0.000000 1.878070 
# 
# From -- ./inp_files/63857.got.cif
#   From: 2010.03.12/outbox.cif.g09.slc.cpg/sg5_32_cif.got.tgz:63857.got - 2010.03.31 09:47:26.
