data_PCOD8051198
_publ_section_title
;
Structure prediction by ZEFSAII (Michael W. Deem and Ramdas Pophale) SiO2 
 PCOD8051198
Probable space group: C 2
;
_chemical_formula_sum "Si O2"
_cell_formula_units_Z 28
_cell_length_a 14.961312
_cell_length_b 9.689936
_cell_length_c 16.488450
_cell_angle_alpha 90.000000
_cell_angle_beta 144.831672
_cell_angle_gamma 90.000000
_cell_volume 1376.823342
_symmetry_space_group_name_H-M "C 2"
_symmetry_group_IT_number 5
_symmetry_cell_setting 'monoclinic'
loop_
_space_group_symop_operation_xyz
x,y,z
-x,y,-z
1/2+x,1/2+y,z
1/2-x,1/2+y,-z
loop_
_atom_site_type_symbol
_atom_site_label
_atom_site_fract_x
_atom_site_fract_y
_atom_site_fract_z
Si Si1 0.058030 0.799450 0.257122
Si Si2 0.388111 0.914352 0.489695
Si Si3 0.402566 0.065243 0.243605
Si Si4 0.564549 0.102524 0.958667
Si Si5 0.022306 0.304819 0.112813
Si Si6 0.165700 0.685932 0.639975
Si Si7 0.653905 0.561974 0.927274
O O1 0.243517 0.816281 0.402953
O O2 0.999521 0.697034 0.283273
O O3 0.028443 0.727942 0.149295
O O4 0.964045 0.943612 0.189014
O O5 0.500000 0.856462 0.500000
O O6 0.485870 0.939009 0.645193
O O7 0.317826 0.061809 0.411695
O O8 0.312241 0.120350 0.254960
O O9 0.280362 0.008344 0.087115
O O10 0.529626 0.953308 0.893203
O O11 0.500000 0.100233 0.000000
O O12 0.750652 0.117892 0.081431
O O13 0.201972 0.298569 0.272047
O O14 0.931992 0.188460 0.094711
O O15 0.000000 0.286339 0.000000
O O16 0.000000 0.759381 0.500000
#
# Coordination Sequence:
#
# PCOD8051198 Si02
#       7
#     4   4   4   4   4   4   4
#     4  11  22  40  62  91 119 156 198 252 301 346
#     4   9  20  40  61  83 120 159 201 239 291 359
#     4   9  20  38  57  91 120 148 199 253 280 353
#     4  10  24  38  56  90 132 151 191 257 306 347
#     4  11  20  37  64  88 118 163 201 240 297 357
#     4   9  18  36  61  87 112 154 205 238 277 356
#     4  11  21  38  64  90 118 161 205 242 288 365
#
# _framework density 20.336669000000001
#
# number of rings (size 3 to 8) (size 9 to 14) (size 15 to 20)
#    0.000    2.286    2.857    1.714    2.000    2.857 
#   10.286    2.143    0.000    0.000    0.000    0.000 
#    0.000    0.000    0.000    0.000    0.000    0.000 
#
# Total GULP energy -173459.534759 kJ/mol
# GULP energy per Si atom -12389.966769 kJ/mol
# Density = 2.029038 g / cm^3
# Si number density = 20.336669 Si / 1000 Ang^3
#
#
#
# Elastic Constant Matrix: (Units=GPa)
#
#
# Indices 1 2 3 4 5 6 
#
# 1 76.2833 17.0893 29.4975 0.0002 12.0213 0.0001
# 2 17.0893 52.6852 6.3587 0.0002 16.4904 0.0001
# 3 29.4975 6.3587 78.5179 0.0000 24.4812 0.0001
# 4 0.0002 0.0002 0.0000 15.6166 0.0000 1.4069
# 5 12.0213 16.4904 24.4812 0.0000 32.3876 0.0000
# 6 0.0001 0.0001 0.0001 1.4069 0.0000 19.4389
#
#
#
# Elastic Compliance Matrix: (Units=1/GPa)
#
#
# Indices 1 2 3 4 5 6 
#
# 1 0.016398 -0.004899 -0.006076 0.000000 0.001000 0.000000
# 2 -0.004899 0.024364 0.004145 0.000000 -0.013720 0.000000
# 3 -0.006076 0.004145 0.019151 0.000000 -0.014331 0.000000
# 4 0.000000 0.000000 0.000000 0.064455 0.000000 -0.004665
# 5 0.001000 -0.013720 -0.014331 0.000000 0.048323 0.000000
# 6 0.000000 0.000000 0.000000 -0.004665 0.000000 0.051781
#
#
# Mechanical properties :
#
#
# Convention : Reuss Voigt Hill
#
# Bulk Modulus (GPa) = 21.61956 34.81972 28.21964
# Shear Modulus (GPa) = 19.72009 23.79135 21.75572
#
# Velocity S-wave (km/s) = 3.11735 3.42405 3.27429
# Velocity P-wave (km/s) = 4.85912 5.72634 5.31046
#
# Compressibility (1/GPa) = 0.04625441
#
# Stress axis : x y z
#
# Youngs Moduli (GPa) = 60.98230 41.04467 52.21616
#
# Poissons Ratio (x) = 0.20107 0.31724
# Poissons Ratio (y) = 0.29874 -0.21644
# Poissons Ratio (z) = 0.37050 -0.17013
#
# Static dielectric constant tensor:
#      x y z
#    x 3.783680 0.000000 0.157060 
#    y 0.000000 3.605650 0.000000 
#    z 0.157060 0.000000 4.002760 
# 
# 
# High freq. dielectric constant tensor:
#      x y z
#    x 1.808270 0.000000 0.009760 
#    y 0.000000 1.772510 0.000000 
#    z 0.009760 0.000000 1.788550 
# 
# From -- ./inp_files/61475.got.cif
#   From: 2010.03.12/outbox.cif.g09.slc.cpg/sg5_31_cif.got.tgz:61475.got - 2010.03.31 09:47:26.
