data_PCOD8051123
_publ_section_title
;
Structure prediction by ZEFSAII (Michael W. Deem and Ramdas Pophale) SiO2 
 PCOD8051123
Probable space group: C 2
;
_chemical_formula_sum "Si O2"
_cell_formula_units_Z 24
_cell_length_a 14.482717
_cell_length_b 15.558495
_cell_length_c 4.980962
_cell_angle_alpha 90.000000
_cell_angle_beta 89.975758
_cell_angle_gamma 90.000000
_cell_volume 1122.356481
_symmetry_space_group_name_H-M "C 2"
_symmetry_group_IT_number 5
_symmetry_cell_setting 'monoclinic'
loop_
_space_group_symop_operation_xyz
x,y,z
-x,y,-z
1/2+x,1/2+y,z
1/2-x,1/2+y,-z
loop_
_atom_site_type_symbol
_atom_site_label
_atom_site_fract_x
_atom_site_fract_y
_atom_site_fract_z
Si Si1 0.322370 0.797270 0.579729
Si Si2 0.000000 0.083043 0.000000
Si Si3 0.177657 0.978869 0.080132
Si Si4 0.939202 0.638052 0.750121
Si Si5 0.201943 0.493671 0.417850
Si Si6 0.298058 0.282466 0.917386
Si Si7 0.000000 0.193063 0.500000
O O1 0.341037 0.898713 0.606164
O O2 0.285332 0.771198 0.289424
O O3 0.418967 0.750671 0.625700
O O4 0.245496 0.765330 0.791140
O O5 0.038270 0.138058 0.749964
O O6 0.918989 0.025436 0.874456
O O7 0.254458 0.011282 0.291010
O O8 0.159193 0.877458 0.108761
O O9 0.214608 0.004346 0.789200
O O10 0.879039 0.559886 0.638986
O O11 0.879220 0.716306 0.861706
O O12 0.000000 0.671804 0.500000
O O13 0.000000 0.604203 0.000000
#
# Coordination Sequence:
#
# PCOD8051123 Si02
#       7
#     4   2   4   4   4   4   2
#     4  10  23  44  66  94 129 174 211 264 324 380
#     4  12  26  40  66 102 130 166 220 264 318 382
#     4  10  23  44  66  94 129 174 211 264 324 380
#     4  12  26  42  68 100 126 166 220 270 320 380
#     4  10  23  44  69  91 129 173 213 263 328 379
#     4  10  23  44  69  91 129 173 213 263 328 379
#     4  12  26  40  66 102 130 166 220 264 318 382
#
# _framework density 21.383581
#
# number of rings (size 3 to 8) (size 9 to 14) (size 15 to 20)
#    0.000    1.333    0.000    4.000    9.333    0.000 
#    3.000    0.000    0.000    0.000    0.000    0.000 
#    0.000    0.000    0.000    0.000    0.000    0.000 
#
# Total GULP energy -148875.231662 kJ/mol
# GULP energy per Si atom -12406.269305 kJ/mol
# Density = 2.133491 g / cm^3
# Si number density = 21.383581 Si / 1000 Ang^3
#
#
#
# Elastic Constant Matrix: (Units=GPa)
#
#
# Indices 1 2 3 4 5 6 
#
# 1 113.4608 75.8323 23.0865 0.0000 -3.9438 0.0000
# 2 75.8323 103.3709 40.0707 0.0000 -2.7936 0.0000
# 3 23.0865 40.0707 94.5607 0.0000 2.6599 0.0000
# 4 0.0000 0.0000 0.0000 31.1053 0.0000 0.3479
# 5 -3.9438 -2.7936 2.6599 0.0000 23.6034 0.0000
# 6 0.0000 0.0000 0.0000 0.3479 0.0000 27.4641
#
#
#
# Elastic Compliance Matrix: (Units=1/GPa)
#
#
# Indices 1 2 3 4 5 6 
#
# 1 0.017477 -0.013308 0.001339 0.000000 0.001194 0.000000
# 2 -0.013308 0.021797 -0.006016 0.000000 0.001034 0.000000
# 3 0.001339 -0.006016 0.012852 0.000000 -0.001937 0.000000
# 4 0.000000 0.000000 0.000000 0.032153 0.000000 -0.000407
# 5 0.001194 0.001034 -0.001937 0.000000 0.042907 0.000000
# 6 0.000000 0.000000 0.000000 -0.000407 0.000000 0.036416
#
#
# Mechanical properties :
#
#
# Convention : Reuss Voigt Hill
#
# Bulk Modulus (GPa) = 61.90054 65.48571 63.69312
# Shear Modulus (GPa) = 24.39519 27.92812 26.16166
#
# Velocity S-wave (km/s) = 3.38129 3.61786 3.50157
# Velocity P-wave (km/s) = 6.65242 6.93849 6.79696
#
# Compressibility (1/GPa) = 0.01615495
#
# Stress axis : x y z
#
# Youngs Moduli (GPa) = 57.21804 45.87890 77.80658
#
# Poissons Ratio (x) = 0.61054 -0.10416
# Poissons Ratio (y) = 0.76144 0.46812
# Poissons Ratio (z) = -0.07660 0.27603
#
# Static dielectric constant tensor:
#      x y z
#    x 3.620470 0.000000 0.043160 
#    y 0.000000 3.945210 0.000000 
#    z 0.043160 0.000000 4.062480 
# 
# 
# High freq. dielectric constant tensor:
#      x y z
#    x 1.834360 0.000000 0.002430 
#    y 0.000000 1.844600 0.000000 
#    z 0.002430 0.000000 1.859030 
# 
# From -- ./inp_files/6869.got.cif
#   From: 2010.03.12/outbox.cif.g09.slc.cpg/sg5_4_cif.got.tgz:6869.got - 2010.03.31 09:47:26.
