data_PCOD8051643
_publ_section_title
;
Structure prediction by ZEFSAII (Michael W. Deem and Ramdas Pophale) SiO2 
 PCOD8051643
Probable space group: C 2
;
_chemical_formula_sum "Si O2"
_cell_formula_units_Z 22
_cell_length_a 17.806096
_cell_length_b 5.176711
_cell_length_c 12.110222
_cell_angle_alpha 90.000000
_cell_angle_beta 114.172501
_cell_angle_gamma 90.000000
_cell_volume 1018.404677
_symmetry_space_group_name_H-M "C 2"
_symmetry_group_IT_number 5
_symmetry_cell_setting 'monoclinic'
loop_
_space_group_symop_operation_xyz
x,y,z
-x,y,-z
1/2+x,1/2+y,z
1/2-x,1/2+y,-z
loop_
_atom_site_type_symbol
_atom_site_label
_atom_site_fract_x
_atom_site_fract_y
_atom_site_fract_z
Si Si1 0.500000 0.282560 0.000000
Si Si2 0.570992 0.661888 0.864751
Si Si3 0.409394 0.929406 0.801676
Si Si4 0.696888 0.645357 0.770145
Si Si5 0.262969 0.135167 0.577698
Si Si6 0.797350 0.148883 0.880828
O O1 0.471373 0.432046 0.092520
O O2 0.579307 0.113194 0.083921
O O3 0.501836 0.883144 0.813367
O O4 0.602398 0.631505 0.757259
O O5 0.656999 0.719792 0.977829
O O6 0.365221 0.667981 0.821435
O O7 0.354364 0.064772 0.675610
O O8 0.698127 0.674604 0.638310
O O9 0.731000 0.367821 0.822149
O O10 0.752776 0.873446 0.855463
O O11 0.270768 0.404337 0.518276
#
# Coordination Sequence:
#
# PCOD8051643 Si02
#       6
#     2   4   4   4   4   4
#     4  12  22  40  70 104 146 174 210 270 360 414
#     4  12  23  38  65 103 143 170 218 275 338 412
#     4  11  24  40  71 100 133 184 222 270 343 412
#     4  11  26  40  69  98 135 176 232 271 334 393
#     4  11  25  48  72  89 128 181 238 276 325 391
#     4  11  21  42  62 103 140 181 206 267 342 423
#
# _framework density 21.602412999999999
#
# number of rings (size 3 to 8) (size 9 to 14) (size 15 to 20)
#    0.000    0.727    3.636    5.455    5.091    0.000 
#    0.000    0.909    0.000    0.000    0.000    0.000 
#    0.000    0.000    0.000    0.000    0.000    0.000 
#
# Total GULP energy -136286.121711 kJ/mol
# GULP energy per Si atom -12389.647428 kJ/mol
# Density = 2.155324 g / cm^3
# Si number density = 21.602413 Si / 1000 Ang^3
#
#
#
# Elastic Constant Matrix: (Units=GPa)
#
#
# Indices 1 2 3 4 5 6 
#
# 1 155.6500 40.2327 45.2755 0.0000 -33.1392 0.0000
# 2 40.2327 67.7166 19.2067 0.0000 -15.1241 0.0000
# 3 45.2755 19.2067 82.7205 0.0000 -9.6353 0.0000
# 4 0.0000 0.0000 0.0000 30.9195 0.0000 -0.8364
# 5 -33.1392 -15.1241 -9.6353 0.0000 32.9971 0.0000
# 6 0.0000 0.0000 0.0000 -0.8364 0.0000 13.4739
#
#
#
# Elastic Compliance Matrix: (Units=1/GPa)
#
#
# Indices 1 2 3 4 5 6 
#
# 1 0.009936 -0.003159 -0.003842 0.000000 0.007409 0.000000
# 2 -0.003159 0.018232 -0.001967 0.000000 0.004609 0.000000
# 3 -0.003842 -0.001967 0.014590 0.000000 -0.000500 0.000000
# 4 0.000000 0.000000 0.000000 0.032396 0.000000 0.002011
# 5 0.007409 0.004609 -0.000500 0.000000 0.039714 0.000000
# 6 0.000000 0.000000 0.000000 0.002011 0.000000 0.074342
#
#
# Mechanical properties :
#
#
# Convention : Reuss Voigt Hill
#
# Bulk Modulus (GPa) = 40.28691 57.27965 48.78328
# Shear Modulus (GPa) = 23.21039 28.90293 26.05666
#
# Velocity S-wave (km/s) = 3.28141 3.66177 3.47680
# Velocity P-wave (km/s) = 5.74862 6.66716 6.22486
#
# Compressibility (1/GPa) = 0.02482196
#
# Stress axis : x y z
#
# Youngs Moduli (GPa) = 100.64176 54.84942 68.53877
#
# Poissons Ratio (x) = 0.17327 0.26332
# Poissons Ratio (y) = 0.31792 0.13484
# Poissons Ratio (z) = 0.38666 0.10791
#
# Static dielectric constant tensor:
#      x y z
#    x 4.160210 0.000000 -0.166040 
#    y 0.000000 3.951040 0.000000 
#    z -0.166040 0.000000 3.855870 
# 
# 
# High freq. dielectric constant tensor:
#      x y z
#    x 1.852790 0.000000 -0.006310 
#    y 0.000000 1.858830 0.000000 
#    z -0.006310 0.000000 1.819750 
# 
# From -- ./inp_files/43643.got.cif
#   From: 2010.03.12/outbox.cif.g09.slc.cpg/sg5_22_cif.got.tgz:43643.got - 2010.03.31 09:47:26.
