data_PCOD8051170
_publ_section_title
;
Structure prediction by ZEFSAII (Michael W. Deem and Ramdas Pophale) SiO2 
 PCOD8051170
Probable space group: C 2
;
_chemical_formula_sum "Si O2"
_cell_formula_units_Z 26
_cell_length_a 7.688171
_cell_length_b 9.410575
_cell_length_c 19.096294
_cell_angle_alpha 90.000000
_cell_angle_beta 51.475690
_cell_angle_gamma 90.000000
_cell_volume 1080.901254
_symmetry_space_group_name_H-M "C 2"
_symmetry_group_IT_number 5
_symmetry_cell_setting 'monoclinic'
loop_
_space_group_symop_operation_xyz
x,y,z
-x,y,-z
1/2+x,1/2+y,z
1/2-x,1/2+y,-z
loop_
_atom_site_type_symbol
_atom_site_label
_atom_site_fract_x
_atom_site_fract_y
_atom_site_fract_z
Si Si1 0.367880 0.664740 0.467022
Si Si2 0.000000 0.826759 0.000000
Si Si3 0.473614 0.782103 0.297534
Si Si4 0.384357 0.995081 0.838881
Si Si5 0.263215 0.278650 0.921833
Si Si6 0.874512 0.983853 0.779979
Si Si7 0.980982 0.861835 0.392243
O O1 0.500000 0.717721 0.500000
O O2 0.504672 0.738828 0.369952
O O3 0.361141 0.495809 0.459385
O O4 0.122426 0.720504 0.547154
O O5 0.785618 0.923737 0.064939
O O6 0.085288 0.738586 0.047160
O O7 0.633595 0.910989 0.231208
O O8 0.523550 0.642336 0.237772
O O9 0.232473 0.847713 0.351280
O O10 0.630847 0.985189 0.807356
O O11 0.308954 0.158215 0.851480
O O12 0.358568 0.422542 0.862772
O O13 0.000000 0.291161 0.000000
O O14 0.030242 0.886967 0.689309
#
# Coordination Sequence:
#
# PCOD8051170 Si02
#       7
#     4   2   4   4   4   4   4
#     4  11  23  42  70 104 143 186 235 296 352 428
#     4  12  26  42  74 106 140 188 242 310 366 426
#     4  10  23  46  71 102 147 189 236 294 360 431
#     4  11  24  46  70 105 142 189 242 302 366 426
#     4  12  26  47  74 105 141 190 248 302 367 432
#     4  10  24  46  69 103 146 187 242 301 360 435
#     4  10  24  43  69 102 143 185 236 293 355 430
#
# _framework density 24.054001
#
# number of rings (size 3 to 8) (size 9 to 14) (size 15 to 20)
#    0.000    1.231    2.308    2.308    0.000   13.538 
#    1.385    3.077    0.000    0.923    0.000    0.000 
#    0.000    0.000    0.000    0.000    0.000    0.000 
#
# Total GULP energy -161078.543419 kJ/mol
# GULP energy per Si atom -12390.657186 kJ/mol
# Density = 2.399925 g / cm^3
# Si number density = 24.054001 Si / 1000 Ang^3
#
#
#
# Elastic Constant Matrix: (Units=GPa)
#
#
# Indices 1 2 3 4 5 6 
#
# 1 65.1617 30.1643 36.3381 0.0000 10.4850 0.0000
# 2 30.1643 128.8335 75.9172 0.0000 -5.0849 0.0000
# 3 36.3381 75.9172 138.1448 0.0001 -3.4588 0.0000
# 4 0.0000 0.0000 0.0001 53.0783 0.0000 -3.1602
# 5 10.4850 -5.0849 -3.4588 0.0000 41.7753 0.0000
# 6 0.0000 0.0000 0.0000 -3.1602 0.0000 25.0984
#
#
#
# Elastic Compliance Matrix: (Units=1/GPa)
#
#
# Indices 1 2 3 4 5 6 
#
# 1 0.019577 -0.002494 -0.003918 0.000000 -0.005542 0.000000
# 2 -0.002494 0.011829 -0.005805 0.000000 0.001585 0.000000
# 3 -0.003918 -0.005805 0.011490 0.000000 0.001228 0.000000
# 4 0.000000 0.000000 0.000000 0.018982 0.000000 0.002390
# 5 -0.005542 0.001585 0.001228 0.000000 0.025623 0.000000
# 6 0.000000 0.000000 0.000000 0.002390 0.000000 0.040144
#
#
# Mechanical properties :
#
#
# Convention : Reuss Voigt Hill
#
# Bulk Modulus (GPa) = 54.16160 68.55326 61.35743
# Shear Modulus (GPa) = 31.59870 36.63841 34.11855
#
# Velocity S-wave (km/s) = 3.62837 3.90702 3.77027
# Velocity P-wave (km/s) = 6.33396 6.99390 6.67209
#
# Compressibility (1/GPa) = 0.01846327
#
# Stress axis : x y z
#
# Youngs Moduli (GPa) = 51.07925 84.53750 87.03002
#
# Poissons Ratio (x) = 0.21081 0.34099
# Poissons Ratio (y) = 0.12738 0.50521
# Poissons Ratio (z) = 0.20013 0.49074
#
# Static dielectric constant tensor:
#      x y z
#    x 4.131780 0.000000 -0.217420 
#    y 0.000000 4.420240 0.000000 
#    z -0.217420 0.000000 5.543250 
# 
# 
# High freq. dielectric constant tensor:
#      x y z
#    x 1.933210 0.000000 -0.009300 
#    y 0.000000 1.948770 0.000000 
#    z -0.009300 0.000000 1.982150 
# 
# From -- ./inp_files/64373.got.cif
#   From: 2010.03.12/outbox.cif.g09.slc.cpg/sg5_33_cif.got.tgz:64373.got - 2010.03.31 09:47:26.
