data_PCOD8051987
_publ_section_title
;
Structure prediction by ZEFSAII (Michael W. Deem and Ramdas Pophale) SiO2 
 PCOD8051987
Probable space group: C 2
;
_chemical_formula_sum "Si O2"
_cell_formula_units_Z 12
_cell_length_a 6.909457
_cell_length_b 12.362325
_cell_length_c 6.973241
_cell_angle_alpha 90.000000
_cell_angle_beta 133.012848
_cell_angle_gamma 90.000000
_cell_volume 435.527297
_symmetry_space_group_name_H-M "C 2"
_symmetry_group_IT_number 5
_symmetry_cell_setting 'monoclinic'
loop_
_space_group_symop_operation_xyz
x,y,z
-x,y,-z
1/2+x,1/2+y,z
1/2-x,1/2+y,-z
loop_
_atom_site_type_symbol
_atom_site_label
_atom_site_fract_x
_atom_site_fract_y
_atom_site_fract_z
Si Si1 0.500000 0.582960 0.500000
Si Si2 0.500000 0.916459 0.500000
Si Si3 0.247998 0.936448 0.962228
Si Si4 0.894969 0.753158 0.635568
O O1 0.524842 0.510767 0.709065
O O2 0.774225 0.650017 0.664986
O O3 0.660981 0.841569 0.457613
O O4 0.688384 0.981676 0.777969
O O5 0.134893 0.813357 0.911009
O O6 0.500000 0.938146 0.000000
O O7 0.000000 0.716453 0.500000
#
# Coordination Sequence:
#
# PCOD8051987 Si02
#       4
#     2   2   4   4
#     4  11  28  50  86 119 158 209 276 322 398 479
#     4  11  24  46  90 109 160 217 254 330 406 459
#     4  12  24  52  86 115 161 211 264 330 401 469
#     4  11  24  52  83 116 160 213 262 331 394 475
#
# _framework density 27.552807999999999
#
# number of rings (size 3 to 8) (size 9 to 14) (size 15 to 20)
#    0.000    0.667    5.000    1.000    0.000    5.333 
#   21.000    0.000   22.000    0.000    0.000    0.000 
#    0.000    0.000    0.000    0.000    0.000    0.000 
#
# Total GULP energy -74354.876879 kJ/mol
# GULP energy per Si atom -12392.479480 kJ/mol
# Density = 2.749010 g / cm^3
# Si number density = 27.552808 Si / 1000 Ang^3
#
#
#
# Elastic Constant Matrix: (Units=GPa)
#
#
# Indices 1 2 3 4 5 6 
#
# 1 143.1534 47.2420 30.1445 0.0000 -17.5151 0.0001
# 2 47.2420 108.5055 69.2772 0.0000 -10.5938 0.0000
# 3 30.1445 69.2772 218.5565 0.0000 -45.2914 0.0001
# 4 0.0000 0.0000 0.0000 21.1191 0.0000 3.4205
# 5 -17.5151 -10.5938 -45.2914 0.0000 51.8883 0.0001
# 6 0.0001 0.0000 0.0001 3.4205 0.0001 34.8129
#
#
#
# Elastic Compliance Matrix: (Units=1/GPa)
#
#
# Indices 1 2 3 4 5 6 
#
# 1 0.008428 -0.003782 0.000569 0.000000 0.002569 0.000000
# 2 -0.003782 0.013296 -0.004145 0.000000 -0.002180 0.000000
# 3 0.000569 -0.004145 0.006928 0.000000 0.005393 0.000000
# 4 0.000000 0.000000 0.000000 0.048116 0.000000 -0.004728
# 5 0.002569 -0.002180 0.005393 0.000000 0.024402 0.000000
# 6 0.000000 0.000000 0.000000 -0.004728 0.000000 0.029189
#
#
# Mechanical properties :
#
#
# Convention : Reuss Voigt Hill
#
# Bulk Modulus (GPa) = 71.75006 84.83809 78.29407
# Shear Modulus (GPa) = 33.39535 43.13417 38.26476
#
# Velocity S-wave (km/s) = 3.48523 3.96094 3.73068
# Velocity P-wave (km/s) = 6.50332 7.19560 6.85820
#
# Compressibility (1/GPa) = 0.01393727
#
# Stress axis : x y z
#
# Youngs Moduli (GPa) = 118.65031 75.21026 144.33241
#
# Poissons Ratio (x) = 0.28443 -0.08208
# Poissons Ratio (y) = 0.44871 0.59820
# Poissons Ratio (z) = -0.06748 0.31172
#
# Static dielectric constant tensor:
#      x y z
#    x 5.321630 0.000000 0.222170 
#    y 0.000000 4.781530 0.000000 
#    z 0.222170 0.000000 5.146160 
# 
# 
# High freq. dielectric constant tensor:
#      x y z
#    x 2.147400 0.000000 0.009630 
#    y 0.000000 2.075830 0.000000 
#    z 0.009630 0.000000 2.109920 
# 
# From -- ./inp_files/13706.got.cif
#   From: 2010.03.12/outbox.cif.g09.slc.cpg/sg5_7_cif.got.tgz:13706.got - 2010.03.31 09:47:26.
