data_PCOD8051242
_publ_section_title
;
Structure prediction by ZEFSAII (Michael W. Deem and Ramdas Pophale) SiO2 
 PCOD8051242
Probable space group: C 2
;
_chemical_formula_sum "Si O2"
_cell_formula_units_Z 18
_cell_length_a 6.946064
_cell_length_b 7.902712
_cell_length_c 17.440783
_cell_angle_alpha 90.000000
_cell_angle_beta 62.507222
_cell_angle_gamma 90.000000
_cell_volume 849.255427
_symmetry_space_group_name_H-M "C 2"
_symmetry_group_IT_number 5
_symmetry_cell_setting 'monoclinic'
loop_
_space_group_symop_operation_xyz
x,y,z
-x,y,-z
1/2+x,1/2+y,z
1/2-x,1/2+y,-z
loop_
_atom_site_type_symbol
_atom_site_label
_atom_site_fract_x
_atom_site_fract_y
_atom_site_fract_z
Si Si1 0.126496 0.403310 0.842100
Si Si2 0.813723 0.733752 0.091346
Si Si3 0.275318 0.718447 0.571536
Si Si4 0.000000 0.893273 0.500000
Si Si5 0.068519 0.723047 0.765849
O O1 0.179369 0.528467 0.903845
O O2 0.325062 0.278010 0.789551
O O3 0.916604 0.290766 0.900072
O O4 0.077571 0.519348 0.776086
O O5 0.853054 0.812608 0.169421
O O6 0.000000 0.799290 0.000000
O O7 0.500000 0.803866 0.500000
O O8 0.300906 0.514008 0.563742
O O9 0.075061 0.773968 0.555442
O O10 0.227441 0.776323 0.667328
#
# Coordination Sequence:
#
# PCOD8051242 Si02
#       5
#     4   4   4   2   4
#     4  10  25  41  64  97 128 168 211 258 318 370
#     4  10  26  42  69  94 131 166 213 258 318 378
#     4  10  24  44  65  95 128 170 214 261 317 374
#     4  10  24  42  62  94 124 168 212 266 306 378
#     4  10  24  42  66  95 131 168 211 263 314 376
#
# _framework density 21.195038
#
# number of rings (size 3 to 8) (size 9 to 14) (size 15 to 20)
#    2.000    0.000    0.000    1.333    7.778    3.556 
#    0.000    0.000    0.000    0.000    0.000    0.000 
#    0.000    0.000    0.000    0.000    0.000    0.000 
#
# Total GULP energy -111501.003790 kJ/mol
# GULP energy per Si atom -12389.000421 kJ/mol
# Density = 2.114680 g / cm^3
# Si number density = 21.195038 Si / 1000 Ang^3
#
#
#
# Elastic Constant Matrix: (Units=GPa)
#
#
# Indices 1 2 3 4 5 6 
#
# 1 103.6517 65.8876 37.7388 0.0000 -11.0639 0.0000
# 2 65.8876 82.9652 20.8497 0.0000 -5.1818 0.0000
# 3 37.7388 20.8497 138.8496 0.0000 -1.5610 0.0000
# 4 0.0000 0.0000 0.0000 12.1385 0.0000 -5.1432
# 5 -11.0639 -5.1818 -1.5610 0.0000 38.0542 0.0000
# 6 0.0000 0.0000 0.0000 -5.1432 0.0000 56.9121
#
#
#
# Elastic Compliance Matrix: (Units=1/GPa)
#
#
# Indices 1 2 3 4 5 6 
#
# 1 0.021411 -0.015908 -0.003387 0.000000 0.003920 0.000000
# 2 -0.015908 0.024447 0.000639 0.000000 -0.001270 0.000000
# 3 -0.003387 0.000639 0.008020 0.000000 -0.000569 0.000000
# 4 0.000000 0.000000 0.000000 0.085663 0.000000 0.007741
# 5 0.003920 -0.001270 -0.000569 0.000000 0.027222 0.000000
# 6 0.000000 0.000000 0.000000 0.007741 0.000000 0.018271
#
#
# Mechanical properties :
#
#
# Convention : Reuss Voigt Hill
#
# Bulk Modulus (GPa) = 60.36428 63.82427 62.09428
# Shear Modulus (GPa) = 21.94249 34.82032 28.38140
#
# Velocity S-wave (km/s) = 3.22104 4.05761 3.66329
# Velocity P-wave (km/s) = 6.50966 7.22014 6.87409
#
# Compressibility (1/GPa) = 0.01656609
#
# Stress axis : x y z
#
# Youngs Moduli (GPa) = 46.70404 40.90472 124.68427
#
# Poissons Ratio (x) = 0.65072 0.42227
# Poissons Ratio (y) = 0.74297 -0.07961
# Poissons Ratio (z) = 0.15817 -0.02612
#
# Static dielectric constant tensor:
#      x y z
#    x 3.569990 0.000000 -0.009480 
#    y 0.000000 3.511040 0.000000 
#    z -0.009480 0.000000 3.656180 
# 
# 
# High freq. dielectric constant tensor:
#      x y z
#    x 1.824750 0.000000 -0.003640 
#    y 0.000000 1.809020 0.000000 
#    z -0.003640 0.000000 1.823990 
# 
# From -- ./inp_files/58429.got.cif
#   From: 2010.03.12/outbox.cif.g09.slc.cpg/sg5_30_cif.got.tgz:58429.got - 2010.03.31 09:47:26.
