data_PCOD8051745
_publ_section_title
;
Structure prediction by ZEFSAII (Michael W. Deem and Ramdas Pophale) SiO2 
 PCOD8051745
Probable space group: C 2
;
_chemical_formula_sum "Si O2"
_cell_formula_units_Z 30
_cell_length_a 15.191872
_cell_length_b 10.011955
_cell_length_c 18.035985
_cell_angle_alpha 90.000000
_cell_angle_beta 147.998556
_cell_angle_gamma 90.000000
_cell_volume 1453.775249
_symmetry_space_group_name_H-M "C 2"
_symmetry_group_IT_number 5
_symmetry_cell_setting 'monoclinic'
loop_
_space_group_symop_operation_xyz
x,y,z
-x,y,-z
1/2+x,1/2+y,z
1/2-x,1/2+y,-z
loop_
_atom_site_type_symbol
_atom_site_label
_atom_site_fract_x
_atom_site_fract_y
_atom_site_fract_z
Si Si1 0.500000 0.677420 0.000000
Si Si2 0.280620 0.044787 0.121541
Si Si3 0.960912 0.339055 0.828789
Si Si4 0.102478 0.206237 0.499848
Si Si5 0.880131 0.900395 0.478690
Si Si6 0.449956 0.267905 0.684509
Si Si7 0.595838 0.755411 0.779455
Si Si8 0.292706 0.497938 0.086462
O O1 0.339000 0.589806 0.899070
O O2 0.431827 0.762983 0.883661
O O3 0.454438 0.125683 0.250726
O O4 0.292082 0.885868 0.135752
O O5 0.182761 0.072393 0.974945
O O6 0.797659 0.417729 0.687365
O O7 0.994796 0.240551 0.783990
O O8 0.107035 0.442556 0.950799
O O9 0.297144 0.250062 0.633916
O O10 0.000000 0.252389 0.500000
O O11 0.021557 0.282441 0.373529
O O12 0.071800 0.049897 0.463703
O O13 0.000000 0.842300 0.500000
O O14 0.886688 0.806363 0.556459
O O15 0.574355 0.381100 0.803851
O O16 0.696794 0.615243 0.843875
#
# Coordination Sequence:
#
# PCOD8051745 Si02
#       8
#     2   4   4   4   4   4   4   4
#     4  12  22  42  66 108 132 174 222 292 326 408
#     4  11  24  40  67 101 141 172 221 280 346 397
#     4  11  23  41  70 100 134 178 227 282 334 410
#     4  11  25  43  67 101 138 177 228 289 339 406
#     4  11  24  42  69 100 136 179 232 279 340 413
#     4  12  23  44  74  97 133 191 228 278 349 411
#     4  11  22  44  65  97 137 178 216 279 347 401
#     4  11  22  43  71  97 129 187 229 268 344 414
#
# _framework density 20.635928
#
# number of rings (size 3 to 8) (size 9 to 14) (size 15 to 20)
#    0.000    0.800    5.333    3.200    0.000    1.067 
#    0.000    2.667    0.000    0.000    0.000    0.000 
#    0.000    0.000    0.000    0.000    0.000    0.000 
#
# Total GULP energy -185872.506832 kJ/mol
# GULP energy per Si atom -12391.500455 kJ/mol
# Density = 2.058896 g / cm^3
# Si number density = 20.635928 Si / 1000 Ang^3
#
#
#
# Elastic Constant Matrix: (Units=GPa)
#
#
# Indices 1 2 3 4 5 6 
#
# 1 139.1221 39.2010 56.6573 -0.0002 6.4599 -0.0002
# 2 39.2010 96.0501 41.2252 -0.0012 1.0937 -0.0005
# 3 56.6573 41.2252 133.0640 -0.0012 5.9673 -0.0011
# 4 -0.0002 -0.0012 -0.0012 11.1058 -0.0002 5.9259
# 5 6.4599 1.0937 5.9673 -0.0002 38.2952 0.0001
# 6 -0.0002 -0.0005 -0.0011 5.9259 0.0001 21.4901
#
#
#
# Elastic Compliance Matrix: (Units=1/GPa)
#
#
# Indices 1 2 3 4 5 6 
#
# 1 0.009181 -0.002395 -0.003122 0.000000 -0.000994 0.000000
# 2 -0.002395 0.012635 -0.002917 0.000001 0.000498 0.000000
# 3 -0.003122 -0.002917 0.009789 0.000001 -0.000915 0.000000
# 4 0.000000 0.000001 0.000001 0.105577 0.000000 -0.029113
# 5 -0.000994 0.000498 -0.000915 0.000000 0.026409 0.000000
# 6 0.000000 0.000000 0.000000 -0.029113 0.000000 0.054561
#
#
# Mechanical properties :
#
#
# Convention : Reuss Voigt Hill
#
# Bulk Modulus (GPa) = 67.86194 71.37814 69.62004
# Shear Modulus (GPa) = 20.83910 29.58841 25.21375
#
# Velocity S-wave (km/s) = 3.18125 3.79070 3.49927
# Velocity P-wave (km/s) = 6.81547 7.33646 7.08075
#
# Compressibility (1/GPa) = 0.01473580
#
# Stress axis : x y z
#
# Youngs Moduli (GPa) = 108.92528 79.14406 102.15146
#
# Poissons Ratio (x) = 0.18959 0.31895
# Poissons Ratio (y) = 0.26093 0.29797
# Poissons Ratio (z) = 0.34010 0.23086
#
# Static dielectric constant tensor:
#      x y z
#    x 4.307960 0.000000 -0.422460 
#    y 0.000000 3.626000 0.000000 
#    z -0.422460 0.000000 4.085010 
# 
# 
# High freq. dielectric constant tensor:
#      x y z
#    x 1.803010 0.000000 -0.007740 
#    y 0.000000 1.807150 0.000000 
#    z -0.007740 0.000000 1.821510 
# 
# From -- ./inp_files/61653.got.cif
#   From: 2010.03.12/outbox.cif.g09.slc.cpg/sg5_31_cif.got.tgz:61653.got - 2010.03.31 09:47:26.
