data_PCOD8051895
_publ_section_title
;
Structure prediction by ZEFSAII (Michael W. Deem and Ramdas Pophale) SiO2 
 PCOD8051895
Probable space group: C 2
;
_chemical_formula_sum "Si O2"
_cell_formula_units_Z 26
_cell_length_a 16.928539
_cell_length_b 6.293972
_cell_length_c 11.261193
_cell_angle_alpha 90.000000
_cell_angle_beta 99.192895
_cell_angle_gamma 90.000000
_cell_volume 1184.443947
_symmetry_space_group_name_H-M "C 2"
_symmetry_group_IT_number 5
_symmetry_cell_setting 'monoclinic'
loop_
_space_group_symop_operation_xyz
x,y,z
-x,y,-z
1/2+x,1/2+y,z
1/2-x,1/2+y,-z
loop_
_atom_site_type_symbol
_atom_site_label
_atom_site_fract_x
_atom_site_fract_y
_atom_site_fract_z
Si Si1 0.243494 0.720670 0.259730
Si Si2 0.818725 0.334353 0.888665
Si Si3 0.448920 0.321442 0.303342
Si Si4 0.000000 0.497913 0.500000
Si Si5 0.827555 0.550183 0.124295
Si Si6 0.895982 0.023316 0.736715
Si Si7 0.131779 0.146484 0.533410
O O1 0.235358 0.488086 0.203987
O O2 0.156789 0.827297 0.230049
O O3 0.278212 0.698216 0.401591
O O4 0.312137 0.854926 0.209072
O O5 0.756892 0.161866 0.926355
O O6 0.885958 0.223067 0.822876
O O7 0.861396 0.457912 0.007789
O O8 0.500764 0.141752 0.382176
O O9 0.389079 0.216728 0.195096
O O10 0.510421 0.466610 0.243292
O O11 0.405068 0.464578 0.390921
O O12 0.920868 0.357863 0.477832
O O13 0.861373 0.070525 0.598815
#
# Coordination Sequence:
#
# PCOD8051895 Si02
#       7
#     4   4   4   2   4   4   4
#     4  11  25  41  71 102 133 183 232 293 348 416
#     4  11  24  45  73  99 139 182 241 299 343 418
#     4  12  24  44  73 106 140 187 237 285 358 435
#     4  12  22  40  72  98 144 186 226 284 348 428
#     4  11  23  45  78  96 130 194 247 281 345 431
#     4  11  27  41  67 110 147 173 229 301 360 417
#     4  12  24  42  71 106 141 185 226 284 363 433
#
# _framework density 21.951231
#
# number of rings (size 3 to 8) (size 9 to 14) (size 15 to 20)
#    0.000    0.615    7.692    0.000    4.308    0.000 
#    0.000    0.769    6.769    0.000    0.000    0.000 
#    0.000    0.000    0.000    0.000    0.000    0.000 
#
# Total GULP energy -161233.700303 kJ/mol
# GULP energy per Si atom -12402.592331 kJ/mol
# Density = 2.190127 g / cm^3
# Si number density = 21.951231 Si / 1000 Ang^3
#
#
#
# Elastic Constant Matrix: (Units=GPa)
#
#
# Indices 1 2 3 4 5 6 
#
# 1 51.2937 22.2285 42.8499 0.0000 -7.7063 0.0000
# 2 22.2285 103.7100 50.4377 0.0000 -6.5698 0.0000
# 3 42.8499 50.4377 133.7246 0.0000 -5.3290 0.0000
# 4 0.0000 0.0000 0.0000 49.5631 0.0000 3.9162
# 5 -7.7063 -6.5698 -5.3290 0.0000 28.5277 0.0000
# 6 0.0000 0.0000 0.0000 3.9162 0.0000 34.6415
#
#
#
# Elastic Compliance Matrix: (Units=1/GPa)
#
#
# Indices 1 2 3 4 5 6 
#
# 1 0.027791 -0.001688 -0.008045 0.000000 0.005616 0.000000
# 2 -0.001688 0.012014 -0.003928 0.000000 0.001577 0.000000
# 3 -0.008045 -0.003928 0.011500 0.000000 -0.000929 0.000000
# 4 0.000000 0.000000 0.000000 0.020358 0.000000 -0.002301
# 5 0.005616 0.001577 -0.000929 0.000000 0.036760 0.000000
# 6 0.000000 0.000000 0.000000 -0.002301 0.000000 0.029127
#
#
# Mechanical properties :
#
#
# Convention : Reuss Voigt Hill
#
# Bulk Modulus (GPa) = 41.69393 57.75119 49.72256
# Shear Modulus (GPa) = 28.92388 34.09393 31.50891
#
# Velocity S-wave (km/s) = 3.63387 3.94530 3.79278
# Velocity P-wave (km/s) = 6.05325 6.86439 6.47154
#
# Compressibility (1/GPa) = 0.02398431
#
# Stress axis : x y z
#
# Youngs Moduli (GPa) = 35.98245 83.23498 86.95511
#
# Poissons Ratio (x) = 0.14054 0.69952
# Poissons Ratio (y) = 0.06076 0.34152
# Poissons Ratio (z) = 0.28947 0.32691
#
# Static dielectric constant tensor:
#      x y z
#    x 3.710680 0.000000 -0.019970 
#    y 0.000000 4.194520 0.000000 
#    z -0.019970 0.000000 3.992940 
# 
# 
# High freq. dielectric constant tensor:
#      x y z
#    x 1.842940 0.000000 0.004440 
#    y 0.000000 1.882790 0.000000 
#    z 0.004440 0.000000 1.864960 
# 
# From -- ./inp_files/43764.got.cif
#   From: 2010.03.12/outbox.cif.g09.slc.cpg/sg5_22_cif.got.tgz:43764.got - 2010.03.31 09:47:26.
