data_PCOD8051430
_publ_section_title
;
Structure prediction by ZEFSAII (Michael W. Deem and Ramdas Pophale) SiO2 
 PCOD8051430
Probable space group: C 2
;
_chemical_formula_sum "Si O2"
_cell_formula_units_Z 28
_cell_length_a 21.238288
_cell_length_b 15.003535
_cell_length_c 9.385179
_cell_angle_alpha 90.000000
_cell_angle_beta 26.751575
_cell_angle_gamma 90.000000
_cell_volume 1346.129540
_symmetry_space_group_name_H-M "C 2"
_symmetry_group_IT_number 5
_symmetry_cell_setting 'monoclinic'
loop_
_space_group_symop_operation_xyz
x,y,z
-x,y,-z
1/2+x,1/2+y,z
1/2-x,1/2+y,-z
loop_
_atom_site_type_symbol
_atom_site_label
_atom_site_fract_x
_atom_site_fract_y
_atom_site_fract_z
Si Si1 0.051596 0.039950 0.233302
Si Si2 0.268437 0.198861 0.732771
Si Si3 0.785121 0.411659 0.677771
Si Si4 0.658514 0.761820 0.217507
Si Si5 0.990551 0.562165 0.347761
Si Si6 0.282975 0.615721 0.679706
Si Si7 0.666057 0.764880 0.645824
O O1 0.000000 0.031074 0.500000
O O2 0.915128 0.049385 0.409724
O O3 0.150419 0.124807 0.005197
O O4 0.131862 0.951469 0.018403
O O5 0.422122 0.156774 0.440834
O O6 0.246716 0.252162 0.630767
O O7 0.250184 0.274659 0.890030
O O8 0.829449 0.349854 0.717121
O O9 0.902088 0.487809 0.443439
O O10 0.784562 0.356241 0.531002
O O11 0.500000 0.741754 0.500000
O O12 0.716992 0.675285 0.178950
O O13 0.000000 0.548512 0.500000
O O14 0.142826 0.557208 0.968708
O O15 0.288659 0.677707 0.531067
O O16 0.500000 0.768224 0.000000
#
# Coordination Sequence:
#
# PCOD8051430 Si02
#       7
#     4   4   4   4   4   4   4
#     4  11  19  41  71 102 125 173 231 289 326 399
#     4  11  20  39  74  95 129 177 233 272 326 407
#     4  10  25  40  67 100 141 170 223 283 354 397
#     4  11  18  38  68  98 123 177 232 279 327 402
#     4  11  22  41  70 107 132 171 233 299 336 391
#     4  11  20  39  73  94 126 177 231 271 335 408
#     4  11  23  44  68  96 134 187 225 268 338 429
#
# _framework density 20.800376
#
# number of rings (size 3 to 8) (size 9 to 14) (size 15 to 20)
#    0.000    1.143    5.714    2.143    0.000    0.571 
#   10.286    0.000    6.286    0.000    0.000    0.000 
#    0.000    0.000    0.000    0.000    0.000    0.000 
#
# Total GULP energy -173566.056700 kJ/mol
# GULP energy per Si atom -12397.575479 kJ/mol
# Density = 2.075303 g / cm^3
# Si number density = 20.800376 Si / 1000 Ang^3
#
#
#
# Elastic Constant Matrix: (Units=GPa)
#
#
# Indices 1 2 3 4 5 6 
#
# 1 90.2050 12.4009 21.5595 0.0000 19.1177 0.0000
# 2 12.4009 46.4303 22.4840 0.0000 11.3297 0.0000
# 3 21.5595 22.4840 107.4795 0.0000 -2.6311 0.0000
# 4 0.0000 0.0000 0.0000 12.6715 0.0000 7.5923
# 5 19.1177 11.3297 -2.6311 0.0000 43.3149 0.0000
# 6 0.0000 0.0000 0.0000 7.5923 0.0000 15.7720
#
#
#
# Elastic Compliance Matrix: (Units=1/GPa)
#
#
# Indices 1 2 3 4 5 6 
#
# 1 0.013022 -0.000844 -0.002574 0.000000 -0.005683 0.000000
# 2 -0.000844 0.026053 -0.005447 0.000000 -0.006773 0.000000
# 3 -0.002574 -0.005447 0.011039 0.000000 0.003231 0.000000
# 4 0.000000 0.000000 0.000000 0.110905 0.000000 -0.053387
# 5 -0.005683 -0.006773 0.003231 0.000000 0.027563 0.000000
# 6 0.000000 0.000000 0.000000 -0.053387 0.000000 0.089103
#
#
# Mechanical properties :
#
#
# Convention : Reuss Voigt Hill
#
# Bulk Modulus (GPa) = 30.88047 39.66705 35.27376
# Shear Modulus (GPa) = 16.32865 26.86304 21.59585
#
# Velocity S-wave (km/s) = 2.80486 3.59760 3.22567
# Velocity P-wave (km/s) = 5.03666 6.03065 5.55593
#
# Compressibility (1/GPa) = 0.03238293
#
# Stress axis : x y z
#
# Youngs Moduli (GPa) = 76.79504 38.38269 90.58771
#
# Poissons Ratio (x) = 0.03241 0.23322
# Poissons Ratio (y) = 0.06485 0.49339
# Poissons Ratio (z) = 0.19771 0.20905
#
# Static dielectric constant tensor:
#      x y z
#    x 3.851920 0.000000 0.012620 
#    y 0.000000 3.721080 0.000000 
#    z 0.012620 0.000000 3.944780 
# 
# 
# High freq. dielectric constant tensor:
#      x y z
#    x 1.813030 0.000000 -0.000690 
#    y 0.000000 1.801280 0.000000 
#    z -0.000690 0.000000 1.819800 
# 
# From -- ./inp_files/29879.got.cif
#   From: 2010.03.12/outbox.cif.g09.slc.cpg/sg5_15_cif.got.tgz:29879.got - 2010.03.31 09:47:26.
