data_PCOD8051446
_publ_section_title
;
Structure prediction by ZEFSAII (Michael W. Deem and Ramdas Pophale) SiO2 
 PCOD8051446
Probable space group: C 2
;
_chemical_formula_sum "Si O2"
_cell_formula_units_Z 26
_cell_length_a 13.730922
_cell_length_b 5.426302
_cell_length_c 21.370259
_cell_angle_alpha 90.000000
_cell_angle_beta 131.896213
_cell_angle_gamma 90.000000
_cell_volume 1185.206314
_symmetry_space_group_name_H-M "C 2"
_symmetry_group_IT_number 5
_symmetry_cell_setting 'monoclinic'
loop_
_space_group_symop_operation_xyz
x,y,z
-x,y,-z
1/2+x,1/2+y,z
1/2-x,1/2+y,-z
loop_
_atom_site_type_symbol
_atom_site_label
_atom_site_fract_x
_atom_site_fract_y
_atom_site_fract_z
Si Si1 0.693000 0.457600 0.946010
Si Si2 0.791552 0.191226 0.288227
Si Si3 0.061114 0.391264 0.421020
Si Si4 0.761535 0.087919 0.414562
Si Si5 0.500000 0.232004 0.500000
Si Si6 0.090451 0.946122 0.127791
Si Si7 0.320957 0.950813 0.871458
O O1 0.537630 0.453072 0.885051
O O2 0.717599 0.455614 0.882763
O O3 0.746806 0.711404 0.998014
O O4 0.721424 0.431091 0.227327
O O5 0.950445 0.192986 0.355024
O O6 0.731982 0.179647 0.332330
O O7 0.751822 0.957854 0.227623
O O8 0.124708 0.498445 0.385339
O O9 0.976724 0.579434 0.426667
O O10 0.179739 0.297334 0.515258
O O11 0.868557 0.877866 0.455389
O O12 0.086504 0.696290 0.083073
O O13 0.096828 0.196000 0.089246
#
# Coordination Sequence:
#
# PCOD8051446 Si02
#       7
#     4   4   4   4   2   4   4
#     4  12  26  46  78 106 142 184 232 284 344 436
#     4  10  25  44  65 100 144 178 238 290 351 418
#     4  12  24  41  65  97 130 188 235 288 348 401
#     4  12  24  41  65  97 130 188 235 288 348 401
#     4  12  22  40  64  88 140 168 252 280 346 422
#     4  10  25  46  69 105 140 182 227 287 353 417
#     4  10  25  46  69 105 140 182 227 287 353 417
#
# _framework density 21.937110000000001
#
# number of rings (size 3 to 8) (size 9 to 14) (size 15 to 20)
#    0.923    0.000    4.615    1.846    2.154    6.154 
#    2.769    0.000    0.000    0.000    0.000    0.000 
#    0.000    0.000    0.000    0.000    0.000    0.000 
#
# Total GULP energy -161094.714502 kJ/mol
# GULP energy per Si atom -12391.901116 kJ/mol
# Density = 2.188718 g / cm^3
# Si number density = 21.937110 Si / 1000 Ang^3
#
#
#
# Elastic Constant Matrix: (Units=GPa)
#
#
# Indices 1 2 3 4 5 6 
#
# 1 182.6526 38.5064 34.2593 0.0001 -21.5157 0.0009
# 2 38.5064 137.9480 11.8953 0.0005 -11.0539 0.0037
# 3 34.2593 11.8953 77.3616 0.0001 -11.7563 0.0005
# 4 0.0001 0.0005 0.0001 -19.2230 0.0000 -29.2991
# 5 -21.5157 -11.0539 -11.7563 0.0000 30.1095 -0.0008
# 6 0.0009 0.0037 0.0005 -29.2991 -0.0008 -382.5888
#
#
#
# Elastic Compliance Matrix: (Units=1/GPa)
#
#
# Indices 1 2 3 4 5 6 
#
# 1 0.006569 -0.001378 -0.002191 0.000000 0.003333 0.000000
# 2 -0.001378 0.007802 -0.000323 0.000000 0.001754 0.000000
# 3 -0.002191 -0.000323 0.014554 0.000000 0.003999 0.000000
# 4 0.000000 0.000000 0.000000 -0.058895 0.000000 0.004510
# 5 0.003333 0.001754 0.003999 0.000000 0.037799 0.000000
# 6 0.000000 0.000000 0.000000 0.004510 0.000000 -0.002959
#
#
# Mechanical properties :
#
#
# Convention : Reuss Voigt Hill
#
# Bulk Modulus (GPa) = 47.29954 63.03156 55.16555
# Shear Modulus (GPa) = 253.82128 -53.45373 100.18378
#
# Velocity S-wave (km/s) = 10.76825 -4.94163 6.76519
# Velocity P-wave (km/s) = 13.27461 1.94020 9.28576
#
# Compressibility (1/GPa) = 0.02114185
#
# Stress axis : x y z
#
# Youngs Moduli (GPa) = 152.23504 128.17155 68.71086
#
# Poissons Ratio (x) = 0.17657 0.15052
# Poissons Ratio (y) = 0.20972 0.02220
# Poissons Ratio (z) = 0.33349 0.04141
#
# Static dielectric constant tensor:
#      x y z
#    x 4.028330 0.000000 -0.248400 
#    y 0.000000 4.107500 -0.000010 
#    z -0.248400 -0.000010 5.943940 
# 
# 
# High freq. dielectric constant tensor:
#      x y z
#    x 1.874360 0.000000 -0.008270 
#    y 0.000000 1.865020 0.000000 
#    z -0.008270 0.000000 1.852140 
# 
# From -- ./inp_files/65709.got.cif
#   From: 2010.03.12/outbox.cif.g09.slc.cpg/sg5_33_cif.got.tgz:65709.got - 2010.03.31 09:47:26.
