data_PCOD8051290
_publ_section_title
;
Structure prediction by ZEFSAII (Michael W. Deem and Ramdas Pophale) SiO2 
 PCOD8051290
Probable space group: C 2
;
_chemical_formula_sum "Si O2"
_cell_formula_units_Z 22
_cell_length_a 15.103009
_cell_length_b 8.467731
_cell_length_c 7.168355
_cell_angle_alpha 90.000000
_cell_angle_beta 96.013382
_cell_angle_gamma 90.000000
_cell_volume 911.703695
_symmetry_space_group_name_H-M "C 2"
_symmetry_group_IT_number 5
_symmetry_cell_setting 'monoclinic'
loop_
_space_group_symop_operation_xyz
x,y,z
-x,y,-z
1/2+x,1/2+y,z
1/2-x,1/2+y,-z
loop_
_atom_site_type_symbol
_atom_site_label
_atom_site_fract_x
_atom_site_fract_y
_atom_site_fract_z
Si Si1 0.737961 0.580000 0.592069
Si Si2 0.828182 0.001958 0.805688
Si Si3 0.075462 0.288415 0.664470
Si Si4 0.222080 0.812593 0.871656
Si Si5 0.406242 0.150324 0.403940
Si Si6 0.500000 0.621123 0.000000
O O1 0.694038 0.475268 0.415573
O O2 0.670006 0.720210 0.622103
O O3 0.756743 0.467306 0.770809
O O4 0.832734 0.652761 0.552462
O O5 0.790273 0.171231 0.862090
O O6 0.932916 0.007782 0.872050
O O7 0.784608 0.857518 0.911885
O O8 0.083803 0.476108 0.677727
O O9 0.000000 0.237140 0.500000
O O10 0.052056 0.230144 0.865360
O O11 0.124997 0.765603 0.769271
O O12 0.500000 0.215322 0.500000
#
# Coordination Sequence:
#
# PCOD8051290 Si02
#       6
#     4   4   4   4   4   2
#     4  11  23  46  72 100 142 187 231 287 350 414
#     4  11  26  44  69 106 135 189 229 285 353 407
#     4  11  23  45  72 103 142 186 235 281 346 424
#     4  11  26  44  68 100 146 181 233 289 342 419
#     4  10  24  43  71 107 137 187 234 287 352 405
#     4  12  24  42  74 104 136 186 232 278 348 418
#
# _framework density 24.130645000000001
#
# number of rings (size 3 to 8) (size 9 to 14) (size 15 to 20)
#    0.000    1.091    3.636    2.182    7.636    5.091 
#    0.000    4.545    0.000    0.000    0.000    0.000 
#    0.000    0.000    0.000    0.000    0.000    0.000 
#
# Total GULP energy -136450.597148 kJ/mol
# GULP energy per Si atom -12404.599741 kJ/mol
# Density = 2.407572 g / cm^3
# Si number density = 24.130645 Si / 1000 Ang^3
#
#
#
# Elastic Constant Matrix: (Units=GPa)
#
#
# Indices 1 2 3 4 5 6 
#
# 1 134.3099 -4.3919 21.0141 0.0000 12.6912 0.0000
# 2 -4.3919 36.4180 -17.2534 0.0000 2.8192 0.0000
# 3 21.0141 -17.2534 90.5328 0.0000 -6.1468 0.0000
# 4 0.0000 0.0000 0.0000 29.5402 0.0000 13.2028
# 5 12.6912 2.8192 -6.1468 0.0000 38.0026 0.0000
# 6 0.0000 0.0000 0.0000 13.2028 0.0000 28.0560
#
#
#
# Elastic Compliance Matrix: (Units=1/GPa)
#
#
# Indices 1 2 3 4 5 6 
#
# 1 0.008058 0.000245 -0.002030 0.000000 -0.003038 0.000000
# 2 0.000245 0.030258 0.005613 0.000000 -0.001419 0.000000
# 3 -0.002030 0.005613 0.012744 0.000000 0.002323 0.000000
# 4 0.000000 0.000000 0.000000 0.042869 0.000000 -0.020173
# 5 -0.003038 -0.001419 0.002323 0.000000 0.027809 0.000000
# 6 0.000000 0.000000 0.000000 -0.020173 0.000000 0.045136
#
#
# Mechanical properties :
#
#
# Convention : Reuss Voigt Hill
#
# Bulk Modulus (GPa) = 17.03087 28.88871 22.95979
# Shear Modulus (GPa) = 27.96582 36.57921 32.27252
#
# Velocity S-wave (km/s) = 3.40800 3.89766 3.66103
# Velocity P-wave (km/s) = 4.74964 5.67921 5.23510
#
# Compressibility (1/GPa) = 0.05871690
#
# Stress axis : x y z
#
# Youngs Moduli (GPa) = 124.09855 33.04957 78.46632
#
# Poissons Ratio (x) = -0.00811 0.15928
# Poissons Ratio (y) = -0.03043 -0.44044
# Poissons Ratio (z) = 0.25191 -0.18551
#
# Static dielectric constant tensor:
#      x y z
#    x 4.530120 0.000000 0.208970 
#    y 0.000000 4.139260 0.000000 
#    z 0.208970 0.000000 4.619050 
# 
# 
# High freq. dielectric constant tensor:
#      x y z
#    x 1.960760 0.000000 0.010320 
#    y 0.000000 1.958630 0.000000 
#    z 0.010320 0.000000 1.965020 
# 
# From -- ./inp_files/22847.got.cif
#   From: 2010.03.12/outbox.cif.g09.slc.cpg/sg5_12_cif.got.tgz:22847.got - 2010.03.31 09:47:26.
