data_PCOD8051070
_publ_section_title
;
Structure prediction by ZEFSAII (Michael W. Deem and Ramdas Pophale) SiO2 
 PCOD8051070
Probable space group: C 2
;
_chemical_formula_sum "Si O2"
_cell_formula_units_Z 30
_cell_length_a 13.394584
_cell_length_b 12.907243
_cell_length_c 9.621915
_cell_angle_alpha 90.000000
_cell_angle_beta 58.414924
_cell_angle_gamma 90.000000
_cell_volume 1417.079406
_symmetry_space_group_name_H-M "C 2"
_symmetry_group_IT_number 5
_symmetry_cell_setting 'monoclinic'
loop_
_space_group_symop_operation_xyz
x,y,z
-x,y,-z
1/2+x,1/2+y,z
1/2-x,1/2+y,-z
loop_
_atom_site_type_symbol
_atom_site_label
_atom_site_fract_x
_atom_site_fract_y
_atom_site_fract_z
Si Si1 0.095626 0.378990 0.213965
Si Si2 0.705252 0.396533 0.703818
Si Si3 0.662925 0.660313 0.061374
Si Si4 0.284031 0.982077 0.122471
Si Si5 0.136433 0.489430 0.626029
Si Si6 0.607072 0.226870 0.599357
Si Si7 0.844120 0.777574 0.742735
Si Si8 0.500000 0.518752 0.000000
O O1 0.189081 0.400193 0.265372
O O2 0.096985 0.257752 0.176766
O O3 0.964920 0.411333 0.355233
O O4 0.122960 0.452879 0.063646
O O5 0.742843 0.459900 0.538953
O O6 0.675334 0.278947 0.678835
O O7 0.590867 0.446530 0.853537
O O8 0.727304 0.594080 0.134206
O O9 0.564841 0.590518 0.062772
O O10 0.757440 0.696794 0.879400
O O11 0.351207 0.982230 0.218333
O O12 0.183901 0.894995 0.195198
O O13 0.104258 0.604702 0.608401
O O14 0.474001 0.262979 0.702571
O O15 0.669502 0.261437 0.411581
#
# Coordination Sequence:
#
# PCOD8051070 Si02
#       8
#     4   4   4   4   4   4   4   2
#     4  11  26  43  70 104 144 177 235 290 341 421
#     4  12  26  48  68 102 142 179 237 289 346 419
#     4  11  24  43  71 101 141 183 225 293 347 416
#     4  11  22  46  66 102 140 179 234 282 348 419
#     4  12  26  44  72 103 140 184 232 289 350 407
#     4  11  24  42  71  99 136 188 228 290 343 413
#     4  10  23  42  70 101 138 177 238 281 349 409
#     4  12  26  44  74 102 134 190 232 290 356 412
#
# _framework density 21.170302
#
# number of rings (size 3 to 8) (size 9 to 14) (size 15 to 20)
#    0.000    0.800    2.667    4.000    9.333    1.067 
#    2.400    1.333    0.000    0.000    0.000    0.000 
#    0.000    0.000    0.000    0.000    0.000    0.000 
#
# Total GULP energy -186080.659461 kJ/mol
# GULP energy per Si atom -12405.377297 kJ/mol
# Density = 2.112212 g / cm^3
# Si number density = 21.170302 Si / 1000 Ang^3
#
#
#
# Elastic Constant Matrix: (Units=GPa)
#
#
# Indices 1 2 3 4 5 6 
#
# 1 111.8456 39.1815 49.8829 0.0000 0.2484 0.0000
# 2 39.1815 132.2031 41.8669 0.0000 -13.7089 0.0000
# 3 49.8829 41.8669 92.6293 0.0000 -9.2828 0.0000
# 4 0.0000 0.0000 0.0000 28.4113 0.0000 9.8736
# 5 0.2484 -13.7089 -9.2828 0.0000 33.0180 0.0000
# 6 0.0000 0.0000 0.0000 9.8736 0.0000 26.9935
#
#
#
# Elastic Compliance Matrix: (Units=1/GPa)
#
#
# Indices 1 2 3 4 5 6 
#
# 1 0.012326 -0.002030 -0.005983 0.000000 -0.002618 0.000000
# 2 -0.002030 0.009387 -0.002838 0.000000 0.003115 0.000000
# 3 -0.005983 -0.002838 0.015627 0.000000 0.003260 0.000000
# 4 0.000000 0.000000 0.000000 0.040323 0.000000 -0.014749
# 5 -0.002618 0.003115 0.003260 0.000000 0.032516 0.000000
# 6 0.000000 0.000000 0.000000 -0.014749 0.000000 0.042441
#
#
# Mechanical properties :
#
#
# Convention : Reuss Voigt Hill
#
# Bulk Modulus (GPa) = 63.93927 66.50451 65.22189
# Shear Modulus (GPa) = 27.84990 31.40101 29.62545
#
# Velocity S-wave (km/s) = 3.63094 3.85549 3.74490
# Velocity P-wave (km/s) = 6.91710 7.16254 7.04089
#
# Compressibility (1/GPa) = 0.01563984
#
# Stress axis : x y z
#
# Youngs Moduli (GPa) = 81.12866 106.52593 63.99264
#
# Poissons Ratio (x) = 0.21624 0.38285
# Poissons Ratio (y) = 0.16469 0.18159
# Poissons Ratio (z) = 0.48537 0.30228
#
# Static dielectric constant tensor:
#      x y z
#    x 3.773060 0.000000 0.016160 
#    y 0.000000 3.980630 0.000000 
#    z 0.016160 0.000000 4.135390 
# 
# 
# High freq. dielectric constant tensor:
#      x y z
#    x 1.835790 0.000000 0.001660 
#    y 0.000000 1.841820 0.000000 
#    z 0.001660 0.000000 1.839690 
# 
# From -- ./inp_files/23813.got.cif
#   From: 2010.03.12/outbox.cif.g09.slc.cpg/sg5_12_cif.got.tgz:23813.got - 2010.03.31 09:47:26.
