data_PCOD8051051
_publ_section_title
;
Structure prediction by ZEFSAII (Michael W. Deem and Ramdas Pophale) SiO2 
 PCOD8051051
Probable space group: C 2
;
_chemical_formula_sum "Si O2"
_cell_formula_units_Z 20
_cell_length_a 7.303478
_cell_length_b 12.927216
_cell_length_c 10.322554
_cell_angle_alpha 90.000000
_cell_angle_beta 83.419987
_cell_angle_gamma 90.000000
_cell_volume 968.170054
_symmetry_space_group_name_H-M "C 2"
_symmetry_group_IT_number 5
_symmetry_cell_setting 'monoclinic'
loop_
_space_group_symop_operation_xyz
x,y,z
-x,y,-z
1/2+x,1/2+y,z
1/2-x,1/2+y,-z
loop_
_atom_site_type_symbol
_atom_site_label
_atom_site_fract_x
_atom_site_fract_y
_atom_site_fract_z
Si Si1 0.000000 0.138260 0.000000
Si Si2 0.294984 0.711439 0.489619
Si Si3 0.694188 0.887548 0.310666
Si Si4 0.857348 0.291728 0.207660
Si Si5 0.555781 0.440408 0.130649
Si Si6 0.000000 0.547762 0.500000
O O1 0.143694 0.209445 0.909589
O O2 0.897263 0.061737 0.904672
O O3 0.500000 0.671581 0.500000
O O4 0.248259 0.812297 0.577321
O O5 0.268000 0.739641 0.341283
O O6 0.162545 0.619037 0.542478
O O7 0.568257 0.827921 0.215436
O O8 0.568673 0.979454 0.375271
O O9 0.879455 0.934416 0.238108
O O10 0.734284 0.389670 0.178995
O O11 0.500000 0.383831 0.000000
#
# Coordination Sequence:
#
# PCOD8051051 Si02
#       6
#     2   4   4   4   4   2
#     4  10  24  42  66  96 130 176 230 258 322 398
#     4  10  23  42  66 103 134 171 215 273 334 395
#     4  11  23  43  66 102 133 167 225 267 331 398
#     4  11  21  45  67  93 141 167 217 285 316 387
#     4  10  24  42  65  97 126 179 224 262 324 387
#     4  12  22  40  66  96 136 174 208 264 334 392
#
# _framework density 20.657527999999999
#
# number of rings (size 3 to 8) (size 9 to 14) (size 15 to 20)
#    0.600    0.800    3.000    3.600    0.000    4.800 
#    1.800    6.000    0.000    0.000    0.000    0.000 
#    0.000    0.000    0.000    0.000    0.000    0.000 
#
# Total GULP energy -123984.042901 kJ/mol
# GULP energy per Si atom -12398.404290 kJ/mol
# Density = 2.061051 g / cm^3
# Si number density = 20.657528 Si / 1000 Ang^3
#
#
#
# Elastic Constant Matrix: (Units=GPa)
#
#
# Indices 1 2 3 4 5 6 
#
# 1 72.2510 52.6619 48.3348 0.0000 -6.8780 0.0000
# 2 52.6619 137.8120 61.5473 0.0000 -12.1134 0.0000
# 3 48.3348 61.5473 130.7419 0.0000 -15.6770 0.0000
# 4 0.0000 0.0000 0.0000 26.0917 0.0000 -12.1016
# 5 -6.8780 -12.1134 -15.6770 0.0000 22.6471 0.0000
# 6 0.0000 0.0000 0.0000 -12.1016 0.0000 38.0212
#
#
#
# Elastic Compliance Matrix: (Units=1/GPa)
#
#
# Indices 1 2 3 4 5 6 
#
# 1 0.021663 -0.005963 -0.005229 0.000000 -0.000230 0.000000
# 2 -0.005963 0.010921 -0.002676 0.000000 0.002178 0.000000
# 3 -0.005229 -0.002676 0.011428 0.000000 0.004892 0.000000
# 4 0.000000 0.000000 0.000000 0.044964 0.000000 0.014311
# 5 -0.000230 0.002178 0.004892 0.000000 0.048637 0.000000
# 6 0.000000 0.000000 0.000000 0.014311 0.000000 0.030856
#
#
# Mechanical properties :
#
#
# Convention : Reuss Voigt Hill
#
# Bulk Modulus (GPa) = 61.43679 73.98810 67.71245
# Shear Modulus (GPa) = 24.79771 29.23606 27.01688
#
# Velocity S-wave (km/s) = 3.46847 3.76609 3.62034
# Velocity P-wave (km/s) = 6.77093 7.40308 7.09405
#
# Compressibility (1/GPa) = 0.01627689
#
# Stress axis : x y z
#
# Youngs Moduli (GPa) = 46.16091 91.56449 87.50454
#
# Poissons Ratio (x) = 0.54600 0.45759
# Poissons Ratio (y) = 0.27526 0.23412
# Poissons Ratio (z) = 0.24139 0.24498
#
# Static dielectric constant tensor:
#      x y z
#    x 3.490260 0.000000 -0.057740 
#    y 0.000000 3.797440 0.000000 
#    z -0.057740 0.000000 3.862230 
# 
# 
# High freq. dielectric constant tensor:
#      x y z
#    x 1.790240 0.000000 -0.007610 
#    y 0.000000 1.812180 0.000000 
#    z -0.007610 0.000000 1.819450 
# 
# From -- ./inp_files/35187.got.cif
#   From: 2010.03.12/outbox.cif.g09.slc.cpg/sg5_18_cif.got.tgz:35187.got - 2010.03.31 09:47:26.
