data_PCOD8051428
_publ_section_title
;
Structure prediction by ZEFSAII (Michael W. Deem and Ramdas Pophale) SiO2 
 PCOD8051428
Probable space group: C 2
;
_chemical_formula_sum "Si O2"
_cell_formula_units_Z 28
_cell_length_a 11.489240
_cell_length_b 8.486021
_cell_length_c 12.952506
_cell_angle_alpha 90.000000
_cell_angle_beta 80.653095
_cell_angle_gamma 90.000000
_cell_volume 1246.075900
_symmetry_space_group_name_H-M "C 2"
_symmetry_group_IT_number 5
_symmetry_cell_setting 'monoclinic'
loop_
_space_group_symop_operation_xyz
x,y,z
-x,y,-z
1/2+x,1/2+y,z
1/2-x,1/2+y,-z
loop_
_atom_site_type_symbol
_atom_site_label
_atom_site_fract_x
_atom_site_fract_y
_atom_site_fract_z
Si Si1 0.500000 0.581890 0.500000
Si Si2 0.151173 0.290008 0.221226
Si Si3 0.682239 0.800958 0.985923
Si Si4 0.500000 0.050037 0.000000
Si Si5 0.423385 0.325917 0.880672
Si Si6 0.826795 0.955073 0.687634
Si Si7 0.904716 0.270101 0.336239
Si Si8 0.143930 0.031850 0.832366
O O1 0.423434 0.466548 0.583425
O O2 0.411218 0.697049 0.450055
O O3 0.250701 0.420340 0.219670
O O4 0.030572 0.352825 0.291373
O O5 0.197439 0.128550 0.264694
O O6 0.127099 0.255232 0.103777
O O7 0.816202 0.866728 0.975863
O O8 0.689555 0.649512 0.912797
O O9 0.606562 0.939905 0.945054
O O10 0.535238 0.148858 0.096712
O O11 0.376419 0.337874 0.769582
O O12 0.531185 0.438871 0.891046
O O13 0.704669 0.888443 0.658963
O O14 0.897475 0.121266 0.262753
#
# Coordination Sequence:
#
# PCOD8051428 Si02
#       8
#     2   4   4   2   4   4   4   4
#     4  10  24  52  78 106 138 186 238 320 386 428
#     4  11  27  43  73 106 150 196 241 295 358 437
#     4  12  28  43  66 109 151 207 240 295 345 435
#     4  12  30  40  68 102 158 202 258 284 352 426
#     4  12  27  44  68 109 144 201 248 293 354 436
#     4  11  26  51  76 106 147 187 245 312 372 444
#     4  11  25  50  75 106 142 184 243 310 375 443
#     4  12  26  44  72 104 149 194 248 296 359 426
#
# _framework density 22.470541999999998
#
# number of rings (size 3 to 8) (size 9 to 14) (size 15 to 20)
#    0.000    0.571    4.286    2.571    8.000    4.571 
#    0.000    0.000    0.000    0.000    0.000    0.000 
#    0.000    0.000    0.000    0.000    0.000    0.000 
#
# Total GULP energy -173632.714613 kJ/mol
# GULP energy per Si atom -12402.336758 kJ/mol
# Density = 2.241940 g / cm^3
# Si number density = 22.470542 Si / 1000 Ang^3
#
#
#
# Elastic Constant Matrix: (Units=GPa)
#
#
# Indices 1 2 3 4 5 6 
#
# 1 161.7067 67.4471 38.0548 0.0000 -19.3802 0.0000
# 2 67.4471 113.7107 31.1619 0.0000 -20.2616 0.0000
# 3 38.0548 31.1619 104.3426 0.0000 -14.8900 0.0000
# 4 0.0000 0.0000 0.0000 36.3516 0.0000 5.7937
# 5 -19.3802 -20.2616 -14.8900 0.0000 35.9018 0.0000
# 6 0.0000 0.0000 0.0000 5.7937 0.0000 47.0565
#
#
#
# Elastic Compliance Matrix: (Units=1/GPa)
#
#
# Indices 1 2 3 4 5 6 
#
# 1 0.008565 -0.004375 -0.001605 0.000000 0.001489 0.000000
# 2 -0.004375 0.012544 -0.001570 0.000000 0.004066 0.000000
# 3 -0.001605 -0.001570 0.011041 0.000000 0.002827 0.000000
# 4 0.000000 0.000000 0.000000 0.028060 0.000000 -0.003455
# 5 0.001489 0.004066 0.002827 0.000000 0.032125 0.000000
# 6 0.000000 0.000000 0.000000 -0.003455 0.000000 0.021676
#
#
# Mechanical properties :
#
#
# Convention : Reuss Voigt Hill
#
# Bulk Modulus (GPa) = 58.65016 72.56527 65.60771
# Shear Modulus (GPa) = 37.09316 40.06837 38.58077
#
# Velocity S-wave (km/s) = 4.06735 4.22732 4.14810
# Velocity P-wave (km/s) = 6.94372 7.49604 7.22516
#
# Compressibility (1/GPa) = 0.01705025
#
# Stress axis : x y z
#
# Youngs Moduli (GPa) = 116.75444 79.71707 90.56799
#
# Poissons Ratio (x) = 0.34878 0.14533
# Poissons Ratio (y) = 0.51083 0.14223
# Poissons Ratio (z) = 0.18735 0.12519
#
# Static dielectric constant tensor:
#      x y z
#    x 4.359180 0.000000 -0.015510 
#    y 0.000000 4.062430 0.000000 
#    z -0.015510 0.000000 4.042760 
# 
# 
# High freq. dielectric constant tensor:
#      x y z
#    x 1.912210 0.000000 -0.001920 
#    y 0.000000 1.884520 0.000000 
#    z -0.001920 0.000000 1.873270 
# 
# From -- ./inp_files/52257.got.cif
#   From: 2010.03.12/outbox.cif.g09.slc.cpg/sg5_27_cif.got.tgz:52257.got - 2010.03.31 09:47:26.
