data_PCOD8051267
_publ_section_title
;
Structure prediction by ZEFSAII (Michael W. Deem and Ramdas Pophale) SiO2 
 PCOD8051267
Probable space group: C 2
;
_chemical_formula_sum "Si O2"
_cell_formula_units_Z 30
_cell_length_a 15.072700
_cell_length_b 18.229434
_cell_length_c 5.338880
_cell_angle_alpha 90.000000
_cell_angle_beta 109.032195
_cell_angle_gamma 90.000000
_cell_volume 1386.756980
_symmetry_space_group_name_H-M "C 2"
_symmetry_group_IT_number 5
_symmetry_cell_setting 'monoclinic'
loop_
_space_group_symop_operation_xyz
x,y,z
-x,y,-z
1/2+x,1/2+y,z
1/2-x,1/2+y,-z
loop_
_atom_site_type_symbol
_atom_site_label
_atom_site_fract_x
_atom_site_fract_y
_atom_site_fract_z
Si Si1 0.259072 0.657420 0.406114
Si Si2 0.900091 0.569695 0.497399
Si Si3 0.905199 0.063267 0.787338
Si Si4 0.500000 0.456506 0.500000
Si Si5 0.749233 0.032934 0.014304
Si Si6 0.821956 0.888650 0.173305
Si Si7 0.757007 0.327133 0.418218
Si Si8 0.940803 0.418651 0.700153
O O1 0.161670 0.636736 0.455428
O O2 0.350159 0.635480 0.649306
O O3 0.266934 0.742233 0.355195
O O4 0.263129 0.610965 0.156521
O O5 0.850167 0.532157 0.214105
O O6 0.908108 0.503985 0.709647
O O7 0.000000 0.601744 0.500000
O O8 0.837564 0.019211 0.910877
O O9 0.928445 0.007101 0.587973
O O10 0.000000 0.092273 0.000000
O O11 0.433498 0.406322 0.264218
O O12 0.757047 0.959779 0.191467
O O13 0.806696 0.832359 0.389719
O O14 0.790648 0.861519 0.871118
O O15 0.856731 0.361992 0.578350
O O16 0.000000 0.417255 0.500000
O O17 0.000000 0.394117 0.000000
#
# Coordination Sequence:
#
# PCOD8051267 Si02
#       8
#     4   4   4   2   4   4   4   4
#     4  11  26  44  68 104 142 193 232 295 370 434
#     4  10  24  42  71 101 130 182 245 304 332 422
#     4  11  21  40  70 109 138 178 237 306 357 424
#     4  12  24  42  76 112 136 180 252 306 356 424
#     4  11  22  42  74  99 138 187 248 287 360 418
#     4  12  25  46  72 104 140 194 237 296 355 433
#     4  12  28  47  70 101 157 187 232 293 373 438
#     4  11  24  44  72 105 133 182 241 293 350 416
#
# _framework density 21.633206999999999
#
# number of rings (size 3 to 8) (size 9 to 14) (size 15 to 20)
#    0.000    0.800    4.000    2.400    9.333    0.533 
#    4.800    1.333    0.000    0.000    0.000    0.000 
#    0.000    0.000    0.000    0.000    0.000    0.000 
#
# Total GULP energy -185962.551275 kJ/mol
# GULP energy per Si atom -12397.503418 kJ/mol
# Density = 2.158397 g / cm^3
# Si number density = 21.633207 Si / 1000 Ang^3
#
#
#
# Elastic Constant Matrix: (Units=GPa)
#
#
# Indices 1 2 3 4 5 6 
#
# 1 99.1776 31.3433 50.1300 0.0000 28.6326 0.0000
# 2 31.3433 128.5884 46.3162 0.0000 14.2987 0.0000
# 3 50.1300 46.3162 152.8016 0.0000 20.4098 0.0000
# 4 0.0000 0.0000 0.0000 27.2437 0.0000 0.5175
# 5 28.6326 14.2987 20.4098 0.0000 43.7527 0.0000
# 6 0.0000 0.0000 0.0000 0.5175 0.0000 41.2730
#
#
#
# Elastic Compliance Matrix: (Units=1/GPa)
#
#
# Indices 1 2 3 4 5 6 
#
# 1 0.014333 -0.001499 -0.003264 0.000000 -0.007368 0.000000
# 2 -0.001499 0.009011 -0.002109 0.000000 -0.000980 0.000000
# 3 -0.003264 -0.002109 0.008400 0.000000 -0.001094 0.000000
# 4 0.000000 0.000000 0.000000 0.036714 0.000000 -0.000460
# 5 -0.007368 -0.000980 -0.001094 0.000000 0.028508 0.000000
# 6 0.000000 0.000000 0.000000 -0.000460 0.000000 0.024235
#
#
# Mechanical properties :
#
#
# Convention : Reuss Voigt Hill
#
# Bulk Modulus (GPa) = 55.55034 70.68295 63.11664
# Shear Modulus (GPa) = 35.47489 39.30575 37.39032
#
# Velocity S-wave (km/s) = 4.05388 4.26716 4.16188
# Velocity P-wave (km/s) = 6.90260 7.55132 7.23424
#
# Compressibility (1/GPa) = 0.01800169
#
# Stress axis : x y z
#
# Youngs Moduli (GPa) = 69.76684 110.98065 119.04114
#
# Poissons Ratio (x) = 0.16634 0.38855
# Poissons Ratio (y) = 0.10457 0.25101
# Poissons Ratio (z) = 0.22772 0.23401
#
# Static dielectric constant tensor:
#      x y z
#    x 3.999520 0.000000 0.122350 
#    y 0.000000 3.596820 0.000000 
#    z 0.122350 0.000000 4.068660 
# 
# 
# High freq. dielectric constant tensor:
#      x y z
#    x 1.862190 0.000000 0.008480 
#    y 0.000000 1.820550 0.000000 
#    z 0.008480 0.000000 1.868430 
# 
# From -- ./inp_files/7321.got.cif
#   From: 2010.03.12/outbox.cif.g09.slc.cpg/sg5_4_cif.got.tgz:7321.got - 2010.03.31 09:47:26.
