data_PCOD8051576
_publ_section_title
;
Structure prediction by ZEFSAII (Michael W. Deem and Ramdas Pophale) SiO2 
 PCOD8051576
Probable space group: C 2
;
_chemical_formula_sum "Si O2"
_cell_formula_units_Z 24
_cell_length_a 21.614168
_cell_length_b 9.109988
_cell_length_c 11.553269
_cell_angle_alpha 90.000000
_cell_angle_beta 29.658254
_cell_angle_gamma 90.000000
_cell_volume 1125.676021
_symmetry_space_group_name_H-M "C 2"
_symmetry_group_IT_number 5
_symmetry_cell_setting 'monoclinic'
loop_
_space_group_symop_operation_xyz
x,y,z
-x,y,-z
1/2+x,1/2+y,z
1/2-x,1/2+y,-z
loop_
_atom_site_type_symbol
_atom_site_label
_atom_site_fract_x
_atom_site_fract_y
_atom_site_fract_z
Si Si1 0.220051 0.669880 0.934917
Si Si2 0.093758 0.358749 0.759105
Si Si3 0.000576 0.668724 0.868296
Si Si4 0.930789 0.172858 0.413850
Si Si5 0.696581 0.833203 0.988683
Si Si6 0.679430 0.370940 0.454404
O O1 0.356979 0.689198 0.654763
O O2 0.181143 0.505991 0.037564
O O3 0.124177 0.722988 0.992660
O O4 0.211433 0.771507 0.061654
O O5 0.136058 0.257305 0.583971
O O6 0.211804 0.425912 0.635752
O O7 0.009462 0.492686 0.848209
O O8 0.000000 0.271555 0.000000
O O9 0.119305 0.729067 0.608140
O O10 0.000000 0.728993 0.000000
O O11 0.923029 0.999535 0.395989
O O12 0.070204 0.235896 0.200621
O O13 0.762193 0.812441 0.759271
#
# Coordination Sequence:
#
# PCOD8051576 Si02
#       6
#     4   4   4   4   4   4
#     4  11  25  44  69  96 132 179 223 274 333 399
#     4  11  19  41  69  93 132 172 223 274 333 392
#     4  11  23  44  65  96 139 171 219 283 333 393
#     4  11  22  44  68  94 133 176 225 275 333 394
#     4  11  24  46  65  97 134 175 227 272 332 402
#     4  11  24  40  67 101 133 176 220 278 333 399
#
# _framework density 21.320520999999999
#
# number of rings (size 3 to 8) (size 9 to 14) (size 15 to 20)
#    0.000    1.000    3.333    5.500    2.333    2.667 
#    6.000    0.000    0.000    0.000    0.000    0.000 
#    0.000    0.000    0.000    0.000    0.000    0.000 
#
# Total GULP energy -148778.282924 kJ/mol
# GULP energy per Si atom -12398.190244 kJ/mol
# Density = 2.127199 g / cm^3
# Si number density = 21.320521 Si / 1000 Ang^3
#
#
#
# Elastic Constant Matrix: (Units=GPa)
#
#
# Indices 1 2 3 4 5 6 
#
# 1 154.4262 48.5531 44.7011 0.0000 8.2202 0.0000
# 2 48.5531 67.5090 53.1038 0.0000 7.8151 0.0000
# 3 44.7011 53.1038 97.5608 0.0000 1.2532 0.0000
# 4 0.0000 0.0000 0.0000 42.0709 0.0000 0.4865
# 5 8.2202 7.8151 1.2532 0.0000 32.4283 0.0000
# 6 0.0000 0.0000 0.0000 0.4865 0.0000 31.0803
#
#
#
# Elastic Compliance Matrix: (Units=1/GPa)
#
#
# Indices 1 2 3 4 5 6 
#
# 1 0.008444 -0.005139 -0.001061 0.000000 -0.000861 0.000000
# 2 -0.005139 0.030130 -0.013976 0.000000 -0.005418 0.000000
# 3 -0.001061 -0.013976 0.018306 0.000000 0.002930 0.000000
# 4 0.000000 0.000000 0.000000 0.023774 0.000000 -0.000372
# 5 -0.000861 -0.005418 0.002930 0.000000 0.032248 0.000000
# 6 0.000000 0.000000 0.000000 -0.000372 0.000000 0.032181
#
#
# Mechanical properties :
#
#
# Convention : Reuss Voigt Hill
#
# Bulk Modulus (GPa) = 60.50188 68.02356 64.26272
# Shear Modulus (GPa) = 26.18581 32.65842 29.42211
#
# Velocity S-wave (km/s) = 3.50837 3.91805 3.71885
# Velocity P-wave (km/s) = 6.69705 7.24173 6.97470
#
# Compressibility (1/GPa) = 0.01652841
#
# Stress axis : x y z
#
# Youngs Moduli (GPa) = 118.42378 33.18958 54.62799
#
# Poissons Ratio (x) = 0.17057 0.05794
# Poissons Ratio (y) = 0.60860 0.76347
# Poissons Ratio (z) = 0.12561 0.46385
#
# Static dielectric constant tensor:
#      x y z
#    x 4.058660 0.000000 0.096020 
#    y 0.000000 3.647840 0.000000 
#    z 0.096020 0.000000 3.870490 
# 
# 
# High freq. dielectric constant tensor:
#      x y z
#    x 1.855480 0.000000 0.005650 
#    y 0.000000 1.819530 0.000000 
#    z 0.005650 0.000000 1.835560 
# 
# From -- ./inp_files/47242.got.cif
#   From: 2010.03.12/outbox.cif.g09.slc.cpg/sg5_24_cif.got.tgz:47242.got - 2010.03.31 09:47:26.
