data_PCOD8051870
_publ_section_title
;
Structure prediction by ZEFSAII (Michael W. Deem and Ramdas Pophale) SiO2 
 PCOD8051870
Probable space group: C 2
;
_chemical_formula_sum "Si O2"
_cell_formula_units_Z 24
_cell_length_a 22.318282
_cell_length_b 8.899789
_cell_length_c 10.887285
_cell_angle_alpha 90.000000
_cell_angle_beta 148.963507
_cell_angle_gamma 90.000000
_cell_volume 1114.960359
_symmetry_space_group_name_H-M "C 2"
_symmetry_group_IT_number 5
_symmetry_cell_setting 'monoclinic'
loop_
_space_group_symop_operation_xyz
x,y,z
-x,y,-z
1/2+x,1/2+y,z
1/2-x,1/2+y,-z
loop_
_atom_site_type_symbol
_atom_site_label
_atom_site_fract_x
_atom_site_fract_y
_atom_site_fract_z
Si Si1 0.015911 0.342720 0.286381
Si Si2 0.729927 0.857648 0.833477
Si Si3 0.669132 0.728311 0.349391
Si Si4 0.832390 0.952140 0.505025
Si Si5 0.202450 0.517171 0.042990
Si Si6 0.583250 0.552701 0.966452
O O1 0.101962 0.350228 0.552324
O O2 0.081546 0.340151 0.269100
O O3 0.927206 0.482383 0.133823
O O4 0.941798 0.188398 0.173287
O O5 0.723907 0.939866 0.951581
O O6 0.786267 0.695166 0.950311
O O7 0.805905 0.956199 0.873766
O O8 0.776528 0.814823 0.480139
O O9 0.718786 0.611647 0.537308
O O10 0.601334 0.629176 0.130354
O O11 0.970657 0.943942 0.768928
O O12 0.798061 0.944696 0.301944
#
# Coordination Sequence:
#
# PCOD8051870 Si02
#       6
#     4   4   4   4   4   4
#     4  11  23  48  70  99 140 183 226 288 352 404
#     4  12  27  48  69 103 139 186 239 285 346 413
#     4  11  23  44  73 104 142 181 227 290 353 417
#     4  11  24  43  71 104 136 186 229 286 355 407
#     4  12  26  46  71 102 138 187 236 289 344 411
#     4  11  24  45  74  99 141 182 225 285 354 413
#
# _framework density 21.525428999999999
#
# number of rings (size 3 to 8) (size 9 to 14) (size 15 to 20)
#    0.000    0.667    5.000    4.500    0.000    3.333 
#    3.000    0.000    0.000    0.000    0.000    0.000 
#    0.000    0.000    0.000    0.000    0.000    0.000 
#
# Total GULP energy -148794.457711 kJ/mol
# GULP energy per Si atom -12399.538143 kJ/mol
# Density = 2.147644 g / cm^3
# Si number density = 21.525429 Si / 1000 Ang^3
#
#
#
# Elastic Constant Matrix: (Units=GPa)
#
#
# Indices 1 2 3 4 5 6 
#
# 1 100.0523 32.2510 43.9659 0.0000 -14.7475 0.0000
# 2 32.2510 73.2070 47.2462 0.0000 5.1243 0.0000
# 3 43.9659 47.2462 124.8329 0.0000 -5.2428 0.0000
# 4 0.0000 0.0000 0.0000 38.4932 0.0000 9.5039
# 5 -14.7475 5.1243 -5.2428 0.0000 31.5786 0.0000
# 6 0.0000 0.0000 0.0000 9.5039 0.0000 50.7999
#
#
#
# Elastic Compliance Matrix: (Units=1/GPa)
#
#
# Indices 1 2 3 4 5 6 
#
# 1 0.013724 -0.004736 -0.002759 0.000000 0.006720 0.000000
# 2 -0.004736 0.020251 -0.006271 0.000000 -0.006539 0.000000
# 3 -0.002759 -0.006271 0.011424 0.000000 0.001626 0.000000
# 4 0.000000 0.000000 0.000000 0.027237 0.000000 -0.005096
# 5 0.006720 -0.006539 0.001626 0.000000 0.036136 0.000000
# 6 0.000000 0.000000 0.000000 -0.005096 0.000000 0.020638
#
#
# Mechanical properties :
#
#
# Convention : Reuss Voigt Hill
#
# Bulk Modulus (GPa) = 55.96783 60.55760 58.26271
# Shear Modulus (GPa) = 30.69382 35.81630 33.25506
#
# Velocity S-wave (km/s) = 3.78025 4.08353 3.93481
# Velocity P-wave (km/s) = 6.71647 7.10125 6.91154
#
# Compressibility (1/GPa) = 0.01786741
#
# Stress axis : x y z
#
# Youngs Moduli (GPa) = 72.86392 49.37948 87.53321
#
# Poissons Ratio (x) = 0.23386 0.24150
# Poissons Ratio (y) = 0.34508 0.54895
# Poissons Ratio (z) = 0.20103 0.30967
#
# Static dielectric constant tensor:
#      x y z
#    x 3.917060 0.000000 -0.073420 
#    y 0.000000 4.024080 0.000000 
#    z -0.073420 0.000000 4.038930 
# 
# 
# High freq. dielectric constant tensor:
#      x y z
#    x 1.849550 0.000000 -0.008880 
#    y 0.000000 1.839610 0.000000 
#    z -0.008880 0.000000 1.856550 
# 
# From -- ./inp_files/47349.got.cif
#   From: 2010.03.12/outbox.cif.g09.slc.cpg/sg5_24_cif.got.tgz:47349.got - 2010.03.31 09:47:26.
