data_PCOD8051122
_publ_section_title
;
Structure prediction by ZEFSAII (Michael W. Deem and Ramdas Pophale) SiO2 
 PCOD8051122
Probable space group: C 2
;
_chemical_formula_sum "Si O2"
_cell_formula_units_Z 32
_cell_length_a 12.499109
_cell_length_b 14.643354
_cell_length_c 18.257336
_cell_angle_alpha 90.000000
_cell_angle_beta 29.284275
_cell_angle_gamma 90.000000
_cell_volume 1634.530199
_symmetry_space_group_name_H-M "C 2"
_symmetry_group_IT_number 5
_symmetry_cell_setting 'monoclinic'
loop_
_space_group_symop_operation_xyz
x,y,z
-x,y,-z
1/2+x,1/2+y,z
1/2-x,1/2+y,-z
loop_
_atom_site_type_symbol
_atom_site_label
_atom_site_fract_x
_atom_site_fract_y
_atom_site_fract_z
Si Si1 0.872934 0.389750 0.424985
Si Si2 0.000347 0.115075 0.830098
Si Si3 0.744277 0.293222 0.351419
Si Si4 0.713953 0.484491 0.323430
Si Si5 0.790431 0.003280 0.167899
Si Si6 0.554457 0.560154 0.633201
Si Si7 0.927781 0.608848 0.826161
Si Si8 0.318502 0.717598 0.547949
O O1 0.820871 0.334465 0.382786
O O2 0.729024 0.480234 0.516607
O O3 0.826932 0.323387 0.520823
O O4 0.126672 0.418924 0.277345
O O5 0.097947 0.216073 0.772716
O O6 0.140860 0.046565 0.795884
O O7 0.002852 0.072988 0.748371
O O8 0.752191 0.127278 0.004651
O O9 0.500000 0.251465 0.500000
O O10 0.745958 0.376373 0.292205
O O11 0.500000 0.504795 0.500000
O O12 0.674247 0.532079 0.268766
O O13 0.926131 0.522765 0.237183
O O14 0.685660 0.084825 0.182872
O O15 0.000000 0.962961 0.000000
O O16 0.647553 0.653822 0.543640
O O17 0.080003 0.697855 0.725230
O O18 0.500000 0.694220 0.500000
#
# Coordination Sequence:
#
# PCOD8051122 Si02
#       8
#     4   4   4   4   4   4   4   4
#     4  12  24  41  67  98 128 170 224 270 319 384
#     4  11  28  40  65 100 132 170 216 267 328 380
#     4  11  22  41  67  98 123 165 221 271 319 382
#     4  11  18  40  74  92 120 174 219 259 321 384
#     4  10  23  44  66  90 133 180 209 261 339 389
#     4  12  22  43  67 100 123 167 226 269 315 379
#     4  11  21  46  68  89 135 176 208 263 332 396
#     4  12  24  43  69  95 128 177 219 263 325 385
#
# _framework density 19.577490999999998
#
# number of rings (size 3 to 8) (size 9 to 14) (size 15 to 20)
#    0.000    0.750    8.750    0.000    5.250    0.500 
#    4.500    0.000    0.000    0.000    0.000    0.000 
#    0.000    0.000    0.000    0.000    0.000    0.000 
#
# Total GULP energy -198441.448784 kJ/mol
# GULP energy per Si atom -12402.590549 kJ/mol
# Density = 1.953293 g / cm^3
# Si number density = 19.577491 Si / 1000 Ang^3
#
#
#
# Elastic Constant Matrix: (Units=GPa)
#
#
# Indices 1 2 3 4 5 6 
#
# 1 120.8861 31.2089 53.9285 0.0006 5.2055 -0.0175
# 2 31.2089 92.6044 47.8720 -0.0423 -0.3211 0.0181
# 3 53.9285 47.8720 127.4669 -0.0597 -9.3586 0.0281
# 4 0.0006 -0.0423 -0.0597 22.3743 -0.0141 -2.2010
# 5 5.2055 -0.3211 -9.3586 -0.0141 29.8327 0.0126
# 6 -0.0175 0.0181 0.0281 -2.2010 0.0126 29.1851
#
#
#
# Elastic Compliance Matrix: (Units=1/GPa)
#
#
# Indices 1 2 3 4 5 6 
#
# 1 0.010655 -0.001427 -0.004206 -0.000015 -0.003194 0.000012
# 2 -0.001427 0.013655 -0.004601 0.000013 -0.001047 -0.000003
# 3 -0.004206 -0.004601 0.011672 0.000024 0.004346 -0.000011
# 4 -0.000015 0.000013 0.000024 0.045028 0.000030 0.003396
# 5 -0.003194 -0.001047 0.004346 0.000030 0.035430 -0.000018
# 6 0.000012 -0.000003 -0.000011 0.003396 -0.000018 0.034520
#
#
# Mechanical properties :
#
#
# Convention : Reuss Voigt Hill
#
# Bulk Modulus (GPa) = 64.46790 67.44178 65.95484
# Shear Modulus (GPa) = 28.31266 30.14163 29.22714
#
# Velocity S-wave (km/s) = 3.80700 3.92804 3.86799
# Velocity P-wave (km/s) = 7.23363 7.42267 7.32876
#
# Compressibility (1/GPa) = 0.01551159
#
# Stress axis : x y z
#
# Youngs Moduli (GPa) = 93.85493 73.23514 85.67621
#
# Poissons Ratio (x) = 0.10454 0.36037
# Poissons Ratio (y) = 0.13397 0.39421
# Poissons Ratio (z) = 0.39477 0.33697
#
# Static dielectric constant tensor:
#      x y z
#    x 3.832110 0.000000 -0.157240 
#    y 0.000000 3.706670 0.000050 
#    z -0.157240 0.000050 3.532980 
# 
# 
# High freq. dielectric constant tensor:
#      x y z
#    x 1.777680 0.000000 -0.012000 
#    y 0.000000 1.761720 0.000000 
#    z -0.012000 0.000000 1.748720 
# 
# From -- ./inp_files/44983.got.cif
#   From: 2010.03.12/outbox.cif.g09.slc.cpg/sg5_23_cif.got.tgz:44983.got - 2010.03.31 09:47:26.
