data_PCOD8051788
_publ_section_title
;
Structure prediction by ZEFSAII (Michael W. Deem and Ramdas Pophale) SiO2 
 PCOD8051788
Probable space group: C 2
;
_chemical_formula_sum "Si O2"
_cell_formula_units_Z 18
_cell_length_a 20.540351
_cell_length_b 7.277163
_cell_length_c 12.470004
_cell_angle_alpha 90.000000
_cell_angle_beta 27.488164
_cell_angle_gamma 90.000000
_cell_volume 860.339318
_symmetry_space_group_name_H-M "C 2"
_symmetry_group_IT_number 5
_symmetry_cell_setting 'monoclinic'
loop_
_space_group_symop_operation_xyz
x,y,z
-x,y,-z
1/2+x,1/2+y,z
1/2-x,1/2+y,-z
loop_
_atom_site_type_symbol
_atom_site_label
_atom_site_fract_x
_atom_site_fract_y
_atom_site_fract_z
Si Si1 0.878540 0.860930 0.398001
Si Si2 0.855011 0.784728 0.669144
Si Si3 0.557354 0.712303 0.186045
Si Si4 0.500000 0.636777 0.500000
Si Si5 0.921328 0.497111 0.224910
O O1 0.836343 0.756031 0.569138
O O2 0.941968 0.710398 0.224333
O O3 0.744048 0.957610 0.541918
O O4 0.997906 0.012019 0.244048
O O5 0.000000 0.689493 0.500000
O O6 0.863314 0.004808 0.680571
O O7 0.724103 0.698141 0.922767
O O8 0.527476 0.760164 0.354680
O O9 0.487759 0.871132 0.218939
O O10 0.000000 0.453048 0.000000
#
# Coordination Sequence:
#
# PCOD8051788 Si02
#       5
#     4   4   4   2   4
#     4  11  24  44  66 101 132 178 226 268 342 391
#     4   9  21  44  67  95 136 174 224 277 322 397
#     4  11  22  47  72  94 142 175 218 285 329 394
#     4   8  22  44  66 104 132 168 234 266 336 400
#     4  12  25  42  71  98 136 175 223 278 329 401
#
# _framework density 20.921976999999998
#
# number of rings (size 3 to 8) (size 9 to 14) (size 15 to 20)
#    0.667    0.889    4.444    0.000    0.000    4.444 
#    6.000    0.000    0.000    0.000    0.000    0.000 
#    0.000    0.000    0.000    0.000    0.000    0.000 
#
# Total GULP energy -111604.715621 kJ/mol
# GULP energy per Si atom -12400.523958 kJ/mol
# Density = 2.087436 g / cm^3
# Si number density = 20.921977 Si / 1000 Ang^3
#
#
#
# Elastic Constant Matrix: (Units=GPa)
#
#
# Indices 1 2 3 4 5 6 
#
# 1 125.7979 39.2533 70.4986 0.0000 5.0841 0.0000
# 2 39.2533 84.7486 51.8176 -0.0001 9.4248 0.0001
# 3 70.4986 51.8176 152.8415 -0.0001 -5.5406 0.0000
# 4 0.0000 -0.0001 -0.0001 32.4263 0.0001 5.5730
# 5 5.0841 9.4248 -5.5406 0.0001 40.1870 0.0000
# 6 0.0000 0.0001 0.0000 5.5730 0.0000 29.0590
#
#
#
# Elastic Compliance Matrix: (Units=1/GPa)
#
#
# Indices 1 2 3 4 5 6 
#
# 1 0.011223 -0.002314 -0.004446 0.000000 -0.001490 0.000000
# 2 -0.002314 0.016106 -0.004542 0.000000 -0.004111 0.000000
# 3 -0.004446 -0.004542 0.010244 0.000000 0.003040 0.000000
# 4 0.000000 0.000000 0.000000 0.031890 0.000000 -0.006116
# 5 -0.001490 -0.004111 0.003040 0.000000 0.026455 0.000000
# 6 0.000000 0.000000 0.000000 -0.006116 0.000000 0.035586
#
#
# Mechanical properties :
#
#
# Convention : Reuss Voigt Hill
#
# Bulk Modulus (GPa) = 66.80888 76.28077 71.54483
# Shear Modulus (GPa) = 31.42722 33.78901 32.60812
#
# Velocity S-wave (km/s) = 3.87992 4.02307 3.95214
# Velocity P-wave (km/s) = 7.21619 7.62357 7.42268
#
# Compressibility (1/GPa) = 0.01496807
#
# Stress axis : x y z
#
# Youngs Moduli (GPa) = 89.10046 62.09023 97.62168
#
# Poissons Ratio (x) = 0.14368 0.43405
# Poissons Ratio (y) = 0.20618 0.44339
# Poissons Ratio (z) = 0.39617 0.28201
#
# Static dielectric constant tensor:
#      x y z
#    x 4.032100 0.000000 0.100760 
#    y 0.000000 3.487700 0.000000 
#    z 0.100760 0.000000 3.716230 
# 
# 
# High freq. dielectric constant tensor:
#      x y z
#    x 1.838330 0.000000 0.003080 
#    y 0.000000 1.800550 0.000000 
#    z 0.003080 0.000000 1.813120 
# 
# From -- ./inp_files/45812.got.cif
#   From: 2010.03.12/outbox.cif.g09.slc.cpg/sg5_23_cif.got.tgz:45812.got - 2010.03.31 09:47:26.
