data_PCOD8051774
_publ_section_title
;
Structure prediction by ZEFSAII (Michael W. Deem and Ramdas Pophale) SiO2 
 PCOD8051774
Probable space group: C 2
;
_chemical_formula_sum "Si O2"
_cell_formula_units_Z 26
_cell_length_a 8.715215
_cell_length_b 19.651897
_cell_length_c 9.544544
_cell_angle_alpha 90.000000
_cell_angle_beta 132.410153
_cell_angle_gamma 90.000000
_cell_volume 1206.956782
_symmetry_space_group_name_H-M "C 2"
_symmetry_group_IT_number 5
_symmetry_cell_setting 'monoclinic'
loop_
_space_group_symop_operation_xyz
x,y,z
-x,y,-z
1/2+x,1/2+y,z
1/2-x,1/2+y,-z
loop_
_atom_site_type_symbol
_atom_site_label
_atom_site_fract_x
_atom_site_fract_y
_atom_site_fract_z
Si Si1 0.421495 0.422230 0.715974
Si Si2 0.809388 0.428444 0.146597
Si Si3 0.552639 0.197259 0.872861
Si Si4 0.944880 0.291263 0.118828
Si Si5 0.000000 0.014998 0.500000
Si Si6 0.798405 0.280819 0.475513
Si Si7 0.946351 0.548650 0.813116
O O1 0.281738 0.448125 0.758706
O O2 0.425267 0.470515 0.585051
O O3 0.337390 0.349596 0.614806
O O4 0.653094 0.422791 0.919891
O O5 0.897902 0.352003 0.201243
O O6 0.986410 0.485325 0.241012
O O7 0.361029 0.222107 0.663363
O O8 0.574809 0.116823 0.853810
O O9 0.500000 0.211303 0.000000
O O10 0.767645 0.235993 0.977527
O O11 0.137583 0.259697 0.324683
O O12 0.000000 0.321227 0.000000
O O13 0.198209 0.062432 0.654543
O O14 0.000000 0.281287 0.500000
O O15 0.000000 0.524233 0.000000
#
# Coordination Sequence:
#
# PCOD8051774 Si02
#       7
#     4   4   4   4   2   4   4
#     4  11  24  40  70 101 133 171 232 274 342 399
#     4  11  22  46  67  96 138 183 213 286 340 398
#     4  11  24  45  68  98 136 182 228 276 342 411
#     4  12  26  43  70 101 140 174 229 283 340 396
#     4  12  26  42  68 106 130 176 230 284 332 400
#     4  12  23  41  71  99 129 179 224 277 337 401
#     4  11  25  44  67  99 139 178 224 281 342 399
#
# _framework density 21.541782000000001
#
# number of rings (size 3 to 8) (size 9 to 14) (size 15 to 20)
#    0.000    0.615    6.154    1.385    3.231    0.615 
#    2.769    1.538    0.000    0.000    0.000    0.000 
#    0.000    0.000    0.000    0.000    0.000    0.000 
#
# Total GULP energy -161109.078692 kJ/mol
# GULP energy per Si atom -12393.006053 kJ/mol
# Density = 2.149275 g / cm^3
# Si number density = 21.541782 Si / 1000 Ang^3
#
#
#
# Elastic Constant Matrix: (Units=GPa)
#
#
# Indices 1 2 3 4 5 6 
#
# 1 72.5030 43.1295 49.5068 0.0000 9.1878 0.0000
# 2 43.1295 100.2485 18.7326 0.0000 6.2790 0.0000
# 3 49.5068 18.7326 145.1794 0.0000 0.0748 0.0000
# 4 0.0000 0.0000 0.0000 -0.9901 0.0000 12.3942
# 5 9.1878 6.2790 0.0748 0.0000 39.3150 0.0000
# 6 0.0000 0.0000 0.0000 12.3942 0.0000 46.2364
#
#
#
# Elastic Compliance Matrix: (Units=1/GPa)
#
#
# Indices 1 2 3 4 5 6 
#
# 1 0.024612 -0.008967 -0.007233 0.000000 -0.004306 0.000000
# 2 -0.008967 0.013594 0.001304 0.000000 -0.000078 0.000000
# 3 -0.007233 0.001304 0.009186 0.000000 0.001465 0.000000
# 4 0.000000 0.000000 0.000000 -0.231884 0.000000 0.062160
# 5 -0.004306 -0.000078 0.001465 0.000000 0.026452 0.000000
# 6 0.000000 0.000000 0.000000 0.062160 0.000000 0.004965
#
#
# Mechanical properties :
#
#
# Convention : Reuss Voigt Hill
#
# Bulk Modulus (GPa) = 56.82449 60.07428 58.44939
# Shear Modulus (GPa) = -42.58358 30.68306 -5.95026
#
# Velocity S-wave (km/s) = -4.45093 3.77815 -1.66379
# Velocity P-wave (km/s) = 0.14689 6.85423 4.84778
#
# Compressibility (1/GPa) = 0.01759805
#
# Stress axis : x y z
#
# Youngs Moduli (GPa) = 40.63124 73.55970 108.86530
#
# Poissons Ratio (x) = 0.65963 0.78747
# Poissons Ratio (y) = 0.36435 -0.14194
# Poissons Ratio (z) = 0.29390 -0.09591
#
# Static dielectric constant tensor:
#      x y z
#    x 3.736260 0.000000 -0.054370 
#    y 0.000000 3.679010 0.000000 
#    z -0.054370 0.000000 4.028600 
# 
# 
# High freq. dielectric constant tensor:
#      x y z
#    x 1.837180 0.000000 0.007000 
#    y 0.000000 1.827620 0.000000 
#    z 0.007000 0.000000 1.876290 
# 
# From -- ./inp_files/16739.got.cif
#   From: 2010.03.12/outbox.cif.g09.slc.cpg/sg5_9_cif.got.tgz:16739.got - 2010.03.31 09:47:26.
