data_PCOD8051978
_publ_section_title
;
Structure prediction by ZEFSAII (Michael W. Deem and Ramdas Pophale) SiO2 
 PCOD8051978
Probable space group: C 2
;
_chemical_formula_sum "Si O2"
_cell_formula_units_Z 26
_cell_length_a 12.930668
_cell_length_b 4.971363
_cell_length_c 23.312303
_cell_angle_alpha 90.000000
_cell_angle_beta 131.321544
_cell_angle_gamma 90.000000
_cell_volume 1125.461787
_symmetry_space_group_name_H-M "C 2"
_symmetry_group_IT_number 5
_symmetry_cell_setting 'monoclinic'
loop_
_space_group_symop_operation_xyz
x,y,z
-x,y,-z
1/2+x,1/2+y,z
1/2-x,1/2+y,-z
loop_
_atom_site_type_symbol
_atom_site_label
_atom_site_fract_x
_atom_site_fract_y
_atom_site_fract_z
Si Si1 0.173880 0.288330 0.497703
Si Si2 0.285951 0.731571 0.720487
Si Si3 0.750830 0.321562 0.837524
Si Si4 0.143793 0.226294 0.620614
Si Si5 0.089918 0.299052 0.813289
Si Si6 0.500000 0.712553 0.000000
Si Si7 0.334587 0.547011 0.038811
O O1 0.245430 0.571603 0.510881
O O2 0.182245 0.222188 0.567848
O O3 0.013109 0.304678 0.422498
O O4 0.307517 0.739358 0.796547
O O5 0.245233 0.429520 0.689845
O O6 0.427720 0.815993 0.741085
O O7 0.167389 0.929048 0.654298
O O8 0.661500 0.590860 0.795857
O O9 0.876099 0.391338 0.927686
O O10 0.656598 0.089692 0.830562
O O11 0.108367 0.179278 0.883221
O O12 0.547389 0.518170 0.965863
O O13 0.280106 0.247728 0.030060
#
# Coordination Sequence:
#
# PCOD8051978 Si02
#       7
#     4   4   4   4   4   2   4
#     4  11  24  45  76 106 136 175 217 265 319 384
#     4  12  26  45  66  98 142 177 216 274 328 392
#     4  12  27  42  67  95 128 178 230 275 340 393
#     4  11  26  45  70 105 138 174 220 263 322 397
#     4  12  25  44  62  95 128 173 224 275 335 398
#     4  12  24  44  68  92 126 174 230 290 332 388
#     4  12  24  42  65  92 123 166 224 288 336 389
#
# _framework density 23.101628000000002
#
# number of rings (size 3 to 8) (size 9 to 14) (size 15 to 20)
#    0.000    0.308    4.615    3.692    0.000   12.308 
#    0.000    0.000    0.000    0.000    0.000    0.000 
#    0.000    0.000    0.000    0.000    0.000    0.000 
#
# Total GULP energy -161248.201618 kJ/mol
# GULP energy per Si atom -12403.707817 kJ/mol
# Density = 2.304905 g / cm^3
# Si number density = 23.101628 Si / 1000 Ang^3
#
#
#
# Elastic Constant Matrix: (Units=GPa)
#
#
# Indices 1 2 3 4 5 6 
#
# 1 105.3390 8.7072 23.5276 -0.0004 14.4032 0.0003
# 2 8.7072 78.5982 6.8137 -0.0007 11.7703 0.0005
# 3 23.5276 6.8137 90.1967 -0.0003 11.8253 0.0003
# 4 -0.0004 -0.0007 -0.0003 34.5954 0.0001 -3.1432
# 5 14.4032 11.7703 11.8253 0.0001 37.2407 -0.0001
# 6 0.0003 0.0005 0.0003 -3.1432 -0.0001 36.7126
#
#
#
# Elastic Compliance Matrix: (Units=1/GPa)
#
#
# Indices 1 2 3 4 5 6 
#
# 1 0.010477 -0.000488 -0.002280 0.000000 -0.003174 0.000000
# 2 -0.000488 0.013397 -0.000370 0.000000 -0.003928 0.000000
# 3 -0.002280 -0.000370 0.012082 0.000000 -0.002838 0.000000
# 4 0.000000 0.000000 0.000000 0.029132 0.000000 0.002494
# 5 -0.003174 -0.003928 -0.002838 0.000000 0.030222 0.000000
# 6 0.000000 0.000000 0.000000 0.002494 0.000000 0.027452
#
#
# Mechanical properties :
#
#
# Convention : Reuss Voigt Hill
#
# Bulk Modulus (GPa) = 33.69186 39.13676 36.41431
# Shear Modulus (GPa) = 35.98918 37.38211 36.68564
#
# Velocity S-wave (km/s) = 3.95126 4.02700 3.98931
# Velocity P-wave (km/s) = 5.95252 6.21291 6.08410
#
# Compressibility (1/GPa) = 0.02968076
#
# Stress axis : x y z
#
# Youngs Moduli (GPa) = 95.45038 74.64196 82.77083
#
# Poissons Ratio (x) = 0.03640 0.18871
# Poissons Ratio (y) = 0.04655 0.03061
# Poissons Ratio (z) = 0.21761 0.02760
#
# Static dielectric constant tensor:
#      x y z
#    x 4.411820 0.000000 0.055590 
#    y 0.000000 4.085820 0.000000 
#    z 0.055590 0.000000 4.076940 
# 
# 
# High freq. dielectric constant tensor:
#      x y z
#    x 1.934070 0.000000 -0.002530 
#    y 0.000000 1.909400 0.000000 
#    z -0.002530 0.000000 1.911170 
# 
# From -- ./inp_files/68155.got.cif
#   From: 2010.03.12/outbox.cif.g09.slc.cpg/sg5_35_cif.got.tgz:68155.got - 2010.03.31 09:47:26.
