data_PCOD8051909
_publ_section_title
;
Structure prediction by ZEFSAII (Michael W. Deem and Ramdas Pophale) SiO2 
 PCOD8051909
Probable space group: C 2
;
_chemical_formula_sum "Si O2"
_cell_formula_units_Z 26
_cell_length_a 10.169174
_cell_length_b 9.237226
_cell_length_c 14.211244
_cell_angle_alpha 90.000000
_cell_angle_beta 120.384583
_cell_angle_gamma 90.000000
_cell_volume 1151.579354
_symmetry_space_group_name_H-M "C 2"
_symmetry_group_IT_number 5
_symmetry_cell_setting 'monoclinic'
loop_
_space_group_symop_operation_xyz
x,y,z
-x,y,-z
1/2+x,1/2+y,z
1/2-x,1/2+y,-z
loop_
_atom_site_type_symbol
_atom_site_label
_atom_site_fract_x
_atom_site_fract_y
_atom_site_fract_z
Si Si1 0.000000 0.360981 0.000000
Si Si2 0.084323 0.516513 0.709077
Si Si3 0.314471 0.325150 0.703240
Si Si4 0.335472 0.994279 0.762873
Si Si5 0.470953 0.322437 0.383750
Si Si6 0.933660 0.891679 0.074693
Si Si7 0.745261 0.131557 0.948139
O O1 0.060747 0.459713 0.108457
O O2 0.128826 0.254797 0.009315
O O3 0.150069 0.393930 0.663552
O O4 0.059414 0.652177 0.632018
O O5 0.204314 0.564623 0.832505
O O6 0.932083 0.452938 0.703662
O O7 0.304913 0.164914 0.742396
O O8 0.369897 0.342783 0.615743
O O9 0.441735 0.421699 0.801677
O O10 0.175038 0.908700 0.710669
O O11 0.500000 0.375217 0.500000
O O12 0.897683 0.720346 0.061995
O O13 0.000000 0.943517 0.000000
O O14 0.789860 0.002153 0.037257
#
# Coordination Sequence:
#
# PCOD8051909 Si02
#       7
#     2   4   4   4   4   4   4
#     4  12  22  40  70 100 146 184 220 270 344 416
#     4  11  23  47  67 102 135 179 231 279 344 401
#     4  11  25  44  67 103 139 177 230 283 342 408
#     4  11  25  44  69 105 139 181 233 274 345 413
#     4  11  26  50  73  97 136 181 234 291 340 401
#     4  12  24  39  62  96 144 180 219 269 334 412
#     4  12  23  42  63  99 143 184 220 268 339 408
#
# _framework density 22.57769
#
# number of rings (size 3 to 8) (size 9 to 14) (size 15 to 20)
#    0.000    0.615    6.923    0.923    1.077    4.923 
#    0.000    0.769    0.000    0.000    0.000    0.000 
#    0.000    0.000    0.000    0.000    0.000    0.000 
#
# Total GULP energy -161113.808190 kJ/mol
# GULP energy per Si atom -12393.369861 kJ/mol
# Density = 2.252630 g / cm^3
# Si number density = 22.577690 Si / 1000 Ang^3
#
#
#
# Elastic Constant Matrix: (Units=GPa)
#
#
# Indices 1 2 3 4 5 6 
#
# 1 101.8679 54.3406 -1.6113 0.0000 -8.1141 0.0000
# 2 54.3406 97.9430 11.7360 0.0000 -14.0943 0.0000
# 3 -1.6113 11.7360 63.1416 0.0000 -11.4065 0.0000
# 4 0.0000 0.0000 0.0000 18.6104 0.0000 -8.7278
# 5 -8.1141 -14.0943 -11.4065 0.0000 25.4497 0.0000
# 6 0.0000 0.0000 0.0000 -8.7278 0.0000 42.5459
#
#
#
# Elastic Compliance Matrix: (Units=1/GPa)
#
#
# Indices 1 2 3 4 5 6 
#
# 1 0.014177 -0.007962 0.002026 0.000000 0.001019 0.000000
# 2 -0.007962 0.015628 -0.002179 0.000000 0.005140 0.000000
# 3 0.002026 -0.002179 0.017619 0.000000 0.007336 0.000000
# 4 0.000000 0.000000 0.000000 0.059453 0.000000 0.012196
# 5 0.001019 0.005140 0.007336 0.000000 0.045752 0.000000
# 6 0.000000 0.000000 0.000000 0.012196 0.000000 0.026006
#
#
# Mechanical properties :
#
#
# Convention : Reuss Voigt Hill
#
# Bulk Modulus (GPa) = 32.05815 43.54256 37.80036
# Shear Modulus (GPa) = 24.35878 30.55368 27.45623
#
# Velocity S-wave (km/s) = 3.28821 3.68267 3.49101
# Velocity P-wave (km/s) = 5.35222 6.11639 5.74702
#
# Compressibility (1/GPa) = 0.03119331
#
# Stress axis : x y z
#
# Youngs Moduli (GPa) = 70.53704 63.98717 56.75554
#
# Poissons Ratio (x) = 0.50945 -0.11496
# Poissons Ratio (y) = 0.56160 0.12370
# Poissons Ratio (z) = -0.14288 0.13946
#
# Static dielectric constant tensor:
#      x y z
#    x 4.464560 0.000000 0.044040 
#    y 0.000000 4.124780 0.000000 
#    z 0.044040 0.000000 3.719150 
# 
# 
# High freq. dielectric constant tensor:
#      x y z
#    x 1.907740 0.000000 -0.002190 
#    y 0.000000 1.897070 0.000000 
#    z -0.002190 0.000000 1.858470 
# 
# From -- ./inp_files/52351.got.cif
#   From: 2010.03.12/outbox.cif.g09.slc.cpg/sg5_27_cif.got.tgz:52351.got - 2010.03.31 09:47:26.
