data_PCOD8051974
_publ_section_title
;
Structure prediction by ZEFSAII (Michael W. Deem and Ramdas Pophale) SiO2 
 PCOD8051974
Probable space group: C 2
;
_chemical_formula_sum "Si O2"
_cell_formula_units_Z 28
_cell_length_a 12.209206
_cell_length_b 7.440044
_cell_length_c 16.771392
_cell_angle_alpha 90.000000
_cell_angle_beta 127.700542
_cell_angle_gamma 90.000000
_cell_volume 1205.391309
_symmetry_space_group_name_H-M "C 2"
_symmetry_group_IT_number 5
_symmetry_cell_setting 'monoclinic'
loop_
_space_group_symop_operation_xyz
x,y,z
-x,y,-z
1/2+x,1/2+y,z
1/2-x,1/2+y,-z
loop_
_atom_site_type_symbol
_atom_site_label
_atom_site_fract_x
_atom_site_fract_y
_atom_site_fract_z
Si Si1 0.624667 0.363650 0.402852
Si Si2 0.321894 0.749285 0.626841
Si Si3 0.728469 0.500655 0.897471
Si Si4 0.685457 0.353087 0.715546
Si Si5 0.086255 0.659074 0.893012
Si Si6 0.224576 0.720347 0.285013
Si Si7 0.388152 0.864472 0.220203
O O1 0.613349 0.574408 0.383811
O O2 0.697876 0.325702 0.518621
O O3 0.469473 0.282036 0.334469
O O4 0.713410 0.286869 0.369786
O O5 0.263845 0.715207 0.691090
O O6 0.448828 0.889546 0.686887
O O7 0.768062 0.390588 0.834719
O O8 0.641897 0.363190 0.913887
O O9 0.633247 0.674211 0.835179
O O10 0.866401 0.567888 0.003017
O O11 0.678465 0.544381 0.666295
O O12 0.150734 0.537260 0.850311
O O13 0.921291 0.665597 0.819393
O O14 0.296127 0.869559 0.259653
#
# Coordination Sequence:
#
# PCOD8051974 Si02
#       7
#     4   4   4   4   4   4   4
#     4  12  26  45  71 104 140 187 243 293 360 434
#     4  12  25  46  70 101 143 186 239 298 361 421
#     4  11  24  45  73 106 145 185 243 298 354 439
#     4  11  24  47  68 100 141 184 234 302 349 424
#     4  12  23  46  74 104 145 187 241 295 366 420
#     4  11  24  46  75  96 145 187 232 297 353 428
#     4  11  25  46  70 105 142 192 237 297 358 430
#
# _framework density 23.228974000000001
#
# number of rings (size 3 to 8) (size 9 to 14) (size 15 to 20)
#    0.000    0.571    7.143    1.286    2.000    2.857 
#    2.571    0.000    0.000    0.000    0.000    0.000 
#    0.000    0.000    0.000    0.000    0.000    0.000 
#
# Total GULP energy -173593.031425 kJ/mol
# GULP energy per Si atom -12399.502245 kJ/mol
# Density = 2.317610 g / cm^3
# Si number density = 23.228974 Si / 1000 Ang^3
#
#
#
# Elastic Constant Matrix: (Units=GPa)
#
#
# Indices 1 2 3 4 5 6 
#
# 1 122.6742 10.4336 28.0958 0.0000 -14.9429 0.0000
# 2 10.4336 51.8874 9.4091 0.0000 -1.5296 0.0000
# 3 28.0958 9.4091 113.3632 0.0000 -7.0259 0.0000
# 4 0.0000 0.0000 0.0000 33.1071 0.0000 -5.2345
# 5 -14.9429 -1.5296 -7.0259 0.0000 30.1827 0.0000
# 6 0.0000 0.0000 0.0000 -5.2345 0.0000 38.6923
#
#
#
# Elastic Compliance Matrix: (Units=1/GPa)
#
#
# Indices 1 2 3 4 5 6 
#
# 1 0.009200 -0.001384 -0.001915 0.000000 0.004039 0.000000
# 2 -0.001384 0.019787 -0.001298 0.000000 0.000015 0.000000
# 3 -0.001915 -0.001298 0.009477 0.000000 0.001192 0.000000
# 4 0.000000 0.000000 0.000000 0.030865 0.000000 0.004176
# 5 0.004039 0.000015 0.001192 0.000000 0.035409 0.000000
# 6 0.000000 0.000000 0.000000 0.004176 0.000000 0.026410
#
#
# Mechanical properties :
#
#
# Convention : Reuss Voigt Hill
#
# Bulk Modulus (GPa) = 34.16463 42.64465 38.40464
# Shear Modulus (GPa) = 33.31134 36.39551 34.85342
#
# Velocity S-wave (km/s) = 3.79098 3.96260 3.87774
# Velocity P-wave (km/s) = 5.82252 6.27172 6.05129
#
# Compressibility (1/GPa) = 0.02927004
#
# Stress axis : x y z
#
# Youngs Moduli (GPa) = 108.69699 50.53921 105.51342
#
# Poissons Ratio (x) = 0.06993 0.20205
# Poissons Ratio (y) = 0.15039 0.13700
# Poissons Ratio (z) = 0.20815 0.06562
#
# Static dielectric constant tensor:
#      x y z
#    x 4.092580 0.000000 -0.128820 
#    y 0.000000 4.210950 0.000000 
#    z -0.128820 0.000000 4.283720 
# 
# 
# High freq. dielectric constant tensor:
#      x y z
#    x 1.913790 0.000000 -0.010640 
#    y 0.000000 1.921160 0.000000 
#    z -0.010640 0.000000 1.918560 
# 
# From -- ./inp_files/52495.got.cif
#   From: 2010.03.12/outbox.cif.g09.slc.cpg/sg5_27_cif.got.tgz:52495.got - 2010.03.31 09:47:26.
