data_PCOD8051400
_publ_section_title
;
Structure prediction by ZEFSAII (Michael W. Deem and Ramdas Pophale) SiO2 
 PCOD8051400
Probable space group: C 2
;
_chemical_formula_sum "Si O2"
_cell_formula_units_Z 20
_cell_length_a 10.107806
_cell_length_b 9.475129
_cell_length_c 16.925739
_cell_angle_alpha 90.000000
_cell_angle_beta 147.289125
_cell_angle_gamma 90.000000
_cell_volume 876.001876
_symmetry_space_group_name_H-M "C 2"
_symmetry_group_IT_number 5
_symmetry_cell_setting 'monoclinic'
loop_
_space_group_symop_operation_xyz
x,y,z
-x,y,-z
1/2+x,1/2+y,z
1/2-x,1/2+y,-z
loop_
_atom_site_type_symbol
_atom_site_label
_atom_site_fract_x
_atom_site_fract_y
_atom_site_fract_z
Si Si1 0.473857 0.994190 0.136196
Si Si2 0.571530 0.844482 0.448706
Si Si3 0.550373 0.665863 0.852778
Si Si4 0.485483 0.560560 0.646771
Si Si5 0.765924 0.002316 0.832997
O O1 0.396508 0.830591 0.108223
O O2 0.743435 0.012137 0.238937
O O3 0.433475 0.061611 0.203659
O O4 0.293605 0.072117 0.985257
O O5 0.500000 0.891836 0.500000
O O6 0.613379 0.677193 0.464398
O O7 0.347821 0.877092 0.276384
O O8 0.818200 0.924565 0.549135
O O9 0.453905 0.628252 0.717500
O O10 0.344724 0.628257 0.814563
O O11 0.000000 0.943427 0.000000
#
# Coordination Sequence:
#
# PCOD8051400 Si02
#       5
#     4   4   4   4   4
#     4  11  27  45  78 109 147 191 250 300 370 433
#     4  12  28  47  74 106 149 198 246 304 368 430
#     4  11  25  48  74 109 150 192 242 309 365 436
#     4  12  29  46  75 106 151 196 252 295 367 441
#     4  10  24  48  74 102 146 190 240 306 360 427
#
# _framework density 22.831001000000001
#
# number of rings (size 3 to 8) (size 9 to 14) (size 15 to 20)
#    0.000    0.800    4.000    0.600   11.200    4.800 
#    0.000    0.000    0.000    0.000    0.000    0.000 
#    0.000    0.000    0.000    0.000    0.000    0.000 
#
# Total GULP energy -124002.785852 kJ/mol
# GULP energy per Si atom -12400.278585 kJ/mol
# Density = 2.277904 g / cm^3
# Si number density = 22.831001 Si / 1000 Ang^3
#
#
#
# Elastic Constant Matrix: (Units=GPa)
#
#
# Indices 1 2 3 4 5 6 
#
# 1 138.6204 30.1358 40.6064 0.0002 4.5127 0.0000
# 2 30.1358 117.5314 43.1811 0.0003 20.7331 0.0001
# 3 40.6064 43.1811 97.3545 0.0015 -4.8614 0.0004
# 4 0.0002 0.0003 0.0015 37.4027 0.0004 2.4106
# 5 4.5127 20.7331 -4.8614 0.0004 34.3333 0.0001
# 6 0.0000 0.0001 0.0004 2.4106 0.0001 32.4639
#
#
#
# Elastic Compliance Matrix: (Units=1/GPa)
#
#
# Indices 1 2 3 4 5 6 
#
# 1 0.008354 -0.000778 -0.003193 0.000000 -0.001080 0.000000
# 2 -0.000778 0.012119 -0.005450 0.000000 -0.007988 0.000000
# 3 -0.003193 -0.005450 0.014307 -0.000001 0.005736 0.000000
# 4 0.000000 0.000000 -0.000001 0.026865 -0.000001 -0.001995
# 5 -0.001080 -0.007988 0.005736 -0.000001 0.034904 0.000000
# 6 0.000000 0.000000 0.000000 -0.001995 0.000000 0.030952
#
#
# Mechanical properties :
#
#
# Convention : Reuss Voigt Hill
#
# Bulk Modulus (GPa) = 62.74278 64.59476 63.66877
# Shear Modulus (GPa) = 32.96955 36.81219 34.89087
#
# Velocity S-wave (km/s) = 3.80421 4.01980 3.91349
# Velocity P-wave (km/s) = 6.84376 7.06392 6.95472
#
# Compressibility (1/GPa) = 0.01593809
#
# Stress axis : x y z
#
# Youngs Moduli (GPa) = 119.70823 82.51335 69.89494
#
# Poissons Ratio (x) = 0.06422 0.22318
# Poissons Ratio (y) = 0.09317 0.38091
# Poissons Ratio (z) = 0.38223 0.44967
#
# Static dielectric constant tensor:
#      x y z
#    x 4.487100 0.000000 -0.131880 
#    y 0.000000 3.947830 0.000000 
#    z -0.131880 0.000000 4.047750 
# 
# 
# High freq. dielectric constant tensor:
#      x y z
#    x 1.925350 0.000000 -0.006580 
#    y 0.000000 1.893730 0.000000 
#    z -0.006580 0.000000 1.899180 
# 
# From -- ./inp_files/38225.got.cif
#   From: 2010.03.12/outbox.cif.g09.slc.cpg/sg5_20_cif.got.tgz:38225.got - 2010.03.31 09:47:26.
