data_PCOD8051405
_publ_section_title
;
Structure prediction by ZEFSAII (Michael W. Deem and Ramdas Pophale) SiO2 
 PCOD8051405
Probable space group: C 2
;
_chemical_formula_sum "Si O2"
_cell_formula_units_Z 20
_cell_length_a 20.040568
_cell_length_b 5.393185
_cell_length_c 8.381339
_cell_angle_alpha 90.000000
_cell_angle_beta 115.801072
_cell_angle_gamma 90.000000
_cell_volume 815.569786
_symmetry_space_group_name_H-M "C 2"
_symmetry_group_IT_number 5
_symmetry_cell_setting 'monoclinic'
loop_
_space_group_symop_operation_xyz
x,y,z
-x,y,-z
1/2+x,1/2+y,z
1/2-x,1/2+y,-z
loop_
_atom_site_type_symbol
_atom_site_label
_atom_site_fract_x
_atom_site_fract_y
_atom_site_fract_z
Si Si1 0.641079 0.428080 0.636637
Si Si2 0.697039 0.876287 0.170242
Si Si3 0.000000 0.589588 0.500000
Si Si4 0.850098 0.863089 0.719059
Si Si5 0.000000 0.952854 0.000000
Si Si6 0.925396 0.287497 0.187206
O O1 0.718281 0.353455 0.804035
O O2 0.577336 0.228033 0.583332
O O3 0.660046 0.457128 0.470903
O O4 0.610953 0.671420 0.691599
O O5 0.676208 0.603228 0.210474
O O6 0.694779 0.108431 0.292981
O O7 0.639882 0.943714 0.967571
O O8 0.004870 0.441599 0.672185
O O9 0.935408 0.791515 0.851323
O O10 0.036938 0.104811 0.896666
#
# Coordination Sequence:
#
# PCOD8051405 Si02
#       6
#     4   4   2   4   2   4
#     4  12  28  48  76 114 155 201 263 319 386 464
#     4  11  29  48  80 112 161 199 261 311 398 453
#     4  12  28  44  78 110 150 208 254 328 378 460
#     4  11  26  48  78 113 153 209 249 322 383 465
#     4  10  24  48  74 110 154 198 266 316 384 462
#     4  11  28  47  76 114 152 209 255 328 382 467
#
# _framework density 24.522729999999999
#
# number of rings (size 3 to 8) (size 9 to 14) (size 15 to 20)
#    0.000    0.800    0.000    4.200   22.400    0.800 
#    0.000    0.000    0.000    0.000    0.000    0.000 
#    0.000    0.000    0.000    0.000    0.000    0.000 
#
# Total GULP energy -123901.001213 kJ/mol
# GULP energy per Si atom -12390.100121 kJ/mol
# Density = 2.446691 g / cm^3
# Si number density = 24.522730 Si / 1000 Ang^3
#
#
#
# Elastic Constant Matrix: (Units=GPa)
#
#
# Indices 1 2 3 4 5 6 
#
# 1 125.4643 39.8318 47.4144 0.0000 22.5194 0.0000
# 2 39.8318 101.5853 21.2628 0.0000 -4.1767 0.0000
# 3 47.4144 21.2628 129.0638 0.0000 12.0748 0.0000
# 4 0.0000 0.0000 0.0000 33.2967 0.0000 -0.6327
# 5 22.5194 -4.1767 12.0748 0.0000 46.6097 0.0000
# 6 0.0000 0.0000 0.0000 -0.6327 0.0000 191.7172
#
#
#
# Elastic Compliance Matrix: (Units=1/GPa)
#
#
# Indices 1 2 3 4 5 6 
#
# 1 0.011282 -0.003999 -0.003015 0.000000 -0.005028 0.000000
# 2 -0.003999 0.011701 -0.000756 0.000000 0.003177 0.000000
# 3 -0.003015 -0.000756 0.009070 0.000000 -0.000961 0.000000
# 4 0.000000 0.000000 0.000000 0.030035 0.000000 0.000099
# 5 -0.005028 0.003177 -0.000961 0.000000 0.024418 0.000000
# 6 0.000000 0.000000 0.000000 0.000099 0.000000 0.005216
#
#
# Mechanical properties :
#
#
# Convention : Reuss Voigt Hill
#
# Bulk Modulus (GPa) = 60.56033 63.68126 62.12080
# Shear Modulus (GPa) = 44.33920 70.83169 57.58544
#
# Velocity S-wave (km/s) = 4.25677 5.38022 4.85113
# Velocity P-wave (km/s) = 6.99352 8.03868 7.53425
#
# Compressibility (1/GPa) = 0.01651246
#
# Stress axis : x y z
#
# Youngs Moduli (GPa) = 88.63550 85.46382 110.25052
#
# Poissons Ratio (x) = 0.34180 0.33246
# Poissons Ratio (y) = 0.35448 0.08331
# Poissons Ratio (z) = 0.26728 0.06458
#
# Static dielectric constant tensor:
#      x y z
#    x 4.590310 0.000000 0.369920 
#    y 0.000000 4.151360 0.000000 
#    z 0.369920 0.000000 5.747670 
# 
# 
# High freq. dielectric constant tensor:
#      x y z
#    x 1.984640 0.000000 0.017710 
#    y 0.000000 1.959420 0.000000 
#    z 0.017710 0.000000 2.001130 
# 
# From -- ./inp_files/28134.got.cif
#   From: 2010.03.12/outbox.cif.g09.slc.cpg/sg5_15_cif.got.tgz:28134.got - 2010.03.31 09:47:26.
