data_PCOD8051178
_publ_section_title
;
Structure prediction by ZEFSAII (Michael W. Deem and Ramdas Pophale) SiO2 
 PCOD8051178
Probable space group: C 2
;
_chemical_formula_sum "Si O2"
_cell_formula_units_Z 16
_cell_length_a 14.188505
_cell_length_b 4.909542
_cell_length_c 11.604657
_cell_angle_alpha 90.000000
_cell_angle_beta 117.921449
_cell_angle_gamma 90.000000
_cell_volume 714.267538
_symmetry_space_group_name_H-M "C 2"
_symmetry_group_IT_number 5
_symmetry_cell_setting 'monoclinic'
loop_
_space_group_symop_operation_xyz
x,y,z
-x,y,-z
1/2+x,1/2+y,z
1/2-x,1/2+y,-z
loop_
_atom_site_type_symbol
_atom_site_label
_atom_site_fract_x
_atom_site_fract_y
_atom_site_fract_z
Si Si1 0.713067 0.112530 0.414344
Si Si2 0.208321 0.586840 0.157660
Si Si3 0.380835 0.821349 0.093609
Si Si4 0.523858 0.317724 0.180417
O O1 0.791809 0.346524 0.507833
O O2 0.752079 0.008096 0.309814
O O3 0.596021 0.252276 0.335343
O O4 0.298195 0.763560 0.147119
O O5 0.097726 0.762280 0.109425
O O6 0.180503 0.317669 0.065565
O O7 0.484649 0.629052 0.155914
O O8 0.419234 0.131511 0.129979
#
# Coordination Sequence:
#
# PCOD8051178 Si02
#       4
#     4   4   4   4
#     4  10  23  47  68  94 136 184 224 272 333 392
#     4  10  27  41  72  99 143 171 217 295 323 409
#     4  12  23  45  65 108 130 175 225 270 358 387
#     4  10  26  42  70  98 136 178 220 277 338 401
#
# _framework density 22.400569999999998
#
# number of rings (size 3 to 8) (size 9 to 14) (size 15 to 20)
#    1.500    0.000    0.000    3.750    0.000   16.000 
#    0.000    7.500    0.000    0.000    0.000    0.000 
#    0.000    0.000    0.000    0.000    0.000    0.000 
#
# Total GULP energy -99145.683015 kJ/mol
# GULP energy per Si atom -12393.210377 kJ/mol
# Density = 2.234959 g / cm^3
# Si number density = 22.400570 Si / 1000 Ang^3
#
#
#
# Elastic Constant Matrix: (Units=GPa)
#
#
# Indices 1 2 3 4 5 6 
#
# 1 108.3538 -10.6842 24.2673 0.0000 -9.1455 0.0000
# 2 -10.6842 48.6587 29.9465 0.0000 4.4454 0.0000
# 3 24.2673 29.9465 152.2475 0.0000 -6.1431 0.0000
# 4 0.0000 0.0000 0.0000 49.4254 0.0000 8.3461
# 5 -9.1455 4.4454 -6.1431 0.0000 20.8212 0.0000
# 6 0.0000 0.0000 0.0000 8.3461 0.0000 26.8915
#
#
#
# Elastic Compliance Matrix: (Units=1/GPa)
#
#
# Indices 1 2 3 4 5 6 
#
# 1 0.010308 0.003305 -0.002165 0.000000 0.003184 0.000000
# 2 0.003305 0.025323 -0.005736 0.000000 -0.005647 0.000000
# 3 -0.002165 -0.005736 0.008150 0.000000 0.002678 0.000000
# 4 0.000000 0.000000 0.000000 0.021352 0.000000 -0.006627
# 5 0.003184 -0.005647 0.002678 0.000000 0.051422 0.000000
# 6 0.000000 0.000000 0.000000 -0.006627 0.000000 0.039243
#
#
# Mechanical properties :
#
#
# Convention : Reuss Voigt Hill
#
# Bulk Modulus (GPa) = 28.91011 44.03548 36.47279
# Shear Modulus (GPa) = 28.32568 37.14298 32.73433
#
# Velocity S-wave (km/s) = 3.55985 4.07643 3.82686
# Velocity P-wave (km/s) = 5.46175 6.46972 5.98698
#
# Compressibility (1/GPa) = 0.03458997
#
# Stress axis : x y z
#
# Youngs Moduli (GPa) = 97.00805 39.49014 122.70682
#
# Poissons Ratio (x) = -0.13051 0.26562
# Poissons Ratio (y) = -0.32060 0.70379
# Poissons Ratio (z) = 0.20999 0.22650
#
# Static dielectric constant tensor:
#      x y z
#    x 3.757130 0.000000 0.148770 
#    y 0.000000 3.733340 0.000000 
#    z 0.148770 0.000000 4.162260 
# 
# 
# High freq. dielectric constant tensor:
#      x y z
#    x 1.867850 0.000000 0.011560 
#    y 0.000000 1.878640 0.000000 
#    z 0.011560 0.000000 1.883570 
# 
# From -- ./inp_files/37789.got.cif
#   From: 2010.03.12/outbox.cif.g09.slc.cpg/sg5_19_cif.got.tgz:37789.got - 2010.03.31 09:47:26.
