data_PCOD8051568
_publ_section_title
;
Structure prediction by ZEFSAII (Michael W. Deem and Ramdas Pophale) SiO2 
 PCOD8051568
Probable space group: C 2
;
_chemical_formula_sum "Si O2"
_cell_formula_units_Z 24
_cell_length_a 14.772769
_cell_length_b 12.665339
_cell_length_c 11.573996
_cell_angle_alpha 90.000000
_cell_angle_beta 29.484962
_cell_angle_gamma 90.000000
_cell_volume 1065.857991
_symmetry_space_group_name_H-M "C 2"
_symmetry_group_IT_number 5
_symmetry_cell_setting 'monoclinic'
loop_
_space_group_symop_operation_xyz
x,y,z
-x,y,-z
1/2+x,1/2+y,z
1/2-x,1/2+y,-z
loop_
_atom_site_type_symbol
_atom_site_label
_atom_site_fract_x
_atom_site_fract_y
_atom_site_fract_z
Si Si1 0.500000 0.104620 0.500000
Si Si2 0.000000 0.262729 0.500000
Si Si3 0.900286 0.942848 0.293164
Si Si4 0.274918 0.664963 0.373505
Si Si5 0.663747 0.222678 0.739003
Si Si6 0.821937 0.431709 0.856179
Si Si7 0.938404 0.385898 0.192926
O O1 0.642536 0.179224 0.409888
O O2 0.394608 0.035570 0.712149
O O3 0.139686 0.192831 0.421477
O O4 0.129440 0.329995 0.272628
O O5 0.849715 0.850384 0.258212
O O6 0.760809 0.935178 0.556225
O O7 0.876128 0.052360 0.251224
O O8 0.104062 0.933897 0.116383
O O9 0.151996 0.668596 0.626873
O O10 0.424934 0.758068 0.207960
O O11 0.500000 0.178162 0.000000
O O12 0.912057 0.423789 0.881403
O O13 0.000000 0.428388 0.000000
#
# Coordination Sequence:
#
# PCOD8051568 Si02
#       7
#     2   2   4   4   4   4   4
#     4  11  24  44  76 103 138 190 241 288 344 433
#     4  11  18  40  70  97 128 182 229 286 334 413
#     4  11  23  44  71 101 136 193 239 277 356 428
#     4  11  25  45  69 114 139 183 242 295 352 418
#     4  11  23  42  72 101 141 181 236 295 349 413
#     4  11  22  43  76  97 134 190 242 275 352 423
#     4  11  26  46  69 101 152 180 232 307 356 405
#
# _framework density 22.517071000000001
#
# number of rings (size 3 to 8) (size 9 to 14) (size 15 to 20)
#    0.000    1.000    6.667    1.000    2.333    4.000 
#    3.000    0.000    0.000    0.000    0.000    0.000 
#    0.000    0.000    0.000    0.000    0.000    0.000 
#
# Total GULP energy -148848.685844 kJ/mol
# GULP energy per Si atom -12404.057154 kJ/mol
# Density = 2.246582 g / cm^3
# Si number density = 22.517071 Si / 1000 Ang^3
#
#
#
# Elastic Constant Matrix: (Units=GPa)
#
#
# Indices 1 2 3 4 5 6 
#
# 1 198.4586 32.6094 80.1043 0.0006 -10.4881 -0.0006
# 2 32.6094 61.3049 0.7812 0.0007 -16.2056 -0.0007
# 3 80.1043 0.7812 138.2040 0.0006 -16.5947 -0.0005
# 4 0.0006 0.0007 0.0006 4.9532 -0.0005 -4.8303
# 5 -10.4881 -16.2056 -16.5947 -0.0005 47.2269 0.0005
# 6 -0.0006 -0.0007 -0.0005 -4.8303 0.0005 32.0674
#
#
#
# Elastic Compliance Matrix: (Units=1/GPa)
#
#
# Indices 1 2 3 4 5 6 
#
# 1 0.007476 -0.004285 -0.004475 0.000000 -0.001383 0.000000
# 2 -0.004285 0.020454 0.003233 -0.000002 0.007203 0.000000
# 3 -0.004475 0.003233 0.010258 -0.000001 0.003720 0.000000
# 4 0.000000 -0.000002 -0.000001 0.236649 0.000001 0.035646
# 5 -0.001383 0.007203 0.003720 0.000001 0.024646 0.000000
# 6 0.000000 0.000000 0.000000 0.035646 0.000000 0.036554
#
#
# Mechanical properties :
#
#
# Convention : Reuss Voigt Hill
#
# Bulk Modulus (GPa) = 36.85442 69.43971 53.14707
# Shear Modulus (GPa) = 14.03959 35.81435 24.92697
#
# Velocity S-wave (km/s) = 2.49972 3.99249 3.33081
# Velocity P-wave (km/s) = 4.97336 7.22211 6.20054
#
# Compressibility (1/GPa) = 0.02713378
#
# Stress axis : x y z
#
# Youngs Moduli (GPa) = 133.75871 48.88975 97.48629
#
# Poissons Ratio (x) = 0.20950 0.43625
# Poissons Ratio (y) = 0.57318 -0.31517
# Poissons Ratio (z) = 0.59857 -0.15806
#
# Static dielectric constant tensor:
#      x y z
#    x 4.127440 0.000000 -0.010260 
#    y 0.000000 3.901790 0.000000 
#    z -0.010260 0.000000 4.116810 
# 
# 
# High freq. dielectric constant tensor:
#      x y z
#    x 1.893630 0.000000 0.000660 
#    y 0.000000 1.866230 0.000000 
#    z 0.000660 0.000000 1.890950 
# 
# From -- ./inp_files/43040.got.cif
#   From: 2010.03.12/outbox.cif.g09.slc.cpg/sg5_22_cif.got.tgz:43040.got - 2010.03.31 09:47:26.
