data_PCOD8051338
_publ_section_title
;
Structure prediction by ZEFSAII (Michael W. Deem and Ramdas Pophale) SiO2 
 PCOD8051338
Probable space group: C 2
;
_chemical_formula_sum "Si O2"
_cell_formula_units_Z 32
_cell_length_a 12.166789
_cell_length_b 14.671188
_cell_length_c 17.385821
_cell_angle_alpha 90.000000
_cell_angle_beta 30.426167
_cell_angle_gamma 90.000000
_cell_volume 1571.642801
_symmetry_space_group_name_H-M "C 2"
_symmetry_group_IT_number 5
_symmetry_cell_setting 'monoclinic'
loop_
_space_group_symop_operation_xyz
x,y,z
-x,y,-z
1/2+x,1/2+y,z
1/2-x,1/2+y,-z
loop_
_atom_site_type_symbol
_atom_site_label
_atom_site_fract_x
_atom_site_fract_y
_atom_site_fract_z
Si Si1 0.881328 0.254840 0.148816
Si Si2 0.613482 0.855978 0.574131
Si Si3 0.270477 0.238503 0.169690
Si Si4 0.747406 0.909871 0.659348
Si Si5 0.932489 0.602213 0.197450
Si Si6 0.810655 0.538612 0.556373
Si Si7 0.101072 0.125829 0.133662
Si Si8 0.926461 0.686152 0.366877
O O1 0.856373 0.343924 0.215430
O O2 0.653222 0.208492 0.269141
O O3 0.028049 0.180634 0.102723
O O4 0.000000 0.286781 0.000000
O O5 0.365502 0.822224 0.712605
O O6 0.631969 0.895837 0.648053
O O7 0.777344 0.774377 0.460373
O O8 0.661627 0.933824 0.483243
O O9 0.305149 0.163178 0.213478
O O10 0.127114 0.196337 0.187867
O O11 0.500000 0.276253 0.000000
O O12 0.000000 0.888271 0.500000
O O13 0.711408 0.012746 0.707633
O O14 0.957877 0.657887 0.260271
O O15 0.171387 0.576049 0.021680
O O16 0.576956 0.549503 0.738084
O O17 0.815375 0.603282 0.479204
O O18 0.000000 0.569095 0.500000
#
# Coordination Sequence:
#
# PCOD8051338 Si02
#       8
#     4   4   4   4   4   4   4   4
#     4  12  24  43  75 104 135 180 235 289 348 409
#     4  12  26  44  68 103 141 181 233 283 346 410
#     4  10  24  45  70  94 137 187 222 276 350 410
#     4  12  26  45  69 104 137 177 231 296 341 408
#     4  11  27  45  69  99 140 184 231 279 351 407
#     4  12  26  44  71 103 136 187 231 282 346 410
#     4  11  23  47  70  98 139 181 225 285 342 414
#     4  12  24  44  71 101 136 183 232 283 343 412
#
# _framework density 20.360859999999999
#
# number of rings (size 3 to 8) (size 9 to 14) (size 15 to 20)
#    0.000    0.500    7.500    0.000    5.250    2.500 
#    2.250    0.625    0.000    0.000    0.000    0.000 
#    0.000    0.000    0.000    0.000    0.000    0.000 
#
# Total GULP energy -198504.714668 kJ/mol
# GULP energy per Si atom -12406.544667 kJ/mol
# Density = 2.031452 g / cm^3
# Si number density = 20.360860 Si / 1000 Ang^3
#
#
#
# Elastic Constant Matrix: (Units=GPa)
#
#
# Indices 1 2 3 4 5 6 
#
# 1 70.2432 7.4740 37.7965 -0.0042 2.9117 0.0030
# 2 7.4740 91.1495 49.6872 -0.0172 4.3838 0.0063
# 3 37.7965 49.6872 120.3249 0.0404 1.8668 0.0044
# 4 -0.0042 -0.0172 0.0404 17.2009 -0.0080 0.5458
# 5 2.9117 4.3838 1.8668 -0.0080 36.0950 -0.0023
# 6 0.0030 0.0063 0.0044 0.5458 -0.0023 32.5293
#
#
#
# Elastic Compliance Matrix: (Units=1/GPa)
#
#
# Indices 1 2 3 4 5 6 
#
# 1 0.017475 0.002081 -0.006328 0.000021 -0.001335 -0.000002
# 2 0.002081 0.014479 -0.006608 0.000030 -0.001585 -0.000003
# 3 -0.006328 -0.006608 0.013017 -0.000038 0.000640 0.000001
# 4 0.000021 0.000030 -0.000038 0.058168 0.000010 -0.000976
# 5 -0.001335 -0.001585 0.000640 0.000010 0.027972 0.000002
# 6 -0.000002 -0.000003 0.000001 -0.000976 0.000002 0.030758
#
#
# Mechanical properties :
#
#
# Convention : Reuss Voigt Hill
#
# Bulk Modulus (GPa) = 42.99026 52.40369 47.69697
# Shear Modulus (GPa) = 26.13260 29.61568 27.87414
#
# Velocity S-wave (km/s) = 3.58644 3.81798 3.70402
# Velocity P-wave (km/s) = 6.18952 6.72527 6.46295
#
# Compressibility (1/GPa) = 0.02326109
#
# Stress axis : x y z
#
# Youngs Moduli (GPa) = 57.22440 69.06726 76.82110
#
# Poissons Ratio (x) = -0.14371 0.48611
# Poissons Ratio (y) = -0.11907 0.50762
# Poissons Ratio (z) = 0.36210 0.45639
#
# Static dielectric constant tensor:
#      x y z
#    x 3.845840 -0.000020 0.042340 
#    y -0.000020 3.541490 0.000070 
#    z 0.042340 0.000070 3.919280 
# 
# 
# High freq. dielectric constant tensor:
#      x y z
#    x 1.811500 0.000000 0.000990 
#    y 0.000000 1.787880 0.000000 
#    z 0.000990 0.000000 1.811220 
# 
# From -- ./inp_files/31052.got.cif
#   From: 2010.03.12/outbox.cif.g09.slc.cpg/sg5_16_cif.got.tgz:31052.got - 2010.03.31 09:47:26.
