data_PCOD8051379
_publ_section_title
;
Structure prediction by ZEFSAII (Michael W. Deem and Ramdas Pophale) SiO2 
 PCOD8051379
Probable space group: C 2
;
_chemical_formula_sum "Si O2"
_cell_formula_units_Z 32
_cell_length_a 11.677219
_cell_length_b 8.077007
_cell_length_c 27.834334
_cell_angle_alpha 90.000000
_cell_angle_beta 33.860828
_cell_angle_gamma 90.000000
_cell_volume 1462.730447
_symmetry_space_group_name_H-M "C 2"
_symmetry_group_IT_number 5
_symmetry_cell_setting 'monoclinic'
loop_
_space_group_symop_operation_xyz
x,y,z
-x,y,-z
1/2+x,1/2+y,z
1/2-x,1/2+y,-z
loop_
_atom_site_type_symbol
_atom_site_label
_atom_site_fract_x
_atom_site_fract_y
_atom_site_fract_z
Si Si1 0.414812 0.656220 0.397940
Si Si2 0.208372 0.240317 0.653135
Si Si3 0.272424 0.606652 0.600857
Si Si4 0.316659 0.267684 0.031181
Si Si5 0.499450 0.052656 0.115483
Si Si6 0.586133 0.284385 0.580949
Si Si7 0.376231 0.559771 0.820558
Si Si8 0.336135 0.251703 0.258674
O O1 0.287702 0.614581 0.393620
O O2 0.475081 0.477467 0.398388
O O3 0.293709 0.763490 0.478861
O O4 0.611578 0.767854 0.312142
O O5 0.218852 0.414666 0.622224
O O6 0.399552 0.192382 0.619592
O O7 0.999497 0.216975 0.756433
O O8 0.500000 0.634611 0.500000
O O9 0.107688 0.702580 0.625356
O O10 0.239346 0.676761 0.664961
O O11 0.226181 0.116896 0.094116
O O12 0.147441 0.398484 0.073564
O O13 0.500000 0.349140 0.000000
O O14 0.398967 0.192999 0.952855
O O15 0.290862 0.994571 0.160466
O O16 0.464479 0.126429 0.180721
O O17 0.538024 0.417482 0.777065
#
# Coordination Sequence:
#
# PCOD8051379 Si02
#       8
#     4   4   4   4   4   4   4   4
#     4  12  25  45  66  96 138 185 243 294 346 404
#     4  12  25  44  67 100 135 185 238 290 346 407
#     4  12  25  45  66  95 138 185 242 297 345 404
#     4  10  24  46  77 105 135 175 218 277 347 426
#     4  11  24  49  72 105 143 170 227 282 345 425
#     4  12  26  44  66  93 137 186 240 300 342 404
#     4  11  26  43  70 106 141 181 228 281 349 422
#     4  12  25  45  68 100 143 184 231 286 344 408
#
# _framework density 21.876895000000001
#
# number of rings (size 3 to 8) (size 9 to 14) (size 15 to 20)
#    0.000    0.500    3.750    4.125    3.500    2.000 
#    0.000    0.000    0.000    0.000    0.000    0.000 
#    0.000    0.000    0.000    0.000    0.000    0.000 
#
# Total GULP energy -198330.596152 kJ/mol
# GULP energy per Si atom -12395.662260 kJ/mol
# Density = 2.182710 g / cm^3
# Si number density = 21.876895 Si / 1000 Ang^3
#
#
#
# Elastic Constant Matrix: (Units=GPa)
#
#
# Indices 1 2 3 4 5 6 
#
# 1 139.6432 61.9371 61.3891 0.0000 -12.4857 -0.0027
# 2 61.9371 78.0042 51.9845 0.0013 -17.3066 -0.0025
# 3 61.3891 51.9845 130.3219 -0.0002 0.6744 -0.0005
# 4 0.0000 0.0013 -0.0002 42.0532 -0.0004 -4.4525
# 5 -12.4857 -17.3066 0.6744 -0.0004 41.2639 -0.0007
# 6 -0.0027 -0.0025 -0.0005 -4.4525 -0.0007 34.4367
#
#
#
# Elastic Compliance Matrix: (Units=1/GPa)
#
#
# Indices 1 2 3 4 5 6 
#
# 1 0.011603 -0.007457 -0.002493 0.000000 0.000424 0.000000
# 2 -0.007457 0.024881 -0.006455 -0.000001 0.008284 0.000001
# 3 -0.002493 -0.006455 0.011441 0.000000 -0.003649 -0.000001
# 4 0.000000 -0.000001 0.000000 0.024109 0.000000 0.003117
# 5 0.000424 0.008284 -0.003649 0.000000 0.027897 0.000001
# 6 0.000000 0.000001 -0.000001 0.003117 0.000001 0.029442
#
#
# Mechanical properties :
#
#
# Convention : Reuss Voigt Hill
#
# Bulk Modulus (GPa) = 66.16186 77.62119 71.89152
# Shear Modulus (GPa) = 29.90057 35.06134 32.48096
#
# Velocity S-wave (km/s) = 3.70099 4.00767 3.85738
# Velocity P-wave (km/s) = 6.96933 7.54806 7.26446
#
# Compressibility (1/GPa) = 0.01511445
#
# Stress axis : x y z
#
# Youngs Moduli (GPa) = 86.18810 40.19170 87.40231
#
# Poissons Ratio (x) = 0.29972 0.21790
# Poissons Ratio (y) = 0.64272 0.56417
# Poissons Ratio (z) = 0.21487 0.25943
#
# Static dielectric constant tensor:
#      x y z
#    x 4.424750 0.000000 -0.028130 
#    y 0.000000 3.789660 0.000000 
#    z -0.028130 0.000000 4.226290 
# 
# 
# High freq. dielectric constant tensor:
#      x y z
#    x 1.890880 0.000000 0.004240 
#    y 0.000000 1.841580 0.000000 
#    z 0.004240 0.000000 1.870550 
# 
# From -- ./inp_files/71740.got.cif
#   From: 2010.03.12/outbox.cif.g09.slc.cpg/sg5_36_cif.got.tgz:71740.got - 2010.03.31 09:47:26.
