data_PCOD8051598
_publ_section_title
;
Structure prediction by ZEFSAII (Michael W. Deem and Ramdas Pophale) SiO2 
 PCOD8051598
Probable space group: C 2
;
_chemical_formula_sum "Si O2"
_cell_formula_units_Z 32
_cell_length_a 16.615460
_cell_length_b 14.925639
_cell_length_c 11.753260
_cell_angle_alpha 90.000000
_cell_angle_beta 149.514603
_cell_angle_gamma 90.000000
_cell_volume 1478.715256
_symmetry_space_group_name_H-M "C 2"
_symmetry_group_IT_number 5
_symmetry_cell_setting 'monoclinic'
loop_
_space_group_symop_operation_xyz
x,y,z
-x,y,-z
1/2+x,1/2+y,z
1/2-x,1/2+y,-z
loop_
_atom_site_type_symbol
_atom_site_label
_atom_site_fract_x
_atom_site_fract_y
_atom_site_fract_z
Si Si1 0.646786 0.382360 0.475825
Si Si2 0.127149 0.281732 0.875443
Si Si3 0.802696 0.360740 0.431538
Si Si4 0.814527 0.219701 0.277497
Si Si5 0.183876 0.225901 0.193886
Si Si6 0.815037 0.024523 0.300481
Si Si7 0.325598 0.040318 0.322495
Si Si8 0.705658 0.452458 0.959483
O O1 0.684478 0.386497 0.388538
O O2 0.698681 0.285959 0.587024
O O3 0.738309 0.458649 0.662087
O O4 0.462088 0.403178 0.263097
O O5 0.212858 0.211884 0.892541
O O6 0.936003 0.292386 0.646382
O O7 0.204386 0.259478 0.089783
O O8 0.166527 0.376452 0.866240
O O9 0.722499 0.299280 0.233731
O O10 0.850660 0.456217 0.436836
O O11 0.000000 0.245983 0.500000
O O12 0.769707 0.125625 0.282036
O O13 0.237149 0.123097 0.276118
O O14 0.000000 0.237321 0.000000
O O15 0.733492 0.000585 0.081752
O O16 0.000000 0.020696 0.500000
O O17 0.500000 0.073287 0.500000
O O18 0.213038 0.017894 0.076831
#
# Coordination Sequence:
#
# PCOD8051598 Si02
#       8
#     4   4   4   4   4   4   4   4
#     4  11  25  40  65  97 135 172 218 278 336 396
#     4  11  20  41  70  88 128 179 218 269 332 393
#     4  11  22  42  65  94 134 173 219 273 336 392
#     4   9  18  36  64  90 118 165 221 267 312 391
#     4  12  27  44  68 101 137 178 223 281 344 397
#     4   9  19  37  63  94 121 161 219 266 322 392
#     4  12  26  44  68 101 135 178 229 276 330 407
#     4  11  22  41  69  93 128 177 219 272 333 393
#
# _framework density 21.640408000000001
#
# number of rings (size 3 to 8) (size 9 to 14) (size 15 to 20)
#    0.000    1.250    5.000    1.125    3.500    2.000 
#    0.000    0.000    0.000    1.500    0.000    0.000 
#    0.000    0.000    0.000    0.000    0.000    0.000 
#
# Total GULP energy -198221.003553 kJ/mol
# GULP energy per Si atom -12388.812722 kJ/mol
# Density = 2.159115 g / cm^3
# Si number density = 21.640408 Si / 1000 Ang^3
#
#
#
# Elastic Constant Matrix: (Units=GPa)
#
#
# Indices 1 2 3 4 5 6 
#
# 1 107.5838 41.7574 18.5473 0.0000 -21.4771 0.0000
# 2 41.7574 130.6737 19.2044 0.0000 -0.7164 0.0000
# 3 18.5473 19.2044 70.2824 0.0000 -7.4956 0.0000
# 4 0.0000 0.0000 0.0000 29.8616 0.0000 -1.3651
# 5 -21.4771 -0.7164 -7.4956 0.0000 25.9764 0.0000
# 6 0.0000 0.0000 0.0000 -1.3651 0.0000 26.5234
#
#
#
# Elastic Compliance Matrix: (Units=1/GPa)
#
#
# Indices 1 2 3 4 5 6 
#
# 1 0.013117 -0.003947 -0.001277 0.000000 0.010368 0.000000
# 2 -0.003947 0.009165 -0.001840 0.000000 -0.003542 0.000000
# 3 -0.001277 -0.001840 0.015425 0.000000 0.003344 0.000000
# 4 0.000000 0.000000 0.000000 0.033567 0.000000 0.001728
# 5 0.010368 -0.003542 0.003344 0.000000 0.047936 0.000000
# 6 0.000000 0.000000 0.000000 0.001728 0.000000 0.037791
#
#
# Mechanical properties :
#
#
# Convention : Reuss Voigt Hill
#
# Bulk Modulus (GPa) = 42.41353 51.95091 47.18222
# Shear Modulus (GPa) = 27.93462 31.74101 29.83782
#
# Velocity S-wave (km/s) = 3.59674 3.83397 3.71725
# Velocity P-wave (km/s) = 6.07376 6.60739 6.34619
#
# Compressibility (1/GPa) = 0.02357738
#
# Stress axis : x y z
#
# Youngs Moduli (GPa) = 76.23711 109.11069 64.83012
#
# Poissons Ratio (x) = 0.43066 0.08281
# Poissons Ratio (y) = 0.30091 0.11931
# Poissons Ratio (z) = 0.09738 0.20081
#
# Static dielectric constant tensor:
#      x y z
#    x 3.955060 0.000000 -0.421380 
#    y 0.000000 3.947530 0.000000 
#    z -0.421380 0.000000 3.815020 
# 
# 
# High freq. dielectric constant tensor:
#      x y z
#    x 1.839610 0.000000 -0.027800 
#    y 0.000000 1.857080 0.000000 
#    z -0.027800 0.000000 1.834010 
# 
# From -- ./inp_files/45006.got.cif
#   From: 2010.03.12/outbox.cif.g09.slc.cpg/sg5_23_cif.got.tgz:45006.got - 2010.03.31 09:47:26.
