data_PCOD8051469
_publ_section_title
;
Structure prediction by ZEFSAII (Michael W. Deem and Ramdas Pophale) SiO2 
 PCOD8051469
Probable space group: C 2
;
_chemical_formula_sum "Si O2"
_cell_formula_units_Z 18
_cell_length_a 18.604880
_cell_length_b 7.628663
_cell_length_c 5.187568
_cell_angle_alpha 90.000000
_cell_angle_beta 89.117226
_cell_angle_gamma 90.000000
_cell_volume 736.186004
_symmetry_space_group_name_H-M "C 2"
_symmetry_group_IT_number 5
_symmetry_cell_setting 'monoclinic'
loop_
_space_group_symop_operation_xyz
x,y,z
-x,y,-z
1/2+x,1/2+y,z
1/2-x,1/2+y,-z
loop_
_atom_site_type_symbol
_atom_site_label
_atom_site_fract_x
_atom_site_fract_y
_atom_site_fract_z
Si Si1 0.883069 0.949530 0.314682
Si Si2 0.164855 0.315247 0.548455
Si Si3 0.739410 0.909120 0.059271
Si Si4 0.500000 0.272710 0.000000
Si Si5 0.370589 0.148090 0.700296
O O1 0.961772 0.897042 0.212168
O O2 0.859092 0.832387 0.558811
O O3 0.887115 0.151044 0.402629
O O4 0.825505 0.929581 0.083680
O O5 0.220087 0.341038 0.779185
O O6 0.118046 0.492392 0.511595
O O7 0.211310 0.276251 0.285884
O O8 0.699367 0.098461 0.118300
O O9 0.558216 0.148314 0.130166
#
# Coordination Sequence:
#
# PCOD8051469 Si02
#       5
#     4   4   4   2   4
#     4  12  26  47  75 115 152 199 250 311 382 448
#     4  10  26  46  78 115 144 199 255 314 368 446
#     4  10  25  46  81 111 147 192 257 314 365 443
#     4  12  28  46  78 108 166 196 250 308 392 442
#     4  10  26  50  72 115 149 206 247 319 368 451
#
# _framework density 24.450343
#
# number of rings (size 3 to 8) (size 9 to 14) (size 15 to 20)
#    1.333    0.000    0.000    3.333   12.444    0.000 
#    0.000   16.667    0.000    0.000    0.000    0.000 
#    0.000    0.000    0.000    0.000    0.000    0.000 
#
# Total GULP energy -111585.847400 kJ/mol
# GULP energy per Si atom -12398.427489 kJ/mol
# Density = 2.439469 g / cm^3
# Si number density = 24.450343 Si / 1000 Ang^3
#
#
#
# Elastic Constant Matrix: (Units=GPa)
#
#
# Indices 1 2 3 4 5 6 
#
# 1 113.3064 10.0551 21.9155 0.0000 4.8596 0.0000
# 2 10.0551 113.8946 21.2616 0.0000 12.3727 0.0000
# 3 21.9155 21.2616 128.0016 0.0000 17.0982 0.0000
# 4 0.0000 0.0000 0.0000 15.1814 0.0000 11.2269
# 5 4.8596 12.3727 17.0982 0.0000 43.9415 0.0000
# 6 0.0000 0.0000 0.0000 11.2269 0.0000 30.0343
#
#
#
# Elastic Compliance Matrix: (Units=1/GPa)
#
#
# Indices 1 2 3 4 5 6 
#
# 1 0.009163 -0.000506 -0.001443 0.000000 -0.000309 0.000000
# 2 -0.000506 0.009272 -0.001173 0.000000 -0.002098 0.000000
# 3 -0.001443 -0.001173 0.008638 0.000000 -0.002871 0.000000
# 4 0.000000 0.000000 0.000000 0.091035 0.000000 -0.034029
# 5 -0.000309 -0.002098 -0.002871 0.000000 0.024500 0.000000
# 6 0.000000 0.000000 0.000000 -0.034029 0.000000 0.046015
#
#
# Mechanical properties :
#
#
# Convention : Reuss Voigt Hill
#
# Bulk Modulus (GPa) = 48.01351 51.29634 49.65493
# Shear Modulus (GPa) = 24.77570 37.96279 31.36924
#
# Velocity S-wave (km/s) = 3.18670 3.94464 3.58575
# Velocity P-wave (km/s) = 5.76367 6.46315 6.12340
#
# Compressibility (1/GPa) = 0.02082747
#
# Stress axis : x y z
#
# Youngs Moduli (GPa) = 109.13481 107.85573 115.76834
#
# Poissons Ratio (x) = 0.05456 0.16711
# Poissons Ratio (y) = 0.05521 0.13582
# Poissons Ratio (z) = 0.15753 0.12653
#
# Static dielectric constant tensor:
#      x y z
#    x 4.054080 0.000000 0.036220 
#    y 0.000000 4.471160 0.000000 
#    z 0.036220 0.000000 4.391800 
# 
# 
# High freq. dielectric constant tensor:
#      x y z
#    x 1.950680 0.000000 0.004680 
#    y 0.000000 1.976430 0.000000 
#    z 0.004680 0.000000 1.986350 
# 
# From -- ./inp_files/7892.got.cif
#   From: 2010.03.12/outbox.cif.g09.slc.cpg/sg5_4_cif.got.tgz:7892.got - 2010.03.31 09:47:26.
