data_PCOD8051735
_publ_section_title
;
Structure prediction by ZEFSAII (Michael W. Deem and Ramdas Pophale) SiO2 
 PCOD8051735
Probable space group: C 2
;
_chemical_formula_sum "Si O2"
_cell_formula_units_Z 26
_cell_length_a 10.146538
_cell_length_b 9.248903
_cell_length_c 14.199410
_cell_angle_alpha 90.000000
_cell_angle_beta 119.292226
_cell_angle_gamma 90.000000
_cell_volume 1162.150724
_symmetry_space_group_name_H-M "C 2"
_symmetry_group_IT_number 5
_symmetry_cell_setting 'monoclinic'
loop_
_space_group_symop_operation_xyz
x,y,z
-x,y,-z
1/2+x,1/2+y,z
1/2-x,1/2+y,-z
loop_
_atom_site_type_symbol
_atom_site_label
_atom_site_fract_x
_atom_site_fract_y
_atom_site_fract_z
Si Si1 0.436114 0.965820 0.296710
Si Si2 0.569915 0.633155 0.928311
Si Si3 0.980733 0.159000 0.382650
Si Si4 0.133545 0.661401 0.240265
Si Si5 0.228521 0.403335 0.947294
Si Si6 0.646558 0.495764 0.292753
Si Si7 0.500000 0.203667 0.000000
O O1 0.520312 0.819646 0.358203
O O2 0.310358 0.940586 0.172994
O O3 0.327098 0.026484 0.342794
O O4 0.560480 0.076922 0.302741
O O5 0.594423 0.805745 0.944029
O O6 0.456915 0.603167 0.804533
O O7 0.500000 0.573816 0.000000
O O8 0.731506 0.545380 0.975424
O O9 0.809227 0.120286 0.294129
O O10 0.000000 0.156393 0.500000
O O11 0.097291 0.040089 0.381330
O O12 0.110141 0.829908 0.255735
O O13 0.058170 0.614023 0.113332
O O14 0.373247 0.303664 0.998842
#
# Coordination Sequence:
#
# PCOD8051735 Si02
#       7
#     4   4   4   4   4   4   2
#     4  11  23  43  67  99 129 172 221 271 330 387
#     4  12  22  38  59  95 138 177 210 259 322 399
#     4  11  26  49  70  92 129 176 227 279 332 387
#     4  11  24  42  68 101 136 175 217 271 329 396
#     4  12  21  39  63  93 138 178 208 258 326 391
#     4  11  22  43  64  94 135 174 216 272 332 387
#     4  12  18  40  64  94 140 176 202 256 330 392
#
# _framework density 22.372312000000001
#
# number of rings (size 3 to 8) (size 9 to 14) (size 15 to 20)
#    0.000    0.615    8.462    0.923    0.000    3.692 
#    8.308    0.769    0.000    0.000    0.000    0.000 
#    0.000    0.000    0.000    0.000    0.000    0.000 
#
# Total GULP energy -161136.744845 kJ/mol
# GULP energy per Si atom -12395.134219 kJ/mol
# Density = 2.232139 g / cm^3
# Si number density = 22.372312 Si / 1000 Ang^3
#
#
#
# Elastic Constant Matrix: (Units=GPa)
#
#
# Indices 1 2 3 4 5 6 
#
# 1 112.0779 54.3853 5.9619 0.0000 -17.2814 0.0000
# 2 54.3853 90.2061 2.1080 0.0000 -12.9385 0.0000
# 3 5.9619 2.1080 52.0820 0.0000 -16.9273 0.0000
# 4 0.0000 0.0000 0.0000 20.5564 0.0000 -14.4198
# 5 -17.2814 -12.9385 -16.9273 0.0000 28.6184 0.0000
# 6 0.0000 0.0000 0.0000 -14.4198 0.0000 37.0468
#
#
#
# Elastic Compliance Matrix: (Units=1/GPa)
#
#
# Indices 1 2 3 4 5 6 
#
# 1 0.013176 -0.007249 0.000379 0.000000 0.004903 0.000000
# 2 -0.007249 0.015947 0.001368 0.000000 0.003641 0.000000
# 3 0.000379 0.001368 0.023989 0.000000 0.015036 0.000000
# 4 0.000000 0.000000 0.000000 0.066918 0.000000 0.026047
# 5 0.004903 0.003641 0.015036 0.000000 0.048443 0.000000
# 6 0.000000 0.000000 0.000000 0.026047 0.000000 0.037131
#
#
# Mechanical properties :
#
#
# Convention : Reuss Voigt Hill
#
# Bulk Modulus (GPa) = 23.75003 42.14184 32.94594
# Shear Modulus (GPa) = 21.67847 30.03837 25.85842
#
# Velocity S-wave (km/s) = 3.11623 3.66821 3.40343
# Velocity P-wave (km/s) = 4.85662 6.06782 5.49569
#
# Compressibility (1/GPa) = 0.04210521
#
# Stress axis : x y z
#
# Youngs Moduli (GPa) = 75.89602 62.70912 41.68640
#
# Poissons Ratio (x) = 0.45460 -0.01578
# Poissons Ratio (y) = 0.55020 -0.05702
# Poissons Ratio (z) = -0.02874 -0.08577
#
# Static dielectric constant tensor:
#      x y z
#    x 4.318600 0.000000 -0.040620 
#    y 0.000000 4.033380 0.000000 
#    z -0.040620 0.000000 3.848010 
# 
# 
# High freq. dielectric constant tensor:
#      x y z
#    x 1.892260 0.000000 -0.002910 
#    y 0.000000 1.873850 0.000000 
#    z -0.002910 0.000000 1.860620 
# 
# From -- ./inp_files/47366.got.cif
#   From: 2010.03.12/outbox.cif.g09.slc.cpg/sg5_24_cif.got.tgz:47366.got - 2010.03.31 09:47:26.
