data_PCOD8051790
_publ_section_title
;
Structure prediction by ZEFSAII (Michael W. Deem and Ramdas Pophale) SiO2 
 PCOD8051790
Probable space group: C 2
;
_chemical_formula_sum "Si O2"
_cell_formula_units_Z 32
_cell_length_a 27.510522
_cell_length_b 11.589305
_cell_length_c 8.525642
_cell_angle_alpha 90.000000
_cell_angle_beta 32.920312
_cell_angle_gamma 90.000000
_cell_volume 1477.272271
_symmetry_space_group_name_H-M "C 2"
_symmetry_group_IT_number 5
_symmetry_cell_setting 'monoclinic'
loop_
_space_group_symop_operation_xyz
x,y,z
-x,y,-z
1/2+x,1/2+y,z
1/2-x,1/2+y,-z
loop_
_atom_site_type_symbol
_atom_site_label
_atom_site_fract_x
_atom_site_fract_y
_atom_site_fract_z
Si Si1 0.170592 0.505470 0.061604
Si Si2 0.754898 0.860957 0.300036
Si Si3 0.912659 0.715956 0.828260
Si Si4 0.600041 0.757981 0.183003
Si Si5 0.593505 0.237307 0.789755
Si Si6 0.232988 0.600698 0.210470
Si Si7 0.092765 0.215336 0.840836
Si Si8 0.666904 0.467235 0.598061
O O1 0.099044 0.578430 0.155579
O O2 0.128992 0.377675 0.189752
O O3 0.182130 0.588100 0.183091
O O4 0.265913 0.502522 0.720205
O O5 0.667639 0.780790 0.538959
O O6 0.780231 0.903709 0.405345
O O7 0.739729 0.968923 0.234165
O O8 0.827847 0.789889 0.000937
O O9 0.000000 0.760289 0.500000
O O10 0.910751 0.743774 0.014467
O O11 0.500000 0.720584 0.500000
O O12 0.669812 0.661606 0.056843
O O13 0.596725 0.769437 0.003922
O O14 0.674907 0.164379 0.500212
O O15 0.600772 0.369414 0.706425
O O16 0.500000 0.178525 0.000000
O O17 0.112899 0.078877 0.802120
O O18 0.000000 0.234928 0.000000
#
# Coordination Sequence:
#
# PCOD8051790 Si02
#       8
#     4   4   4   4   4   4   4   4
#     4  12  25  43  75  96 141 188 238 291 354 414
#     4  11  24  45  71  97 140 187 231 288 352 425
#     4  11  24  43  71 104 136 176 237 291 350 425
#     4  12  28  48  68 108 150 182 237 304 350 425
#     4  11  24  45  71 100 142 182 233 292 355 423
#     4  12  27  45  71 100 142 190 234 286 360 416
#     4  12  26  46  76 105 142 190 238 288 366 434
#     4  11  22  47  73  99 137 189 233 294 355 420
#
# _framework density 21.661545
#
# number of rings (size 3 to 8) (size 9 to 14) (size 15 to 20)
#    0.000    0.500    5.000    3.000    5.250    2.000 
#    0.000    0.000    0.000    0.000    0.000    0.000 
#    0.000    0.000    0.000    0.000    0.000    0.000 
#
# Total GULP energy -198306.258519 kJ/mol
# GULP energy per Si atom -12394.141157 kJ/mol
# Density = 2.161224 g / cm^3
# Si number density = 21.661545 Si / 1000 Ang^3
#
#
#
# Elastic Constant Matrix: (Units=GPa)
#
#
# Indices 1 2 3 4 5 6 
#
# 1 61.9759 30.3384 33.6105 0.0000 -16.3134 0.0000
# 2 30.3384 133.8754 55.5375 0.0000 -14.8575 0.0000
# 3 33.6105 55.5375 168.9724 0.0000 -16.2492 0.0000
# 4 0.0000 0.0000 0.0000 22.3493 0.0000 4.4230
# 5 -16.3134 -14.8575 -16.2492 0.0000 37.6521 0.0000
# 6 0.0000 0.0000 0.0000 4.4230 0.0000 33.2881
#
#
#
# Elastic Compliance Matrix: (Units=1/GPa)
#
#
# Indices 1 2 3 4 5 6 
#
# 1 0.020691 -0.002898 -0.002515 0.000000 0.006736 0.000000
# 2 -0.002898 0.009247 -0.002329 0.000000 0.001388 0.000000
# 3 -0.002515 -0.002329 0.007294 0.000000 0.001139 0.000000
# 4 0.000000 0.000000 0.000000 0.045953 0.000000 -0.006106
# 5 0.006736 0.001388 0.001139 0.000000 0.030516 0.000000
# 6 0.000000 0.000000 0.000000 -0.006106 0.000000 0.030852
#
#
# Mechanical properties :
#
#
# Convention : Reuss Voigt Hill
#
# Bulk Modulus (GPa) = 45.98554 67.08849 56.53702
# Shear Modulus (GPa) = 29.88892 35.01371 32.45132
#
# Velocity S-wave (km/s) = 3.71862 4.02481 3.87474
# Velocity P-wave (km/s) = 6.30180 7.25515 6.79522
#
# Compressibility (1/GPa) = 0.02174597
#
# Stress axis : x y z
#
# Youngs Moduli (GPa) = 48.33019 108.14703 137.10731
#
# Poissons Ratio (x) = 0.31340 0.34489
# Poissons Ratio (y) = 0.14006 0.31936
# Poissons Ratio (z) = 0.12157 0.25190
#
# Static dielectric constant tensor:
#      x y z
#    x 3.771490 0.000000 0.144440 
#    y 0.000000 4.140120 0.000000 
#    z 0.144440 0.000000 3.840530 
# 
# 
# High freq. dielectric constant tensor:
#      x y z
#    x 1.847700 0.000000 -0.003760 
#    y 0.000000 1.865830 0.000000 
#    z -0.003760 0.000000 1.858650 
# 
# From -- ./inp_files/32630.got.cif
#   From: 2010.03.12/outbox.cif.g09.slc.cpg/sg5_17_cif.got.tgz:32630.got - 2010.03.31 09:47:26.
