data_PCOD8051942
_publ_section_title
;
Structure prediction by ZEFSAII (Michael W. Deem and Ramdas Pophale) SiO2 
 PCOD8051942
Probable space group: C 2
;
_chemical_formula_sum "Si O2"
_cell_formula_units_Z 22
_cell_length_a 13.456880
_cell_length_b 5.277750
_cell_length_c 24.115065
_cell_angle_alpha 90.000000
_cell_angle_beta 145.378174
_cell_angle_gamma 90.000000
_cell_volume 973.083696
_symmetry_space_group_name_H-M "C 2"
_symmetry_group_IT_number 5
_symmetry_cell_setting 'monoclinic'
loop_
_space_group_symop_operation_xyz
x,y,z
-x,y,-z
1/2+x,1/2+y,z
1/2-x,1/2+y,-z
loop_
_atom_site_type_symbol
_atom_site_label
_atom_site_fract_x
_atom_site_fract_y
_atom_site_fract_z
Si Si1 0.854162 0.503520 0.563631
Si Si2 0.993443 0.073583 0.095114
Si Si3 0.717962 0.779832 0.904572
Si Si4 0.000000 0.460180 0.000000
Si Si5 0.262237 0.012152 0.302272
Si Si6 0.890616 0.512983 0.711271
O O1 0.747259 0.254195 0.500097
O O2 0.886348 0.509289 0.643630
O O3 0.030366 0.495116 0.608335
O O4 0.905699 0.116010 0.114119
O O5 0.982827 0.305374 0.048527
O O6 0.188901 0.003778 0.204812
O O7 0.888861 0.850051 0.018783
O O8 0.598898 0.001413 0.823519
O O9 0.818239 0.612641 0.904644
O O10 0.212872 0.272015 0.311453
O O11 0.191935 0.771893 0.304408
#
# Coordination Sequence:
#
# PCOD8051942 Si02
#       6
#     4   4   4   2   4   4
#     4  12  28  49  77 110 143 180 245 308 368 432
#     4  11  24  43  67 101 147 190 241 286 347 429
#     4  11  24  43  67 101 147 190 241 286 347 429
#     4  12  26  38  68 100 144 208 232 292 350 398
#     4  11  27  47  75 106 145 191 239 294 359 430
#     4  11  27  47  75 106 145 191 239 294 359 430
#
# _framework density 22.608539
#
# number of rings (size 3 to 8) (size 9 to 14) (size 15 to 20)
#    0.000    0.727    1.818    3.818   10.182    5.818 
#    0.000    0.000    0.000    0.000    0.000    0.000 
#    0.000    0.000    0.000    0.000    0.000    0.000 
#
# Total GULP energy -136313.359381 kJ/mol
# GULP energy per Si atom -12392.123580 kJ/mol
# Density = 2.255708 g / cm^3
# Si number density = 22.608539 Si / 1000 Ang^3
#
#
#
# Elastic Constant Matrix: (Units=GPa)
#
#
# Indices 1 2 3 4 5 6 
#
# 1 90.0486 13.4468 35.1485 -0.0007 4.5082 0.0029
# 2 13.4468 105.7037 21.8553 -0.0014 2.8404 0.0049
# 3 35.1485 21.8553 86.1357 0.0002 0.4702 -0.0001
# 4 -0.0007 -0.0014 0.0002 35.9971 0.0002 1.1894
# 5 4.5082 2.8404 0.4702 0.0002 41.9911 -0.0008
# 6 0.0029 0.0049 -0.0001 1.1894 -0.0008 31.3244
#
#
#
# Elastic Compliance Matrix: (Units=1/GPa)
#
#
# Indices 1 2 3 4 5 6 
#
# 1 0.013319 -0.000566 -0.005284 0.000000 -0.001332 -0.000001
# 2 -0.000566 0.010026 -0.002310 0.000000 -0.000592 -0.000002
# 3 -0.005284 -0.002310 0.014349 0.000000 0.000563 0.000001
# 4 0.000000 0.000000 0.000000 0.027815 0.000000 -0.001056
# 5 -0.001332 -0.000592 0.000563 0.000000 0.023991 0.000001
# 6 -0.000001 -0.000002 0.000001 -0.001056 0.000001 0.031964
#
#
# Mechanical properties :
#
#
# Convention : Reuss Voigt Hill
#
# Bulk Modulus (GPa) = 46.78563 46.97658 46.88110
# Shear Modulus (GPa) = 34.50470 35.95835 35.23152
#
# Velocity S-wave (km/s) = 3.91087 3.99240 3.95185
# Velocity P-wave (km/s) = 6.41342 6.48658 6.45010
#
# Compressibility (1/GPa) = 0.02137409
#
# Stress axis : x y z
#
# Youngs Moduli (GPa) = 75.08162 99.74214 69.69259
#
# Poissons Ratio (x) = 0.05645 0.36826
# Poissons Ratio (y) = 0.04250 0.16097
# Poissons Ratio (z) = 0.39673 0.23037
#
# Static dielectric constant tensor:
#      x y z
#    x 4.109250 0.000000 0.027320 
#    y 0.000000 4.143250 0.000000 
#    z 0.027320 0.000000 4.530380 
# 
# 
# High freq. dielectric constant tensor:
#      x y z
#    x 1.909180 0.000000 0.007300 
#    y 0.000000 1.899240 0.000000 
#    z 0.007300 0.000000 1.899310 
# 
# From -- ./inp_files/57911.got.cif
#   From: 2010.03.12/outbox.cif.g09.slc.cpg/sg5_29_cif.got.tgz:57911.got - 2010.03.31 09:47:26.
