data_PCOD8051952
_publ_section_title
;
Structure prediction by ZEFSAII (Michael W. Deem and Ramdas Pophale) SiO2 
 PCOD8051952
Probable space group: C 2
;
_chemical_formula_sum "Si O2"
_cell_formula_units_Z 24
_cell_length_a 10.455389
_cell_length_b 15.537587
_cell_length_c 12.591841
_cell_angle_alpha 90.000000
_cell_angle_beta 145.895411
_cell_angle_gamma 90.000000
_cell_volume 1146.958417
_symmetry_space_group_name_H-M "C 2"
_symmetry_group_IT_number 5
_symmetry_cell_setting 'monoclinic'
loop_
_space_group_symop_operation_xyz
x,y,z
-x,y,-z
1/2+x,1/2+y,z
1/2-x,1/2+y,-z
loop_
_atom_site_type_symbol
_atom_site_label
_atom_site_fract_x
_atom_site_fract_y
_atom_site_fract_z
Si Si1 0.245175 0.279160 0.345736
Si Si2 0.701735 0.038047 0.020139
Si Si3 0.890486 0.492977 0.280892
Si Si4 0.000000 0.389423 0.000000
Si Si5 0.500000 0.183354 0.000000
Si Si6 0.692497 0.583880 0.322478
Si Si7 0.555436 0.794909 0.656396
O O1 0.500000 0.316304 0.500000
O O2 0.080973 0.330088 0.152669
O O3 0.250414 0.179116 0.322925
O O4 0.156021 0.285710 0.406318
O O5 0.653955 0.002241 0.872217
O O6 0.521616 0.115852 0.916489
O O7 0.948678 0.079160 0.210529
O O8 0.694460 0.954879 0.092232
O O9 0.681855 0.530543 0.205708
O O10 0.894406 0.394681 0.316787
O O11 0.120352 0.544275 0.469713
O O12 0.722053 0.242916 0.154006
O O13 0.500000 0.760260 0.500000
#
# Coordination Sequence:
#
# PCOD8051952 Si02
#       7
#     4   4   4   2   2   4   4
#     4  12  27  47  70 107 142 186 238 287 352 414
#     4  11  25  46  66 100 139 181 230 280 356 411
#     4  11  24  44  68 100 136 182 232 284 345 412
#     4  11  28  44  71 100 138 186 227 290 350 415
#     4  11  28  44  71 100 138 186 227 290 350 415
#     4  11  24  44  68 100 136 182 232 284 345 412
#     4  12  27  47  70 107 142 186 238 287 352 414
#
# _framework density 20.924907000000001
#
# number of rings (size 3 to 8) (size 9 to 14) (size 15 to 20)
#    0.000    0.667    6.667    0.500    9.333    1.333 
#    0.000    3.333    0.000    0.000    0.000    0.000 
#    0.000    0.000    0.000    0.000    0.000    0.000 
#
# Total GULP energy -148719.888296 kJ/mol
# GULP energy per Si atom -12393.324025 kJ/mol
# Density = 2.087728 g / cm^3
# Si number density = 20.924907 Si / 1000 Ang^3
#
#
#
# Elastic Constant Matrix: (Units=GPa)
#
#
# Indices 1 2 3 4 5 6 
#
# 1 131.6073 23.3454 44.1796 -0.0006 11.0478 -0.0005
# 2 23.3454 126.5527 36.4064 -0.0002 14.0715 -0.0003
# 3 44.1796 36.4064 74.2039 0.0027 0.5682 0.0016
# 4 -0.0006 -0.0002 0.0027 30.9645 0.0027 1.1514
# 5 11.0478 14.0715 0.5682 0.0027 30.9472 0.0016
# 6 -0.0005 -0.0003 0.0016 1.1514 0.0016 33.8337
#
#
#
# Elastic Compliance Matrix: (Units=1/GPa)
#
#
# Indices 1 2 3 4 5 6 
#
# 1 0.009852 0.000298 -0.005985 0.000001 -0.003543 0.000001
# 2 0.000298 0.009761 -0.004932 0.000001 -0.004454 0.000001
# 3 -0.005985 -0.004932 0.019429 -0.000002 0.004023 -0.000001
# 4 0.000001 0.000001 -0.000002 0.032336 -0.000003 -0.001100
# 5 -0.003543 -0.004454 0.004023 -0.000003 0.035529 -0.000002
# 6 0.000001 0.000001 -0.000001 -0.001100 -0.000002 0.029594
#
#
# Mechanical properties :
#
#
# Convention : Reuss Voigt Hill
#
# Bulk Modulus (GPa) = 56.16832 60.02519 58.09676
# Shear Modulus (GPa) = 30.54862 34.37793 32.46327
#
# Velocity S-wave (km/s) = 3.82503 4.05769 3.94308
# Velocity P-wave (km/s) = 6.81241 7.12049 6.96815
#
# Compressibility (1/GPa) = 0.01780363
#
# Stress axis : x y z
#
# Youngs Moduli (GPa) = 101.50304 102.44788 51.46990
#
# Poissons Ratio (x) = -0.03055 0.30804
# Poissons Ratio (y) = -0.03027 0.25387
# Poissons Ratio (z) = 0.60748 0.50532
#
# Static dielectric constant tensor:
#      x y z
#    x 4.120180 0.000000 0.131050 
#    y 0.000000 3.989300 0.000000 
#    z 0.131050 0.000000 3.651290 
# 
# 
# High freq. dielectric constant tensor:
#      x y z
#    x 1.837470 0.000000 0.006570 
#    y 0.000000 1.842460 0.000000 
#    z 0.006570 0.000000 1.800670 
# 
# From -- ./inp_files/53239.got.cif
#   From: 2010.03.12/outbox.cif.g09.slc.cpg/sg5_27_cif.got.tgz:53239.got - 2010.03.31 09:47:26.
