data_PCOD8051594
_publ_section_title
;
Structure prediction by ZEFSAII (Michael W. Deem and Ramdas Pophale) SiO2 
 PCOD8051594
Probable space group: C 2
;
_chemical_formula_sum "Si O2"
_cell_formula_units_Z 24
_cell_length_a 22.088011
_cell_length_b 8.596024
_cell_length_c 11.030312
_cell_angle_alpha 90.000000
_cell_angle_beta 148.228661
_cell_angle_gamma 90.000000
_cell_volume 1102.720968
_symmetry_space_group_name_H-M "C 2"
_symmetry_group_IT_number 5
_symmetry_cell_setting 'monoclinic'
loop_
_space_group_symop_operation_xyz
x,y,z
-x,y,-z
1/2+x,1/2+y,z
1/2-x,1/2+y,-z
loop_
_atom_site_type_symbol
_atom_site_label
_atom_site_fract_x
_atom_site_fract_y
_atom_site_fract_z
Si Si1 0.238387 0.403350 0.141214
Si Si2 0.872158 0.417025 0.446056
Si Si3 0.015170 0.278548 0.886682
Si Si4 0.610299 0.488604 0.939112
Si Si5 0.330154 0.689660 0.179486
Si Si6 0.462883 0.251609 0.572524
O O1 0.247246 0.585062 0.122976
O O2 0.344303 0.342017 0.401935
O O3 0.120624 0.376399 0.010976
O O4 0.248351 0.305886 0.032561
O O5 0.908159 0.296153 0.400871
O O6 0.953154 0.567395 0.573877
O O7 0.898989 0.331633 0.619069
O O8 0.739556 0.467588 0.207820
O O9 0.040395 0.094030 0.916386
O O10 0.000000 0.322421 0.000000
O O11 0.597971 0.581364 0.789736
O O12 0.553731 0.319906 0.824645
O O13 0.500000 0.291764 0.500000
#
# Coordination Sequence:
#
# PCOD8051594 Si02
#       6
#     4   4   4   4   4   4
#     4  11  22  40  71 101 148 177 230 289 360 423
#     4  12  26  43  72 106 141 190 232 295 361 425
#     4  11  28  51  68  97 145 197 251 289 336 419
#     4  11  25  45  69 107 143 184 238 292 366 428
#     4  11  20  41  64 113 144 171 226 295 369 432
#     4  12  23  41  69 108 148 174 225 291 371 437
#
# _framework density 21.764344999999999
#
# number of rings (size 3 to 8) (size 9 to 14) (size 15 to 20)
#    0.000    0.667    6.667    1.000    9.333    0.000 
#    6.000    0.833    0.000    0.000    0.000    0.000 
#    0.000    0.000    0.000    0.000    0.000    0.000 
#
# Total GULP energy -148784.885577 kJ/mol
# GULP energy per Si atom -12398.740465 kJ/mol
# Density = 2.171481 g / cm^3
# Si number density = 21.764345 Si / 1000 Ang^3
#
#
#
# Elastic Constant Matrix: (Units=GPa)
#
#
# Indices 1 2 3 4 5 6 
#
# 1 85.4738 46.1743 48.7309 0.0000 -13.3903 0.0000
# 2 46.1743 142.3517 58.2125 0.0000 0.0203 0.0000
# 3 48.7309 58.2125 115.3102 0.0000 -9.9915 0.0000
# 4 0.0000 0.0000 0.0000 44.1861 0.0000 1.9674
# 5 -13.3903 0.0203 -9.9915 0.0000 22.3098 0.0000
# 6 0.0000 0.0000 0.0000 1.9674 0.0000 16.8827
#
#
#
# Elastic Compliance Matrix: (Units=1/GPa)
#
#
# Indices 1 2 3 4 5 6 
#
# 1 0.017883 -0.003798 -0.004900 0.000000 0.008542 0.000000
# 2 -0.003798 0.009754 -0.003659 0.000000 -0.003927 0.000000
# 3 -0.004900 -0.003659 0.012834 0.000000 0.002810 0.000000
# 4 0.000000 0.000000 0.000000 0.022750 0.000000 -0.002651
# 5 0.008542 -0.003927 0.002810 0.000000 0.051213 0.000000
# 6 0.000000 0.000000 0.000000 -0.002651 0.000000 0.059541
#
#
# Mechanical properties :
#
#
# Convention : Reuss Voigt Hill
#
# Bulk Modulus (GPa) = 63.46736 72.15234 67.80985
# Shear Modulus (GPa) = 24.51692 29.34359 26.93025
#
# Velocity S-wave (km/s) = 3.35994 3.67582 3.52142
# Velocity P-wave (km/s) = 6.65407 7.15815 6.91071
#
# Compressibility (1/GPa) = 0.01575613
#
# Stress axis : x y z
#
# Youngs Moduli (GPa) = 55.91852 102.52405 77.91950
#
# Poissons Ratio (x) = 0.38941 0.38180
# Poissons Ratio (y) = 0.21239 0.28512
# Poissons Ratio (z) = 0.27399 0.37516
#
# Static dielectric constant tensor:
#      x y z
#    x 3.392280 0.000000 0.014700 
#    y 0.000000 4.231660 0.000000 
#    z 0.014700 0.000000 3.942850 
# 
# 
# High freq. dielectric constant tensor:
#      x y z
#    x 1.795360 0.000000 0.014640 
#    y 0.000000 1.877040 0.000000 
#    z 0.014640 0.000000 1.864910 
# 
# From -- ./inp_files/47337.got.cif
#   From: 2010.03.12/outbox.cif.g09.slc.cpg/sg5_24_cif.got.tgz:47337.got - 2010.03.31 09:47:26.
