data_PCOD8051015
_publ_section_title
;
Structure prediction by ZEFSAII (Michael W. Deem and Ramdas Pophale) SiO2 
 PCOD8051015
Probable space group: C 2
;
_chemical_formula_sum "Si O2"
_cell_formula_units_Z 26
_cell_length_a 11.536903
_cell_length_b 15.617701
_cell_length_c 7.790388
_cell_angle_alpha 90.000000
_cell_angle_beta 119.812685
_cell_angle_gamma 90.000000
_cell_volume 1217.903027
_symmetry_space_group_name_H-M "C 2"
_symmetry_group_IT_number 5
_symmetry_cell_setting 'monoclinic'
loop_
_space_group_symop_operation_xyz
x,y,z
-x,y,-z
1/2+x,1/2+y,z
1/2-x,1/2+y,-z
loop_
_atom_site_type_symbol
_atom_site_label
_atom_site_fract_x
_atom_site_fract_y
_atom_site_fract_z
Si Si1 0.511227 0.756080 0.699410
Si Si2 0.393238 0.922051 0.717396
Si Si3 0.371449 0.627798 0.791192
Si Si4 0.664678 0.991679 0.982100
Si Si5 0.000000 0.797985 0.000000
Si Si6 0.214105 0.682979 0.980302
Si Si7 0.801877 0.937692 0.741726
O O1 0.500000 0.791560 0.500000
O O2 0.468826 0.831957 0.795853
O O3 0.402319 0.679239 0.639234
O O4 0.663643 0.731781 0.843589
O O5 0.303770 0.937719 0.821124
O O6 0.312210 0.922500 0.481812
O O7 0.509203 0.994342 0.808737
O O8 0.368981 0.528021 0.742812
O O9 0.500000 0.649094 0.000000
O O10 0.240342 0.665317 0.794404
O O11 0.707369 0.088295 0.055387
O O12 0.747095 0.944862 0.893877
O O13 0.918462 0.738014 0.074482
O O14 0.905819 0.859065 0.814052
#
# Coordination Sequence:
#
# PCOD8051015 Si02
#       7
#     4   4   4   4   2   4   4
#     4  11  23  40  68  97 124 170 225 269 318 386
#     4  11  23  40  69  98 124 172 225 261 319 388
#     4   9  21  42  64  90 126 172 213 263 325 380
#     4  10  23  42  67  91 131 171 215 265 321 386
#     4  12  22  38  68  94 134 164 208 276 324 380
#     4  10  23  41  65  93 131 171 207 265 335 378
#     4  11  23  42  65  94 132 171 214 267 325 383
#
# _framework density 21.34817
#
# number of rings (size 3 to 8) (size 9 to 14) (size 15 to 20)
#    0.000    1.538    0.769    4.154   10.769    0.000 
#    2.769    0.769    3.385    0.000    0.000    0.000 
#    0.000    0.000    0.000    0.000    0.000    0.000 
#
# Total GULP energy -161134.599420 kJ/mol
# GULP energy per Si atom -12394.969186 kJ/mol
# Density = 2.129958 g / cm^3
# Si number density = 21.348170 Si / 1000 Ang^3
#
#
#
# Elastic Constant Matrix: (Units=GPa)
#
#
# Indices 1 2 3 4 5 6 
#
# 1 119.2143 73.1944 27.8127 0.0000 -5.8428 0.0000
# 2 73.1944 127.6499 54.7917 0.0000 -6.1491 0.0000
# 3 27.8127 54.7917 68.2332 0.0000 -0.8599 0.0000
# 4 0.0000 0.0000 0.0000 23.1829 0.0000 7.1511
# 5 -5.8428 -6.1491 -0.8599 0.0000 24.5556 0.0000
# 6 0.0000 0.0000 0.0000 7.1511 0.0000 52.8883
#
#
#
# Elastic Compliance Matrix: (Units=1/GPa)
#
#
# Indices 1 2 3 4 5 6 
#
# 1 0.013028 -0.007845 0.001004 0.000000 0.001171 0.000000
# 2 -0.007845 0.016854 -0.010311 0.000000 0.001993 0.000000
# 3 0.001004 -0.010311 0.022507 0.000000 -0.001555 0.000000
# 4 0.000000 0.000000 0.000000 0.045013 0.000000 -0.006086
# 5 0.001171 0.001993 -0.001555 0.000000 0.041447 0.000000
# 6 0.000000 0.000000 0.000000 -0.006086 0.000000 0.019731
#
#
# Mechanical properties :
#
#
# Convention : Reuss Voigt Hill
#
# Bulk Modulus (GPa) = 55.29592 69.63279 62.46436
# Shear Modulus (GPa) = 25.13686 30.74526 27.94106
#
# Velocity S-wave (km/s) = 3.43515 3.79909 3.62170
# Velocity P-wave (km/s) = 6.45693 7.20643 6.84195
#
# Compressibility (1/GPa) = 0.01808452
#
# Stress axis : x y z
#
# Youngs Moduli (GPa) = 76.75875 59.33345 44.43095
#
# Poissons Ratio (x) = 0.46545 -0.04460
# Poissons Ratio (y) = 0.60214 0.45813
# Poissons Ratio (z) = -0.07704 0.61180
#
# Static dielectric constant tensor:
#      x y z
#    x 4.234310 0.000000 -0.113590 
#    y 0.000000 4.089650 0.000000 
#    z -0.113590 0.000000 3.517340 
# 
# 
# High freq. dielectric constant tensor:
#      x y z
#    x 1.847280 0.000000 -0.009400 
#    y 0.000000 1.855840 0.000000 
#    z -0.009400 0.000000 1.805410 
# 
# From -- ./inp_files/20460.got.cif
#   From: 2010.03.12/outbox.cif.g09.slc.cpg/sg5_11_cif.got.tgz:20460.got - 2010.03.31 09:47:26.
