data_PCOD8051084
_publ_section_title
;
Structure prediction by ZEFSAII (Michael W. Deem and Ramdas Pophale) SiO2 
 PCOD8051084
Probable space group: C 2
;
_chemical_formula_sum "Si O2"
_cell_formula_units_Z 22
_cell_length_a 8.950060
_cell_length_b 21.859054
_cell_length_c 5.282984
_cell_angle_alpha 90.000000
_cell_angle_beta 72.477147
_cell_angle_gamma 90.000000
_cell_volume 985.601718
_symmetry_space_group_name_H-M "C 2"
_symmetry_group_IT_number 5
_symmetry_cell_setting 'monoclinic'
loop_
_space_group_symop_operation_xyz
x,y,z
-x,y,-z
1/2+x,1/2+y,z
1/2-x,1/2+y,-z
loop_
_atom_site_type_symbol
_atom_site_label
_atom_site_fract_x
_atom_site_fract_y
_atom_site_fract_z
Si Si1 0.500000 0.543231 0.000000
Si Si2 0.817051 0.828449 0.562593
Si Si3 0.145003 0.146337 0.273302
Si Si4 0.168897 0.966995 0.535230
Si Si5 0.187376 0.762427 0.932411
Si Si6 0.899212 0.565156 0.300953
O O1 0.414424 0.586987 0.845407
O O2 0.639656 0.498901 0.823606
O O3 0.775281 0.897033 0.496924
O O4 0.749763 0.786920 0.370037
O O5 0.000000 0.820213 0.500000
O O6 0.754242 0.807559 0.871033
O O7 0.225432 0.198111 0.057396
O O8 0.277776 0.121378 0.397656
O O9 0.000000 0.175378 0.500000
O O10 0.000000 0.974627 0.500000
O O11 0.305280 0.001793 0.316341
O O12 0.000000 0.754665 0.000000
O O13 0.000000 0.563383 0.500000
O O14 0.000000 0.576254 0.000000
#
# Coordination Sequence:
#
# PCOD8051084 Si02
#       6
#     2   4   4   4   4   4
#     4  12  22  42  74 106 138 180 246 294 350 408
#     4   9  22  40  69  97 131 181 238 284 335 411
#     4  12  26  44  69 103 141 189 238 287 356 432
#     4  11  23  42  72 102 137 184 245 290 346 422
#     4  10  23  43  65 100 135 183 229 288 346 406
#     4  12  26  43  66 103 143 185 222 296 368 413
#
# _framework density 22.321389
#
# number of rings (size 3 to 8) (size 9 to 14) (size 15 to 20)
#    0.000    1.091    3.636    1.636    8.909    2.182 
#    0.000    2.727    0.000    0.000    0.000    0.000 
#    0.000    0.000    0.000    0.000    0.000    0.000 
#
# Total GULP energy -136317.311037 kJ/mol
# GULP energy per Si atom -12392.482822 kJ/mol
# Density = 2.227058 g / cm^3
# Si number density = 22.321389 Si / 1000 Ang^3
#
#
#
# Elastic Constant Matrix: (Units=GPa)
#
#
# Indices 1 2 3 4 5 6 
#
# 1 73.1187 39.6881 37.0256 0.0000 -8.7797 0.0000
# 2 39.6881 151.3963 54.3538 0.0000 -0.3580 0.0000
# 3 37.0256 54.3538 120.6136 0.0000 6.9374 0.0000
# 4 0.0000 0.0000 0.0000 42.0241 0.0000 -9.4409
# 5 -8.7797 -0.3580 6.9374 0.0000 25.4361 0.0000
# 6 0.0000 0.0000 0.0000 -9.4409 0.0000 19.3493
#
#
#
# Elastic Compliance Matrix: (Units=1/GPa)
#
#
# Indices 1 2 3 4 5 6 
#
# 1 0.018745 -0.003186 -0.004763 0.000000 0.007724 0.000000
# 2 -0.003186 0.008452 -0.002819 0.000000 -0.000212 0.000000
# 3 -0.004763 -0.002819 0.011297 0.000000 -0.004765 0.000000
# 4 0.000000 0.000000 0.000000 0.026725 0.000000 0.013040
# 5 0.007724 -0.000212 -0.004765 0.000000 0.043277 0.000000
# 6 0.000000 0.000000 0.000000 0.013040 0.000000 0.058044
#
#
# Mechanical properties :
#
#
# Convention : Reuss Voigt Hill
#
# Bulk Modulus (GPa) = 58.96403 67.47373 63.21888
# Shear Modulus (GPa) = 25.80943 31.63265 28.72104
#
# Velocity S-wave (km/s) = 3.40408 3.76858 3.59096
# Velocity P-wave (km/s) = 6.47484 7.01642 6.75107
#
# Compressibility (1/GPa) = 0.01695949
#
# Stress axis : x y z
#
# Youngs Moduli (GPa) = 53.34787 118.31912 88.51672
#
# Poissons Ratio (x) = 0.37693 0.42160
# Poissons Ratio (y) = 0.16995 0.24949
# Poissons Ratio (z) = 0.25409 0.33349
#
# Static dielectric constant tensor:
#      x y z
#    x 4.046840 0.000000 -0.004340 
#    y 0.000000 4.130880 0.000000 
#    z -0.004340 0.000000 4.256080 
# 
# 
# High freq. dielectric constant tensor:
#      x y z
#    x 1.865500 0.000000 0.004810 
#    y 0.000000 1.884090 0.000000 
#    z 0.004810 0.000000 1.877550 
# 
# From -- ./inp_files/2881.got.cif
#   From: 2010.03.12/outbox.cif.g09.slc.cpg/sg5_2_cif.got.tgz:2881.got - 2010.03.31 09:47:26.
