data_PCOD8051175
_publ_section_title
;
Structure prediction by ZEFSAII (Michael W. Deem and Ramdas Pophale) SiO2 
 PCOD8051175
Probable space group: C 2
;
_chemical_formula_sum "Si O2"
_cell_formula_units_Z 20
_cell_length_a 11.753658
_cell_length_b 7.799101
_cell_length_c 10.055174
_cell_angle_alpha 90.000000
_cell_angle_beta 65.120865
_cell_angle_gamma 90.000000
_cell_volume 836.197614
_symmetry_space_group_name_H-M "C 2"
_symmetry_group_IT_number 5
_symmetry_cell_setting 'monoclinic'
loop_
_space_group_symop_operation_xyz
x,y,z
-x,y,-z
1/2+x,1/2+y,z
1/2-x,1/2+y,-z
loop_
_atom_site_type_symbol
_atom_site_label
_atom_site_fract_x
_atom_site_fract_y
_atom_site_fract_z
Si Si1 0.192344 0.171340 0.192360
Si Si2 0.883247 0.420385 0.986304
Si Si3 0.188852 0.455996 0.412696
Si Si4 0.992993 0.594588 0.691329
Si Si5 0.542973 0.479157 0.628026
O O1 0.204555 0.296601 0.058612
O O2 0.203628 0.273746 0.327180
O O3 0.057134 0.083141 0.236174
O O4 0.298283 0.024778 0.134064
O O5 0.955171 0.557458 0.859501
O O6 0.000000 0.322081 0.000000
O O7 0.133509 0.594384 0.335883
O O8 0.316512 0.540186 0.406392
O O9 0.088848 0.448334 0.584771
O O10 0.052671 0.779997 0.657419
O O11 0.500000 0.512960 0.500000
#
# Coordination Sequence:
#
# PCOD8051175 Si02
#       5
#     4   4   4   4   4
#     4  11  27  44  68 102 134 181 229 273 344 404
#     4  11  25  45  71  94 139 179 225 276 341 403
#     4  10  24  45  68 101 139 169 232 284 329 402
#     4  10  23  47  67 101 135 180 223 285 335 400
#     4  12  26  39  71 102 136 177 225 278 345 393
#
# _framework density 23.917791000000001
#
# number of rings (size 3 to 8) (size 9 to 14) (size 15 to 20)
#    0.000    1.200    2.000    2.400   11.200    4.800 
#    0.000    1.000    0.000    0.000    0.000    0.000 
#    0.000    0.000    0.000    0.000    0.000    0.000 
#
# Total GULP energy -123938.160341 kJ/mol
# GULP energy per Si atom -12393.816034 kJ/mol
# Density = 2.386335 g / cm^3
# Si number density = 23.917791 Si / 1000 Ang^3
#
#
#
# Elastic Constant Matrix: (Units=GPa)
#
#
# Indices 1 2 3 4 5 6 
#
# 1 168.2357 14.4583 16.9500 0.0000 -19.9370 0.0000
# 2 14.4583 62.6269 24.3478 0.0000 -9.9135 0.0000
# 3 16.9500 24.3478 79.8074 0.0000 -15.2717 0.0000
# 4 0.0000 0.0000 0.0000 41.9550 0.0000 -9.2561
# 5 -19.9370 -9.9135 -15.2717 0.0000 29.7471 0.0000
# 6 0.0000 0.0000 0.0000 -9.2561 0.0000 26.9449
#
#
#
# Elastic Compliance Matrix: (Units=1/GPa)
#
#
# Indices 1 2 3 4 5 6 
#
# 1 0.006511 -0.000723 -0.000414 0.000000 0.003910 0.000000
# 2 -0.000723 0.018541 -0.004894 0.000000 0.003182 0.000000
# 3 -0.000414 -0.004894 0.015243 0.000000 0.005917 0.000000
# 4 0.000000 0.000000 0.000000 0.025790 0.000000 0.008859
# 5 0.003910 0.003182 0.005917 0.000000 0.040336 0.000000
# 6 0.000000 0.000000 0.000000 0.008859 0.000000 0.040156
#
#
# Mechanical properties :
#
#
# Convention : Reuss Voigt Hill
#
# Bulk Modulus (GPa) = 35.41943 46.90915 41.16429
# Shear Modulus (GPa) = 29.75290 36.72365 33.23828
#
# Velocity S-wave (km/s) = 3.53082 3.92268 3.73190
# Velocity P-wave (km/s) = 5.60921 6.33813 5.98477
#
# Compressibility (1/GPa) = 0.02823309
#
# Stress axis : x y z
#
# Youngs Moduli (GPa) = 153.57878 53.93483 65.60177
#
# Poissons Ratio (x) = 0.03901 0.02716
# Poissons Ratio (y) = 0.11108 0.32106
# Poissons Ratio (z) = 0.06358 0.26396
#
# Static dielectric constant tensor:
#      x y z
#    x 4.275670 0.000000 -0.044190 
#    y 0.000000 4.015800 0.000000 
#    z -0.044190 0.000000 4.321900 
# 
# 
# High freq. dielectric constant tensor:
#      x y z
#    x 1.961590 0.000000 -0.002930 
#    y 0.000000 1.929290 0.000000 
#    z -0.002930 0.000000 1.946060 
# 
# From -- ./inp_files/38031.got.cif
#   From: 2010.03.12/outbox.cif.g09.slc.cpg/sg5_20_cif.got.tgz:38031.got - 2010.03.31 09:47:26.
