data_PCOD8051803
_publ_section_title
;
Structure prediction by ZEFSAII (Michael W. Deem and Ramdas Pophale) SiO2 
 PCOD8051803
Probable space group: C 2
;
_chemical_formula_sum "Si O2"
_cell_formula_units_Z 22
_cell_length_a 22.345637
_cell_length_b 7.666171
_cell_length_c 6.071835
_cell_angle_alpha 90.000000
_cell_angle_beta 114.225452
_cell_angle_gamma 90.000000
_cell_volume 948.541819
_symmetry_space_group_name_H-M "C 2"
_symmetry_group_IT_number 5
_symmetry_cell_setting 'monoclinic'
loop_
_space_group_symop_operation_xyz
x,y,z
-x,y,-z
1/2+x,1/2+y,z
1/2-x,1/2+y,-z
loop_
_atom_site_type_symbol
_atom_site_label
_atom_site_fract_x
_atom_site_fract_y
_atom_site_fract_z
Si Si1 0.000000 0.412890 0.000000
Si Si2 0.586505 0.773519 0.491793
Si Si3 0.606070 0.076602 0.866225
Si Si4 0.815740 0.129768 0.690332
Si Si5 0.122784 0.963977 0.832515
Si Si6 0.742808 0.952181 0.215223
O O1 0.939552 0.531245 0.992923
O O2 0.022974 0.292461 0.239169
O O3 0.651177 0.754907 0.441115
O O4 0.578185 0.600897 0.629782
O O5 0.592592 0.947496 0.644553
O O6 0.590302 0.273398 0.762992
O O7 0.682178 0.072484 0.050326
O O8 0.779769 0.251087 0.814995
O O9 0.764350 0.002648 0.495392
O O10 0.872127 0.020291 0.903071
O O11 0.197541 0.968432 0.861652
#
# Coordination Sequence:
#
# PCOD8051803 Si02
#       6
#     2   4   4   4   4   4
#     4  12  26  50  74  98 148 198 240 290 354 428
#     4  11  25  49  69 101 141 194 245 292 353 418
#     4  12  26  46  74 107 144 189 240 293 359 426
#     4  11  23  42  69 108 144 190 231 300 359 423
#     4  11  25  44  72 109 144 184 240 302 362 419
#     4  11  23  38  72 107 150 180 235 296 363 428
#
# _framework density 23.193494999999999
#
# number of rings (size 3 to 8) (size 9 to 14) (size 15 to 20)
#    0.000    0.727    3.636    2.727    7.636    2.909 
#    0.000   13.636    0.000    0.000    0.000    0.000 
#    0.000    0.000    0.000    0.000    0.000    0.000 
#
# Total GULP energy -136439.486614 kJ/mol
# GULP energy per Si atom -12403.589692 kJ/mol
# Density = 2.314071 g / cm^3
# Si number density = 23.193495 Si / 1000 Ang^3
#
#
#
# Elastic Constant Matrix: (Units=GPa)
#
#
# Indices 1 2 3 4 5 6 
#
# 1 85.7783 23.5962 21.3333 0.0000 -2.5810 0.0000
# 2 23.5962 182.1089 76.5979 0.0000 3.5177 0.0000
# 3 21.3333 76.5979 157.3655 0.0000 15.5723 0.0000
# 4 0.0000 0.0000 0.0000 35.0854 0.0000 -6.4719
# 5 -2.5810 3.5177 15.5723 0.0000 35.2750 0.0000
# 6 0.0000 0.0000 0.0000 -6.4719 0.0000 18.2714
#
#
#
# Elastic Compliance Matrix: (Units=1/GPa)
#
#
# Indices 1 2 3 4 5 6 
#
# 1 0.012327 -0.001080 -0.001302 0.000000 0.001584 0.000000
# 2 -0.001080 0.007023 -0.003341 0.000000 0.000695 0.000000
# 3 -0.001302 -0.003341 0.008505 0.000000 -0.003517 0.000000
# 4 0.000000 0.000000 0.000000 0.030494 0.000000 0.010801
# 5 0.001584 0.000695 -0.003517 0.000000 0.029948 0.000000
# 6 0.000000 0.000000 0.000000 0.010801 0.000000 0.058556
#
#
# Mechanical properties :
#
#
# Convention : Reuss Voigt Hill
#
# Bulk Modulus (GPa) = 60.94296 74.25638 67.59967
# Shear Modulus (GPa) = 30.53084 37.97472 34.25278
#
# Velocity S-wave (km/s) = 3.63209 4.05075 3.84712
# Velocity P-wave (km/s) = 6.62740 7.34599 6.99593
#
# Compressibility (1/GPa) = 0.01640879
#
# Stress axis : x y z
#
# Youngs Moduli (GPa) = 81.12548 142.39053 117.57355
#
# Poissons Ratio (x) = 0.15380 0.15309
# Poissons Ratio (y) = 0.08762 0.39279
# Poissons Ratio (z) = 0.10563 0.47570
#
# Static dielectric constant tensor:
#      x y z
#    x 4.042020 0.000000 -0.017460 
#    y 0.000000 4.198600 0.000000 
#    z -0.017460 0.000000 4.298600 
# 
# 
# High freq. dielectric constant tensor:
#      x y z
#    x 1.909770 0.000000 -0.005730 
#    y 0.000000 1.915380 0.000000 
#    z -0.005730 0.000000 1.927630 
# 
# From -- ./inp_files/10100.got.cif
#   From: 2010.03.12/outbox.cif.g09.slc.cpg/sg5_6_cif.got.tgz:10100.got - 2010.03.31 09:47:26.
