data_PCOD8051601
_publ_section_title
;
Structure prediction by ZEFSAII (Michael W. Deem and Ramdas Pophale) SiO2 
 PCOD8051601
Probable space group: C 2
;
_chemical_formula_sum "Si O2"
_cell_formula_units_Z 32
_cell_length_a 12.468459
_cell_length_b 25.966268
_cell_length_c 9.030110
_cell_angle_alpha 90.000000
_cell_angle_beta 150.535311
_cell_angle_gamma 90.000000
_cell_volume 1438.072449
_symmetry_space_group_name_H-M "C 2"
_symmetry_group_IT_number 5
_symmetry_cell_setting 'monoclinic'
loop_
_space_group_symop_operation_xyz
x,y,z
-x,y,-z
1/2+x,1/2+y,z
1/2-x,1/2+y,-z
loop_
_atom_site_type_symbol
_atom_site_label
_atom_site_fract_x
_atom_site_fract_y
_atom_site_fract_z
Si Si1 0.030843 0.167290 0.713635
Si Si2 0.832795 0.735833 0.688181
Si Si3 0.600465 0.472301 0.780149
Si Si4 0.146047 0.755074 0.819879
Si Si5 0.033312 0.324654 0.378175
Si Si6 0.562131 0.000603 0.408932
Si Si7 0.350351 0.406677 0.691695
Si Si8 0.073599 0.065024 0.251855
O O1 0.000000 0.172639 0.500000
O O2 0.830199 0.192052 0.565352
O O3 0.011184 0.108220 0.736341
O O4 0.247679 0.198173 0.025860
O O5 0.689145 0.776945 0.605509
O O6 0.961106 0.766111 0.717408
O O7 0.000000 0.708237 0.000000
O O8 0.500000 0.484243 0.500000
O O9 0.495531 0.419141 0.718930
O O10 0.553511 0.515716 0.843617
O O11 0.862983 0.473393 0.080731
O O12 0.000000 0.755442 0.500000
O O13 0.320520 0.802060 0.036934
O O14 0.155560 0.366205 0.419768
O O15 0.000000 0.350880 0.500000
O O16 0.500000 0.017937 0.500000
O O17 0.665772 0.050165 0.444200
O O18 0.751699 0.958298 0.644716
O O19 0.500000 0.381533 0.000000
O O20 0.000000 0.080897 0.000000
#
# Coordination Sequence:
#
# PCOD8051601 Si02
#       8
#     4   4   4   4   4   4   4   4
#     4  11  24  43  65  99 136 180 232 279 335 406
#     4  11  20  43  68  94 128 178 226 270 330 401
#     4  11  24  45  68  99 140 175 218 280 341 397
#     4  11  25  44  68  98 139 182 223 287 342 394
#     4  11  23  40  71 100 130 177 231 276 332 405
#     4  11  20  44  69  93 133 178 218 273 333 400
#     4  11  23  39  72 103 127 176 231 273 330 412
#     4  11  24  41  66 103 134 173 230 277 332 410
#
# _framework density 22.252006000000002
#
# number of rings (size 3 to 8) (size 9 to 14) (size 15 to 20)
#    0.000    1.000    5.000    2.625    1.750    4.500 
#    2.250    3.750    0.000    0.000    0.000    0.000 
#    0.000    0.000    0.000    0.000    0.000    0.000 
#
# Total GULP energy -198237.506529 kJ/mol
# GULP energy per Si atom -12389.844158 kJ/mol
# Density = 2.220136 g / cm^3
# Si number density = 22.252006 Si / 1000 Ang^3
#
#
#
# Elastic Constant Matrix: (Units=GPa)
#
#
# Indices 1 2 3 4 5 6 
#
# 1 80.5076 24.2156 55.4801 0.0000 8.3127 0.0000
# 2 24.2156 80.9501 33.9513 0.0000 8.5914 0.0000
# 3 55.4801 33.9513 146.6052 0.0000 -0.6659 0.0000
# 4 0.0000 0.0000 0.0000 26.9977 0.0000 10.6894
# 5 8.3127 8.5914 -0.6659 0.0000 39.0110 0.0000
# 6 0.0000 0.0000 0.0000 10.6894 0.0000 44.8406
#
#
#
# Elastic Compliance Matrix: (Units=1/GPa)
#
#
# Indices 1 2 3 4 5 6 
#
# 1 0.017738 -0.002356 -0.006182 0.000000 -0.003366 0.000000
# 2 -0.002356 0.014372 -0.002449 0.000000 -0.002705 0.000000
# 3 -0.006182 -0.002449 0.009737 0.000000 0.002023 0.000000
# 4 0.000000 0.000000 0.000000 0.040901 0.000000 -0.009750
# 5 -0.003366 -0.002705 0.002023 0.000000 0.026981 0.000000
# 6 0.000000 0.000000 0.000000 -0.009750 0.000000 0.024626
#
#
# Mechanical properties :
#
#
# Convention : Reuss Voigt Hill
#
# Bulk Modulus (GPa) = 50.32091 59.48410 54.90251
# Shear Modulus (GPa) = 30.68363 35.13092 32.90728
#
# Velocity S-wave (km/s) = 3.71740 3.97769 3.84975
# Velocity P-wave (km/s) = 6.41004 6.91998 6.66989
#
# Compressibility (1/GPa) = 0.01987246
#
# Stress axis : x y z
#
# Youngs Moduli (GPa) = 56.37691 69.57818 102.70151
#
# Poissons Ratio (x) = 0.16392 0.63492
# Poissons Ratio (y) = 0.13282 0.25153
# Poissons Ratio (z) = 0.34853 0.17040
#
# Static dielectric constant tensor:
#      x y z
#    x 3.712190 0.000000 0.559620 
#    y 0.000000 3.930060 0.000000 
#    z 0.559620 0.000000 4.097810 
# 
# 
# High freq. dielectric constant tensor:
#      x y z
#    x 1.876960 0.000000 0.026570 
#    y 0.000000 1.862290 0.000000 
#    z 0.026570 0.000000 1.875970 
# 
# From -- ./inp_files/22225.got.cif
#   From: 2010.03.12/outbox.cif.g09.slc.cpg/sg5_12_cif.got.tgz:22225.got - 2010.03.31 09:47:26.
