data_PCOD8051225
_publ_section_title
;
Structure prediction by ZEFSAII (Michael W. Deem and Ramdas Pophale) SiO2 
 PCOD8051225
Probable space group: C 2
;
_chemical_formula_sum "Si O2"
_cell_formula_units_Z 28
_cell_length_a 8.989325
_cell_length_b 5.083406
_cell_length_c 29.252721
_cell_angle_alpha 90.000000
_cell_angle_beta 113.126517
_cell_angle_gamma 90.000000
_cell_volume 1229.322745
_symmetry_space_group_name_H-M "C 2"
_symmetry_group_IT_number 5
_symmetry_cell_setting 'monoclinic'
loop_
_space_group_symop_operation_xyz
x,y,z
-x,y,-z
1/2+x,1/2+y,z
1/2-x,1/2+y,-z
loop_
_atom_site_type_symbol
_atom_site_label
_atom_site_fract_x
_atom_site_fract_y
_atom_site_fract_z
Si Si1 0.795204 0.620540 0.279421
Si Si2 0.858569 0.526480 0.518606
Si Si3 0.841124 0.973583 0.133169
Si Si4 0.932578 0.463464 0.630192
Si Si5 0.776426 0.972986 0.829602
Si Si6 0.926833 0.968472 0.676685
Si Si7 0.689609 0.949094 0.018270
O O1 0.806380 0.527121 0.228940
O O2 0.615285 0.590175 0.278246
O O3 0.889050 0.426244 0.326018
O O4 0.878898 0.909295 0.295071
O O5 0.780838 0.808109 0.498831
O O6 0.938975 0.536277 0.578080
O O7 0.000000 0.461309 0.500000
O O8 0.770941 0.180603 0.161015
O O9 0.761298 0.038463 0.075136
O O10 0.032280 0.003433 0.151482
O O11 0.793622 0.680265 0.142559
O O12 0.844249 0.694150 0.649206
O O13 0.860605 0.174084 0.630390
O O14 0.500000 0.891919 0.000000
O O15 0.720355 0.183918 0.986406
#
# Coordination Sequence:
#
# PCOD8051225 Si02
#       7
#     4   4   4   4   4   4   4
#     4  10  26  40  68  94 130 179 221 274 330 409
#     4  12  28  47  72 102 137 177 222 281 351 407
#     4  12  26  46  67 105 140 184 225 293 339 406
#     4  10  26  42  70  93 134 167 228 270 336 401
#     4  12  26  43  69  96 145 177 230 276 355 402
#     4  10  24  40  67  94 129 165 229 267 329 386
#     4  12  24  44  73 101 137 183 238 284 341 404
#
# _framework density 22.776769999999999
#
# number of rings (size 3 to 8) (size 9 to 14) (size 15 to 20)
#    0.857    0.000    0.000    6.000   10.000    0.000 
#    0.000    0.000    0.000    0.000    0.000    0.000 
#    0.000    0.000    0.000    0.000    0.000    0.000 
#
# Total GULP energy -173483.562308 kJ/mol
# GULP energy per Si atom -12391.683022 kJ/mol
# Density = 2.272493 g / cm^3
# Si number density = 22.776770 Si / 1000 Ang^3
#
#
#
# Elastic Constant Matrix: (Units=GPa)
#
#
# Indices 1 2 3 4 5 6 
#
# 1 98.0973 28.8835 39.0795 0.0000 -10.6770 0.0000
# 2 28.8835 114.7079 8.5465 0.0000 -4.8478 0.0000
# 3 39.0795 8.5465 120.6924 0.0000 3.7647 0.0000
# 4 0.0000 0.0000 0.0000 29.2107 0.0000 -6.9623
# 5 -10.6770 -4.8478 3.7647 0.0000 33.9442 0.0000
# 6 0.0000 0.0000 0.0000 -6.9623 0.0000 27.3158
#
#
#
# Elastic Compliance Matrix: (Units=1/GPa)
#
#
# Indices 1 2 3 4 5 6 
#
# 1 0.013151 -0.002822 -0.004189 0.000000 0.004198 0.000000
# 2 -0.002822 0.009429 0.000232 0.000000 0.000433 0.000000
# 3 -0.004189 0.000232 0.009699 0.000000 -0.002360 0.000000
# 4 0.000000 0.000000 0.000000 0.036448 0.000000 0.009290
# 5 0.004198 0.000433 -0.002360 0.000000 0.031104 0.000000
# 6 0.000000 0.000000 0.000000 0.009290 0.000000 0.038977
#
#
# Mechanical properties :
#
#
# Convention : Reuss Voigt Hill
#
# Bulk Modulus (GPa) = 53.41325 54.05739 53.73532
# Shear Modulus (GPa) = 31.52464 35.22667 33.37565
#
# Velocity S-wave (km/s) = 3.72434 3.93696 3.83213
# Velocity P-wave (km/s) = 6.48043 6.66718 6.57447
#
# Compressibility (1/GPa) = 0.01872195
#
# Stress axis : x y z
#
# Youngs Moduli (GPa) = 76.04209 106.05221 103.10200
#
# Poissons Ratio (x) = 0.29926 0.43192
# Poissons Ratio (y) = 0.21457 -0.02397
# Poissons Ratio (z) = 0.31856 -0.02465
#
# Static dielectric constant tensor:
#      x y z
#    x 4.120460 0.000000 -0.038230 
#    y 0.000000 4.121680 0.000000 
#    z -0.038230 0.000000 4.135790 
# 
# 
# High freq. dielectric constant tensor:
#      x y z
#    x 1.894420 0.000000 -0.007150 
#    y 0.000000 1.910830 0.000000 
#    z -0.007150 0.000000 1.906060 
# 
# From -- ./inp_files/71503.got.cif
#   From: 2010.03.12/outbox.cif.g09.slc.cpg/sg5_36_cif.got.tgz:71503.got - 2010.03.31 09:47:26.
