data_PCOD8051243
_publ_section_title
;
Structure prediction by ZEFSAII (Michael W. Deem and Ramdas Pophale) SiO2 
 PCOD8051243
Probable space group: C 2
;
_chemical_formula_sum "Si O2"
_cell_formula_units_Z 22
_cell_length_a 19.023158
_cell_length_b 8.250964
_cell_length_c 6.913170
_cell_angle_alpha 90.000000
_cell_angle_beta 113.002205
_cell_angle_gamma 90.000000
_cell_volume 998.811495
_symmetry_space_group_name_H-M "C 2"
_symmetry_group_IT_number 5
_symmetry_cell_setting 'monoclinic'
loop_
_space_group_symop_operation_xyz
x,y,z
-x,y,-z
1/2+x,1/2+y,z
1/2-x,1/2+y,-z
loop_
_atom_site_type_symbol
_atom_site_label
_atom_site_fract_x
_atom_site_fract_y
_atom_site_fract_z
Si Si1 0.916995 0.044280 0.917602
Si Si2 0.500000 0.858234 0.000000
Si Si3 0.437803 0.050846 0.585273
Si Si4 0.196202 0.998356 0.885881
Si Si5 0.327419 0.345280 0.537924
Si Si6 0.302543 0.847104 0.293042
O O1 0.871424 0.001381 0.672022
O O2 0.000000 0.960434 0.000000
O O3 0.925552 0.240355 0.944666
O O4 0.877821 0.965308 0.062262
O O5 0.510752 0.973946 0.192704
O O6 0.500000 0.119936 0.500000
O O7 0.382173 0.189104 0.609488
O O8 0.386198 0.907995 0.439919
O O9 0.195856 0.872707 0.708834
O O10 0.192934 0.178890 0.809524
O O11 0.269105 0.976022 0.103186
O O12 0.250178 0.318841 0.575266
#
# Coordination Sequence:
#
# PCOD8051243 Si02
#       6
#     4   2   4   4   4   4
#     4   9  23  42  66  96 125 173 220 264 326 386
#     4  10  24  42  62  94 138 164 212 274 324 382
#     4  12  27  41  67 101 133 171 219 272 334 387
#     4  11  23  43  71  91 134 171 222 270 324 390
#     4  11  25  42  69  97 133 175 219 271 329 398
#     4  11  25  45  66  99 130 177 222 267 331 396
#
# _framework density 22.026178999999999
#
# number of rings (size 3 to 8) (size 9 to 14) (size 15 to 20)
#    0.545    0.727    0.000    4.364    3.818   10.182 
#    0.000    0.000    0.000    0.000    0.000    0.000 
#    0.000    0.000    0.000    0.000    0.000    0.000 
#
# Total GULP energy -136395.790176 kJ/mol
# GULP energy per Si atom -12399.617289 kJ/mol
# Density = 2.197605 g / cm^3
# Si number density = 22.026179 Si / 1000 Ang^3
#
#
#
# Elastic Constant Matrix: (Units=GPa)
#
#
# Indices 1 2 3 4 5 6 
#
# 1 106.3103 7.7264 41.8304 0.0000 -5.8948 0.0000
# 2 7.7264 88.1869 29.7540 0.0000 1.5444 0.0000
# 3 41.8304 29.7540 134.8650 0.0000 -13.6988 0.0000
# 4 0.0000 0.0000 0.0000 38.7997 0.0000 0.8654
# 5 -5.8948 1.5444 -13.6988 0.0000 26.9583 0.0000
# 6 0.0000 0.0000 0.0000 0.8654 0.0000 29.3323
#
#
#
# Elastic Compliance Matrix: (Units=1/GPa)
#
#
# Indices 1 2 3 4 5 6 
#
# 1 0.010728 0.000160 -0.003296 0.000000 0.000662 0.000000
# 2 0.000160 0.012378 -0.003004 0.000000 -0.002201 0.000000
# 3 -0.003296 -0.003004 0.009536 0.000000 0.004297 0.000000
# 4 0.000000 0.000000 0.000000 0.025790 0.000000 -0.000761
# 5 0.000662 -0.002201 0.004297 0.000000 0.039549 0.000000
# 6 0.000000 0.000000 0.000000 -0.000761 0.000000 0.034115
#
#
# Mechanical properties :
#
#
# Convention : Reuss Voigt Hill
#
# Bulk Modulus (GPa) = 49.10742 54.22044 51.66393
# Shear Modulus (GPa) = 33.07705 35.68815 34.38260
#
# Velocity S-wave (km/s) = 3.87940 4.02961 3.95522
# Velocity P-wave (km/s) = 6.51228 6.80589 6.66070
#
# Compressibility (1/GPa) = 0.02036352
#
# Stress axis : x y z
#
# Youngs Moduli (GPa) = 93.21200 80.79125 104.86291
#
# Poissons Ratio (x) = -0.01296 0.34559
# Poissons Ratio (y) = -0.01495 0.31501
# Poissons Ratio (z) = 0.30720 0.24270
#
# Static dielectric constant tensor:
#      x y z
#    x 4.048710 0.000000 0.008360 
#    y 0.000000 3.821400 0.000000 
#    z 0.008360 0.000000 4.179310 
# 
# 
# High freq. dielectric constant tensor:
#      x y z
#    x 1.868810 0.000000 -0.001720 
#    y 0.000000 1.861180 0.000000 
#    z -0.001720 0.000000 1.879790 
# 
# From -- ./inp_files/9307.got.cif
#   From: 2010.03.12/outbox.cif.g09.slc.cpg/sg5_5_cif.got.tgz:9307.got - 2010.03.31 09:47:26.
