data_PCOD8051844
_publ_section_title
;
Structure prediction by ZEFSAII (Michael W. Deem and Ramdas Pophale) SiO2 
 PCOD8051844
Probable space group: C 2
;
_chemical_formula_sum "Si O2"
_cell_formula_units_Z 30
_cell_length_a 30.794942
_cell_length_b 8.513906
_cell_length_c 9.131494
_cell_angle_alpha 90.000000
_cell_angle_beta 142.475610
_cell_angle_gamma 90.000000
_cell_volume 1458.270305
_symmetry_space_group_name_H-M "C 2"
_symmetry_group_IT_number 5
_symmetry_cell_setting 'monoclinic'
loop_
_space_group_symop_operation_xyz
x,y,z
-x,y,-z
1/2+x,1/2+y,z
1/2-x,1/2+y,-z
loop_
_atom_site_type_symbol
_atom_site_label
_atom_site_fract_x
_atom_site_fract_y
_atom_site_fract_z
Si Si1 0.908176 0.920700 0.081947
Si Si2 0.500000 0.161879 0.000000
Si Si3 0.041490 0.117678 0.346153
Si Si4 0.603526 0.086710 0.789871
Si Si5 0.612356 0.413078 0.310670
Si Si6 0.253187 0.922485 0.871875
Si Si7 0.175496 0.090771 0.907630
Si Si8 0.497204 0.967879 0.715969
O O1 0.914376 0.757801 0.189668
O O2 0.849074 0.026270 0.002191
O O3 0.878999 0.906949 0.840000
O O4 0.985237 0.003124 0.276502
O O5 0.567987 0.259924 0.239171
O O6 0.474767 0.061514 0.069431
O O7 0.108225 0.125160 0.629411
O O8 0.015553 0.293997 0.260009
O O9 0.065084 0.057838 0.247689
O O10 0.563140 0.957522 0.780267
O O11 0.570745 0.059043 0.539138
O O12 0.687591 0.051416 0.015892
O O13 0.690763 0.422434 0.586324
O O14 0.225255 0.963903 0.959245
O O15 0.282887 0.749377 0.954775
#
# Coordination Sequence:
#
# PCOD8051844 Si02
#       8
#     4   2   4   4   4   4   4   4
#     4  12  24  42  69 100 133 183 221 282 339 404
#     4  12  24  44  66 108 134 182 220 280 354 400
#     4  11  23  43  69 102 133 177 226 282 338 402
#     4  11  24  45  68 103 137 174 235 278 338 407
#     4  11  25  44  68  95 145 177 224 271 351 415
#     4  11  25  46  65  98 136 180 225 281 339 412
#     4  11  25  41  69  95 131 176 231 278 338 402
#     4  11  25  41  72 102 138 174 226 291 332 404
#
# _framework density 20.572317999999999
#
# number of rings (size 3 to 8) (size 9 to 14) (size 15 to 20)
#    0.000    0.800    4.000    2.000   13.067    1.067 
#    0.000    0.000    0.000    0.000    0.000    0.000 
#    0.000    0.000    0.000    0.000    0.000    0.000 
#
# Total GULP energy -185964.729411 kJ/mol
# GULP energy per Si atom -12397.648627 kJ/mol
# Density = 2.052549 g / cm^3
# Si number density = 20.572318 Si / 1000 Ang^3
#
#
#
# Elastic Constant Matrix: (Units=GPa)
#
#
# Indices 1 2 3 4 5 6 
#
# 1 168.5605 86.4631 80.1074 0.0000 10.2072 0.0000
# 2 86.4631 157.9324 70.3768 0.0000 5.1450 0.0000
# 3 80.1074 70.3768 114.7188 0.0000 16.6725 0.0000
# 4 0.0000 0.0000 0.0000 -36.5732 0.0000 13.4855
# 5 10.2072 5.1450 16.6725 0.0000 40.5645 0.0000
# 6 0.0000 0.0000 0.0000 13.4855 0.0000 34.8728
#
#
#
# Elastic Compliance Matrix: (Units=1/GPa)
#
#
# Indices 1 2 3 4 5 6 
#
# 1 0.009952 -0.003239 -0.004954 0.000000 -0.000057 0.000000
# 2 -0.003239 0.009820 -0.003935 0.000000 0.001187 0.000000
# 3 -0.004954 -0.003935 0.015247 0.000000 -0.004521 0.000000
# 4 0.000000 0.000000 0.000000 -0.023930 0.000000 0.009254
# 5 -0.000057 0.001187 -0.004521 0.000000 0.026374 0.000000
# 6 0.000000 0.000000 0.000000 0.009254 0.000000 0.025097
#
#
# Mechanical properties :
#
#
# Convention : Reuss Voigt Hill
#
# Bulk Modulus (GPa) = 92.90835 101.67849 97.29342
# Shear Modulus (GPa) = 55.30751 21.39043 38.34897
#
# Velocity S-wave (km/s) = 5.19065 3.22804 4.32221
# Velocity P-wave (km/s) = 9.01019 7.96404 8.50322
#
# Compressibility (1/GPa) = 0.01076329
#
# Stress axis : x y z
#
# Youngs Moduli (GPa) = 100.48451 101.83471 65.58488
#
# Poissons Ratio (x) = 0.32983 0.32491
# Poissons Ratio (y) = 0.32546 0.25808
# Poissons Ratio (z) = 0.49780 0.40072
#
# Static dielectric constant tensor:
#      x y z
#    x 4.321510 0.000000 -0.434050 
#    y 0.000000 3.629100 0.000000 
#    z -0.434050 0.000000 4.658810 
# 
# 
# High freq. dielectric constant tensor:
#      x y z
#    x 1.818930 0.000000 -0.001060 
#    y 0.000000 1.812530 0.000000 
#    z -0.001060 0.000000 1.800360 
# 
# From -- ./inp_files/32535.got.cif
#   From: 2010.03.12/outbox.cif.g09.slc.cpg/sg5_17_cif.got.tgz:32535.got - 2010.03.31 09:47:26.
