data_PCOD8051339
_publ_section_title
;
Structure prediction by ZEFSAII (Michael W. Deem and Ramdas Pophale) SiO2 
 PCOD8051339
Probable space group: C 2
;
_chemical_formula_sum "Si O2"
_cell_formula_units_Z 30
_cell_length_a 19.362683
_cell_length_b 11.678713
_cell_length_c 11.055007
_cell_angle_alpha 90.000000
_cell_angle_beta 144.969810
_cell_angle_gamma 90.000000
_cell_volume 1434.952329
_symmetry_space_group_name_H-M "C 2"
_symmetry_group_IT_number 5
_symmetry_cell_setting 'monoclinic'
loop_
_space_group_symop_operation_xyz
x,y,z
-x,y,-z
1/2+x,1/2+y,z
1/2-x,1/2+y,-z
loop_
_atom_site_type_symbol
_atom_site_label
_atom_site_fract_x
_atom_site_fract_y
_atom_site_fract_z
Si Si1 0.861175 0.229180 0.316948
Si Si2 0.500000 0.188283 0.000000
Si Si3 0.806948 0.689261 0.139593
Si Si4 0.256480 0.069517 0.651468
Si Si5 0.139895 0.104235 0.234245
Si Si6 0.242885 0.962179 0.169427
Si Si7 0.532754 0.311354 0.803038
Si Si8 0.773663 0.820673 0.335575
O O1 0.802299 0.143477 0.327344
O O2 0.835889 0.358750 0.324439
O O3 0.000000 0.203923 0.500000
O O4 0.808257 0.209761 0.108517
O O5 0.614142 0.114983 0.208391
O O6 0.452384 0.265670 0.040369
O O7 0.810181 0.558546 0.187545
O O8 0.928284 0.714042 0.237936
O O9 0.797541 0.779194 0.234803
O O10 0.163146 0.067835 0.405641
O O11 0.287282 0.944878 0.750465
O O12 0.189734 0.232103 0.286522
O O13 0.209353 0.013527 0.251093
O O14 0.000000 0.101480 0.000000
O O15 0.123786 0.919413 0.925878
O O16 0.397405 0.344540 0.583474
#
# Coordination Sequence:
#
# PCOD8051339 Si02
#       8
#     4   2   4   4   4   4   4   4
#     4  11  27  44  68  98 135 178 223 277 342 402
#     4  12  24  46  66 100 138 184 228 270 342 410
#     4  10  24  46  67 100 129 177 229 283 337 394
#     4  12  27  45  71 101 139 180 227 282 340 405
#     4  11  26  45  68 102 137 179 225 279 345 409
#     4  10  24  45  70  95 134 180 221 280 337 404
#     4  11  23  44  72  95 137 176 231 276 338 419
#     4  11  26  42  69 102 131 179 228 282 341 400
#
# _framework density 20.906618000000002
#
# number of rings (size 3 to 8) (size 9 to 14) (size 15 to 20)
#    0.000    1.067    4.000    1.200   14.933    2.133 
#    2.400    0.000    0.000    0.000    0.000    0.000 
#    0.000    0.000    0.000    0.000    0.000    0.000 
#
# Total GULP energy -186045.423718 kJ/mol
# GULP energy per Si atom -12403.028248 kJ/mol
# Density = 2.085903 g / cm^3
# Si number density = 20.906618 Si / 1000 Ang^3
#
#
#
# Elastic Constant Matrix: (Units=GPa)
#
#
# Indices 1 2 3 4 5 6 
#
# 1 99.5159 53.7245 14.6241 0.0000 -10.8837 0.0000
# 2 53.7245 141.1270 9.2225 0.0000 -9.7046 0.0000
# 3 14.6241 9.2225 87.9349 0.0000 -3.5824 0.0000
# 4 0.0000 0.0000 0.0000 22.7802 0.0000 -3.4797
# 5 -10.8837 -9.7046 -3.5824 0.0000 41.5743 0.0000
# 6 0.0000 0.0000 0.0000 -3.4797 0.0000 20.1526
#
#
#
# Elastic Compliance Matrix: (Units=1/GPa)
#
#
# Indices 1 2 3 4 5 6 
#
# 1 0.013070 -0.004722 -0.001589 0.000000 0.002182 0.000000
# 2 -0.004722 0.008949 -0.000119 0.000000 0.000843 0.000000
# 3 -0.001589 -0.000119 0.011672 0.000000 0.000562 0.000000
# 4 0.000000 0.000000 0.000000 0.045087 0.000000 0.007785
# 5 0.002182 0.000843 0.000562 0.000000 0.024870 0.000000
# 6 0.000000 0.000000 0.000000 0.007785 0.000000 0.050966
#
#
# Mechanical properties :
#
#
# Convention : Reuss Voigt Hill
#
# Bulk Modulus (GPa) = 48.00647 53.74666 50.87656
# Shear Modulus (GPa) = 28.66702 33.63521 31.15111
#
# Velocity S-wave (km/s) = 3.70698 4.01537 3.86426
# Velocity P-wave (km/s) = 6.42919 6.87469 6.65567
#
# Compressibility (1/GPa) = 0.02083053
#
# Stress axis : x y z
#
# Youngs Moduli (GPa) = 76.51193 111.74522 85.67684
#
# Poissons Ratio (x) = 0.52761 0.13618
# Poissons Ratio (y) = 0.36125 0.01020
# Poissons Ratio (z) = 0.12162 0.01330
#
# Static dielectric constant tensor:
#      x y z
#    x 3.856060 0.000000 0.036960 
#    y 0.000000 3.908770 0.000000 
#    z 0.036960 0.000000 3.784070 
# 
# 
# High freq. dielectric constant tensor:
#      x y z
#    x 1.828290 0.000000 -0.001820 
#    y 0.000000 1.827500 0.000000 
#    z -0.001820 0.000000 1.820060 
# 
# From -- ./inp_files/46503.got.cif
#   From: 2010.03.12/outbox.cif.g09.slc.cpg/sg5_24_cif.got.tgz:46503.got - 2010.03.31 09:47:26.
