data_PCOD8051806
_publ_section_title
;
Structure prediction by ZEFSAII (Michael W. Deem and Ramdas Pophale) SiO2 
 PCOD8051806
Probable space group: C 2
;
_chemical_formula_sum "Si O2"
_cell_formula_units_Z 32
_cell_length_a 15.740707
_cell_length_b 9.075374
_cell_length_c 11.188557
_cell_angle_alpha 90.000000
_cell_angle_beta 65.806099
_cell_angle_gamma 90.000000
_cell_volume 1457.926576
_symmetry_space_group_name_H-M "C 2"
_symmetry_group_IT_number 5
_symmetry_cell_setting 'monoclinic'
loop_
_space_group_symop_operation_xyz
x,y,z
-x,y,-z
1/2+x,1/2+y,z
1/2-x,1/2+y,-z
loop_
_atom_site_type_symbol
_atom_site_label
_atom_site_fract_x
_atom_site_fract_y
_atom_site_fract_z
Si Si1 0.142535 0.821460 0.804044
Si Si2 0.410357 0.610563 0.785300
Si Si3 0.614823 0.576727 0.646050
Si Si4 0.110205 0.344229 0.008205
Si Si5 0.821196 0.835262 0.942112
Si Si6 0.774292 0.090550 0.650407
Si Si7 0.525528 0.123308 0.149022
Si Si8 0.388499 0.881688 0.250303
O O1 0.207372 0.731704 0.673607
O O2 0.040821 0.745438 0.874381
O O3 0.140492 0.986461 0.751366
O O4 0.185318 0.816710 0.911351
O O5 0.506882 0.542738 0.681802
O O6 0.434006 0.755130 0.853186
O O7 0.355796 0.500219 0.902341
O O8 0.350462 0.640999 0.702632
O O9 0.678504 0.532744 0.498065
O O10 0.628847 0.752608 0.646701
O O11 0.086177 0.518935 0.026297
O O12 0.219934 0.310981 0.946958
O O13 0.071837 0.306481 0.896410
O O14 0.892813 0.720002 0.834576
O O15 0.710238 0.954383 0.729753
O O16 0.460065 0.007903 0.261818
#
# Coordination Sequence:
#
# PCOD8051806 Si02
#       8
#     4   4   4   4   4   4   4   4
#     4  11  23  42  67  93 125 164 213 263 314 371
#     4  12  24  41  64  96 130 165 205 262 326 370
#     4  12  25  42  66  93 128 166 222 260 289 386
#     4  12  22  39  65  96 130 157 204 263 326 377
#     4  12  22  39  65  96 130 157 204 263 326 377
#     4  11  24  46  63  89 129 180 206 247 324 374
#     4  11  23  39  64  92 126 165 199 258 327 374
#     4  11  23  42  67  93 125 164 213 263 314 371
#
# _framework density 21.948979000000001
#
# number of rings (size 3 to 8) (size 9 to 14) (size 15 to 20)
#    0.000    0.500    5.000    5.625    0.000    1.000 
#    0.000    0.000    0.000    1.500    0.000    0.000 
#    0.000    0.000    0.000    0.000    0.000    0.000 
#
# Total GULP energy -198240.384449 kJ/mol
# GULP energy per Si atom -12390.024028 kJ/mol
# Density = 2.189902 g / cm^3
# Si number density = 21.948979 Si / 1000 Ang^3
#
#
#
# Elastic Constant Matrix: (Units=GPa)
#
#
# Indices 1 2 3 4 5 6 
#
# 1 78.5750 18.5321 18.1500 0.0000 -8.5316 0.0000
# 2 18.5321 95.2602 25.8793 0.0000 4.6337 0.0000
# 3 18.1500 25.8793 81.9731 0.0000 -9.9723 0.0000
# 4 0.0000 0.0000 0.0000 30.1239 0.0000 -4.9812
# 5 -8.5316 4.6337 -9.9723 0.0000 29.5659 0.0000
# 6 0.0000 0.0000 0.0000 -4.9812 0.0000 31.4422
#
#
#
# Elastic Compliance Matrix: (Units=1/GPa)
#
#
# Indices 1 2 3 4 5 6 
#
# 1 0.014153 -0.002422 -0.001904 0.000000 0.003821 0.000000
# 2 -0.002422 0.012186 -0.003783 0.000000 -0.003885 0.000000
# 3 -0.001904 -0.003783 0.014412 0.000000 0.004904 0.000000
# 4 0.000000 0.000000 0.000000 0.034089 0.000000 0.005401
# 5 0.003821 -0.003885 0.004904 0.000000 0.037188 0.000000
# 6 0.000000 0.000000 0.000000 0.005401 0.000000 0.032660
#
#
# Mechanical properties :
#
#
# Convention : Reuss Voigt Hill
#
# Bulk Modulus (GPa) = 40.76442 42.32568 41.54505
# Shear Modulus (GPa) = 29.57120 31.10953 30.34036
#
# Velocity S-wave (km/s) = 3.67450 3.76886 3.72198
# Velocity P-wave (km/s) = 6.05106 6.18584 6.11882
#
# Compressibility (1/GPa) = 0.02453120
#
# Stress axis : x y z
#
# Youngs Moduli (GPa) = 70.65819 82.06474 69.38756
#
# Poissons Ratio (x) = 0.19875 0.13212
# Poissons Ratio (y) = 0.17112 0.26252
# Poissons Ratio (z) = 0.13454 0.31048
#
# Static dielectric constant tensor:
#      x y z
#    x 4.154940 0.000000 -0.334530 
#    y 0.000000 4.031730 0.000000 
#    z -0.334530 0.000000 3.563870 
# 
# 
# High freq. dielectric constant tensor:
#      x y z
#    x 1.880750 0.000000 -0.032400 
#    y 0.000000 1.869700 0.000000 
#    z -0.032400 0.000000 1.830130 
# 
# From -- ./inp_files/41930.got.cif
#   From: 2010.03.12/outbox.cif.g09.slc.cpg/sg5_21_cif.got.tgz:41930.got - 2010.03.31 09:47:26.
