data_PCOD8051887
_publ_section_title
;
Structure prediction by ZEFSAII (Michael W. Deem and Ramdas Pophale) SiO2 
 PCOD8051887
Probable space group: C 2
;
_chemical_formula_sum "Si O2"
_cell_formula_units_Z 30
_cell_length_a 10.901337
_cell_length_b 17.322648
_cell_length_c 11.486108
_cell_angle_alpha 90.000000
_cell_angle_beta 39.545356
_cell_angle_gamma 90.000000
_cell_volume 1381.001608
_symmetry_space_group_name_H-M "C 2"
_symmetry_group_IT_number 5
_symmetry_cell_setting 'monoclinic'
loop_
_space_group_symop_operation_xyz
x,y,z
-x,y,-z
1/2+x,1/2+y,z
1/2-x,1/2+y,-z
loop_
_atom_site_type_symbol
_atom_site_label
_atom_site_fract_x
_atom_site_fract_y
_atom_site_fract_z
Si Si1 0.085849 0.079770 0.816787
Si Si2 0.357197 0.441495 0.900823
Si Si3 0.500000 0.044262 0.500000
Si Si4 0.891005 0.303385 0.473762
Si Si5 0.297510 0.526960 0.710178
Si Si6 0.953735 0.452558 0.305232
Si Si7 0.487350 0.280271 0.872846
Si Si8 0.163266 0.173279 0.177072
O O1 0.313539 0.095851 0.664828
O O2 0.994741 0.132013 0.784858
O O3 0.035167 0.990581 0.823075
O O4 0.000000 0.107252 0.000000
O O5 0.302400 0.465608 0.810715
O O6 0.409442 0.352196 0.857070
O O7 0.180110 0.451583 0.117472
O O8 0.422121 0.996631 0.447738
O O9 0.864132 0.366040 0.389006
O O10 0.693452 0.262279 0.661859
O O11 0.000000 0.348066 0.500000
O O12 0.046260 0.239088 0.327384
O O13 0.500000 0.532043 0.500000
O O14 0.142105 0.497885 0.731328
O O15 0.244645 0.612070 0.798687
O O16 0.500000 0.302132 0.000000
O O17 0.340107 0.207988 0.971022
#
# Coordination Sequence:
#
# PCOD8051887 Si02
#       8
#     4   4   2   4   4   4   4   4
#     4  11  24  45  68 100 140 181 237 292 361 425
#     4  11  23  45  72 104 138 182 240 301 350 433
#     4  12  24  42  74 102 136 186 236 296 342 426
#     4  12  23  44  68 101 139 183 238 297 355 426
#     4  11  25  46  70 107 149 187 238 298 364 433
#     4  12  23  43  74 105 139 183 243 295 360 419
#     4  12  24  42  73 101 138 186 240 294 358 425
#     4  11  26  46  68 104 144 185 237 300 360 435
#
# _framework density 21.723362999999999
#
# number of rings (size 3 to 8) (size 9 to 14) (size 15 to 20)
#    0.000    0.533    4.667    4.400    0.000    3.200 
#    2.400    0.000    1.467    0.000    0.000    0.000 
#    0.000    0.000    0.000    0.000    0.000    0.000 
#
# Total GULP energy -185967.277767 kJ/mol
# GULP energy per Si atom -12397.818518 kJ/mol
# Density = 2.167392 g / cm^3
# Si number density = 21.723363 Si / 1000 Ang^3
#
#
#
# Elastic Constant Matrix: (Units=GPa)
#
#
# Indices 1 2 3 4 5 6 
#
# 1 88.7656 41.2118 33.2024 -0.0072 -6.8526 0.0016
# 2 41.2118 114.3850 31.6887 -0.0078 -3.4434 0.0027
# 3 33.2024 31.6887 133.2217 -0.0036 -26.9720 0.0048
# 4 -0.0072 -0.0078 -0.0036 5.9416 0.0012 11.6101
# 5 -6.8526 -3.4434 -26.9720 0.0012 48.5665 -0.0003
# 6 0.0016 0.0027 0.0048 11.6101 -0.0003 20.8654
#
#
#
# Elastic Compliance Matrix: (Units=1/GPa)
#
#
# Indices 1 2 3 4 5 6 
#
# 1 0.014270 -0.004459 -0.002425 -0.000112 0.000351 0.000062
# 2 -0.004459 0.010770 -0.001604 -0.000106 -0.000756 0.000058
# 3 -0.002425 -0.001604 0.009464 -0.000035 0.004800 0.000018
# 4 -0.000112 -0.000106 -0.000035 -1.928261 0.000012 1.072945
# 5 0.000351 -0.000756 0.004800 0.000012 0.023252 -0.000007
# 6 0.000062 0.000058 0.000018 1.072945 -0.000007 -0.549094
#
#
# Mechanical properties :
#
#
# Convention : Reuss Voigt Hill
#
# Bulk Modulus (GPa) = 57.04765 60.95313 59.00039
# Shear Modulus (GPa) = -2.08613 30.42600 14.16993
#
# Velocity S-wave (km/s) = -0.98102 3.74653 2.55677
# Velocity P-wave (km/s) = 5.00348 6.84362 5.99457
#
# Compressibility (1/GPa) = 0.01752920
#
# Stress axis : x y z
#
# Youngs Moduli (GPa) = 70.07769 92.84665 105.66487
#
# Poissons Ratio (x) = 0.41400 0.25622
# Poissons Ratio (y) = 0.31248 0.16945
# Poissons Ratio (z) = 0.16992 0.14890
#
# Static dielectric constant tensor:
#      x y z
#    x 3.872490 0.000010 0.024100 
#    y 0.000010 3.883180 0.000010 
#    z 0.024100 0.000010 4.246380 
# 
# 
# High freq. dielectric constant tensor:
#      x y z
#    x 1.848480 0.000000 -0.006880 
#    y 0.000000 1.840210 0.000000 
#    z -0.006880 0.000000 1.878430 
# 
# From -- ./inp_files/40447.got.cif
#   From: 2010.03.12/outbox.cif.g09.slc.cpg/sg5_21_cif.got.tgz:40447.got - 2010.03.31 09:47:26.
