data_PCOD8051994
_publ_section_title
;
Structure prediction by ZEFSAII (Michael W. Deem and Ramdas Pophale) SiO2 
 PCOD8051994
Probable space group: C 2
;
_chemical_formula_sum "Si O2"
_cell_formula_units_Z 28
_cell_length_a 10.115389
_cell_length_b 10.053619
_cell_length_c 15.224831
_cell_angle_alpha 90.000000
_cell_angle_beta 122.036659
_cell_angle_gamma 90.000000
_cell_volume 1312.514830
_symmetry_space_group_name_H-M "C 2"
_symmetry_group_IT_number 5
_symmetry_cell_setting 'monoclinic'
loop_
_space_group_symop_operation_xyz
x,y,z
-x,y,-z
1/2+x,1/2+y,z
1/2-x,1/2+y,-z
loop_
_atom_site_type_symbol
_atom_site_label
_atom_site_fract_x
_atom_site_fract_y
_atom_site_fract_z
Si Si1 0.824939 0.814640 0.965322
Si Si2 0.834503 0.449564 0.773878
Si Si3 0.105486 0.185466 0.453955
Si Si4 0.587192 0.671937 0.122444
Si Si5 0.893299 0.141393 0.217307
Si Si6 0.844088 0.576107 0.107407
Si Si7 0.826790 0.896134 0.464226
O O1 0.731386 0.756614 0.848775
O O2 0.735753 0.947182 0.966542
O O3 0.818641 0.704070 0.037948
O O4 0.000000 0.851963 0.000000
O O5 0.902721 0.326361 0.850923
O O6 0.692447 0.510224 0.778629
O O7 0.776401 0.406314 0.658859
O O8 0.973004 0.556480 0.811741
O O9 0.250822 0.286554 0.501367
O O10 0.000000 0.222651 0.500000
O O11 0.003988 0.201261 0.330794
O O12 0.170806 0.036246 0.484539
O O13 0.494771 0.598055 0.168017
O O14 0.758227 0.605556 0.170493
O O15 0.500000 0.652770 0.000000
O O16 0.000000 0.848908 0.500000
#
# Coordination Sequence:
#
# PCOD8051994 Si02
#       7
#     4   4   4   4   4   4   4
#     4  12  26  41  68 101 141 186 235 285 346 413
#     4  12  25  47  71  99 141 190 230 290 356 410
#     4  11  24  49  72 104 140 180 228 299 348 419
#     4  12  26  43  70 104 144 184 237 287 337 415
#     4  12  24  47  69  99 146 182 229 292 348 409
#     4  12  26  44  67 102 140 185 237 285 342 416
#     4  11  24  48  74 103 141 180 238 288 357 418
#
# _framework density 21.333092000000001
#
# number of rings (size 3 to 8) (size 9 to 14) (size 15 to 20)
#    0.000    0.286    8.571    0.429    4.000    1.714 
#    5.143    0.000    0.000    0.000    0.000    0.000 
#    0.000    0.000    0.000    0.000    0.000    0.000 
#
# Total GULP energy -173643.675635 kJ/mol
# GULP energy per Si atom -12403.119688 kJ/mol
# Density = 2.128454 g / cm^3
# Si number density = 21.333092 Si / 1000 Ang^3
#
#
#
# Elastic Constant Matrix: (Units=GPa)
#
#
# Indices 1 2 3 4 5 6 
#
# 1 166.1216 64.7804 46.4839 0.0000 -0.9262 0.0000
# 2 64.7804 63.9956 8.5777 0.0000 7.6981 0.0000
# 3 46.4839 8.5777 102.4420 0.0000 -4.7958 0.0000
# 4 0.0000 0.0000 0.0000 15.0664 0.0000 -0.9018
# 5 -0.9262 7.6981 -4.7958 0.0000 22.1175 0.0000
# 6 0.0000 0.0000 0.0000 -0.9018 0.0000 47.4273
#
#
#
# Elastic Compliance Matrix: (Units=1/GPa)
#
#
# Indices 1 2 3 4 5 6 
#
# 1 0.011850 -0.011879 -0.004208 0.000000 0.003718 0.000000
# 2 -0.011879 0.028496 0.002542 0.000000 -0.009864 0.000000
# 3 -0.004208 0.002542 0.011526 0.000000 0.001438 0.000000
# 4 0.000000 0.000000 0.000000 0.066448 0.000000 0.001263
# 5 0.003718 -0.009864 0.001438 0.000000 0.049114 0.000000
# 6 0.000000 0.000000 0.000000 0.001263 0.000000 0.021109
#
#
# Mechanical properties :
#
#
# Convention : Reuss Voigt Hill
#
# Bulk Modulus (GPa) = 40.35137 63.58260 51.96699
# Shear Modulus (GPa) = 22.33200 31.10339 26.71770
#
# Velocity S-wave (km/s) = 3.23898 3.82250 3.54277
# Velocity P-wave (km/s) = 5.73968 7.02506 6.41465
#
# Compressibility (1/GPa) = 0.02478231
#
# Stress axis : x y z
#
# Youngs Moduli (GPa) = 84.38665 35.09228 86.76265
#
# Poissons Ratio (x) = 0.41685 0.36514
# Poissons Ratio (y) = 1.00240 -0.22057
# Poissons Ratio (z) = 0.35514 -0.08921
#
# Static dielectric constant tensor:
#      x y z
#    x 4.705320 0.000000 0.063060 
#    y 0.000000 3.956570 0.000000 
#    z 0.063060 0.000000 3.801130 
# 
# 
# High freq. dielectric constant tensor:
#      x y z
#    x 1.859090 0.000000 0.006770 
#    y 0.000000 1.839670 0.000000 
#    z 0.006770 0.000000 1.826750 
# 
# From -- ./inp_files/50332.got.cif
#   From: 2010.03.12/outbox.cif.g09.slc.cpg/sg5_26_cif.got.tgz:50332.got - 2010.03.31 09:47:26.
