data_PCOD8051021
_publ_section_title
;
Structure prediction by ZEFSAII (Michael W. Deem and Ramdas Pophale) SiO2 
 PCOD8051021
Probable space group: C 2
;
_chemical_formula_sum "Si O2"
_cell_formula_units_Z 18
_cell_length_a 4.987562
_cell_length_b 21.425910
_cell_length_c 6.907836
_cell_angle_alpha 90.000000
_cell_angle_beta 68.838067
_cell_angle_gamma 90.000000
_cell_volume 688.411603
_symmetry_space_group_name_H-M "C 2"
_symmetry_group_IT_number 5
_symmetry_cell_setting 'monoclinic'
loop_
_space_group_symop_operation_xyz
x,y,z
-x,y,-z
1/2+x,1/2+y,z
1/2-x,1/2+y,-z
loop_
_atom_site_type_symbol
_atom_site_label
_atom_site_fract_x
_atom_site_fract_y
_atom_site_fract_z
Si Si1 0.844521 0.177400 0.244262
Si Si2 0.911213 0.040489 0.244261
Si Si3 0.092989 0.461774 0.756513
Si Si4 0.000000 0.858944 0.500000
Si Si5 0.849498 0.756115 0.243487
O O1 0.826600 0.108945 0.346801
O O2 0.518447 0.200664 0.308546
O O3 0.021744 0.230739 0.315128
O O4 0.000000 0.170361 0.000000
O O5 0.663118 0.987152 0.315128
O O6 0.172996 0.017223 0.308547
O O7 0.000000 0.047529 0.000000
O O8 0.226756 0.398379 0.641872
O O9 0.000000 0.447817 0.000000
O O10 0.868631 0.819510 0.358127
O O11 0.000000 0.770071 0.000000
#
# Coordination Sequence:
#
# PCOD8051021 Si02
#       5
#     4   4   4   2   4
#     4   9  18  38  68  99 131 170 221 283 349 405
#     4   9  18  38  68  99 131 170 221 283 349 405
#     4  10  23  41  66  99 135 179 226 279 338 402
#     4  12  28  46  68 100 144 190 236 276 328 408
#     4  10  23  41  66  99 135 179 226 279 338 402
#
# _framework density 26.147148000000001
#
# number of rings (size 3 to 8) (size 9 to 14) (size 15 to 20)
#    0.000    2.222    0.000    1.333    0.000   16.000 
#    0.000    4.444    0.000    0.000    0.000    0.000 
#    0.000    0.000    0.000    0.000    0.000    0.000 
#
# Total GULP energy -111621.014352 kJ/mol
# GULP energy per Si atom -12402.334928 kJ/mol
# Density = 2.608764 g / cm^3
# Si number density = 26.147148 Si / 1000 Ang^3
#
#
#
# Elastic Constant Matrix: (Units=GPa)
#
#
# Indices 1 2 3 4 5 6 
#
# 1 143.7852 46.8270 -16.8469 0.0000 -10.9144 0.0000
# 2 46.8270 190.6946 33.9976 0.0000 -1.2517 0.0000
# 3 -16.8469 33.9976 57.3990 0.0000 2.4944 0.0000
# 4 0.0000 0.0000 0.0000 -15.3199 0.0000 -8.3214
# 5 -10.9144 -1.2517 2.4944 0.0000 25.6194 0.0000
# 6 0.0000 0.0000 0.0000 -8.3214 0.0000 70.3225
#
#
#
# Elastic Compliance Matrix: (Units=1/GPa)
#
#
# Indices 1 2 3 4 5 6 
#
# 1 0.008580 -0.002808 0.004046 0.000000 0.003124 0.000000
# 2 -0.002808 0.006792 -0.004830 0.000000 -0.000394 0.000000
# 3 0.004046 -0.004830 0.021496 0.000000 -0.000605 0.000000
# 4 0.000000 0.000000 0.000000 -0.061333 0.000000 -0.007258
# 5 0.003124 -0.000394 -0.000605 0.000000 0.040404 0.000000
# 6 0.000000 0.000000 0.000000 -0.007258 0.000000 0.013361
#
#
# Mechanical properties :
#
#
# Convention : Reuss Voigt Hill
#
# Bulk Modulus (GPa) = 33.68727 57.75936 45.72331
# Shear Modulus (GPa) = 107.80476 37.98447 72.89461
#
# Velocity S-wave (km/s) = 6.42803 3.81559 5.28575
# Velocity P-wave (km/s) = 8.24648 6.44591 7.40115
#
# Compressibility (1/GPa) = 0.02968481
#
# Stress axis : x y z
#
# Youngs Moduli (GPa) = 116.54446 147.23284 46.51947
#
# Poissons Ratio (x) = 0.41340 -0.18820
# Poissons Ratio (y) = 0.32723 0.22468
# Poissons Ratio (z) = -0.47150 0.71112
#
# Static dielectric constant tensor:
#      x y z
#    x 4.832870 0.000000 0.004770 
#    y 0.000000 4.689380 0.000000 
#    z 0.004770 0.000000 4.882890 
# 
# 
# High freq. dielectric constant tensor:
#      x y z
#    x 2.049360 0.000000 0.003070 
#    y 0.000000 2.047320 0.000000 
#    z 0.003070 0.000000 2.080930 
# 
# From -- ./inp_files/12017.got.cif
#   From: 2010.03.12/outbox.cif.g09.slc.cpg/sg5_7_cif.got.tgz:12017.got - 2010.03.31 09:47:26.
