data_PCOD8051996
_publ_section_title
;
Structure prediction by ZEFSAII (Michael W. Deem and Ramdas Pophale) SiO2 
 PCOD8051996
Probable space group: C 2
;
_chemical_formula_sum "Si O2"
_cell_formula_units_Z 22
_cell_length_a 10.638976
_cell_length_b 8.281521
_cell_length_c 11.510523
_cell_angle_alpha 90.000000
_cell_angle_beta 112.883190
_cell_angle_gamma 90.000000
_cell_volume 934.341940
_symmetry_space_group_name_H-M "C 2"
_symmetry_group_IT_number 5
_symmetry_cell_setting 'monoclinic'
loop_
_space_group_symop_operation_xyz
x,y,z
-x,y,-z
1/2+x,1/2+y,z
1/2-x,1/2+y,-z
loop_
_atom_site_type_symbol
_atom_site_label
_atom_site_fract_x
_atom_site_fract_y
_atom_site_fract_z
Si Si1 0.353389 0.876910 0.488779
Si Si2 0.000000 0.057181 0.000000
Si Si3 0.881206 0.649282 0.172163
Si Si4 0.343536 0.307504 0.787820
Si Si5 0.180179 0.288485 0.929685
Si Si6 0.355572 0.219512 0.428221
O O1 0.500000 0.797575 0.500000
O O2 0.237189 0.872405 0.350404
O O3 0.285273 0.805769 0.581830
O O4 0.378788 0.065599 0.522059
O O5 0.887484 0.951966 0.892381
O O6 0.057924 0.172841 0.921233
O O7 0.867600 0.471196 0.112960
O O8 0.834802 0.660825 0.288871
O O9 0.037964 0.695037 0.214803
O O10 0.794871 0.783615 0.071658
O O11 0.240042 0.207720 0.832819
O O12 0.500000 0.319368 0.500000
#
# Coordination Sequence:
#
# PCOD8051996 Si02
#       6
#     4   2   4   4   4   4
#     4  11  26  48  73 106 146 191 249 302 362 428
#     4  12  26  44  72 110 148 190 244 292 380 434
#     4  12  24  48  76 104 152 189 243 299 374 431
#     4  12  24  48  70 105 150 188 245 303 360 446
#     4  12  25  45  72 111 145 189 237 309 363 441
#     4  11  24  50  72 106 143 194 242 304 359 440
#
# _framework density 23.545981999999999
#
# number of rings (size 3 to 8) (size 9 to 14) (size 15 to 20)
#    0.000    0.364    7.273    0.000    2.545    3.636 
#    6.545    0.000    0.000    0.000    0.000    0.000 
#    0.000    0.000    0.000    0.000    0.000    0.000 
#
# Total GULP energy -136302.196972 kJ/mol
# GULP energy per Si atom -12391.108816 kJ/mol
# Density = 2.349239 g / cm^3
# Si number density = 23.545982 Si / 1000 Ang^3
#
#
#
# Elastic Constant Matrix: (Units=GPa)
#
#
# Indices 1 2 3 4 5 6 
#
# 1 173.3108 55.5998 20.8792 0.0000 -23.7675 0.0000
# 2 55.5998 85.9624 40.4088 0.0000 -17.8618 0.0000
# 3 20.8792 40.4088 92.9271 0.0000 -8.6010 0.0000
# 4 0.0000 0.0000 0.0000 28.1996 0.0000 -2.1406
# 5 -23.7675 -17.8618 -8.6010 0.0000 53.0978 0.0000
# 6 0.0000 0.0000 0.0000 -2.1406 0.0000 24.8767
#
#
#
# Elastic Compliance Matrix: (Units=1/GPa)
#
#
# Indices 1 2 3 4 5 6 
#
# 1 0.007466 -0.004697 0.000536 0.000000 0.001849 0.000000
# 2 -0.004697 0.018440 -0.006684 0.000000 0.003018 0.000000
# 3 0.000536 -0.006684 0.013565 0.000000 0.000189 0.000000
# 4 0.000000 0.000000 0.000000 0.035695 0.000000 0.003072
# 5 0.001849 0.003018 0.000189 0.000000 0.020707 0.000000
# 6 0.000000 0.000000 0.000000 0.003072 0.000000 0.040462
#
#
# Mechanical properties :
#
#
# Convention : Reuss Voigt Hill
#
# Bulk Modulus (GPa) = 56.23933 65.10843 60.67388
# Shear Modulus (GPa) = 30.49724 36.92233 33.70979
#
# Velocity S-wave (km/s) = 3.60282 3.96421 3.78783
# Velocity P-wave (km/s) = 6.42214 6.97603 6.70480
#
# Compressibility (1/GPa) = 0.01778115
#
# Stress axis : x y z
#
# Youngs Moduli (GPa) = 133.94712 54.23089 73.72143
#
# Poissons Ratio (x) = 0.25470 -0.03951
# Poissons Ratio (y) = 0.62909 0.49274
# Poissons Ratio (z) = -0.07179 0.36247
#
# Static dielectric constant tensor:
#      x y z
#    x 4.888160 0.000000 -0.139210 
#    y 0.000000 4.069700 0.000000 
#    z -0.139210 0.000000 4.243020 
# 
# 
# High freq. dielectric constant tensor:
#      x y z
#    x 1.966180 0.000000 -0.003540 
#    y 0.000000 1.903740 0.000000 
#    z -0.003540 0.000000 1.938400 
# 
# From -- ./inp_files/38081.got.cif
#   From: 2010.03.12/outbox.cif.g09.slc.cpg/sg5_20_cif.got.tgz:38081.got - 2010.03.31 09:47:26.
