data_PCOD8051359
_publ_section_title
;
Structure prediction by ZEFSAII (Michael W. Deem and Ramdas Pophale) SiO2 
 PCOD8051359
Probable space group: C 2
;
_chemical_formula_sum "Si O2"
_cell_formula_units_Z 20
_cell_length_a 11.018113
_cell_length_b 13.871619
_cell_length_c 8.080716
_cell_angle_alpha 90.000000
_cell_angle_beta 130.640403
_cell_angle_gamma 90.000000
_cell_volume 937.170331
_symmetry_space_group_name_H-M "C 2"
_symmetry_group_IT_number 5
_symmetry_cell_setting 'monoclinic'
loop_
_space_group_symop_operation_xyz
x,y,z
-x,y,-z
1/2+x,1/2+y,z
1/2-x,1/2+y,-z
loop_
_atom_site_type_symbol
_atom_site_label
_atom_site_fract_x
_atom_site_fract_y
_atom_site_fract_z
Si Si1 0.158889 0.958070 0.236674
Si Si2 0.014378 0.124497 0.319030
Si Si3 0.677258 0.074321 0.886659
Si Si4 0.500000 0.212252 0.500000
Si Si5 0.000000 0.455975 0.000000
Si Si6 0.293240 0.812914 0.601122
O O1 0.225158 0.861083 0.375546
O O2 0.123842 0.039766 0.342234
O O3 0.292687 0.995663 0.229166
O O4 0.000000 0.927677 0.000000
O O5 0.094974 0.225852 0.353532
O O6 0.000000 0.105164 0.500000
O O7 0.842819 0.127913 0.077023
O O8 0.546645 0.149255 0.701978
O O9 0.613263 0.024201 0.993507
O O10 0.649236 0.278798 0.588625
O O11 0.107271 0.391257 0.211997
#
# Coordination Sequence:
#
# PCOD8051359 Si02
#       6
#     4   4   4   2   2   4
#     4  10  24  46  70  98 138 185 227 287 345 403
#     4  11  25  46  73  98 141 185 231 285 348 404
#     4  11  25  48  70  96 142 186 230 284 351 402
#     4  12  26  44  72 100 140 180 234 288 344 408
#     4  12  28  44  72 104 138 186 234 282 344 414
#     4  12  27  44  71 107 137 181 237 284 342 412
#
# _framework density 21.340838999999999
#
# number of rings (size 3 to 8) (size 9 to 14) (size 15 to 20)
#    0.000    0.800    2.000    3.600   14.000    1.600 
#    0.000    0.000    0.000    0.000    0.000    0.000 
#    0.000    0.000    0.000    0.000    0.000    0.000 
#
# Total GULP energy -124084.525195 kJ/mol
# GULP energy per Si atom -12408.452520 kJ/mol
# Density = 2.129227 g / cm^3
# Si number density = 21.340839 Si / 1000 Ang^3
#
#
#
# Elastic Constant Matrix: (Units=GPa)
#
#
# Indices 1 2 3 4 5 6 
#
# 1 131.5648 52.7810 27.1063 0.0000 -10.3774 0.0000
# 2 52.7810 125.4032 56.3485 0.0000 4.0932 0.0000
# 3 27.1063 56.3485 99.6983 0.0000 -3.8053 0.0000
# 4 0.0000 0.0000 0.0000 50.8141 0.0000 -1.5944
# 5 -10.3774 4.0932 -3.8053 0.0000 37.7797 0.0000
# 6 0.0000 0.0000 0.0000 -1.5944 0.0000 24.9252
#
#
#
# Elastic Compliance Matrix: (Units=1/GPa)
#
#
# Indices 1 2 3 4 5 6 
#
# 1 0.009485 -0.003999 -0.000203 0.000000 0.003018 0.000000
# 2 -0.003999 0.012495 -0.006092 0.000000 -0.003066 0.000000
# 3 -0.000203 -0.006092 0.013604 0.000000 0.001974 0.000000
# 4 0.000000 0.000000 0.000000 0.019719 0.000000 0.001261
# 5 0.003018 -0.003066 0.001974 0.000000 0.027829 0.000000
# 6 0.000000 0.000000 0.000000 0.001261 0.000000 0.040201
#
#
# Mechanical properties :
#
#
# Convention : Reuss Voigt Hill
#
# Bulk Modulus (GPa) = 66.68740 69.90420 68.29580
# Shear Modulus (GPa) = 33.57503 37.39916 35.48709
#
# Velocity S-wave (km/s) = 3.97076 4.19079 4.08226
# Velocity P-wave (km/s) = 7.23458 7.49961 7.36829
#
# Compressibility (1/GPa) = 0.01499534
#
# Stress axis : x y z
#
# Youngs Moduli (GPa) = 105.42681 80.03282 73.50889
#
# Poissons Ratio (x) = 0.32009 0.01494
# Poissons Ratio (y) = 0.42165 0.44779
# Poissons Ratio (z) = 0.02143 0.48753
#
# Static dielectric constant tensor:
#      x y z
#    x 3.970900 0.000000 0.011200 
#    y 0.000000 3.856040 0.000000 
#    z 0.011200 0.000000 4.069350 
# 
# 
# High freq. dielectric constant tensor:
#      x y z
#    x 1.849460 0.000000 0.002740 
#    y 0.000000 1.839840 0.000000 
#    z 0.002740 0.000000 1.857890 
# 
# From -- ./inp_files/19240.got.cif
#   From: 2010.03.12/outbox.cif.g09.slc.cpg/sg5_10_cif.got.tgz:19240.got - 2010.03.31 09:47:26.
