data_PCOD8051251
_publ_section_title
;
Structure prediction by ZEFSAII (Michael W. Deem and Ramdas Pophale) SiO2 
 PCOD8051251
Probable space group: C 2
;
_chemical_formula_sum "Si O2"
_cell_formula_units_Z 28
_cell_length_a 19.704864
_cell_length_b 11.593282
_cell_length_c 16.433399
_cell_angle_alpha 90.000000
_cell_angle_beta 160.365083
_cell_angle_gamma 90.000000
_cell_volume 1261.477834
_symmetry_space_group_name_H-M "C 2"
_symmetry_group_IT_number 5
_symmetry_cell_setting 'monoclinic'
loop_
_space_group_symop_operation_xyz
x,y,z
-x,y,-z
1/2+x,1/2+y,z
1/2-x,1/2+y,-z
loop_
_atom_site_type_symbol
_atom_site_label
_atom_site_fract_x
_atom_site_fract_y
_atom_site_fract_z
Si Si1 0.466467 0.806090 0.055741
Si Si2 0.687100 0.157216 0.506012
Si Si3 0.641223 0.118840 0.732823
Si Si4 0.932377 0.066755 0.559827
Si Si5 0.988220 0.974866 0.801783
Si Si6 0.797436 0.547904 0.858130
Si Si7 0.102181 0.720093 0.241689
O O1 0.672653 0.772184 0.335127
O O2 0.500000 0.779893 0.000000
O O3 0.274059 0.731058 0.864784
O O4 0.428286 0.938961 0.035360
O O5 0.511513 0.161300 0.371931
O O6 0.576434 0.147961 0.295322
O O7 0.839454 0.050784 0.689197
O O8 0.500000 0.075862 0.500000
O O9 0.780786 0.012703 0.919942
O O10 0.800388 0.007233 0.338585
O O11 0.829912 0.191749 0.465608
O O12 0.148095 0.086472 0.761974
O O13 0.947731 0.986918 0.658413
O O14 0.947754 0.851117 0.795298
O O15 0.935725 0.660018 0.995723
#
# Coordination Sequence:
#
# PCOD8051251 Si02
#       7
#     4   4   4   4   4   4   4
#     4  11  23  38  67 103 131 169 225 284 339 404
#     4  10  24  42  66  97 134 175 222 284 344 401
#     4  11  23  43  67  96 135 178 225 282 343 409
#     4  10  24  47  65 103 134 179 228 285 344 400
#     4  10  25  44  66  99 134 178 234 279 344 416
#     4  11  25  42  72 101 137 175 235 281 339 417
#     4  11  24  44  69  94 140 178 222 279 343 410
#
# _framework density 22.196189
#
# number of rings (size 3 to 8) (size 9 to 14) (size 15 to 20)
#    0.000    1.429    1.429    2.143   10.000    1.143 
#    7.714    0.000    0.000    0.000    0.000    0.000 
#    0.000    0.000    0.000    0.000    0.000    0.000 
#
# Total GULP energy -173491.639361 kJ/mol
# GULP energy per Si atom -12392.259954 kJ/mol
# Density = 2.214567 g / cm^3
# Si number density = 22.196189 Si / 1000 Ang^3
#
#
#
# Elastic Constant Matrix: (Units=GPa)
#
#
# Indices 1 2 3 4 5 6 
#
# 1 133.3840 38.7323 47.1377 0.0084 31.4136 0.0045
# 2 38.7323 148.5076 58.6138 0.0304 17.9470 0.0230
# 3 47.1377 58.6138 111.0999 0.0136 22.8367 0.0138
# 4 0.0084 0.0304 0.0136 22.3669 0.0261 -1.6661
# 5 31.4136 17.9470 22.8367 0.0261 42.3435 0.0217
# 6 0.0045 0.0230 0.0138 -1.6661 0.0217 21.7848
#
#
#
# Elastic Compliance Matrix: (Units=1/GPa)
#
#
# Indices 1 2 3 4 5 6 
#
# 1 0.010009 -0.000897 -0.002615 0.000006 -0.005635 0.000007
# 2 -0.000897 0.008652 -0.004012 -0.000008 -0.000838 -0.000006
# 3 -0.002615 -0.004012 0.012910 0.000002 -0.003322 0.000000
# 4 0.000006 -0.000008 0.000002 0.044965 -0.000032 0.003439
# 5 -0.005635 -0.000838 -0.003322 -0.000032 0.029943 -0.000028
# 6 0.000007 -0.000006 0.000000 0.003439 -0.000028 0.046167
#
#
# Mechanical properties :
#
#
# Convention : Reuss Voigt Hill
#
# Bulk Modulus (GPa) = 60.52259 75.77324 68.14791
# Shear Modulus (GPa) = 28.86801 33.86623 31.36712
#
# Velocity S-wave (km/s) = 3.61027 3.91035 3.76330
# Velocity P-wave (km/s) = 6.68618 7.38917 7.04645
#
# Compressibility (1/GPa) = 0.01652276
#
# Stress axis : x y z
#
# Youngs Moduli (GPa) = 99.91107 115.57519 77.46056
#
# Poissons Ratio (x) = 0.10372 0.20255
# Poissons Ratio (y) = 0.08966 0.31076
# Poissons Ratio (z) = 0.26126 0.46367
#
# Static dielectric constant tensor:
#      x y z
#    x 4.342290 0.000010 -0.207490 
#    y 0.000010 3.675390 -0.000050 
#    z -0.207490 -0.000050 4.509970 
# 
# 
# High freq. dielectric constant tensor:
#      x y z
#    x 1.889100 0.000000 0.004290 
#    y 0.000000 1.849820 0.000000 
#    z 0.004290 0.000000 1.890580 
# 
# From -- ./inp_files/62909.got.cif
#   From: 2010.03.12/outbox.cif.g09.slc.cpg/sg5_32_cif.got.tgz:62909.got - 2010.03.31 09:47:26.
