data_PCOD8051716
_publ_section_title
;
Structure prediction by ZEFSAII (Michael W. Deem and Ramdas Pophale) SiO2 
 PCOD8051716
Probable space group: C 2
;
_chemical_formula_sum "Si O2"
_cell_formula_units_Z 32
_cell_length_a 11.233994
_cell_length_b 15.784615
_cell_length_c 15.265121
_cell_angle_alpha 90.000000
_cell_angle_beta 146.595265
_cell_angle_gamma 90.000000
_cell_volume 1490.270097
_symmetry_space_group_name_H-M "C 2"
_symmetry_group_IT_number 5
_symmetry_cell_setting 'monoclinic'
loop_
_space_group_symop_operation_xyz
x,y,z
-x,y,-z
1/2+x,1/2+y,z
1/2-x,1/2+y,-z
loop_
_atom_site_type_symbol
_atom_site_label
_atom_site_fract_x
_atom_site_fract_y
_atom_site_fract_z
Si Si1 0.916887 0.026760 0.186498
Si Si2 0.706733 0.266578 0.166866
Si Si3 0.922661 0.752476 0.651134
Si Si4 0.302103 0.475028 0.314501
Si Si5 0.764931 0.392723 0.347521
Si Si6 0.161794 0.305361 0.177652
Si Si7 0.104269 0.198681 0.309216
Si Si8 0.498648 0.120667 0.844196
O O1 0.096118 0.098221 0.302555
O O2 0.856400 0.997491 0.247057
O O3 0.711379 0.068379 0.007928
O O4 0.049814 0.951868 0.217614
O O5 0.803832 0.341791 0.282526
O O6 0.611425 0.181248 0.152118
O O7 0.877752 0.239215 0.199062
O O8 0.500000 0.313118 0.000000
O O9 0.760195 0.815122 0.600103
O O10 0.797353 0.713232 0.493633
O O11 0.033022 0.678457 0.778747
O O12 0.105726 0.811269 0.723767
O O13 0.500000 0.451236 0.500000
O O14 0.134195 0.395960 0.208705
O O15 0.182363 0.551378 0.289644
O O16 0.000000 0.440295 0.500000
O O17 0.150012 0.230192 0.239694
O O18 0.000000 0.288960 0.000000
#
# Coordination Sequence:
#
# PCOD8051716 Si02
#       8
#     4   4   4   4   4   4   4   4
#     4  12  24  45  68 103 144 184 232 299 359 422
#     4  11  22  41  71 104 135 183 239 288 352 433
#     4  11  24  46  70 102 141 189 238 287 358 434
#     4  12  24  40  67 105 136 180 238 295 349 416
#     4  11  25  43  71 102 143 184 233 298 363 420
#     4  12  27  45  68 101 143 187 234 290 364 429
#     4  12  24  44  72 101 143 184 239 293 355 437
#     4  11  23  41  72 104 139 181 237 289 356 425
#
# _framework density 21.472618000000001
#
# number of rings (size 3 to 8) (size 9 to 14) (size 15 to 20)
#    0.000    0.500    5.000    3.750    1.750    1.000 
#    0.000    4.375    0.000    0.000    0.000    0.000 
#    0.000    0.000    0.000    0.000    0.000    0.000 
#
# Total GULP energy -198217.124971 kJ/mol
# GULP energy per Si atom -12388.570311 kJ/mol
# Density = 2.142374 g / cm^3
# Si number density = 21.472618 Si / 1000 Ang^3
#
#
#
# Elastic Constant Matrix: (Units=GPa)
#
#
# Indices 1 2 3 4 5 6 
#
# 1 68.5359 20.3628 29.0753 0.0011 -0.1672 0.0007
# 2 20.3628 88.9573 22.7956 0.0000 -0.0463 -0.0036
# 3 29.0753 22.7956 125.3573 -0.0023 -6.9346 -0.0041
# 4 0.0011 0.0000 -0.0023 47.5344 -0.0032 10.5023
# 5 -0.1672 -0.0463 -6.9346 -0.0032 34.2243 0.0010
# 6 0.0007 -0.0036 -0.0041 10.5023 0.0010 25.3730
#
#
#
# Elastic Compliance Matrix: (Units=1/GPa)
#
#
# Indices 1 2 3 4 5 6 
#
# 1 0.016930 -0.003001 -0.003415 0.000000 -0.000613 -0.000001
# 2 -0.003001 0.012329 -0.001563 0.000000 -0.000315 0.000002
# 3 -0.003415 -0.001563 0.009155 0.000000 0.001836 0.000001
# 4 0.000000 0.000000 0.000000 0.023155 0.000002 -0.009584
# 5 -0.000613 -0.000315 0.001836 0.000002 0.029588 -0.000002
# 6 -0.000001 0.000002 0.000001 -0.009584 -0.000002 0.043379
#
#
# Mechanical properties :
#
#
# Convention : Reuss Voigt Hill
#
# Bulk Modulus (GPa) = 44.53207 47.47977 46.00592
# Shear Modulus (GPa) = 31.65002 35.46748 33.55875
#
# Velocity S-wave (km/s) = 3.84340 4.06859 3.95759
# Velocity P-wave (km/s) = 6.36236 6.65064 6.50810
#
# Compressibility (1/GPa) = 0.02245573
#
# Stress axis : x y z
#
# Youngs Moduli (GPa) = 59.06802 81.11201 109.22835
#
# Poissons Ratio (x) = 0.24338 0.37301
# Poissons Ratio (y) = 0.17723 0.17076
# Poissons Ratio (z) = 0.20171 0.12681
#
# Static dielectric constant tensor:
#      x y z
#    x 3.919540 0.000000 -0.253080 
#    y 0.000000 4.002470 0.000000 
#    z -0.253080 0.000000 4.216490 
# 
# 
# High freq. dielectric constant tensor:
#      x y z
#    x 1.835200 0.000000 0.003190 
#    y 0.000000 1.849440 0.000000 
#    z 0.003190 0.000000 1.855650 
# 
# From -- ./inp_files/53469.got.cif
#   From: 2010.03.12/outbox.cif.g09.slc.cpg/sg5_27_cif.got.tgz:53469.got - 2010.03.31 09:47:26.
