data_PCOD8051454
_publ_section_title
;
Structure prediction by ZEFSAII (Michael W. Deem and Ramdas Pophale) SiO2 
 PCOD8051454
Probable space group: C 2
;
_chemical_formula_sum "Si O2"
_cell_formula_units_Z 24
_cell_length_a 7.240209
_cell_length_b 22.041784
_cell_length_c 10.321296
_cell_angle_alpha 90.000000
_cell_angle_beta 45.258993
_cell_angle_gamma 90.000000
_cell_volume 1169.960949
_symmetry_space_group_name_H-M "C 2"
_symmetry_group_IT_number 5
_symmetry_cell_setting 'monoclinic'
loop_
_space_group_symop_operation_xyz
x,y,z
-x,y,-z
1/2+x,1/2+y,z
1/2-x,1/2+y,-z
loop_
_atom_site_type_symbol
_atom_site_label
_atom_site_fract_x
_atom_site_fract_y
_atom_site_fract_z
Si Si1 0.825288 0.053460 0.204159
Si Si2 0.569587 0.642183 0.264882
Si Si3 0.097940 0.652374 0.662534
Si Si4 0.236735 0.235390 0.974786
Si Si5 0.293070 0.921350 0.706038
Si Si6 0.717623 0.876348 0.002062
O O1 0.028148 0.080382 0.206966
O O2 0.623101 0.105808 0.269330
O O3 0.681828 0.993765 0.325664
O O4 0.000000 0.031255 0.000000
O O5 0.288282 0.667626 0.449424
O O6 0.744250 0.621381 0.298699
O O7 0.715282 0.694682 0.113690
O O8 0.988532 0.716622 0.767062
O O9 0.249597 0.304831 0.008640
O O10 0.000000 0.219059 0.000000
O O11 0.500000 0.893015 0.500000
O O12 0.369101 0.903371 0.816090
O O13 0.997869 0.901300 0.818125
O O14 0.500000 0.891125 0.000000
#
# Coordination Sequence:
#
# PCOD8051454 Si02
#       6
#     4   4   4   4   4   4
#     4  12  22  43  67  92 129 169 206 265 328 382
#     4  11  23  37  61  96 128 163 205 256 319 382
#     4  11  23  37  61  96 128 163 205 256 319 382
#     4  11  22  40  63  88 128 173 205 257 317 378
#     4  11  25  46  71  95 128 177 227 274 320 389
#     4  10  25  45  65  95 133 173 224 270 329 385
#
# _framework density 20.513506
#
# number of rings (size 3 to 8) (size 9 to 14) (size 15 to 20)
#    0.000    1.000    5.000    2.000    4.667    3.333 
#    0.000    3.333    0.000    0.000    0.000    0.000 
#    0.000    0.000    0.000    0.000    0.000    0.000 
#
# Total GULP energy -148785.934504 kJ/mol
# GULP energy per Si atom -12398.827875 kJ/mol
# Density = 2.046682 g / cm^3
# Si number density = 20.513506 Si / 1000 Ang^3
#
#
#
# Elastic Constant Matrix: (Units=GPa)
#
#
# Indices 1 2 3 4 5 6 
#
# 1 104.1106 27.2995 26.4523 0.0000 1.8826 0.0000
# 2 27.2995 103.4968 25.8183 0.0000 6.8214 0.0000
# 3 26.4523 25.8183 144.4179 0.0000 1.1471 0.0000
# 4 0.0000 0.0000 0.0000 15.6585 0.0000 -9.0986
# 5 1.8826 6.8214 1.1471 0.0000 25.8222 0.0000
# 6 0.0000 0.0000 0.0000 -9.0986 0.0000 -1.1611
#
#
#
# Elastic Compliance Matrix: (Units=1/GPa)
#
#
# Indices 1 2 3 4 5 6 
#
# 1 0.010626 -0.002421 -0.001513 0.000000 -0.000068 0.000000
# 2 -0.002421 0.010841 -0.001474 0.000000 -0.002622 0.000000
# 3 -0.001513 -0.001474 0.007464 0.000000 0.000168 0.000000
# 4 0.000000 0.000000 0.000000 0.011500 0.000000 -0.090115
# 5 -0.000068 -0.002622 0.000168 0.000000 0.039417 0.000000
# 6 0.000000 0.000000 0.000000 -0.090115 0.000000 -0.155086
#
#
# Mechanical properties :
#
#
# Convention : Reuss Voigt Hill
#
# Bulk Modulus (GPa) = 55.20255 56.79614 55.99934
# Shear Modulus (GPa) = -85.63753 26.22759 -29.70497
#
# Velocity S-wave (km/s) = -6.46819 3.57956 -3.80948
# Velocity P-wave (km/s) = 5.36792 6.69565 2.82993
#
# Compressibility (1/GPa) = 0.01811511
#
# Stress axis : x y z
#
# Youngs Moduli (GPa) = 94.11257 92.24103 133.98322
#
# Poissons Ratio (x) = 0.22330 0.20270
# Poissons Ratio (y) = 0.22783 0.19748
# Poissons Ratio (z) = 0.14238 0.13595
#
# Static dielectric constant tensor:
#      x y z
#    x 3.897820 0.000000 -0.017770 
#    y 0.000000 3.592910 0.000000 
#    z -0.017770 0.000000 4.036310 
# 
# 
# High freq. dielectric constant tensor:
#      x y z
#    x 1.815550 0.000000 0.000140 
#    y 0.000000 1.788320 0.000000 
#    z 0.000140 0.000000 1.815950 
# 
# From -- ./inp_files/37119.got.cif
#   From: 2010.03.12/outbox.cif.g09.slc.cpg/sg5_19_cif.got.tgz:37119.got - 2010.03.31 09:47:26.
