data_PCOD8051997
_publ_section_title
;
Structure prediction by ZEFSAII (Michael W. Deem and Ramdas Pophale) SiO2 
 PCOD8051997
Probable space group: C 2
;
_chemical_formula_sum "Si O2"
_cell_formula_units_Z 20
_cell_length_a 17.513783
_cell_length_b 5.214366
_cell_length_c 17.518608
_cell_angle_alpha 90.000000
_cell_angle_beta 148.217487
_cell_angle_gamma 90.000000
_cell_volume 842.638704
_symmetry_space_group_name_H-M "C 2"
_symmetry_group_IT_number 5
_symmetry_cell_setting 'monoclinic'
loop_
_space_group_symop_operation_xyz
x,y,z
-x,y,-z
1/2+x,1/2+y,z
1/2-x,1/2+y,-z
loop_
_atom_site_type_symbol
_atom_site_label
_atom_site_fract_x
_atom_site_fract_y
_atom_site_fract_z
Si Si1 0.742588 0.421170 0.745997
Si Si2 0.035911 0.609370 0.653228
Si Si3 0.531644 0.397794 0.800311
Si Si4 0.249608 0.213883 0.890872
Si Si5 0.737758 0.437512 0.331619
O O1 0.576839 0.352743 0.633655
O O2 0.815743 0.496302 0.890133
O O3 0.760617 0.652068 0.701529
O O4 0.808949 0.161794 0.766939
O O5 0.897882 0.476062 0.499937
O O6 0.009243 0.678552 0.718542
O O7 0.176095 0.421323 0.771643
O O8 0.623391 0.628515 0.842083
O O9 0.371491 0.472941 0.690625
O O10 0.614029 0.306041 0.945786
#
# Coordination Sequence:
#
# PCOD8051997 Si02
#       5
#     4   4   4   4   4
#     4  11  27  49  74 110 148 194 237 303 374 434
#     4  11  26  47  77 102 151 194 242 295 373 435
#     4  11  27  47  77 109 147 194 251 301 362 436
#     4  11  24  50  73 105 147 201 238 293 377 437
#     4  12  29  46  78 113 146 187 254 308 355 431
#
# _framework density 23.734964999999999
#
# number of rings (size 3 to 8) (size 9 to 14) (size 15 to 20)
#    0.000    0.800    4.000    0.600   14.000    0.800 
#    3.600    0.000    0.000    0.000    0.000    0.000 
#    0.000    0.000    0.000    0.000    0.000    0.000 
#
# Total GULP energy -123912.441621 kJ/mol
# GULP energy per Si atom -12391.244162 kJ/mol
# Density = 2.368094 g / cm^3
# Si number density = 23.734965 Si / 1000 Ang^3
#
#
#
# Elastic Constant Matrix: (Units=GPa)
#
#
# Indices 1 2 3 4 5 6 
#
# 1 71.1997 24.2834 -4.3090 0.0000 3.5652 0.0000
# 2 24.2834 115.1069 9.0998 -0.0001 -6.8671 0.0001
# 3 -4.3090 9.0998 26.2656 0.0000 -10.3079 0.0000
# 4 0.0000 -0.0001 0.0000 27.0582 0.0000 -13.5260
# 5 3.5652 -6.8671 -10.3079 0.0000 25.6293 0.0000
# 6 0.0000 0.0001 0.0000 -13.5260 0.0000 47.9850
#
#
#
# Elastic Compliance Matrix: (Units=1/GPa)
#
#
# Indices 1 2 3 4 5 6 
#
# 1 0.015568 -0.003640 0.003067 0.000000 -0.001908 0.000000
# 2 -0.003640 0.009824 -0.003288 0.000000 0.001816 0.000000
# 3 0.003067 -0.003288 0.046549 0.000000 0.017414 0.000000
# 4 0.000000 0.000000 0.000000 0.043019 0.000000 0.012126
# 5 -0.001908 0.001816 0.017414 0.000000 0.046774 0.000000
# 6 0.000000 0.000000 0.000000 0.012126 0.000000 0.024258
#
#
# Mechanical properties :
#
#
# Convention : Reuss Voigt Hill
#
# Bulk Modulus (GPa) = 15.57228 30.08007 22.82618
# Shear Modulus (GPa) = 23.24281 32.36771 27.80526
#
# Velocity S-wave (km/s) = 3.13272 3.69686 3.42642
# Velocity P-wave (km/s) = 4.43400 5.56086 5.02909
#
# Compressibility (1/GPa) = 0.06421668
#
# Stress axis : x y z
#
# Youngs Moduli (GPa) = 64.23547 101.79290 21.48281
#
# Poissons Ratio (x) = 0.37057 -0.06588
# Poissons Ratio (y) = 0.23385 0.07063
# Poissons Ratio (z) = -0.19698 0.33469
#
# Static dielectric constant tensor:
#      x y z
#    x 4.473600 0.000000 -0.259470 
#    y 0.000000 4.487900 0.000000 
#    z -0.259470 0.000000 3.993930 
# 
# 
# High freq. dielectric constant tensor:
#      x y z
#    x 1.963350 0.000000 -0.020520 
#    y 0.000000 1.945320 0.000000 
#    z -0.020520 0.000000 1.920570 
# 
# From -- ./inp_files/62061.got.cif
#   From: 2010.03.12/outbox.cif.g09.slc.cpg/sg5_32_cif.got.tgz:62061.got - 2010.03.31 09:47:26.
