data_PCOD8051558
_publ_section_title
;
Structure prediction by ZEFSAII (Michael W. Deem and Ramdas Pophale) SiO2 
 PCOD8051558
Probable space group: C 2
;
_chemical_formula_sum "Si O2"
_cell_formula_units_Z 26
_cell_length_a 10.856550
_cell_length_b 8.778760
_cell_length_c 13.662947
_cell_angle_alpha 90.000000
_cell_angle_beta 117.487412
_cell_angle_gamma 90.000000
_cell_volume 1155.175521
_symmetry_space_group_name_H-M "C 2"
_symmetry_group_IT_number 5
_symmetry_cell_setting 'monoclinic'
loop_
_space_group_symop_operation_xyz
x,y,z
-x,y,-z
1/2+x,1/2+y,z
1/2-x,1/2+y,-z
loop_
_atom_site_type_symbol
_atom_site_label
_atom_site_fract_x
_atom_site_fract_y
_atom_site_fract_z
Si Si1 0.930953 0.700840 0.065047
Si Si2 0.045523 0.374919 0.121369
Si Si3 0.977680 0.016707 0.660425
Si Si4 0.852355 0.756760 0.250048
Si Si5 0.183842 0.214203 0.844624
Si Si6 0.781080 0.438766 0.304518
Si Si7 0.000000 0.243465 0.500000
O O1 0.907848 0.783471 0.158915
O O2 0.036416 0.558307 0.115824
O O3 0.778014 0.653408 0.968463
O O4 0.000000 0.800167 0.000000
O O5 0.197997 0.320654 0.206517
O O6 0.941930 0.319296 0.166121
O O7 0.000000 0.305476 0.000000
O O8 0.849010 0.003788 0.685362
O O9 0.116285 0.069962 0.768031
O O10 0.935910 0.133437 0.559671
O O11 0.034688 0.851851 0.643455
O O12 0.860929 0.580852 0.284208
O O13 0.268250 0.319780 0.797238
O O14 0.880062 0.351535 0.416188
#
# Coordination Sequence:
#
# PCOD8051558 Si02
#       7
#     4   4   4   4   4   4   2
#     4  11  23  39  62  99 144 184 221 264 311 386
#     4  11  21  39  64  95 142 185 218 267 309 383
#     4  11  25  45  70  97 129 175 218 280 346 400
#     4  12  24  41  70 102 133 182 227 266 332 395
#     4  11  22  42  64  99 144 177 222 268 323 388
#     4  11  25  47  71  98 130 174 221 285 337 400
#     4  10  28  50  66 100 132 160 224 292 348 406
#
# _framework density 22.507401999999999
#
# number of rings (size 3 to 8) (size 9 to 14) (size 15 to 20)
#    0.000    0.923    4.615    2.769    0.000    4.308 
#    0.000    0.000    0.000    0.000    0.000    0.000 
#    0.000    0.000    0.000    0.000    0.000    0.000 
#
# Total GULP energy -161141.494144 kJ/mol
# GULP energy per Si atom -12395.499550 kJ/mol
# Density = 2.245617 g / cm^3
# Si number density = 22.507402 Si / 1000 Ang^3
#
#
#
# Elastic Constant Matrix: (Units=GPa)
#
#
# Indices 1 2 3 4 5 6 
#
# 1 117.6644 29.7874 21.2410 0.0000 -20.7267 0.0000
# 2 29.7874 110.0949 38.8593 0.0000 -2.5468 0.0000
# 3 21.2410 38.8593 86.1558 0.0000 -1.5746 0.0000
# 4 0.0000 0.0000 0.0000 31.3694 0.0000 -2.4295
# 5 -20.7267 -2.5468 -1.5746 0.0000 23.6251 0.0000
# 6 0.0000 0.0000 0.0000 -2.4295 0.0000 34.0766
#
#
#
# Elastic Compliance Matrix: (Units=1/GPa)
#
#
# Indices 1 2 3 4 5 6 
#
# 1 0.010972 -0.002211 -0.001538 0.000000 0.009285 0.000000
# 2 -0.002211 0.011265 -0.004555 0.000000 -0.001029 0.000000
# 3 -0.001538 -0.004555 0.014024 0.000000 -0.000906 0.000000
# 4 0.000000 0.000000 0.000000 0.032055 0.000000 0.002285
# 5 0.009285 -0.001029 -0.000906 0.000000 0.050302 0.000000
# 6 0.000000 0.000000 0.000000 0.002285 0.000000 0.029509
#
#
# Mechanical properties :
#
#
# Convention : Reuss Voigt Hill
#
# Bulk Modulus (GPa) = 50.88204 54.85450 52.86827
# Shear Modulus (GPa) = 29.19114 32.74940 30.97027
#
# Velocity S-wave (km/s) = 3.60524 3.81865 3.71348
# Velocity P-wave (km/s) = 6.32346 6.62325 6.47509
#
# Compressibility (1/GPa) = 0.01965330
#
# Stress axis : x y z
#
# Youngs Moduli (GPa) = 91.14436 88.77012 71.30709
#
# Poissons Ratio (x) = 0.19625 0.10968
# Poissons Ratio (y) = 0.20150 0.32478
# Poissons Ratio (z) = 0.14019 0.40432
#
# Static dielectric constant tensor:
#      x y z
#    x 4.126190 0.000000 -0.130850 
#    y 0.000000 4.110690 0.000000 
#    z -0.130850 0.000000 3.948610 
# 
# 
# High freq. dielectric constant tensor:
#      x y z
#    x 1.903120 0.000000 -0.002500 
#    y 0.000000 1.889330 0.000000 
#    z -0.002500 0.000000 1.870690 
# 
# From -- ./inp_files/52349.got.cif
#   From: 2010.03.12/outbox.cif.g09.slc.cpg/sg5_27_cif.got.tgz:52349.got - 2010.03.31 09:47:26.
