data_PCOD8051067
_publ_section_title
;
Structure prediction by ZEFSAII (Michael W. Deem and Ramdas Pophale) SiO2 
 PCOD8051067
Probable space group: C 2
;
_chemical_formula_sum "Si O2"
_cell_formula_units_Z 24
_cell_length_a 20.157138
_cell_length_b 8.314469
_cell_length_c 8.915296
_cell_angle_alpha 90.000000
_cell_angle_beta 44.802471
_cell_angle_gamma 90.000000
_cell_volume 1052.886941
_symmetry_space_group_name_H-M "C 2"
_symmetry_group_IT_number 5
_symmetry_cell_setting 'monoclinic'
loop_
_space_group_symop_operation_xyz
x,y,z
-x,y,-z
1/2+x,1/2+y,z
1/2-x,1/2+y,-z
loop_
_atom_site_type_symbol
_atom_site_label
_atom_site_fract_x
_atom_site_fract_y
_atom_site_fract_z
Si Si1 0.682147 0.248290 0.621389
Si Si2 0.500000 0.713866 0.000000
Si Si3 0.208455 0.898523 0.871263
Si Si4 0.485000 0.428054 0.228383
Si Si5 0.500000 0.272913 0.500000
Si Si6 0.177955 0.415420 0.795834
Si Si7 0.318006 0.104048 0.908710
O O1 0.738434 0.356918 0.654300
O O2 0.572452 0.299034 0.780059
O O3 0.738483 0.287914 0.377089
O O4 0.684997 0.064923 0.669755
O O5 0.459576 0.603833 0.202412
O O6 0.419647 0.825823 0.065892
O O7 0.261572 0.054024 0.849169
O O8 0.237752 0.755880 0.936551
O O9 0.096295 0.909883 0.042911
O O10 0.454627 0.394339 0.449397
O O11 0.423847 0.153252 0.694599
O O12 0.182797 0.467585 0.961445
#
# Coordination Sequence:
#
# PCOD8051067 Si02
#       7
#     4   2   4   4   2   4   4
#     4  11  24  45  71 101 142 187 236 291 351 417
#     4  12  26  44  72 106 142 186 234 302 336 420
#     4  10  23  42  69 102 140 186 228 291 349 413
#     4  11  24  44  72 102 141 187 234 289 354 412
#     4  10  26  46  74  98 140 196 226 292 356 416
#     4  11  28  44  72 107 142 186 239 291 351 417
#     4  10  25  45  70 102 140 184 236 287 355 419
#
# _framework density 22.794471000000001
#
# number of rings (size 3 to 8) (size 9 to 14) (size 15 to 20)
#    0.000    1.333    1.667    1.000   16.333    0.000 
#    0.000    0.833    0.000    0.000    0.000    0.000 
#    0.000    0.000    0.000    0.000    0.000    0.000 
#
# Total GULP energy -148700.610567 kJ/mol
# GULP energy per Si atom -12391.717547 kJ/mol
# Density = 2.274259 g / cm^3
# Si number density = 22.794471 Si / 1000 Ang^3
#
#
#
# Elastic Constant Matrix: (Units=GPa)
#
#
# Indices 1 2 3 4 5 6 
#
# 1 100.6403 34.2506 24.8053 0.0000 9.6366 0.0000
# 2 34.2506 58.6244 26.0095 0.0000 16.1633 0.0000
# 3 24.8053 26.0095 99.2169 0.0000 12.4884 0.0000
# 4 0.0000 0.0000 0.0000 48.3644 0.0000 5.9664
# 5 9.6366 16.1633 12.4884 0.0000 40.5068 0.0000
# 6 0.0000 0.0000 0.0000 5.9664 0.0000 42.9736
#
#
#
# Elastic Compliance Matrix: (Units=1/GPa)
#
#
# Indices 1 2 3 4 5 6 
#
# 1 0.012567 -0.006765 -0.001386 0.000000 0.000137 0.000000
# 2 -0.006765 0.024677 -0.003892 0.000000 -0.007038 0.000000
# 3 -0.001386 -0.003892 0.011661 0.000000 -0.001713 0.000000
# 4 0.000000 0.000000 0.000000 0.021037 0.000000 -0.002921
# 5 0.000137 -0.007038 -0.001713 0.000000 0.027991 0.000000
# 6 0.000000 0.000000 0.000000 -0.002921 0.000000 0.023676
#
#
# Mechanical properties :
#
#
# Convention : Reuss Voigt Hill
#
# Bulk Modulus (GPa) = 40.29004 47.62357 43.95681
# Shear Modulus (GPa) = 32.47437 37.93005 35.20221
#
# Velocity S-wave (km/s) = 3.77856 4.08364 3.93406
# Velocity P-wave (km/s) = 6.06221 6.57060 6.32152
#
# Compressibility (1/GPa) = 0.02482003
#
# Stress axis : x y z
#
# Youngs Moduli (GPa) = 79.57237 40.52315 85.75470
#
# Poissons Ratio (x) = 0.27415 0.11883
# Poissons Ratio (y) = 0.53832 0.33375
# Poissons Ratio (z) = 0.11026 0.15771
#
# Static dielectric constant tensor:
#      x y z
#    x 4.270630 0.000000 0.388570 
#    y 0.000000 4.212440 0.000000 
#    z 0.388570 0.000000 4.232450 
# 
# 
# High freq. dielectric constant tensor:
#      x y z
#    x 1.912480 0.000000 0.016820 
#    y 0.000000 1.897550 0.000000 
#    z 0.016820 0.000000 1.896340 
# 
# From -- ./inp_files/22822.got.cif
#   From: 2010.03.12/outbox.cif.g09.slc.cpg/sg5_12_cif.got.tgz:22822.got - 2010.03.31 09:47:26.
