data_PCOD8051375
_publ_section_title
;
Structure prediction by ZEFSAII (Michael W. Deem and Ramdas Pophale) SiO2 
 PCOD8051375
Probable space group: C 2
;
_chemical_formula_sum "Si O2"
_cell_formula_units_Z 30
_cell_length_a 12.838068
_cell_length_b 15.066925
_cell_length_c 15.430381
_cell_angle_alpha 90.000000
_cell_angle_beta 153.282026
_cell_angle_gamma 90.000000
_cell_volume 1341.919638
_symmetry_space_group_name_H-M "C 2"
_symmetry_group_IT_number 5
_symmetry_cell_setting 'monoclinic'
loop_
_space_group_symop_operation_xyz
x,y,z
-x,y,-z
1/2+x,1/2+y,z
1/2-x,1/2+y,-z
loop_
_atom_site_type_symbol
_atom_site_label
_atom_site_fract_x
_atom_site_fract_y
_atom_site_fract_z
Si Si1 0.428951 0.957120 0.708948
Si Si2 0.968698 0.890441 0.374915
Si Si3 0.111873 0.198834 0.842898
Si Si4 0.287197 0.725933 0.895902
Si Si5 0.000000 0.257016 0.500000
Si Si6 0.666685 0.022548 0.048668
Si Si7 0.706129 0.151356 0.421878
Si Si8 0.748335 0.855642 0.830608
O O1 0.624645 0.939448 0.783553
O O2 0.239959 0.878014 0.550501
O O3 0.286102 0.047138 0.588786
O O4 0.535093 0.955257 0.885330
O O5 0.799271 0.810449 0.223420
O O6 0.876255 0.975132 0.253498
O O7 0.000000 0.909603 0.500000
O O8 0.259840 0.268428 0.898291
O O9 0.856631 0.181023 0.616018
O O10 0.249528 0.105690 0.946277
O O11 0.090838 0.244385 0.921264
O O12 0.060658 0.669636 0.751490
O O13 0.500000 0.680333 0.000000
O O14 0.186078 0.198087 0.584006
O O15 0.136617 0.326845 0.658551
O O16 0.500000 0.058797 0.000000
O O17 0.000000 0.893728 0.000000
#
# Coordination Sequence:
#
# PCOD8051375 Si02
#       8
#     4   4   4   4   2   4   4   4
#     4  12  26  45  70 112 148 183 245 309 379 443
#     4  12  26  43  69 107 147 186 234 302 380 440
#     4  11  24  46  73 105 139 194 255 303 363 444
#     4  12  28  46  71 102 151 202 243 296 371 464
#     4  10  24  46  76 104 136 190 248 310 366 430
#     4  12  24  42  73 107 144 184 239 317 375 436
#     4  11  25  46  76 107 144 189 250 310 369 442
#     4  11  25  44  72 101 145 190 239 301 365 450
#
# _framework density 22.356033
#
# number of rings (size 3 to 8) (size 9 to 14) (size 15 to 20)
#    0.000    0.533    4.000    4.000    8.400    1.600 
#    0.000    0.000    0.000    0.000    0.000    0.000 
#    0.000    0.000    0.000    0.000    0.000    0.000 
#
# Total GULP energy -185857.273923 kJ/mol
# GULP energy per Si atom -12390.484928 kJ/mol
# Density = 2.230515 g / cm^3
# Si number density = 22.356033 Si / 1000 Ang^3
#
#
#
# Elastic Constant Matrix: (Units=GPa)
#
#
# Indices 1 2 3 4 5 6 
#
# 1 133.3701 31.9774 94.4103 -0.0708 8.0051 0.0709
# 2 31.9774 66.4985 36.1045 -0.0386 -10.3698 0.1188
# 3 94.4103 36.1045 140.9788 -0.0385 -9.3447 0.0297
# 4 -0.0708 -0.0386 -0.0385 36.0704 -0.0047 -6.3327
# 5 8.0051 -10.3698 -9.3447 -0.0047 54.4806 0.0463
# 6 0.0709 0.1188 0.0297 -6.3327 0.0463 36.9370
#
#
#
# Elastic Compliance Matrix: (Units=1/GPa)
#
#
# Indices 1 2 3 4 5 6 
#
# 1 0.015476 -0.002736 -0.009962 0.000015 -0.004503 -0.000005
# 2 -0.002736 0.018318 -0.002631 0.000002 0.003437 -0.000056
# 3 -0.009962 -0.002631 0.014669 -0.000004 0.003479 0.000011
# 4 0.000015 0.000002 -0.000004 0.028584 -0.000004 0.004901
# 5 -0.004503 0.003437 0.003479 -0.000004 0.020268 -0.000031
# 6 -0.000005 -0.000056 0.000011 0.004901 -0.000031 0.027914
#
#
# Mechanical properties :
#
#
# Convention : Reuss Voigt Hill
#
# Bulk Modulus (GPa) = 56.16260 73.98132 65.07196
# Shear Modulus (GPa) = 30.89831 37.38795 34.14313
#
# Velocity S-wave (km/s) = 3.72170 4.09392 3.91224
# Velocity P-wave (km/s) = 6.60640 7.45058 7.04115
#
# Compressibility (1/GPa) = 0.01780544
#
# Stress axis : x y z
#
# Youngs Moduli (GPa) = 64.61669 54.59042 68.17121
#
# Poissons Ratio (x) = 0.14934 0.67911
# Poissons Ratio (y) = 0.17676 0.17939
# Poissons Ratio (z) = 0.64370 0.14365
#
# Static dielectric constant tensor:
#      x y z
#    x 3.205410 0.000330 0.001420 
#    y 0.000330 3.779540 -0.000280 
#    z 0.001420 -0.000280 4.454800 
# 
# 
# High freq. dielectric constant tensor:
#      x y z
#    x 1.881500 0.000000 -0.000880 
#    y 0.000000 1.863300 -0.000010 
#    z -0.000880 -0.000010 1.911840 
# 
# From -- ./inp_files/53428.got.cif
#   From: 2010.03.12/outbox.cif.g09.slc.cpg/sg5_27_cif.got.tgz:53428.got - 2010.03.31 09:47:26.
