data_PCOD8051095
_publ_section_title
;
Structure prediction by ZEFSAII (Michael W. Deem and Ramdas Pophale) SiO2 
 PCOD8051095
Probable space group: C 2
;
_chemical_formula_sum "Si O2"
_cell_formula_units_Z 18
_cell_length_a 10.851824
_cell_length_b 9.337724
_cell_length_c 8.798908
_cell_angle_alpha 90.000000
_cell_angle_beta 62.475254
_cell_angle_gamma 90.000000
_cell_volume 790.685511
_symmetry_space_group_name_H-M "C 2"
_symmetry_group_IT_number 5
_symmetry_cell_setting 'monoclinic'
loop_
_space_group_symop_operation_xyz
x,y,z
-x,y,-z
1/2+x,1/2+y,z
1/2-x,1/2+y,-z
loop_
_atom_site_type_symbol
_atom_site_label
_atom_site_fract_x
_atom_site_fract_y
_atom_site_fract_z
Si Si1 0.288891 0.470660 0.355661
Si Si2 0.703057 0.742508 0.068607
Si Si3 0.703151 0.155879 0.653261
Si Si4 0.000000 0.072263 0.000000
Si Si5 0.897202 0.546464 0.788602
O O1 0.306745 0.312993 0.414625
O O2 0.315914 0.574038 0.483460
O O3 0.137129 0.514134 0.370267
O O4 0.390072 0.474535 0.151107
O O5 0.739991 0.676277 0.210694
O O6 0.672243 0.912401 0.080130
O O7 0.561721 0.669346 0.097077
O O8 0.825821 0.696195 0.882653
O O9 0.560615 0.063768 0.728544
#
# Coordination Sequence:
#
# PCOD8051095 Si02
#       5
#     4   4   4   2   4
#     4  10  25  44  67  98 139 176 229 276 340 396
#     4  10  24  40  71  99 137 177 230 271 346 392
#     4  11  24  43  69 100 137 179 227 281 334 403
#     4  10  24  46  64 100 142 174 226 286 328 412
#     4  10  23  43  68 101 136 183 223 281 333 411
#
# _framework density 22.765056999999999
#
# number of rings (size 3 to 8) (size 9 to 14) (size 15 to 20)
#    0.000    1.778    0.000    1.333   15.556    2.667 
#    4.000    0.000    0.000    0.000    0.000    0.000 
#    0.000    0.000    0.000    0.000    0.000    0.000 
#
# Total GULP energy -111512.854437 kJ/mol
# GULP energy per Si atom -12390.317160 kJ/mol
# Density = 2.271324 g / cm^3
# Si number density = 22.765057 Si / 1000 Ang^3
#
#
#
# Elastic Constant Matrix: (Units=GPa)
#
#
# Indices 1 2 3 4 5 6 
#
# 1 109.2851 32.3282 29.9822 0.0000 4.3535 0.0000
# 2 32.3282 144.6268 54.1588 0.0000 2.0002 0.0000
# 3 29.9822 54.1588 84.1494 0.0000 -7.1868 0.0000
# 4 0.0000 0.0000 0.0000 40.2074 0.0000 8.0950
# 5 4.3535 2.0002 -7.1868 0.0000 23.0454 0.0000
# 6 0.0000 0.0000 0.0000 8.0950 0.0000 30.2102
#
#
#
# Elastic Compliance Matrix: (Units=1/GPa)
#
#
# Indices 1 2 3 4 5 6 
#
# 1 0.010488 -0.001069 -0.003298 0.000000 -0.002917 0.000000
# 2 -0.001069 0.009384 -0.005867 0.000000 -0.002442 0.000000
# 3 -0.003298 -0.005867 0.017395 0.000000 0.006557 0.000000
# 4 0.000000 0.000000 0.000000 0.026289 0.000000 -0.007044
# 5 -0.002917 -0.002442 0.006557 0.000000 0.046200 0.000000
# 6 0.000000 0.000000 0.000000 -0.007044 0.000000 0.034989
#
#
# Mechanical properties :
#
#
# Convention : Reuss Voigt Hill
#
# Bulk Modulus (GPa) = 59.52995 63.44441 61.48718
# Shear Modulus (GPa) = 29.27174 33.46542 31.36858
#
# Velocity S-wave (km/s) = 3.58972 3.83826 3.71607
# Velocity P-wave (km/s) = 6.58695 6.89730 6.74391
#
# Compressibility (1/GPa) = 0.01679827
#
# Stress axis : x y z
#
# Youngs Moduli (GPa) = 95.35121 106.56117 57.48802
#
# Poissons Ratio (x) = 0.11391 0.18958
# Poissons Ratio (y) = 0.10193 0.33731
# Poissons Ratio (z) = 0.31445 0.62524
#
# Static dielectric constant tensor:
#      x y z
#    x 4.301630 0.000000 0.156680 
#    y 0.000000 4.179400 0.000000 
#    z 0.156680 0.000000 3.930240 
# 
# 
# High freq. dielectric constant tensor:
#      x y z
#    x 1.900170 0.000000 0.009390 
#    y 0.000000 1.903050 0.000000 
#    z 0.009390 0.000000 1.891160 
# 
# From -- ./inp_files/18205.got.cif
#   From: 2010.03.12/outbox.cif.g09.slc.cpg/sg5_10_cif.got.tgz:18205.got - 2010.03.31 09:47:26.
