data_PCOD8051586
_publ_section_title
;
Structure prediction by ZEFSAII (Michael W. Deem and Ramdas Pophale) SiO2 
 PCOD8051586
Probable space group: C 2
;
_chemical_formula_sum "Si O2"
_cell_formula_units_Z 26
_cell_length_a 18.319642
_cell_length_b 8.990544
_cell_length_c 24.168061
_cell_angle_alpha 90.000000
_cell_angle_beta 18.337973
_cell_angle_gamma 90.000000
_cell_volume 1252.371938
_symmetry_space_group_name_H-M "C 2"
_symmetry_group_IT_number 5
_symmetry_cell_setting 'monoclinic'
loop_
_space_group_symop_operation_xyz
x,y,z
-x,y,-z
1/2+x,1/2+y,z
1/2-x,1/2+y,-z
loop_
_atom_site_type_symbol
_atom_site_label
_atom_site_fract_x
_atom_site_fract_y
_atom_site_fract_z
Si Si1 0.371014 0.234810 0.824791
Si Si2 0.702581 0.013372 0.639361
Si Si3 0.518396 0.241117 0.592179
Si Si4 0.724518 0.474573 0.567187
Si Si5 0.997118 0.195410 0.642839
Si Si6 0.500000 0.086145 0.000000
Si Si7 0.398122 0.872156 0.172517
O O1 0.466941 0.082481 0.782553
O O2 0.396709 0.231259 0.739773
O O3 0.516618 0.377716 0.743493
O O4 0.104676 0.254142 0.035151
O O5 0.911783 0.136075 0.482939
O O6 0.661136 0.972923 0.732529
O O7 0.780201 0.864990 0.550737
O O8 0.328424 0.280931 0.682712
O O9 0.642114 0.085078 0.486201
O O10 0.627910 0.580574 0.588864
O O11 0.920455 0.361285 0.403365
O O12 0.721528 0.192413 0.845833
O O13 0.488644 0.983261 0.061174
#
# Coordination Sequence:
#
# PCOD8051586 Si02
#       7
#     4   4   4   4   4   2   4
#     4  11  21  42  65  98 129 175 224 273 330 400
#     4  11  23  39  67  97 132 175 218 275 327 402
#     4  12  20  41  69  95 126 180 224 268 338 400
#     4  11  20  38  69  94 126 172 224 270 324 413
#     4  11  21  41  65  99 126 175 224 270 338 392
#     4  12  22  42  66  96 130 176 220 280 330 400
#     4  12  23  40  68  99 132 174 222 276 337 389
#
# _framework density 20.760607
#
# number of rings (size 3 to 8) (size 9 to 14) (size 15 to 20)
#    0.000    0.615    9.231    0.462    0.000    1.231 
#    5.538    0.000   13.538    0.000    0.000    0.000 
#    0.000    0.000    0.000    0.000    0.000    0.000 
#
# Total GULP energy -161107.002103 kJ/mol
# GULP energy per Si atom -12392.846316 kJ/mol
# Density = 2.071335 g / cm^3
# Si number density = 20.760607 Si / 1000 Ang^3
#
#
#
# Elastic Constant Matrix: (Units=GPa)
#
#
# Indices 1 2 3 4 5 6 
#
# 1 104.8806 48.4156 57.1184 -0.0341 -2.8452 0.0093
# 2 48.4156 138.7317 60.6675 -0.1854 -28.9065 0.0297
# 3 57.1184 60.6675 126.1728 -0.1586 -29.3156 0.0053
# 4 -0.0341 -0.1854 -0.1586 30.8242 -0.0236 -7.6694
# 5 -2.8452 -28.9065 -29.3156 -0.0236 40.8430 0.0066
# 6 0.0093 0.0297 0.0053 -7.6694 0.0066 33.7290
#
#
#
# Elastic Compliance Matrix: (Units=1/GPa)
#
#
# Indices 1 2 3 4 5 6 
#
# 1 0.014383 -0.003555 -0.006185 -0.000044 -0.005954 -0.000009
# 2 -0.003555 0.010577 -0.002153 0.000054 0.005692 0.000003
# 3 -0.006185 -0.002153 0.013570 0.000059 0.007785 0.000013
# 4 -0.000044 0.000054 0.000059 0.034388 0.000096 0.007819
# 5 -0.005954 0.005692 0.007785 0.000096 0.033686 0.000011
# 6 -0.000009 0.000003 0.000013 0.007819 0.000011 0.031426
#
#
# Mechanical properties :
#
#
# Convention : Reuss Voigt Hill
#
# Bulk Modulus (GPa) = 67.83343 78.02088 72.92716
# Shear Modulus (GPa) = 29.98850 34.65149 32.31999
#
# Velocity S-wave (km/s) = 3.80477 4.08989 3.94990
# Velocity P-wave (km/s) = 7.21434 7.74376 7.48373
#
# Compressibility (1/GPa) = 0.01474199
#
# Stress axis : x y z
#
# Youngs Moduli (GPa) = 69.52822 94.54679 73.69267
#
# Poissons Ratio (x) = 0.33614 0.45578
# Poissons Ratio (y) = 0.24719 0.15870
# Poissons Ratio (z) = 0.43002 0.20361
#
# Static dielectric constant tensor:
#      x y z
#    x 3.705610 -0.000110 -0.167910 
#    y -0.000110 4.090780 0.000260 
#    z -0.167910 0.000260 4.095190 
# 
# 
# High freq. dielectric constant tensor:
#      x y z
#    x 1.789150 0.000000 -0.013930 
#    y 0.000000 1.812510 0.000020 
#    z -0.013930 0.000020 1.814700 
# 
# From -- ./inp_files/69150.got.cif
#   From: 2010.03.12/outbox.cif.g09.slc.cpg/sg5_35_cif.got.tgz:69150.got - 2010.03.31 09:47:26.
