data_PCOD8051262
_publ_section_title
;
Structure prediction by ZEFSAII (Michael W. Deem and Ramdas Pophale) SiO2 
 PCOD8051262
Probable space group: C 2
;
_chemical_formula_sum "Si O2"
_cell_formula_units_Z 26
_cell_length_a 17.861400
_cell_length_b 7.041000
_cell_length_c 16.843878
_cell_angle_alpha 90.000000
_cell_angle_beta 33.009726
_cell_angle_gamma 90.000000
_cell_volume 1154.022279
_symmetry_space_group_name_H-M "C 2"
_symmetry_group_IT_number 5
_symmetry_cell_setting 'monoclinic'
loop_
_space_group_symop_operation_xyz
x,y,z
-x,y,-z
1/2+x,1/2+y,z
1/2-x,1/2+y,-z
loop_
_atom_site_type_symbol
_atom_site_label
_atom_site_fract_x
_atom_site_fract_y
_atom_site_fract_z
Si Si1 0.269600 0.157510 0.680860
Si Si2 0.836429 0.296000 0.000336
Si Si3 0.149638 0.982484 0.500264
Si Si4 0.823691 0.410679 0.495803
Si Si5 0.873898 0.109822 0.810325
Si Si6 0.128077 0.494891 0.258513
Si Si7 0.500000 0.763082 0.000000
O O1 0.324408 0.367648 0.605251
O O2 0.127752 0.143260 0.854842
O O3 0.235268 0.039749 0.632764
O O4 0.380200 0.059222 0.641575
O O5 0.754116 0.483428 0.050205
O O6 0.733958 0.130057 0.118870
O O7 0.921905 0.221998 0.847796
O O8 0.941360 0.373163 0.975138
O O9 0.254014 0.896596 0.472170
O O10 0.174726 0.204607 0.464921
O O11 0.991658 0.969187 0.671370
O O12 0.974486 0.508537 0.357946
O O13 0.828361 0.272018 0.787453
#
# Coordination Sequence:
#
# PCOD8051262 Si02
#       7
#     4   4   4   4   4   4   2
#     4  11  23  46  65  99 138 179 221 292 341 402
#     4  11  22  43  69  98 139 180 225 279 345 401
#     4  11  24  40  70 102 137 176 235 276 338 404
#     4  11  22  42  69 100 133 178 227 281 335 408
#     4  11  23  42  70 103 134 185 230 278 336 418
#     4  10  24  42  68  99 136 177 225 282 342 402
#     4  10  26  44  66  96 142 174 226 292 336 406
#
# _framework density 22.529895
#
# number of rings (size 3 to 8) (size 9 to 14) (size 15 to 20)
#    0.000    1.231    3.077    2.308    2.154    3.692 
#    0.000    8.462    0.000    0.000    0.000    0.000 
#    0.000    0.000    0.000    0.000    0.000    0.000 
#
# Total GULP energy -161066.570493 kJ/mol
# GULP energy per Si atom -12389.736192 kJ/mol
# Density = 2.247862 g / cm^3
# Si number density = 22.529895 Si / 1000 Ang^3
#
#
#
# Elastic Constant Matrix: (Units=GPa)
#
#
# Indices 1 2 3 4 5 6 
#
# 1 125.8989 41.7046 34.4738 -0.0005 -0.9161 0.0002
# 2 41.7046 95.4882 31.2263 0.0013 3.9797 -0.0003
# 3 34.4738 31.2263 93.5663 0.0011 7.2809 -0.0003
# 4 -0.0005 0.0013 0.0011 25.9646 -0.0007 7.9277
# 5 -0.9161 3.9797 7.2809 -0.0007 29.7422 0.0002
# 6 0.0002 -0.0003 -0.0003 7.9277 0.0002 40.0166
#
#
#
# Elastic Compliance Matrix: (Units=1/GPa)
#
#
# Indices 1 2 3 4 5 6 
#
# 1 0.009815 -0.003510 -0.002554 0.000001 0.001397 0.000000
# 2 -0.003510 0.013022 -0.002965 -0.000001 -0.001125 0.000000
# 3 -0.002554 -0.002965 0.012838 -0.000001 -0.002825 0.000000
# 4 0.000001 -0.000001 -0.000001 0.040994 0.000001 -0.008121
# 5 0.001397 -0.001125 -0.002825 0.000001 0.034507 0.000000
# 6 0.000000 0.000000 0.000000 -0.008121 0.000000 0.026599
#
#
# Mechanical properties :
#
#
# Convention : Reuss Voigt Hill
#
# Bulk Modulus (GPa) = 56.76176 58.86252 57.81214
# Shear Modulus (GPa) = 30.92070 32.98126 31.95098
#
# Velocity S-wave (km/s) = 3.70865 3.83023 3.76993
# Velocity P-wave (km/s) = 6.60208 6.76343 6.68324
#
# Compressibility (1/GPa) = 0.01761749
#
# Stress axis : x y z
#
# Youngs Moduli (GPa) = 101.88559 76.79328 77.89473
#
# Poissons Ratio (x) = 0.26953 0.19891
# Poissons Ratio (y) = 0.35760 0.23097
# Poissons Ratio (z) = 0.26017 0.22771
#
# Static dielectric constant tensor:
#      x y z
#    x 4.458090 0.000000 0.143990 
#    y 0.000000 4.021460 0.000000 
#    z 0.143990 0.000000 4.117350 
# 
# 
# High freq. dielectric constant tensor:
#      x y z
#    x 1.890140 0.000000 0.007350 
#    y 0.000000 1.881310 0.000000 
#    z 0.007350 0.000000 1.892930 
# 
# From -- ./inp_files/62159.got.cif
#   From: 2010.03.12/outbox.cif.g09.slc.cpg/sg5_32_cif.got.tgz:62159.got - 2010.03.31 09:47:26.
