data_PCOD8051228
_publ_section_title
;
Structure prediction by ZEFSAII (Michael W. Deem and Ramdas Pophale) SiO2 
 PCOD8051228
Probable space group: C 2
;
_chemical_formula_sum "Si O2"
_cell_formula_units_Z 26
_cell_length_a 10.815835
_cell_length_b 9.503886
_cell_length_c 12.994823
_cell_angle_alpha 90.000000
_cell_angle_beta 60.089814
_cell_angle_gamma 90.000000
_cell_volume 1157.856154
_symmetry_space_group_name_H-M "C 2"
_symmetry_group_IT_number 5
_symmetry_cell_setting 'monoclinic'
loop_
_space_group_symop_operation_xyz
x,y,z
-x,y,-z
1/2+x,1/2+y,z
1/2-x,1/2+y,-z
loop_
_atom_site_type_symbol
_atom_site_label
_atom_site_fract_x
_atom_site_fract_y
_atom_site_fract_z
Si Si1 0.231582 0.448040 0.888370
Si Si2 0.045515 0.734389 0.268242
Si Si3 0.458212 0.673401 0.742986
Si Si4 0.500000 0.721950 0.500000
Si Si5 0.479966 0.955178 0.838667
Si Si6 0.763683 0.881544 0.452655
Si Si7 0.239132 0.669916 0.373571
O O1 0.336153 0.314959 0.847634
O O2 0.321698 0.590705 0.838487
O O3 0.125362 0.419028 0.837917
O O4 0.151217 0.464079 0.028518
O O5 0.990101 0.604216 0.225941
O O6 0.110385 0.672549 0.347078
O O7 0.919276 0.844859 0.342406
O O8 0.494168 0.632769 0.608433
O O9 0.435256 0.840368 0.771390
O O10 0.605987 0.638617 0.743874
O O11 0.643773 0.811476 0.431741
O O12 0.753982 0.822575 0.573099
O O13 0.722434 0.047184 0.467167
#
# Coordination Sequence:
#
# PCOD8051228 Si02
#       7
#     4   4   4   2   4   4   4
#     4  11  24  46  69 100 134 178 235 283 339 399
#     4  12  24  44  71  98 136 177 228 277 336 409
#     4  11  22  45  66  99 141 176 226 284 342 402
#     4  10  24  40  68  96 140 178 216 274 344 404
#     4  11  25  43  71  98 135 183 226 287 340 401
#     4  11  25  42  65 100 137 176 227 271 335 404
#     4  11  25  42  67 101 136 180 223 278 337 408
#
# _framework density 22.455293999999999
#
# number of rings (size 3 to 8) (size 9 to 14) (size 15 to 20)
#    0.000    0.923    3.077    3.231    6.462    2.462 
#    0.000    0.000    0.000    0.000    0.000    0.000 
#    0.000    0.000    0.000    0.000    0.000    0.000 
#
# Total GULP energy -161148.190349 kJ/mol
# GULP energy per Si atom -12396.014642 kJ/mol
# Density = 2.240418 g / cm^3
# Si number density = 22.455294 Si / 1000 Ang^3
#
#
#
# Elastic Constant Matrix: (Units=GPa)
#
#
# Indices 1 2 3 4 5 6 
#
# 1 99.1465 8.4394 28.2397 0.0000 -12.1786 0.0000
# 2 8.4394 88.1991 7.6893 0.0000 4.5667 0.0000
# 3 28.2397 7.6893 76.8728 0.0000 -4.0566 0.0000
# 4 0.0000 0.0000 0.0000 36.1588 0.0000 -4.4251
# 5 -12.1786 4.5667 -4.0566 0.0000 39.1117 0.0000
# 6 0.0000 0.0000 0.0000 -4.4251 0.0000 33.6254
#
#
#
# Elastic Compliance Matrix: (Units=1/GPa)
#
#
# Indices 1 2 3 4 5 6 
#
# 1 0.011727 -0.000943 -0.004037 0.000000 0.003343 0.000000
# 2 -0.000943 0.011597 -0.000905 0.000000 -0.001742 0.000000
# 3 -0.004037 -0.000905 0.014601 0.000000 0.000363 0.000000
# 4 0.000000 0.000000 0.000000 0.028108 0.000000 0.003699
# 5 0.003343 -0.001742 0.000363 0.000000 0.026850 0.000000
# 6 0.000000 0.000000 0.000000 0.003699 0.000000 0.030226
#
#
# Mechanical properties :
#
#
# Convention : Reuss Voigt Hill
#
# Bulk Modulus (GPa) = 38.23531 39.21727 38.72629
# Shear Modulus (GPa) = 34.81901 36.43585 35.62743
#
# Velocity S-wave (km/s) = 3.94203 4.03251 3.98753
# Velocity P-wave (km/s) = 6.14685 6.25972 6.20354
#
# Compressibility (1/GPa) = 0.02615383
#
# Stress axis : x y z
#
# Youngs Moduli (GPa) = 85.27397 86.22656 68.48695
#
# Poissons Ratio (x) = 0.08133 0.27650
# Poissons Ratio (y) = 0.08043 0.06201
# Poissons Ratio (z) = 0.34427 0.07807
#
# Static dielectric constant tensor:
#      x y z
#    x 4.260260 0.000000 -0.216790 
#    y 0.000000 3.951350 0.000000 
#    z -0.216790 0.000000 3.887700 
# 
# 
# High freq. dielectric constant tensor:
#      x y z
#    x 1.899740 0.000000 -0.022000 
#    y 0.000000 1.887650 0.000000 
#    z -0.022000 0.000000 1.872980 
# 
# From -- ./inp_files/52188.got.cif
#   From: 2010.03.12/outbox.cif.g09.slc.cpg/sg5_27_cif.got.tgz:52188.got - 2010.03.31 09:47:26.
