data_PCOD8051229
_publ_section_title
;
Structure prediction by ZEFSAII (Michael W. Deem and Ramdas Pophale) SiO2 
 PCOD8051229
Probable space group: C 2
;
_chemical_formula_sum "Si O2"
_cell_formula_units_Z 30
_cell_length_a 15.716885
_cell_length_b 14.352759
_cell_length_c 10.829977
_cell_angle_alpha 90.000000
_cell_angle_beta 146.592832
_cell_angle_gamma 90.000000
_cell_volume 1345.097977
_symmetry_space_group_name_H-M "C 2"
_symmetry_group_IT_number 5
_symmetry_cell_setting 'monoclinic'
loop_
_space_group_symop_operation_xyz
x,y,z
-x,y,-z
1/2+x,1/2+y,z
1/2-x,1/2+y,-z
loop_
_atom_site_type_symbol
_atom_site_label
_atom_site_fract_x
_atom_site_fract_y
_atom_site_fract_z
Si Si1 0.114539 0.669580 0.534093
Si Si2 0.166356 0.650982 0.955608
Si Si3 0.609288 0.942556 0.818980
Si Si4 0.313533 0.885120 0.353287
Si Si5 0.000000 0.966238 0.000000
Si Si6 0.844184 0.263896 0.977755
Si Si7 0.142460 0.175371 0.590929
Si Si8 0.400726 0.622189 0.729065
O O1 0.201446 0.756163 0.706808
O O2 0.253782 0.608880 0.644490
O O3 0.000000 0.620271 0.500000
O O4 0.999270 0.697647 0.282220
O O5 0.174677 0.542024 0.934927
O O6 0.304542 0.702816 0.051294
O O7 0.197510 0.663505 0.139002
O O8 0.428359 0.955893 0.563745
O O9 0.694898 0.900549 0.803635
O O10 0.633163 0.872271 0.963179
O O11 0.380639 0.783935 0.469246
O O12 0.142283 0.897847 0.194445
O O13 0.011412 0.034078 0.893348
O O14 0.005309 0.217709 0.126327
O O15 0.156016 0.117633 0.480797
O O16 0.000000 0.137002 0.500000
#
# Coordination Sequence:
#
# PCOD8051229 Si02
#       8
#     4   4   4   4   2   4   4   4
#     4  10  24  40  68  98 131 176 228 283 339 391
#     4  11  23  41  69 101 136 178 230 286 337 413
#     4  11  22  40  71  98 132 188 230 271 350 417
#     4  11  22  41  63 100 138 174 237 279 330 421
#     4  12  26  38  68 108 128 176 246 296 326 392
#     4  11  20  43  68 100 133 178 229 281 339 408
#     4  12  23  47  70  99 143 190 218 275 367 415
#     4  12  22  42  71  98 135 181 229 278 343 414
#
# _framework density 22.303207
#
# number of rings (size 3 to 8) (size 9 to 14) (size 15 to 20)
#    0.000    0.800    6.667    1.600    7.467    1.600 
#    0.000    4.667    2.933    0.000    0.000    0.000 
#    0.000    0.000    0.000    0.000    0.000    0.000 
#
# Total GULP energy -185905.577797 kJ/mol
# GULP energy per Si atom -12393.705186 kJ/mol
# Density = 2.225244 g / cm^3
# Si number density = 22.303207 Si / 1000 Ang^3
#
#
#
# Elastic Constant Matrix: (Units=GPa)
#
#
# Indices 1 2 3 4 5 6 
#
# 1 89.9389 24.5264 48.7600 0.0000 3.4021 0.0000
# 2 24.5264 73.3653 19.8398 0.0000 1.8270 0.0000
# 3 48.7600 19.8398 142.9003 0.0000 -19.1599 0.0000
# 4 0.0000 0.0000 0.0000 34.8536 0.0000 -2.6720
# 5 3.4021 1.8270 -19.1599 0.0000 45.0670 0.0000
# 6 0.0000 0.0000 0.0000 -2.6720 0.0000 22.0312
#
#
#
# Elastic Compliance Matrix: (Units=1/GPa)
#
#
# Indices 1 2 3 4 5 6 
#
# 1 0.014926 -0.003556 -0.005017 0.000000 -0.003116 0.000000
# 2 -0.003556 0.015105 -0.000986 0.000000 -0.000763 0.000000
# 3 -0.005017 -0.000986 0.009441 0.000000 0.004433 0.000000
# 4 0.000000 0.000000 0.000000 0.028961 0.000000 0.003512
# 5 -0.003116 -0.000763 0.004433 0.000000 0.024340 0.000000
# 6 0.000000 0.000000 0.000000 0.003512 0.000000 0.045816
#
#
# Mechanical properties :
#
#
# Convention : Reuss Voigt Hill
#
# Bulk Modulus (GPa) = 49.13005 54.71742 51.92373
# Shear Modulus (GPa) = 30.39678 34.59560 32.49619
#
# Velocity S-wave (km/s) = 3.69574 3.94274 3.82123
# Velocity P-wave (km/s) = 6.34723 6.73154 6.54221
#
# Compressibility (1/GPa) = 0.02035414
#
# Stress axis : x y z
#
# Youngs Moduli (GPa) = 66.99664 66.20436 105.92040
#
# Poissons Ratio (x) = 0.23539 0.53142
# Poissons Ratio (y) = 0.23821 0.10446
# Poissons Ratio (z) = 0.33613 0.06529
#
# Static dielectric constant tensor:
#      x y z
#    x 3.903790 0.000000 -0.040190 
#    y 0.000000 3.622430 0.000000 
#    z -0.040190 0.000000 4.334050 
# 
# 
# High freq. dielectric constant tensor:
#      x y z
#    x 1.858240 0.000000 0.001290 
#    y 0.000000 1.844150 0.000000 
#    z 0.001290 0.000000 1.902390 
# 
# From -- ./inp_files/44915.got.cif
#   From: 2010.03.12/outbox.cif.g09.slc.cpg/sg5_23_cif.got.tgz:44915.got - 2010.03.31 09:47:26.
