data_PCOD8051896
_publ_section_title
;
Structure prediction by ZEFSAII (Michael W. Deem and Ramdas Pophale) SiO2 
 PCOD8051896
Probable space group: C 2
;
_chemical_formula_sum "Si O2"
_cell_formula_units_Z 24
_cell_length_a 13.010017
_cell_length_b 9.174555
_cell_length_c 9.883581
_cell_angle_alpha 90.000000
_cell_angle_beta 120.219094
_cell_angle_gamma 90.000000
_cell_volume 1019.400360
_symmetry_space_group_name_H-M "C 2"
_symmetry_group_IT_number 5
_symmetry_cell_setting 'monoclinic'
loop_
_space_group_symop_operation_xyz
x,y,z
-x,y,-z
1/2+x,1/2+y,z
1/2-x,1/2+y,-z
loop_
_atom_site_type_symbol
_atom_site_label
_atom_site_fract_x
_atom_site_fract_y
_atom_site_fract_z
Si Si1 0.086514 0.657960 0.679042
Si Si2 0.254303 0.421576 0.908518
Si Si3 0.705518 0.465220 0.756806
Si Si4 0.453852 0.056742 0.831910
Si Si5 0.040823 0.252268 0.800118
Si Si6 0.500000 0.659941 0.500000
Si Si7 0.500000 0.515321 0.000000
O O1 0.177252 0.526949 0.762359
O O2 0.167745 0.798592 0.706429
O O3 0.000000 0.620160 0.500000
O O4 0.995334 0.672302 0.745668
O O5 0.185854 0.263785 0.865529
O O6 0.383746 0.411218 0.922262
O O7 0.269410 0.488217 0.068345
O O8 0.814908 0.517455 0.737050
O O9 0.597775 0.561894 0.635840
O O10 0.521338 0.902710 0.864282
O O11 0.500000 0.129279 0.000000
O O12 0.962830 0.254693 0.607650
O O13 0.005368 0.116374 0.869772
#
# Coordination Sequence:
#
# PCOD8051896 Si02
#       7
#     4   4   4   4   4   2   2
#     4  11  25  46  74 109 147 185 246 309 354 428
#     4  11  24  43  78 102 140 193 243 293 362 438
#     4  12  24  50  69 105 153 187 239 306 360 435
#     4  11  23  45  79 105 141 199 241 291 377 429
#     4  11  23  46  70 108 142 187 239 302 356 434
#     4  12  28  46  68 104 154 184 234 314 364 410
#     4  12  22  46  78 102 142 196 244 284 376 430
#
# _framework density 23.543251999999999
#
# number of rings (size 3 to 8) (size 9 to 14) (size 15 to 20)
#    0.000    0.667    6.667    2.000    4.667    2.667 
#    4.500    0.000    0.000    0.000    0.000    0.000 
#    0.000    0.000    0.000    0.000    0.000    0.000 
#
# Total GULP energy -148697.638785 kJ/mol
# GULP energy per Si atom -12391.469899 kJ/mol
# Density = 2.348967 g / cm^3
# Si number density = 23.543252 Si / 1000 Ang^3
#
#
#
# Elastic Constant Matrix: (Units=GPa)
#
#
# Indices 1 2 3 4 5 6 
#
# 1 127.2411 6.9885 33.0821 0.0000 2.2030 0.0000
# 2 6.9885 28.3775 10.4494 0.0000 5.9145 0.0000
# 3 33.0821 10.4494 177.3499 0.0000 2.4802 0.0000
# 4 0.0000 0.0000 0.0000 25.9070 0.0000 -0.3169
# 5 2.2030 5.9145 2.4802 0.0000 37.8130 0.0000
# 6 0.0000 0.0000 0.0000 -0.3169 0.0000 13.1351
#
#
#
# Elastic Compliance Matrix: (Units=1/GPa)
#
#
# Indices 1 2 3 4 5 6 
#
# 1 0.008323 -0.001478 -0.001463 0.000000 -0.000158 0.000000
# 2 -0.001478 0.037463 -0.001853 0.000000 -0.005652 0.000000
# 3 -0.001463 -0.001853 0.006021 0.000000 -0.000020 0.000000
# 4 0.000000 0.000000 0.000000 0.038611 0.000000 0.000932
# 5 -0.000158 -0.005652 -0.000020 0.000000 0.027340 0.000000
# 6 0.000000 0.000000 0.000000 0.000932 0.000000 0.076155
#
#
# Mechanical properties :
#
#
# Convention : Reuss Voigt Hill
#
# Bulk Modulus (GPa) = 23.68556 48.22316 35.95436
# Shear Modulus (GPa) = 22.98057 34.20092 28.59074
#
# Velocity S-wave (km/s) = 3.12765 3.81554 3.48859
# Velocity P-wave (km/s) = 4.80887 6.31969 5.61532
#
# Compressibility (1/GPa) = 0.04221982
#
# Stress axis : x y z
#
# Youngs Moduli (GPa) = 120.14223 26.69275 166.08631
#
# Poissons Ratio (x) = 0.03945 0.24304
# Poissons Ratio (y) = 0.17758 0.30769
# Poissons Ratio (z) = 0.17581 0.04945
#
# Static dielectric constant tensor:
#      x y z
#    x 4.977410 0.000000 0.437150 
#    y 0.000000 4.311220 0.000000 
#    z 0.437150 0.000000 7.612020 
# 
# 
# High freq. dielectric constant tensor:
#      x y z
#    x 1.938350 0.000000 0.002430 
#    y 0.000000 1.932060 0.000000 
#    z 0.002430 0.000000 1.933690 
# 
# From -- ./inp_files/19450.got.cif
#   From: 2010.03.12/outbox.cif.g09.slc.cpg/sg5_10_cif.got.tgz:19450.got - 2010.03.31 09:47:26.
