data_PCOD8051370
_publ_section_title
;
Structure prediction by ZEFSAII (Michael W. Deem and Ramdas Pophale) SiO2 
 PCOD8051370
Probable space group: C 2
;
_chemical_formula_sum "Si O2"
_cell_formula_units_Z 26
_cell_length_a 12.288340
_cell_length_b 8.589287
_cell_length_c 19.734365
_cell_angle_alpha 90.000000
_cell_angle_beta 148.852654
_cell_angle_gamma 90.000000
_cell_volume 1077.373280
_symmetry_space_group_name_H-M "C 2"
_symmetry_group_IT_number 5
_symmetry_cell_setting 'monoclinic'
loop_
_space_group_symop_operation_xyz
x,y,z
-x,y,-z
1/2+x,1/2+y,z
1/2-x,1/2+y,-z
loop_
_atom_site_type_symbol
_atom_site_label
_atom_site_fract_x
_atom_site_fract_y
_atom_site_fract_z
Si Si1 0.002231 0.054050 0.856849
Si Si2 0.862955 0.716330 0.784752
Si Si3 0.632491 0.695618 0.792329
Si Si4 0.341328 0.039980 0.143891
Si Si5 0.564998 0.162972 0.670635
Si Si6 0.162844 0.994702 0.458605
Si Si7 0.500000 0.642593 0.500000
O O1 0.774397 0.142306 0.735589
O O2 0.152685 0.118991 0.877445
O O3 0.991215 0.870966 0.838524
O O4 0.112333 0.065382 0.988713
O O5 0.833653 0.682454 0.849510
O O6 0.645702 0.742925 0.627821
O O7 0.984960 0.566450 0.821762
O O8 0.444159 0.613020 0.651490
O O9 0.605771 0.877611 0.791952
O O10 0.356973 0.168644 0.210564
O O11 0.432219 0.321881 0.593572
O O12 0.411290 0.014185 0.573522
O O13 0.145286 0.040347 0.528114
#
# Coordination Sequence:
#
# PCOD8051370 Si02
#       7
#     4   4   4   4   4   4   2
#     4  12  28  46  78 111 155 207 258 310 385 463
#     4  11  25  49  78 108 156 203 253 322 379 453
#     4  11  27  47  76 116 146 206 258 308 391 450
#     4  12  25  50  75 108 162 206 254 318 377 459
#     4  12  26  46  78 112 151 204 255 322 390 460
#     4  11  26  46  77 111 150 195 260 323 391 459
#     4  10  24  46  74 102 146 192 248 324 380 442
#
# _framework density 24.132769
#
# number of rings (size 3 to 8) (size 9 to 14) (size 15 to 20)
#    0.000    0.615    3.077    3.231    6.462    2.462 
#    0.000    0.000    6.769    0.000    0.000    0.000 
#    0.000    0.000    0.000    0.000    0.000    0.000 
#
# Total GULP energy -161065.609388 kJ/mol
# GULP energy per Si atom -12389.662261 kJ/mol
# Density = 2.407784 g / cm^3
# Si number density = 24.132769 Si / 1000 Ang^3
#
#
#
# Elastic Constant Matrix: (Units=GPa)
#
#
# Indices 1 2 3 4 5 6 
#
# 1 129.2277 51.7956 -0.7471 0.0000 -13.2920 0.0000
# 2 51.7956 79.5866 38.1829 0.0003 0.9482 0.0001
# 3 -0.7471 38.1829 64.0287 0.0009 -9.6901 0.0002
# 4 0.0000 0.0003 0.0009 27.1198 0.0003 -8.6220
# 5 -13.2920 0.9482 -9.6901 0.0003 42.1499 0.0001
# 6 0.0000 0.0001 0.0002 -8.6220 0.0001 36.9678
#
#
#
# Elastic Compliance Matrix: (Units=1/GPa)
#
#
# Indices 1 2 3 4 5 6 
#
# 1 0.013974 -0.013661 0.009348 0.000000 0.006863 0.000000
# 2 -0.013661 0.031307 -0.020294 0.000001 -0.009678 0.000000
# 3 0.009348 -0.020294 0.029366 -0.000001 0.010156 0.000000
# 4 0.000000 0.000001 -0.000001 0.039826 -0.000001 0.009289
# 5 0.006863 -0.009678 0.010156 -0.000001 0.028442 0.000000
# 6 0.000000 0.000000 0.000000 0.009289 0.000000 0.029217
#
#
# Mechanical properties :
#
#
# Convention : Reuss Voigt Hill
#
# Bulk Modulus (GPa) = 39.31751 50.14509 44.73130
# Shear Modulus (GPa) = 21.75600 33.48828 27.62214
#
# Velocity S-wave (km/s) = 3.00578 3.72918 3.38685
# Velocity P-wave (km/s) = 5.32671 6.27426 5.81980
#
# Compressibility (1/GPa) = 0.02543396
#
# Stress axis : x y z
#
# Youngs Moduli (GPa) = 71.56353 31.94183 34.05319
#
# Poissons Ratio (x) = 0.43635 -0.31833
# Poissons Ratio (y) = 0.97762 0.69106
# Poissons Ratio (z) = -0.66899 0.64821
#
# Static dielectric constant tensor:
#      x y z
#    x 4.573930 0.000000 -0.084000 
#    y 0.000000 4.149330 0.000000 
#    z -0.084000 0.000000 4.482340 
# 
# 
# High freq. dielectric constant tensor:
#      x y z
#    x 1.968560 0.000000 -0.008350 
#    y 0.000000 1.946290 0.000000 
#    z -0.008350 0.000000 1.969460 
# 
# From -- ./inp_files/65923.got.cif
#   From: 2010.03.12/outbox.cif.g09.slc.cpg/sg5_33_cif.got.tgz:65923.got - 2010.03.31 09:47:26.
