data_PCOD8051493
_publ_section_title
;
Structure prediction by ZEFSAII (Michael W. Deem and Ramdas Pophale) SiO2 
 PCOD8051493
Probable space group: C 2
;
_chemical_formula_sum "Si O2"
_cell_formula_units_Z 24
_cell_length_a 16.383239
_cell_length_b 6.343289
_cell_length_c 11.949292
_cell_angle_alpha 90.000000
_cell_angle_beta 76.421905
_cell_angle_gamma 90.000000
_cell_volume 1207.106014
_symmetry_space_group_name_H-M "C 2"
_symmetry_group_IT_number 5
_symmetry_cell_setting 'monoclinic'
loop_
_space_group_symop_operation_xyz
x,y,z
-x,y,-z
1/2+x,1/2+y,z
1/2-x,1/2+y,-z
loop_
_atom_site_type_symbol
_atom_site_label
_atom_site_fract_x
_atom_site_fract_y
_atom_site_fract_z
Si Si1 0.731962 0.964430 0.651513
Si Si2 0.356629 0.130540 0.533012
Si Si3 0.433731 0.728523 0.893270
Si Si4 0.000000 0.846772 0.000000
Si Si5 0.384717 0.739042 0.664545
Si Si6 0.000000 0.945351 0.500000
Si Si7 0.097119 0.465678 0.881191
O O1 0.776744 0.740674 0.617026
O O2 0.681123 0.954733 0.782753
O O3 0.669380 0.008248 0.569851
O O4 0.799374 0.150942 0.638666
O O5 0.425497 0.302639 0.474182
O O6 0.397626 0.971799 0.609905
O O7 0.377274 0.741797 0.800833
O O8 0.523058 0.840595 0.841433
O O9 0.449861 0.488217 0.926026
O O10 0.384113 0.853299 0.006287
O O11 0.932132 0.705582 0.088248
O O12 0.464599 0.592550 0.610222
#
# Coordination Sequence:
#
# PCOD8051493 Si02
#       7
#     4   4   4   2   4   2   4
#     4  11  24  41  62  91 128 168 202 256 325 363
#     4  11  24  43  61  94 128 162 211 260 309 378
#     4   9  21  40  61  94 119 159 217 248 306 371
#     4   8  18  40  64  92 122 152 208 258 308 366
#     4  11  24  42  62  95 127 162 208 262 307 377
#     4  10  26  38  66  96 116 170 208 256 318 362
#     4   9  21  38  64  91 121 166 201 258 307 369
#
# _framework density 19.882266000000001
#
# number of rings (size 3 to 8) (size 9 to 14) (size 15 to 20)
#    0.000    2.333    1.667    0.500    7.000    6.667 
#    6.000    0.000    0.000    0.000    0.000    0.000 
#    0.000    0.000    0.000    0.000    0.000    0.000 
#
# Total GULP energy -148830.853409 kJ/mol
# GULP energy per Si atom -12402.571117 kJ/mol
# Density = 1.983701 g / cm^3
# Si number density = 19.882266 Si / 1000 Ang^3
#
#
#
# Elastic Constant Matrix: (Units=GPa)
#
#
# Indices 1 2 3 4 5 6 
#
# 1 71.5951 41.3437 51.1669 0.0000 -1.7516 0.0000
# 2 41.3437 135.8749 53.5669 0.0000 -1.7317 0.0000
# 3 51.1669 53.5669 128.4950 0.0000 -2.8121 0.0000
# 4 0.0000 0.0000 0.0000 22.2349 0.0000 -0.7466
# 5 -1.7516 -1.7317 -2.8121 0.0000 51.1104 0.0000
# 6 0.0000 0.0000 0.0000 -0.7466 0.0000 22.2054
#
#
#
# Elastic Compliance Matrix: (Units=1/GPa)
#
#
# Indices 1 2 3 4 5 6 
#
# 1 0.020970 -0.003695 -0.006805 0.000000 0.000219 0.000000
# 2 -0.003695 0.009459 -0.002471 0.000000 0.000058 0.000000
# 3 -0.006805 -0.002471 0.011529 0.000000 0.000317 0.000000
# 4 0.000000 0.000000 0.000000 0.045025 0.000000 0.001514
# 5 0.000219 0.000058 0.000317 0.000000 0.019592 0.000000
# 6 0.000000 0.000000 0.000000 0.001514 0.000000 0.045085
#
#
# Mechanical properties :
#
#
# Convention : Reuss Voigt Hill
#
# Bulk Modulus (GPa) = 62.43587 69.79111 66.11349
# Shear Modulus (GPa) = 27.33131 31.76930 29.55030
#
# Velocity S-wave (km/s) = 3.71166 4.00167 3.85939
# Velocity P-wave (km/s) = 7.05971 7.51862 7.29277
#
# Compressibility (1/GPa) = 0.01601643
#
# Stress axis : x y z
#
# Youngs Moduli (GPa) = 47.68730 105.72231 86.73751
#
# Poissons Ratio (x) = 0.39065 0.59025
# Poissons Ratio (y) = 0.17621 0.21429
# Poissons Ratio (z) = 0.32451 0.26119
#
# Static dielectric constant tensor:
#      x y z
#    x 3.397830 0.000000 -0.075590 
#    y 0.000000 3.757340 0.000000 
#    z -0.075590 0.000000 3.445540 
# 
# 
# High freq. dielectric constant tensor:
#      x y z
#    x 1.761260 0.000000 -0.001770 
#    y 0.000000 1.789540 0.000000 
#    z -0.001770 0.000000 1.771280 
# 
# From -- ./inp_files/43723.got.cif
#   From: 2010.03.12/outbox.cif.g09.slc.cpg/sg5_22_cif.got.tgz:43723.got - 2010.03.31 09:47:26.
