data_PCOD8051490
_publ_section_title
;
Structure prediction by ZEFSAII (Michael W. Deem and Ramdas Pophale) SiO2 
 PCOD8051490
Probable space group: C 2
;
_chemical_formula_sum "Si O2"
_cell_formula_units_Z 14
_cell_length_a 16.144848
_cell_length_b 8.244292
_cell_length_c 4.796495
_cell_angle_alpha 90.000000
_cell_angle_beta 47.972056
_cell_angle_gamma 90.000000
_cell_volume 474.235401
_symmetry_space_group_name_H-M "C 2"
_symmetry_group_IT_number 5
_symmetry_cell_setting 'monoclinic'
loop_
_space_group_symop_operation_xyz
x,y,z
-x,y,-z
1/2+x,1/2+y,z
1/2-x,1/2+y,-z
loop_
_atom_site_type_symbol
_atom_site_label
_atom_site_fract_x
_atom_site_fract_y
_atom_site_fract_z
Si Si1 0.500000 0.745220 0.500000
Si Si2 0.899322 0.933385 0.901252
Si Si3 0.617720 0.974393 0.642915
Si Si4 0.721615 0.307053 0.320855
O O1 0.420400 0.627526 0.866081
O O2 0.591427 0.848019 0.458024
O O3 0.789652 0.877543 0.968972
O O4 0.000000 0.845815 0.500000
O O5 0.882040 0.875106 0.256543
O O6 0.709030 0.110858 0.352547
O O7 0.663253 0.873999 0.807309
O O8 0.500000 0.055236 0.000000
#
# Coordination Sequence:
#
# PCOD8051490 Si02
#       4
#     2   4   4   4
#     4  10  28  46  82 110 166 194 270 314 402 440
#     4  10  25  49  82 112 156 210 252 330 380 472
#     4  12  30  49  80 120 154 210 261 331 379 485
#     4  12  28  50  81 116 160 204 268 313 409 450
#
# _framework density 29.521208000000001
#
# number of rings (size 3 to 8) (size 9 to 14) (size 15 to 20)
#    0.857    0.000    0.000    4.286   18.000    0.000 
#    0.000    0.000    0.000    0.000    0.000    0.000 
#    0.000    0.000    0.000    0.000    0.000    0.000 
#
# Total GULP energy -86809.070725 kJ/mol
# GULP energy per Si atom -12401.295818 kJ/mol
# Density = 2.945402 g / cm^3
# Si number density = 29.521208 Si / 1000 Ang^3
#
#
#
# Elastic Constant Matrix: (Units=GPa)
#
#
# Indices 1 2 3 4 5 6 
#
# 1 85.1133 57.7947 0.2483 0.0000 -14.9710 0.0000
# 2 57.7947 202.2281 14.1267 0.0000 6.2562 0.0000
# 3 0.2483 14.1267 64.4722 0.0000 -20.5120 0.0000
# 4 0.0000 0.0000 0.0000 57.5013 0.0000 4.7939
# 5 -14.9710 6.2562 -20.5120 0.0000 81.6834 0.0000
# 6 0.0000 0.0000 0.0000 4.7939 0.0000 49.8211
#
#
#
# Elastic Compliance Matrix: (Units=1/GPa)
#
#
# Indices 1 2 3 4 5 6 
#
# 1 0.015620 -0.004733 0.002177 0.000000 0.003772 0.000000
# 2 -0.004733 0.006495 -0.001999 0.000000 -0.001867 0.000000
# 3 0.002177 -0.001999 0.017515 0.000000 0.004950 0.000000
# 4 0.000000 0.000000 0.000000 0.017532 0.000000 -0.001687
# 5 0.003772 -0.001867 0.004950 0.000000 0.014320 0.000000
# 6 0.000000 0.000000 0.000000 -0.001687 0.000000 0.020234
#
#
# Mechanical properties :
#
#
# Convention : Reuss Voigt Hill
#
# Bulk Modulus (GPa) = 32.76486 55.12812 43.94649
# Shear Modulus (GPa) = 45.04581 56.44410 50.74496
#
# Velocity S-wave (km/s) = 3.91049 4.37737 4.15050
# Velocity P-wave (km/s) = 5.61356 6.65305 6.15529
#
# Compressibility (1/GPa) = 0.03052050
#
# Stress axis : x y z
#
# Youngs Moduli (GPa) = 64.02112 153.96791 57.09355
#
# Poissons Ratio (x) = 0.72869 -0.12429
# Poissons Ratio (y) = 0.30300 0.11412
# Poissons Ratio (z) = -0.13937 0.30775
#
# Static dielectric constant tensor:
#      x y z
#    x 5.203160 0.000000 -0.294790 
#    y 0.000000 5.074590 0.000000 
#    z -0.294790 0.000000 5.694800 
# 
# 
# High freq. dielectric constant tensor:
#      x y z
#    x 2.206090 0.000000 -0.029800 
#    y 0.000000 2.199740 0.000000 
#    z -0.029800 0.000000 2.260460 
# 
# From -- ./inp_files/6335.got.cif
#   From: 2010.03.12/outbox.cif.g09.slc.cpg/sg5_4_cif.got.tgz:6335.got - 2010.03.31 09:47:26.
