data_PCOD8051832
_publ_section_title
;
Structure prediction by ZEFSAII (Michael W. Deem and Ramdas Pophale) SiO2 
 PCOD8051832
Probable space group: C 2
;
_chemical_formula_sum "Si O2"
_cell_formula_units_Z 28
_cell_length_a 23.491191
_cell_length_b 5.218711
_cell_length_c 14.522490
_cell_angle_alpha 90.000000
_cell_angle_beta 137.074535
_cell_angle_gamma 90.000000
_cell_volume 1212.512034
_symmetry_space_group_name_H-M "C 2"
_symmetry_group_IT_number 5
_symmetry_cell_setting 'monoclinic'
loop_
_space_group_symop_operation_xyz
x,y,z
-x,y,-z
1/2+x,1/2+y,z
1/2-x,1/2+y,-z
loop_
_atom_site_type_symbol
_atom_site_label
_atom_site_fract_x
_atom_site_fract_y
_atom_site_fract_z
Si Si1 0.423632 0.119920 0.350004
Si Si2 0.054690 0.121158 0.736994
Si Si3 0.207527 0.859028 0.350189
Si Si4 0.635818 0.551838 0.445710
Si Si5 0.913480 0.715917 0.939890
Si Si6 0.720441 0.246170 0.698901
Si Si7 0.372485 0.737764 0.989808
O O1 0.500000 0.225036 0.500000
O O2 0.412656 0.345011 0.260472
O O3 0.343578 0.068473 0.320009
O O4 0.445617 0.839623 0.339645
O O5 0.961689 0.114183 0.669773
O O6 0.118529 0.222681 0.890095
O O7 0.301563 0.790251 0.493640
O O8 0.157917 0.662753 0.223583
O O9 0.151149 0.874222 0.374956
O O10 0.219382 0.117283 0.305910
O O11 0.662155 0.447029 0.577023
O O12 0.933919 0.455101 0.020516
O O13 0.884918 0.948803 0.970322
O O14 0.000000 0.810519 0.000000
O O15 0.781749 0.352309 0.851742
#
# Coordination Sequence:
#
# PCOD8051832 Si02
#       7
#     4   4   4   4   4   4   4
#     4  12  26  47  73 102 138 184 236 298 353 420
#     4  12  28  45  73 104 140 182 241 293 355 420
#     4  11  24  40  70 102 137 188 233 291 361 422
#     4  12  23  43  69 104 142 180 238 299 350 428
#     4  11  23  42  68  97 145 186 232 283 357 427
#     4  11  25  45  69  98 144 186 236 295 358 427
#     4  11  25  45  67 101 139 187 235 290 355 430
#
# _framework density 23.092552999999999
#
# number of rings (size 3 to 8) (size 9 to 14) (size 15 to 20)
#    0.000    0.571    4.286    3.429    2.000    3.429 
#    0.000    0.000    0.000    0.000    0.000    0.000 
#    0.000    0.000    0.000    0.000    0.000    0.000 
#
# Total GULP energy -173495.999219 kJ/mol
# GULP energy per Si atom -12392.571373 kJ/mol
# Density = 2.303999 g / cm^3
# Si number density = 23.092553 Si / 1000 Ang^3
#
#
#
# Elastic Constant Matrix: (Units=GPa)
#
#
# Indices 1 2 3 4 5 6 
#
# 1 113.1838 14.5390 20.4610 -0.0004 -7.3583 -0.0004
# 2 14.5390 95.9027 16.4409 -0.0015 -11.8423 -0.0015
# 3 20.4610 16.4409 119.7553 0.0000 -8.3722 0.0001
# 4 -0.0004 -0.0015 0.0000 34.7629 -0.0007 -5.0587
# 5 -7.3583 -11.8423 -8.3722 -0.0007 24.9439 -0.0010
# 6 -0.0004 -0.0015 0.0001 -5.0587 -0.0010 28.2564
#
#
#
# Elastic Compliance Matrix: (Units=1/GPa)
#
#
# Indices 1 2 3 4 5 6 
#
# 1 0.009319 -0.000956 -0.001332 0.000000 0.001848 0.000000
# 2 -0.000956 0.011340 -0.001062 0.000001 0.004745 0.000001
# 3 -0.001332 -0.001062 0.008869 0.000000 0.002080 0.000000
# 4 0.000000 0.000001 0.000000 0.029536 0.000001 0.005288
# 5 0.001848 0.004745 0.002080 0.000001 0.043586 0.000002
# 6 0.000000 0.000001 0.000000 0.005288 0.000002 0.036337
#
#
# Mechanical properties :
#
#
# Convention : Reuss Voigt Hill
#
# Bulk Modulus (GPa) = 43.80438 47.96928 45.88683
# Shear Modulus (GPa) = 32.61667 36.08606 34.35137
#
# Velocity S-wave (km/s) = 3.76231 3.95735 3.86106
# Velocity P-wave (km/s) = 6.15496 6.45744 6.30801
#
# Compressibility (1/GPa) = 0.02282877
#
# Stress axis : x y z
#
# Youngs Moduli (GPa) = 107.30869 88.18193 112.75148
#
# Poissons Ratio (x) = 0.08432 0.15015
# Poissons Ratio (y) = 0.10261 0.11971
# Poissons Ratio (z) = 0.14290 0.09363
#
# Static dielectric constant tensor:
#      x y z
#    x 4.158380 0.000000 -0.031920 
#    y 0.000000 3.823720 0.000000 
#    z -0.031920 0.000000 4.561130 
# 
# 
# High freq. dielectric constant tensor:
#      x y z
#    x 1.909410 0.000000 -0.002210 
#    y 0.000000 1.901990 0.000000 
#    z -0.002210 0.000000 1.927960 
# 
# From -- ./inp_files/45740.got.cif
#   From: 2010.03.12/outbox.cif.g09.slc.cpg/sg5_23_cif.got.tgz:45740.got - 2010.03.31 09:47:26.
