data_PCOD8051759
_publ_section_title
;
Structure prediction by ZEFSAII (Michael W. Deem and Ramdas Pophale) SiO2 
 PCOD8051759
Probable space group: C 2
;
_chemical_formula_sum "Si O2"
_cell_formula_units_Z 28
_cell_length_a 24.087367
_cell_length_b 5.293150
_cell_length_c 9.381256
_cell_angle_alpha 90.000000
_cell_angle_beta 79.851846
_cell_angle_gamma 90.000000
_cell_volume 1177.379492
_symmetry_space_group_name_H-M "C 2"
_symmetry_group_IT_number 5
_symmetry_cell_setting 'monoclinic'
loop_
_space_group_symop_operation_xyz
x,y,z
-x,y,-z
1/2+x,1/2+y,z
1/2-x,1/2+y,-z
loop_
_atom_site_type_symbol
_atom_site_label
_atom_site_fract_x
_atom_site_fract_y
_atom_site_fract_z
Si Si1 0.500000 0.753830 0.000000
Si Si2 0.165551 0.875801 0.802919
Si Si3 0.500000 0.297538 0.500000
Si Si4 0.598123 0.922617 0.449681
Si Si5 0.058069 0.041167 0.238452
Si Si6 0.677077 0.388962 0.127799
Si Si7 0.901281 0.372724 0.236066
Si Si8 0.787808 0.405406 0.737131
O O1 0.460131 0.588239 0.915798
O O2 0.540748 0.917816 0.879170
O O3 0.131043 0.639041 0.757258
O O4 0.225945 0.879431 0.692775
O O5 0.133157 0.139906 0.811046
O O6 0.182605 0.847328 0.958477
O O7 0.503296 0.446926 0.349629
O O8 0.561018 0.172123 0.479346
O O9 0.576919 0.787642 0.316778
O O10 0.586262 0.788469 0.606531
O O11 0.665632 0.953794 0.407287
O O12 0.111498 0.851140 0.205903
O O13 0.698473 0.661523 0.171436
O O14 0.714246 0.161753 0.170860
#
# Coordination Sequence:
#
# PCOD8051759 Si02
#       8
#     2   4   2   4   4   4   4   4
#     4  12  26  50  72 112 148 196 236 322 364 432
#     4  12  26  46  71 110 144 192 246 306 361 433
#     4  12  22  44  72 102 142 190 248 290 360 452
#     4  11  27  45  69 106 141 200 235 300 364 445
#     4  11  25  44  73 104 148 190 250 291 371 441
#     4  11  22  44  73 107 142 192 243 301 367 431
#     4  12  29  45  74 104 153 189 243 299 371 431
#     4  11  24  45  76 104 146 191 245 302 368 432
#
# _framework density 23.78163
#
# number of rings (size 3 to 8) (size 9 to 14) (size 15 to 20)
#    0.000    0.571    2.857    4.714    6.000    2.857 
#    0.000    0.000    0.000    0.000    0.000    0.000 
#    0.000    0.000    0.000    0.000    0.000    0.000 
#
# Total GULP energy -173486.049702 kJ/mol
# GULP energy per Si atom -12391.860693 kJ/mol
# Density = 2.372750 g / cm^3
# Si number density = 23.781630 Si / 1000 Ang^3
#
#
#
# Elastic Constant Matrix: (Units=GPa)
#
#
# Indices 1 2 3 4 5 6 
#
# 1 137.6756 31.3148 25.0386 0.0000 -28.2060 0.0000
# 2 31.3148 107.5902 3.4316 0.0000 -4.5000 0.0000
# 3 25.0386 3.4316 98.1398 0.0000 -6.2915 0.0000
# 4 0.0000 0.0000 0.0000 19.5223 0.0000 -7.3883
# 5 -28.2060 -4.5000 -6.2915 0.0000 43.3592 0.0000
# 6 0.0000 0.0000 0.0000 -7.3883 0.0000 22.7503
#
#
#
# Elastic Compliance Matrix: (Units=1/GPa)
#
#
# Indices 1 2 3 4 5 6 
#
# 1 0.009294 -0.002413 -0.001933 0.000000 0.005515 0.000000
# 2 -0.002413 0.009968 0.000235 0.000000 -0.000501 0.000000
# 3 -0.001933 0.000235 0.010695 0.000000 0.000319 0.000000
# 4 0.000000 0.000000 0.000000 0.058401 0.000000 0.018966
# 5 0.005515 -0.000501 0.000319 0.000000 0.026645 0.000000
# 6 0.000000 0.000000 0.000000 0.018966 0.000000 0.050115
#
#
# Mechanical properties :
#
#
# Convention : Reuss Voigt Hill
#
# Bulk Modulus (GPa) = 46.00879 51.44172 48.72525
# Shear Modulus (GPa) = 27.68778 36.03439 31.86109
#
# Velocity S-wave (km/s) = 3.41581 3.89681 3.66421
# Velocity P-wave (km/s) = 5.91146 6.47492 6.19960
#
# Compressibility (1/GPa) = 0.02173498
#
# Stress axis : x y z
#
# Youngs Moduli (GPa) = 107.60060 100.31793 93.50177
#
# Poissons Ratio (x) = 0.24203 0.18076
# Poissons Ratio (y) = 0.25960 -0.02196
# Poissons Ratio (z) = 0.20801 -0.02356
#
# Static dielectric constant tensor:
#      x y z
#    x 4.791720 0.000000 -0.757260 
#    y 0.000000 4.061760 0.000000 
#    z -0.757260 0.000000 5.698210 
# 
# 
# High freq. dielectric constant tensor:
#      x y z
#    x 1.959890 0.000000 -0.020390 
#    y 0.000000 1.932850 0.000000 
#    z -0.020390 0.000000 1.950380 
# 
# From -- ./inp_files/31384.got.cif
#   From: 2010.03.12/outbox.cif.g09.slc.cpg/sg5_16_cif.got.tgz:31384.got - 2010.03.31 09:47:26.
