data_PCOD8051883
_publ_section_title
;
Structure prediction by ZEFSAII (Michael W. Deem and Ramdas Pophale) SiO2 
 PCOD8051883
Probable space group: C 2
;
_chemical_formula_sum "Si O2"
_cell_formula_units_Z 32
_cell_length_a 10.831076
_cell_length_b 8.468039
_cell_length_c 25.678622
_cell_angle_alpha 90.000000
_cell_angle_beta 142.147861
_cell_angle_gamma 90.000000
_cell_volume 1445.206166
_symmetry_space_group_name_H-M "C 2"
_symmetry_group_IT_number 5
_symmetry_cell_setting 'monoclinic'
loop_
_space_group_symop_operation_xyz
x,y,z
-x,y,-z
1/2+x,1/2+y,z
1/2-x,1/2+y,-z
loop_
_atom_site_type_symbol
_atom_site_label
_atom_site_fract_x
_atom_site_fract_y
_atom_site_fract_z
Si Si1 0.833090 0.520520 0.736611
Si Si2 0.744023 0.656982 0.285138
Si Si3 0.217323 0.625319 0.821803
Si Si4 0.642137 0.469723 0.840228
Si Si5 0.423208 0.019489 0.531279
Si Si6 0.511442 0.111762 0.104042
Si Si7 0.022747 0.148770 0.447665
Si Si8 0.390023 0.459776 0.048487
O O1 0.752994 0.345038 0.715926
O O2 0.687721 0.621471 0.651457
O O3 0.051811 0.499162 0.784011
O O4 0.855549 0.613905 0.798999
O O5 0.771548 0.604015 0.235672
O O6 0.545870 0.573395 0.244083
O O7 0.937063 0.603058 0.380572
O O8 0.135970 0.792254 0.816032
O O9 0.436082 0.574887 0.916774
O O10 0.640465 0.481985 0.900951
O O11 0.855494 0.538977 0.896512
O O12 0.500000 0.078423 0.500000
O O13 0.195086 0.064482 0.470662
O O14 0.433641 0.832755 0.537461
O O15 0.445582 0.278572 0.058640
O O16 0.315428 0.003162 0.049909
O O17 0.000000 0.085834 0.500000
#
# Coordination Sequence:
#
# PCOD8051883 Si02
#       8
#     4   4   4   4   4   4   4   4
#     4  12  25  43  72 101 137 181 230 286 344 409
#     4  11  25  42  70 102 135 177 229 282 345 415
#     4  11  23  45  68  97 136 179 228 283 343 413
#     4  11  23  45  68  94 136 180 224 281 345 409
#     4  11  26  45  73 103 139 185 229 289 357 424
#     4  12  25  44  69 100 136 180 231 285 345 411
#     4  11  26  48  70 102 144 186 235 289 351 426
#     4  11  26  44  67  96 137 182 228 283 350 409
#
# _framework density 22.142168999999999
#
# number of rings (size 3 to 8) (size 9 to 14) (size 15 to 20)
#    0.000    0.750    2.500    4.125    5.250    5.500 
#    2.250    0.000    0.000    0.000    0.000    0.000 
#    0.000    0.000    0.000    0.000    0.000    0.000 
#
# Total GULP energy -198395.823902 kJ/mol
# GULP energy per Si atom -12399.738994 kJ/mol
# Density = 2.209177 g / cm^3
# Si number density = 22.142169 Si / 1000 Ang^3
#
#
#
# Elastic Constant Matrix: (Units=GPa)
#
#
# Indices 1 2 3 4 5 6 
#
# 1 105.6600 11.0595 25.0405 0.0000 20.3050 0.0000
# 2 11.0595 81.9926 12.9980 0.0000 2.7058 0.0000
# 3 25.0405 12.9980 105.8621 0.0000 7.2684 0.0000
# 4 0.0000 0.0000 0.0000 42.1078 0.0000 10.6606
# 5 20.3050 2.7058 7.2684 0.0000 36.7310 0.0000
# 6 0.0000 0.0000 0.0000 10.6606 0.0000 39.5718
#
#
#
# Elastic Compliance Matrix: (Units=1/GPa)
#
#
# Indices 1 2 3 4 5 6 
#
# 1 0.011163 -0.000981 -0.002130 0.000000 -0.005677 0.000000
# 2 -0.000981 0.012539 -0.001299 0.000000 -0.000125 0.000000
# 3 -0.002130 -0.001299 0.010160 0.000000 -0.000737 0.000000
# 4 0.000000 0.000000 0.000000 0.025487 0.000000 -0.006866
# 5 -0.005677 -0.000125 -0.000737 0.000000 0.030518 0.000000
# 6 0.000000 0.000000 0.000000 -0.006866 0.000000 0.027120
#
#
# Mechanical properties :
#
#
# Convention : Reuss Voigt Hill
#
# Bulk Modulus (GPa) = 39.93326 43.52343 41.72834
# Shear Modulus (GPa) = 37.27056 39.97655 38.62356
#
# Velocity S-wave (km/s) = 4.10718 4.25367 4.18107
# Velocity P-wave (km/s) = 6.36914 6.61996 6.49577
#
# Compressibility (1/GPa) = 0.02504178
#
# Stress axis : x y z
#
# Youngs Moduli (GPa) = 89.58329 79.75421 98.42276
#
# Poissons Ratio (x) = 0.07821 0.20967
# Poissons Ratio (y) = 0.08785 0.12785
# Poissons Ratio (z) = 0.19084 0.10360
#
# Static dielectric constant tensor:
#      x y z
#    x 4.290850 0.000000 0.177820 
#    y 0.000000 4.081510 0.000000 
#    z 0.177820 0.000000 4.197240 
# 
# 
# High freq. dielectric constant tensor:
#      x y z
#    x 1.888600 0.000000 0.009570 
#    y 0.000000 1.876310 0.000000 
#    z 0.009570 0.000000 1.879050 
# 
# From -- ./inp_files/71733.got.cif
#   From: 2010.03.12/outbox.cif.g09.slc.cpg/sg5_36_cif.got.tgz:71733.got - 2010.03.31 09:47:26.
