data_PCOD8051916
_publ_section_title
;
Structure prediction by ZEFSAII (Michael W. Deem and Ramdas Pophale) SiO2 
 PCOD8051916
Probable space group: C 2
;
_chemical_formula_sum "Si O2"
_cell_formula_units_Z 28
_cell_length_a 17.951760
_cell_length_b 14.263511
_cell_length_c 6.591513
_cell_angle_alpha 90.000000
_cell_angle_beta 133.777225
_cell_angle_gamma 90.000000
_cell_volume 1218.644455
_symmetry_space_group_name_H-M "C 2"
_symmetry_group_IT_number 5
_symmetry_cell_setting 'monoclinic'
loop_
_space_group_symop_operation_xyz
x,y,z
-x,y,-z
1/2+x,1/2+y,z
1/2-x,1/2+y,-z
loop_
_atom_site_type_symbol
_atom_site_label
_atom_site_fract_x
_atom_site_fract_y
_atom_site_fract_z
Si Si1 0.083159 0.241760 0.016969
Si Si2 0.000000 0.565470 0.000000
Si Si3 0.278450 0.443689 0.006230
Si Si4 0.731391 0.662784 0.998219
Si Si5 0.095773 0.731231 0.392536
Si Si6 0.927608 0.428013 0.178670
Si Si7 0.756631 0.785890 0.657795
Si Si8 0.500000 0.365712 0.500000
O O1 0.122960 0.175755 0.911269
O O2 0.173372 0.282321 0.325628
O O3 0.022956 0.330663 0.806697
O O4 0.000000 0.185925 0.000000
O O5 0.942903 0.626806 0.723115
O O6 0.077678 0.502534 0.014022
O O7 0.396399 0.429321 0.301829
O O8 0.247449 0.552645 0.943759
O O9 0.190982 0.401293 0.989398
O O10 0.261073 0.390124 0.760853
O O11 0.818412 0.724610 0.271560
O O12 0.730592 0.702201 0.768156
O O13 0.133986 0.769068 0.246945
O O14 0.006513 0.799513 0.312599
O O15 0.000000 0.464075 0.500000
#
# Coordination Sequence:
#
# PCOD8051916 Si02
#       8
#     4   2   4   4   4   4   4   2
#     4  11  24  42  67 101 138 189 235 293 372 436
#     4  12  26  38  76 110 134 186 248 308 364 446
#     4  12  25  45  74 103 143 195 237 303 366 435
#     4  11  25  46  69  99 144 191 244 304 362 441
#     4  11  25  46  71 102 141 190 246 307 370 433
#     4  12  25  44  71 109 145 183 240 312 372 433
#     4  11  23  48  71  98 144 190 242 303 364 442
#     4  12  26  50  70 104 152 190 246 298 378 432
#
# _framework density 22.976347000000001
#
# number of rings (size 3 to 8) (size 9 to 14) (size 15 to 20)
#    0.000    0.571    3.571    4.286    5.000    1.143 
#    7.714    0.000    0.000    0.000    0.000    0.000 
#    0.000    0.000    0.000    0.000    0.000    0.000 
#
# Total GULP energy -173546.611701 kJ/mol
# GULP energy per Si atom -12396.186550 kJ/mol
# Density = 2.292405 g / cm^3
# Si number density = 22.976347 Si / 1000 Ang^3
#
#
#
# Elastic Constant Matrix: (Units=GPa)
#
#
# Indices 1 2 3 4 5 6 
#
# 1 165.7510 22.2912 23.1266 0.0000 -18.3731 0.0000
# 2 22.2912 88.1286 14.1587 0.0000 -17.7729 0.0000
# 3 23.1266 14.1587 77.0962 0.0000 -8.0043 0.0000
# 4 0.0000 0.0000 0.0000 35.2487 0.0000 -3.8715
# 5 -18.3731 -17.7729 -8.0043 0.0000 38.0085 0.0000
# 6 0.0000 0.0000 0.0000 -3.8715 0.0000 39.0688
#
#
#
# Elastic Compliance Matrix: (Units=1/GPa)
#
#
# Indices 1 2 3 4 5 6 
#
# 1 0.006649 -0.000937 -0.001569 0.000000 0.002446 0.000000
# 2 -0.000937 0.012890 -0.001541 0.000000 0.005250 0.000000
# 3 -0.001569 -0.001541 0.013874 0.000000 0.001443 0.000000
# 4 0.000000 0.000000 0.000000 0.028682 0.000000 0.002842
# 5 0.002446 0.005250 0.001443 0.000000 0.030251 0.000000
# 6 0.000000 0.000000 0.000000 0.002842 0.000000 0.025878
#
#
# Mechanical properties :
#
#
# Convention : Reuss Voigt Hill
#
# Bulk Modulus (GPa) = 39.49317 50.01430 44.75374
# Shear Modulus (GPa) = 37.10369 40.55849 38.83109
#
# Velocity S-wave (km/s) = 4.02290 4.20602 4.11548
# Velocity P-wave (km/s) = 6.22930 6.73813 6.48871
#
# Compressibility (1/GPa) = 0.02532083
#
# Stress axis : x y z
#
# Youngs Moduli (GPa) = 150.39684 77.57709 72.07623
#
# Poissons Ratio (x) = 0.07265 0.11306
# Poissons Ratio (y) = 0.14085 0.11109
# Poissons Ratio (z) = 0.23591 0.11957
#
# Static dielectric constant tensor:
#      x y z
#    x 4.586460 0.000000 -0.121740 
#    y 0.000000 3.899050 0.000000 
#    z -0.121740 0.000000 3.883420 
# 
# 
# High freq. dielectric constant tensor:
#      x y z
#    x 1.930830 0.000000 -0.010120 
#    y 0.000000 1.895010 0.000000 
#    z -0.010120 0.000000 1.903420 
# 
# From -- ./inp_files/8720.got.cif
#   From: 2010.03.12/outbox.cif.g09.slc.cpg/sg5_5_cif.got.tgz:8720.got - 2010.03.31 09:47:26.
