data_PCOD8051562
_publ_section_title
;
Structure prediction by ZEFSAII (Michael W. Deem and Ramdas Pophale) SiO2 
 PCOD8051562
Probable space group: C 2
;
_chemical_formula_sum "Si O2"
_cell_formula_units_Z 28
_cell_length_a 17.651509
_cell_length_b 13.108766
_cell_length_c 19.071664
_cell_angle_alpha 90.000000
_cell_angle_beta 22.250664
_cell_angle_gamma 90.000000
_cell_volume 1671.017176
_symmetry_space_group_name_H-M "C 2"
_symmetry_group_IT_number 5
_symmetry_cell_setting 'monoclinic'
loop_
_space_group_symop_operation_xyz
x,y,z
-x,y,-z
1/2+x,1/2+y,z
1/2-x,1/2+y,-z
loop_
_atom_site_type_symbol
_atom_site_label
_atom_site_fract_x
_atom_site_fract_y
_atom_site_fract_z
Si Si1 0.712288 0.416920 0.500019
Si Si2 0.130997 0.765246 0.209410
Si Si3 0.292875 0.092308 0.207125
Si Si4 0.718566 0.358133 0.281429
Si Si5 0.711694 0.118203 0.500012
Si Si6 0.620657 0.606187 0.500002
Si Si7 0.450142 0.765250 0.209444
O O1 0.527324 0.348232 0.684298
O O2 0.784643 0.494065 0.500009
O O3 0.634475 0.483242 0.500024
O O4 0.895876 0.348233 0.315739
O O5 0.218777 0.796228 0.209002
O O6 0.015144 0.657219 0.315769
O O7 0.310589 0.754343 0.999979
O O8 0.259009 0.133619 0.314986
O O9 0.111011 0.133636 0.315002
O O10 0.304909 0.970321 0.195082
O O11 0.500000 0.137755 0.000000
O O12 0.500000 0.363593 0.500000
O O13 0.863224 0.296237 0.208991
O O14 0.798394 0.163323 0.499997
O O15 0.853243 0.157228 0.315827
#
# Coordination Sequence:
#
# PCOD8051562 Si02
#       7
#     4   4   4   4   4   4   4
#     4   9  18  33  45  65 101 132 156 193 233 282
#     4  11  20  30  50  74  98 130 162 196 237 286
#     4  11  17  26  49  73  94 123 152 194 241 290
#     4  12  16  29  45  70 101 123 153 191 243 295
#     4   9  20  33  45  65 104 134 160 191 237 284
#     4   9  18  31  42  66  99 128 156 183 228 287
#     4  11  20  30  50  74  98 130 162 196 237 286
#
# _framework density 16.756260999999999
#
# number of rings (size 3 to 8) (size 9 to 14) (size 15 to 20)
#    0.857    0.857    7.143    1.286    0.000    2.286 
#    0.000    0.000    0.000    0.000    0.000   16.000 
#    0.000    0.000    0.000    0.000    0.000    0.000 
#
# Total GULP energy -173500.989111 kJ/mol
# GULP energy per Si atom -12392.927794 kJ/mol
# Density = 1.671812 g / cm^3
# Si number density = 16.756261 Si / 1000 Ang^3
#
#
#
# Elastic Constant Matrix: (Units=GPa)
#
#
# Indices 1 2 3 4 5 6 
#
# 1 56.0028 13.0027 15.3179 0.0002 1.1098 -0.0011
# 2 13.0027 58.5738 24.7125 0.0040 -0.9248 -0.0141
# 3 15.3179 24.7125 158.2141 0.0059 -9.3629 -0.0156
# 4 0.0002 0.0040 0.0059 11.9786 -0.0239 1.2156
# 5 1.1098 -0.9248 -9.3629 -0.0239 14.2866 0.0025
# 6 -0.0011 -0.0141 -0.0156 1.2156 0.0025 26.8819
#
#
#
# Elastic Compliance Matrix: (Units=1/GPa)
#
#
# Indices 1 2 3 4 5 6 
#
# 1 0.019159 -0.003689 -0.001437 -0.000004 -0.002669 -0.000002
# 2 -0.003689 0.018994 -0.002622 -0.000006 -0.000202 0.000009
# 3 -0.001437 -0.002622 0.007143 0.000006 0.004623 0.000002
# 4 -0.000004 -0.000006 0.000006 0.083868 0.000145 -0.003792
# 5 -0.002669 -0.000202 0.004623 0.000145 0.073220 -0.000011
# 6 -0.000002 0.000009 0.000002 -0.003792 -0.000011 0.037371
#
#
# Mechanical properties :
#
#
# Convention : Reuss Voigt Hill
#
# Bulk Modulus (GPa) = 33.55582 42.09521 37.82552
# Shear Modulus (GPa) = 18.85493 25.27991 22.06742
#
# Velocity S-wave (km/s) = 3.35811 3.88839 3.63294
# Velocity P-wave (km/s) = 5.92496 6.73321 6.34197
#
# Compressibility (1/GPa) = 0.02980109
#
# Stress axis : x y z
#
# Youngs Moduli (GPa) = 52.19588 52.64745 140.00290
#
# Poissons Ratio (x) = 0.19422 0.20113
# Poissons Ratio (y) = 0.19255 0.36704
# Poissons Ratio (z) = 0.07498 0.13802
#
# Static dielectric constant tensor:
#      x y z
#    x 3.050390 0.000010 -0.014150 
#    y 0.000010 2.797420 0.000020 
#    z -0.014150 0.000020 3.224940 
# 
# 
# High freq. dielectric constant tensor:
#      x y z
#    x 1.630730 0.000000 -0.001960 
#    y 0.000000 1.603800 0.000000 
#    z -0.001960 0.000000 1.654940 
# 
# From -- ./inp_files/67164.got.cif
#   From: 2010.03.12/outbox.cif.g09.slc.cpg/sg5_34_cif.got.tgz:67164.got - 2010.03.31 09:47:26.
