data_PCOD8051494
_publ_section_title
;
Structure prediction by ZEFSAII (Michael W. Deem and Ramdas Pophale) SiO2 
 PCOD8051494
Probable space group: C 2
;
_chemical_formula_sum "Si O2"
_cell_formula_units_Z 18
_cell_length_a 6.993884
_cell_length_b 7.823183
_cell_length_c 21.559305
_cell_angle_alpha 90.000000
_cell_angle_beta 134.500964
_cell_angle_gamma 90.000000
_cell_volume 841.340013
_symmetry_space_group_name_H-M "C 2"
_symmetry_group_IT_number 5
_symmetry_cell_setting 'monoclinic'
loop_
_space_group_symop_operation_xyz
x,y,z
-x,y,-z
1/2+x,1/2+y,z
1/2-x,1/2+y,-z
loop_
_atom_site_type_symbol
_atom_site_label
_atom_site_fract_x
_atom_site_fract_y
_atom_site_fract_z
Si Si1 0.000000 0.861990 0.000000
Si Si2 0.265981 0.404194 0.595229
Si Si3 0.783046 0.575930 0.667902
Si Si4 0.203837 0.033518 0.927701
Si Si5 0.297352 0.404142 0.739678
O O1 0.737182 0.740091 0.932615
O O2 0.025177 0.981864 0.945971
O O3 0.520131 0.459249 0.612287
O O4 0.262833 0.197705 0.602454
O O5 0.279277 0.489379 0.666935
O O6 0.000000 0.468111 0.500000
O O7 0.038995 0.453377 0.721511
O O8 0.811611 0.697528 0.735438
O O9 0.065444 0.969698 0.833516
O O10 0.500000 0.948416 0.000000
#
# Coordination Sequence:
#
# PCOD8051494 Si02
#       5
#     2   4   4   4   4
#     4  10  26  38  68  88 128 164 218 262 310 374
#     4  10  26  42  69  94 131 166 213 258 318 378
#     4  10  26  39  67  94 130 166 214 256 320 368
#     4  10  26  42  67  93 130 168 216 259 319 372
#     4  10  26  40  68  93 133 166 213 261 316 374
#
# _framework density 21.394445000000001
#
# number of rings (size 3 to 8) (size 9 to 14) (size 15 to 20)
#    2.000    0.000    0.000    0.000   14.000    1.778 
#    0.000    0.000    0.000    0.000    0.000    0.000 
#    0.000    0.000    0.000    0.000    0.000    0.000 
#
# Total GULP energy -111526.167907 kJ/mol
# GULP energy per Si atom -12391.796434 kJ/mol
# Density = 2.134575 g / cm^3
# Si number density = 21.394445 Si / 1000 Ang^3
#
#
#
# Elastic Constant Matrix: (Units=GPa)
#
#
# Indices 1 2 3 4 5 6 
#
# 1 132.6850 69.6219 57.8862 0.0000 15.0470 0.0000
# 2 69.6219 74.4966 15.7424 0.0000 -1.6310 0.0000
# 3 57.8862 15.7424 155.4432 0.0000 9.0883 0.0000
# 4 0.0000 0.0000 0.0000 13.6126 0.0000 -0.8857
# 5 15.0470 -1.6310 9.0883 0.0000 36.2809 0.0000
# 6 0.0000 0.0000 0.0000 -0.8857 0.0000 53.5089
#
#
#
# Elastic Compliance Matrix: (Units=1/GPa)
#
#
# Indices 1 2 3 4 5 6 
#
# 1 0.020019 -0.017782 -0.005198 0.000000 -0.007800 0.000000
# 2 -0.017782 0.029545 0.003167 0.000000 0.007910 0.000000
# 3 -0.005198 0.003167 0.008032 0.000000 0.000286 0.000000
# 4 0.000000 0.000000 0.000000 0.073541 0.000000 0.001217
# 5 -0.007800 0.007910 0.000286 0.000000 0.031081 0.000000
# 6 0.000000 0.000000 0.000000 0.001217 0.000000 0.018709
#
#
# Mechanical properties :
#
#
# Convention : Reuss Voigt Hill
#
# Bulk Modulus (GPa) = 55.64573 72.12508 63.88540
# Shear Modulus (GPa) = 22.07090 35.30543 28.68816
#
# Velocity S-wave (km/s) = 3.21537 4.06669 3.66583
# Velocity P-wave (km/s) = 6.31274 7.47234 6.91688
#
# Compressibility (1/GPa) = 0.01797083
#
# Stress axis : x y z
#
# Youngs Moduli (GPa) = 49.95173 33.84617 124.50949
#
# Poissons Ratio (x) = 0.60184 0.64723
# Poissons Ratio (y) = 0.88822 -0.39434
# Poissons Ratio (z) = 0.25966 -0.10720
#
# Static dielectric constant tensor:
#      x y z
#    x 3.631960 0.000000 0.031550 
#    y 0.000000 3.582990 0.000000 
#    z 0.031550 0.000000 3.643830 
# 
# 
# High freq. dielectric constant tensor:
#      x y z
#    x 1.839390 0.000000 0.003850 
#    y 0.000000 1.822980 0.000000 
#    z 0.003850 0.000000 1.827630 
# 
# From -- ./inp_files/58428.got.cif
#   From: 2010.03.12/outbox.cif.g09.slc.cpg/sg5_30_cif.got.tgz:58428.got - 2010.03.31 09:47:26.
