data_PCOD8051368
_publ_section_title
;
Structure prediction by ZEFSAII (Michael W. Deem and Ramdas Pophale) SiO2 
 PCOD8051368
Probable space group: C 2
;
_chemical_formula_sum "Si O2"
_cell_formula_units_Z 30
_cell_length_a 11.636198
_cell_length_b 10.482791
_cell_length_c 17.159648
_cell_angle_alpha 90.000000
_cell_angle_beta 139.645253
_cell_angle_gamma 90.000000
_cell_volume 1355.340454
_symmetry_space_group_name_H-M "C 2"
_symmetry_group_IT_number 5
_symmetry_cell_setting 'monoclinic'
loop_
_space_group_symop_operation_xyz
x,y,z
-x,y,-z
1/2+x,1/2+y,z
1/2-x,1/2+y,-z
loop_
_atom_site_type_symbol
_atom_site_label
_atom_site_fract_x
_atom_site_fract_y
_atom_site_fract_z
Si Si1 0.654855 0.915710 0.858059
Si Si2 0.818640 0.662500 0.215945
Si Si3 0.817686 0.785496 0.632196
Si Si4 0.799909 0.549767 0.372708
Si Si5 0.500000 0.261969 0.000000
Si Si6 0.916548 0.241794 0.637204
Si Si7 0.566813 0.888031 0.113490
Si Si8 0.263341 0.127515 0.755515
O O1 0.500040 0.866815 0.719975
O O2 0.602672 0.875480 0.918322
O O3 0.675633 0.068466 0.856103
O O4 0.842930 0.852212 0.945362
O O5 0.803229 0.571489 0.282544
O O6 0.646940 0.752346 0.128941
O O7 0.991404 0.752183 0.304771
O O8 0.820132 0.925718 0.671860
O O9 0.676886 0.785644 0.489879
O O10 0.759307 0.682662 0.666458
O O11 0.721301 0.672744 0.376306
O O12 0.000000 0.522066 0.500000
O O13 0.568810 0.181278 0.109275
O O14 0.076667 0.146442 0.701259
O O15 0.710334 0.974921 0.233584
O O16 0.500000 0.956428 0.000000
#
# Coordination Sequence:
#
# PCOD8051368 Si02
#       8
#     4   4   4   4   2   4   4   4
#     4  11  25  49  73 102 148 188 246 306 370 438
#     4  12  26  47  72 110 140 193 247 295 373 438
#     4  12  25  43  76 108 149 196 241 300 372 442
#     4  12  23  45  72 107 151 187 244 300 358 448
#     4  10  24  46  74 100 136 196 244 306 364 430
#     4  11  24  45  74 106 146 194 237 304 368 441
#     4  12  27  47  72 105 149 188 247 315 360 436
#     4  11  23  47  69 104 143 193 247 296 374 434
#
# _framework density 22.134658999999999
#
# number of rings (size 3 to 8) (size 9 to 14) (size 15 to 20)
#    0.000    0.533    4.667    4.400    2.800    0.000 
#    2.400    0.000    0.000    0.000    0.000    0.000 
#    0.000    0.000    0.000    0.000    0.000    0.000 
#
# Total GULP energy -186044.058460 kJ/mol
# GULP energy per Si atom -12402.937231 kJ/mol
# Density = 2.208428 g / cm^3
# Si number density = 22.134659 Si / 1000 Ang^3
#
#
#
# Elastic Constant Matrix: (Units=GPa)
#
#
# Indices 1 2 3 4 5 6 
#
# 1 139.0871 57.6887 53.9572 0.0000 -3.1672 0.0000
# 2 57.6887 110.5311 15.7846 0.0000 13.5023 0.0000
# 3 53.9572 15.7846 83.6972 0.0001 -0.7610 0.0000
# 4 0.0000 0.0000 0.0001 13.9892 0.0000 -1.3888
# 5 -3.1672 13.5023 -0.7610 0.0000 29.2166 0.0000
# 6 0.0000 0.0000 0.0000 -1.3888 0.0000 43.7607
#
#
#
# Elastic Compliance Matrix: (Units=1/GPa)
#
#
# Indices 1 2 3 4 5 6 
#
# 1 0.012414 -0.005983 -0.006839 0.000000 0.003932 0.000000
# 2 -0.005983 0.012767 0.001390 0.000000 -0.006512 0.000000
# 3 -0.006839 0.001390 0.016086 0.000000 -0.000965 0.000000
# 4 0.000000 0.000000 0.000000 0.071710 0.000000 0.002276
# 5 0.003932 -0.006512 -0.000965 0.000000 0.037638 0.000000
# 6 0.000000 0.000000 0.000000 0.002276 0.000000 0.022924
#
#
# Mechanical properties :
#
#
# Convention : Reuss Voigt Hill
#
# Bulk Modulus (GPa) = 54.33838 65.35293 59.84565
# Shear Modulus (GPa) = 24.68707 31.11895 27.90301
#
# Velocity S-wave (km/s) = 3.34325 3.75359 3.55435
# Velocity P-wave (km/s) = 6.28533 6.95523 6.62875
#
# Compressibility (1/GPa) = 0.01840320
#
# Stress axis : x y z
#
# Youngs Moduli (GPa) = 80.55576 78.32796 62.16718
#
# Poissons Ratio (x) = 0.46862 0.42515
# Poissons Ratio (y) = 0.48195 -0.08641
# Poissons Ratio (z) = 0.55090 -0.10888
#
# Static dielectric constant tensor:
#      x y z
#    x 4.289000 0.000000 -0.073460 
#    y 0.000000 3.955150 0.000000 
#    z -0.073460 0.000000 3.991850 
# 
# 
# High freq. dielectric constant tensor:
#      x y z
#    x 1.890620 0.000000 0.000450 
#    y 0.000000 1.874950 0.000000 
#    z 0.000450 0.000000 1.866240 
# 
# From -- ./inp_files/60493.got.cif
#   From: 2010.03.12/outbox.cif.g09.slc.cpg/sg5_31_cif.got.tgz:60493.got - 2010.03.31 09:47:26.
