data_PCOD8051597
_publ_section_title
;
Structure prediction by ZEFSAII (Michael W. Deem and Ramdas Pophale) SiO2 
 PCOD8051597
Probable space group: C 2
;
_chemical_formula_sum "Si O2"
_cell_formula_units_Z 22
_cell_length_a 22.037700
_cell_length_b 6.128328
_cell_length_c 7.520174
_cell_angle_alpha 90.000000
_cell_angle_beta 108.851734
_cell_angle_gamma 90.000000
_cell_volume 961.150875
_symmetry_space_group_name_H-M "C 2"
_symmetry_group_IT_number 5
_symmetry_cell_setting 'monoclinic'
loop_
_space_group_symop_operation_xyz
x,y,z
-x,y,-z
1/2+x,1/2+y,z
1/2-x,1/2+y,-z
loop_
_atom_site_type_symbol
_atom_site_label
_atom_site_fract_x
_atom_site_fract_y
_atom_site_fract_z
Si Si1 0.256055 0.280130 0.262144
Si Si2 0.391774 0.151275 0.295012
Si Si3 0.907366 0.277114 0.605610
Si Si4 0.817176 0.929278 0.656689
Si Si5 0.000000 0.988392 0.500000
Si Si6 0.867672 0.535604 0.892593
O O1 0.322743 0.272268 0.219255
O O2 0.267758 0.298835 0.486033
O O3 0.207217 0.466594 0.148429
O O4 0.219378 0.048153 0.215397
O O5 0.444780 0.336209 0.369459
O O6 0.393315 0.968813 0.449992
O O7 0.403720 0.039639 0.115536
O O8 0.908371 0.373334 0.806144
O O9 0.973617 0.152134 0.627046
O O10 0.851862 0.095240 0.551913
O O11 0.868681 0.769995 0.797151
#
# Coordination Sequence:
#
# PCOD8051597 Si02
#       6
#     4   4   4   4   2   4
#     4  11  21  38  71 105 150 185 231 295 367 428
#     4  12  27  47  72 110 146 189 250 294 362 434
#     4  11  24  48  71  99 143 193 242 295 358 416
#     4  11  20  41  70 100 147 192 226 294 364 419
#     4  12  26  50  78  96 146 208 240 298 352 430
#     4  11  26  43  72 113 145 187 241 305 362 429
#
# _framework density 22.889226000000001
#
# number of rings (size 3 to 8) (size 9 to 14) (size 15 to 20)
#    0.000    0.727    5.455    1.636    2.545    2.909 
#    0.000   13.636    0.000    0.000    0.000    0.000 
#    0.000    0.000    0.000    0.000    0.000    0.000 
#
# Total GULP energy -136367.423946 kJ/mol
# GULP energy per Si atom -12397.038541 kJ/mol
# Density = 2.283713 g / cm^3
# Si number density = 22.889226 Si / 1000 Ang^3
#
#
#
# Elastic Constant Matrix: (Units=GPa)
#
#
# Indices 1 2 3 4 5 6 
#
# 1 155.4703 68.4971 45.0328 0.0000 -8.4280 0.0000
# 2 68.4971 115.3869 39.1597 0.0000 -6.8313 0.0000
# 3 45.0328 39.1597 111.2489 0.0000 -20.7401 0.0000
# 4 0.0000 0.0000 0.0000 23.4571 0.0000 -2.6793
# 5 -8.4280 -6.8313 -20.7401 0.0000 18.5890 0.0000
# 6 0.0000 0.0000 0.0000 -2.6793 0.0000 50.4720
#
#
#
# Elastic Compliance Matrix: (Units=1/GPa)
#
#
# Indices 1 2 3 4 5 6 
#
# 1 0.009094 -0.004713 -0.001991 0.000000 0.000170 0.000000
# 2 -0.004713 0.012286 -0.002492 0.000000 -0.000402 0.000000
# 3 -0.001991 -0.002492 0.013047 0.000000 0.012738 0.000000
# 4 0.000000 0.000000 0.000000 0.042891 0.000000 0.002277
# 5 0.000170 -0.000402 0.012738 0.000000 0.067937 0.000000
# 6 0.000000 0.000000 0.000000 0.002277 0.000000 0.019934
#
#
# Mechanical properties :
#
#
# Convention : Reuss Voigt Hill
#
# Bulk Modulus (GPa) = 62.35959 76.38725 69.37342
# Shear Modulus (GPa) = 26.46551 33.79804 30.13178
#
# Velocity S-wave (km/s) = 3.40405 3.84681 3.63218
# Velocity P-wave (km/s) = 6.53860 7.29216 6.92564
#
# Compressibility (1/GPa) = 0.01603603
#
# Stress axis : x y z
#
# Youngs Moduli (GPa) = 109.95781 81.39218 76.64887
#
# Poissons Ratio (x) = 0.38361 0.15258
# Poissons Ratio (y) = 0.51824 0.19100
# Poissons Ratio (z) = 0.21888 0.20282
#
# Static dielectric constant tensor:
#      x y z
#    x 4.171900 0.000000 -0.155980 
#    y 0.000000 4.415310 0.000000 
#    z -0.155980 0.000000 3.713800 
# 
# 
# High freq. dielectric constant tensor:
#      x y z
#    x 1.902840 0.000000 -0.012580 
#    y 0.000000 1.922940 0.000000 
#    z -0.012580 0.000000 1.873520 
# 
# From -- ./inp_files/28334.got.cif
#   From: 2010.03.12/outbox.cif.g09.slc.cpg/sg5_15_cif.got.tgz:28334.got - 2010.03.31 09:47:26.
