data_PCOD8051607
_publ_section_title
;
Structure prediction by ZEFSAII (Michael W. Deem and Ramdas Pophale) SiO2 
 PCOD8051607
Probable space group: C 2
;
_chemical_formula_sum "Si O2"
_cell_formula_units_Z 30
_cell_length_a 13.852809
_cell_length_b 5.332483
_cell_length_c 19.016145
_cell_angle_alpha 90.000000
_cell_angle_beta 127.326587
_cell_angle_gamma 90.000000
_cell_volume 1117.022488
_symmetry_space_group_name_H-M "C 2"
_symmetry_group_IT_number 5
_symmetry_cell_setting 'monoclinic'
loop_
_space_group_symop_operation_xyz
x,y,z
-x,y,-z
1/2+x,1/2+y,z
1/2-x,1/2+y,-z
loop_
_atom_site_type_symbol
_atom_site_label
_atom_site_fract_x
_atom_site_fract_y
_atom_site_fract_z
Si Si1 0.063162 0.771570 0.909938
Si Si2 0.656124 0.032007 0.130593
Si Si3 0.261186 0.406852 0.323498
Si Si4 0.531031 0.597540 0.248090
Si Si5 0.500000 0.639396 0.000000
Si Si6 0.185013 0.465577 0.859380
Si Si7 0.790898 0.573950 0.556157
Si Si8 0.548879 0.229310 0.680721
O O1 0.186905 0.645614 0.931304
O O2 0.987113 0.565384 0.918422
O O3 0.981222 0.856815 0.807695
O O4 0.070488 0.999769 0.967958
O O5 0.733187 0.037328 0.235941
O O6 0.632054 0.764374 0.082165
O O7 0.706656 0.255767 0.101527
O O8 0.264188 0.603897 0.389224
O O9 0.393319 0.279419 0.370770
O O10 0.167693 0.191969 0.304266
O O11 0.438732 0.810670 0.183331
O O12 0.502802 0.494654 0.313547
O O13 0.162052 0.634450 0.779672
O O14 0.735710 0.327745 0.496742
O O15 0.937359 0.533875 0.625982
#
# Coordination Sequence:
#
# PCOD8051607 Si02
#       8
#     4   4   4   4   2   4   4   4
#     4  11  23  43  77 105 163 213 264 352 418 487
#     4  12  25  46  80 116 155 223 280 342 415 505
#     4  12  23  49  83 115 156 220 271 339 412 498
#     4  11  20  44  75 114 156 202 269 342 404 483
#     4  12  26  46  78 112 174 220 274 342 454 494
#     4  11  23  42  81 121 151 204 292 340 404 504
#     4  12  29  53  80 123 179 218 271 350 426 510
#     4  11  25  46  79 121 154 214 276 337 411 504
#
# _framework density 26.857116000000001
#
# number of rings (size 3 to 8) (size 9 to 14) (size 15 to 20)
#    0.000    0.533    5.333    2.800    0.000    1.600 
#    0.000    4.000   29.333    0.000    0.000    0.000 
#    0.000    0.000    0.000    0.000    0.000    0.000 
#
# Total GULP energy -185838.050031 kJ/mol
# GULP energy per Si atom -12389.203335 kJ/mol
# Density = 2.679599 g / cm^3
# Si number density = 26.857116 Si / 1000 Ang^3
#
#
#
# Elastic Constant Matrix: (Units=GPa)
#
#
# Indices 1 2 3 4 5 6 
#
# 1 195.7409 46.8368 48.6526 0.0000 -24.1493 -0.0001
# 2 46.8368 111.4429 38.8332 0.0000 -22.1919 -0.0001
# 3 48.6526 38.8332 108.0767 0.0000 -15.5851 0.0000
# 4 0.0000 0.0000 0.0000 33.9247 0.0000 4.2074
# 5 -24.1493 -22.1919 -15.5851 0.0000 30.1560 0.0000
# 6 -0.0001 -0.0001 0.0000 4.2074 0.0000 47.9846
#
#
#
# Elastic Compliance Matrix: (Units=1/GPa)
#
#
# Indices 1 2 3 4 5 6 
#
# 1 0.006284 -0.001375 -0.001897 0.000000 0.003041 0.000000
# 2 -0.001375 0.011713 -0.002707 0.000000 0.006120 0.000000
# 3 -0.001897 -0.002707 0.011424 0.000000 0.002393 0.000000
# 4 0.000000 0.000000 0.000000 0.029801 0.000000 -0.002613
# 5 0.003041 0.006120 0.002393 0.000000 0.041336 0.000000
# 6 0.000000 0.000000 0.000000 -0.002613 0.000000 0.021069
#
#
# Mechanical properties :
#
#
# Convention : Reuss Voigt Hill
#
# Bulk Modulus (GPa) = 57.25927 75.98953 66.62440
# Shear Modulus (GPa) = 35.86629 41.14224 38.50426
#
# Velocity S-wave (km/s) = 3.65834 3.91819 3.79049
# Velocity P-wave (km/s) = 6.26186 6.98749 6.63460
#
# Compressibility (1/GPa) = 0.01746442
#
# Stress axis : x y z
#
# Youngs Moduli (GPa) = 159.12712 85.37551 87.53265
#
# Poissons Ratio (x) = 0.11737 0.16601
# Poissons Ratio (y) = 0.21876 0.23697
# Poissons Ratio (z) = 0.30179 0.23113
#
# Static dielectric constant tensor:
#      x y z
#    x 5.070810 0.000000 -0.129700 
#    y 0.000000 5.035380 0.000000 
#    z -0.129700 0.000000 5.005010 
# 
# 
# High freq. dielectric constant tensor:
#      x y z
#    x 2.098270 0.000000 -0.008680 
#    y 0.000000 2.088510 0.000000 
#    z -0.008680 0.000000 2.062580 
# 
# From -- ./inp_files/61268.got.cif
#   From: 2010.03.12/outbox.cif.g09.slc.cpg/sg5_31_cif.got.tgz:61268.got - 2010.03.31 09:47:26.
