data_PCOD8051447
_publ_section_title
;
Structure prediction by ZEFSAII (Michael W. Deem and Ramdas Pophale) SiO2 
 PCOD8051447
Probable space group: C 2
;
_chemical_formula_sum "Si O2"
_cell_formula_units_Z 18
_cell_length_a 21.332689
_cell_length_b 7.288418
_cell_length_c 15.425677
_cell_angle_alpha 90.000000
_cell_angle_beta 159.632418
_cell_angle_gamma 90.000000
_cell_volume 834.746025
_symmetry_space_group_name_H-M "C 2"
_symmetry_group_IT_number 5
_symmetry_cell_setting 'monoclinic'
loop_
_space_group_symop_operation_xyz
x,y,z
-x,y,-z
1/2+x,1/2+y,z
1/2-x,1/2+y,-z
loop_
_atom_site_type_symbol
_atom_site_label
_atom_site_fract_x
_atom_site_fract_y
_atom_site_fract_z
Si Si1 0.000000 0.917440 0.000000
Si Si2 0.197713 0.869627 0.738840
Si Si3 0.866567 0.495878 0.255148
Si Si4 0.086129 0.718697 0.938663
Si Si5 0.835156 0.656338 0.470972
O O1 0.082813 0.796787 0.031018
O O2 0.842958 0.035843 0.752974
O O3 0.227498 0.679865 0.829485
O O4 0.208893 0.825277 0.650492
O O5 0.000000 0.952626 0.500000
O O6 0.346813 0.010543 0.964236
O O7 0.000000 0.413263 0.500000
O O8 0.986114 0.540896 0.325902
O O9 0.716115 0.340559 0.044438
O O10 0.889471 0.723803 0.637959
#
# Coordination Sequence:
#
# PCOD8051447 Si02
#       5
#     2   4   4   4   4
#     4  12  26  46  60 100 150 172 216 270 322 418
#     4   9  21  42  66 100 131 162 221 285 320 380
#     4   9  19  45  67  98 134 160 227 295 308 377
#     4  12  24  43  72  96 131 187 216 266 346 389
#     4  10  25  44  67  99 136 176 220 279 323 393
#
# _framework density 21.563445999999999
#
# number of rings (size 3 to 8) (size 9 to 14) (size 15 to 20)
#    0.000    2.222    4.444    0.667    6.222    4.444 
#    4.000    0.000    0.000    0.000    0.000    0.000 
#    0.000    0.000    0.000    0.000    0.000    0.000 
#
# Total GULP energy -111567.866813 kJ/mol
# GULP energy per Si atom -12396.429646 kJ/mol
# Density = 2.151437 g / cm^3
# Si number density = 21.563446 Si / 1000 Ang^3
#
#
#
# Elastic Constant Matrix: (Units=GPa)
#
#
# Indices 1 2 3 4 5 6 
#
# 1 41.7541 10.7078 16.1668 0.0000 -1.3126 0.0000
# 2 10.7078 95.6714 62.8232 0.0000 0.1880 0.0000
# 3 16.1668 62.8232 115.6473 0.0000 -9.0085 0.0000
# 4 0.0000 0.0000 0.0000 28.0007 0.0000 1.2555
# 5 -1.3126 0.1880 -9.0085 0.0000 27.9508 0.0000
# 6 0.0000 0.0000 0.0000 1.2555 0.0000 9.7532
#
#
#
# Elastic Compliance Matrix: (Units=1/GPa)
#
#
# Indices 1 2 3 4 5 6 
#
# 1 0.025360 -0.000810 -0.003090 0.000000 0.000201 0.000000
# 2 -0.000810 0.016529 -0.009106 0.000000 -0.003084 0.000000
# 3 -0.003090 -0.009106 0.014380 0.000000 0.004551 0.000000
# 4 0.000000 0.000000 0.000000 0.035921 0.000000 -0.004624
# 5 0.000201 -0.003084 0.004551 0.000000 0.037274 0.000000
# 6 0.000000 0.000000 0.000000 -0.004624 0.000000 0.103125
#
#
# Mechanical properties :
#
#
# Convention : Reuss Voigt Hill
#
# Bulk Modulus (GPa) = 33.04935 48.05206 40.55071
# Shear Modulus (GPa) = 18.60914 24.03263 21.32089
#
# Velocity S-wave (km/s) = 2.94086 3.34205 3.14785
# Velocity P-wave (km/s) = 5.18569 6.10121 5.66199
#
# Compressibility (1/GPa) = 0.03025778
#
# Stress axis : x y z
#
# Youngs Moduli (GPa) = 39.43218 60.50137 69.54138
#
# Poissons Ratio (x) = 0.04901 0.21485
# Poissons Ratio (y) = 0.03194 0.63323
# Poissons Ratio (z) = 0.12183 0.55091
#
# Static dielectric constant tensor:
#      x y z
#    x 3.827230 0.000000 -0.026570 
#    y 0.000000 3.657580 0.000000 
#    z -0.026570 0.000000 3.755200 
# 
# 
# High freq. dielectric constant tensor:
#      x y z
#    x 1.835920 0.000000 -0.005650 
#    y 0.000000 1.833850 0.000000 
#    z -0.005650 0.000000 1.844200 
# 
# From -- ./inp_files/18008.got.cif
#   From: 2010.03.12/outbox.cif.g09.slc.cpg/sg5_10_cif.got.tgz:18008.got - 2010.03.31 09:47:26.
