data_PCOD8051588
_publ_section_title
;
Structure prediction by ZEFSAII (Michael W. Deem and Ramdas Pophale) SiO2 
 PCOD8051588
Probable space group: C 2
;
_chemical_formula_sum "Si O2"
_cell_formula_units_Z 26
_cell_length_a 8.006039
_cell_length_b 20.764068
_cell_length_c 8.664379
_cell_angle_alpha 90.000000
_cell_angle_beta 52.474976
_cell_angle_gamma 90.000000
_cell_volume 1142.322229
_symmetry_space_group_name_H-M "C 2"
_symmetry_group_IT_number 5
_symmetry_cell_setting 'monoclinic'
loop_
_space_group_symop_operation_xyz
x,y,z
-x,y,-z
1/2+x,1/2+y,z
1/2-x,1/2+y,-z
loop_
_atom_site_type_symbol
_atom_site_label
_atom_site_fract_x
_atom_site_fract_y
_atom_site_fract_z
Si Si1 0.882273 0.091270 0.923955
Si Si2 0.342858 0.514927 0.451271
Si Si3 0.287942 0.768335 0.684712
Si Si4 0.855889 0.351401 0.943158
Si Si5 0.936030 0.877040 0.357971
Si Si6 0.500000 0.173572 0.000000
Si Si7 0.945764 0.493257 0.853011
O O1 0.692737 0.132944 0.961164
O O2 0.065907 0.074371 0.698048
O O3 0.782141 0.024910 0.048457
O O4 0.000000 0.127044 0.000000
O O5 0.500000 0.500439 0.500000
O O6 0.334081 0.446016 0.369699
O O7 0.111451 0.530598 0.648930
O O8 0.500000 0.734533 0.500000
O O9 0.332663 0.797122 0.828352
O O10 0.231503 0.822233 0.590443
O O11 0.100184 0.716577 0.806560
O O12 0.956118 0.416815 0.814463
O O13 0.631580 0.369902 0.135525
O O14 0.000000 0.323891 0.000000
O O15 0.000000 0.868810 0.500000
O O16 0.000000 0.507083 0.000000
#
# Coordination Sequence:
#
# PCOD8051588 Si02
#       7
#     4   4   4   4   4   2   4
#     4  12  27  46  72 102 138 189 245 289 349 419
#     4  11  20  39  71 104 146 181 217 286 365 427
#     4  12  26  47  72  99 137 189 233 296 356 421
#     4  11  21  39  69 107 146 180 225 287 361 431
#     4  11  21  40  67 110 141 176 226 284 360 435
#     4  12  28  54  70  96 142 190 254 298 344 398
#     4  11  20  40  68 104 147 181 219 289 357 426
#
# _framework density 22.760652
#
# number of rings (size 3 to 8) (size 9 to 14) (size 15 to 20)
#    0.000    0.615    5.385    4.615    2.154    3.077 
#    2.769    0.000    0.000    0.000    0.000    0.000 
#    0.000    0.000    0.000    0.000    0.000    0.000 
#
# Total GULP energy -161178.959257 kJ/mol
# GULP energy per Si atom -12398.381481 kJ/mol
# Density = 2.270885 g / cm^3
# Si number density = 22.760652 Si / 1000 Ang^3
#
#
#
# Elastic Constant Matrix: (Units=GPa)
#
#
# Indices 1 2 3 4 5 6 
#
# 1 91.6734 29.5819 29.7172 0.0000 9.2852 0.0000
# 2 29.5819 77.4590 35.8833 0.0000 8.7983 0.0000
# 3 29.7172 35.8833 162.3908 0.0000 -24.4899 0.0000
# 4 0.0000 0.0000 0.0000 29.6842 0.0000 -3.6894
# 5 9.2852 8.7983 -24.4899 0.0000 37.4548 0.0000
# 6 0.0000 0.0000 0.0000 -3.6894 0.0000 26.9791
#
#
#
# Elastic Compliance Matrix: (Units=1/GPa)
#
#
# Indices 1 2 3 4 5 6 
#
# 1 0.013166 -0.003568 -0.002204 0.000000 -0.003867 0.000000
# 2 -0.003568 0.016703 -0.003879 0.000000 -0.005575 0.000000
# 3 -0.002204 -0.003879 0.008474 0.000000 0.006998 0.000000
# 4 0.000000 0.000000 0.000000 0.034270 0.000000 0.004686
# 5 -0.003867 -0.005575 0.006998 0.000000 0.033543 0.000000
# 6 0.000000 0.000000 0.000000 0.004686 0.000000 0.037707
#
#
# Mechanical properties :
#
#
# Convention : Reuss Voigt Hill
#
# Bulk Modulus (GPa) = 52.51785 57.98755 55.25270
# Shear Modulus (GPa) = 29.49678 34.57968 32.03823
#
# Velocity S-wave (km/s) = 3.60384 3.90202 3.75589
# Velocity P-wave (km/s) = 6.35932 6.77004 6.56789
#
# Compressibility (1/GPa) = 0.01904114
#
# Stress axis : x y z
#
# Youngs Moduli (GPa) = 75.95481 59.87067 118.01117
#
# Poissons Ratio (x) = 0.21360 0.26011
# Poissons Ratio (y) = 0.27099 0.45773
# Poissons Ratio (z) = 0.16741 0.23222
#
# Static dielectric constant tensor:
#      x y z
#    x 2.729060 0.000000 -1.106090 
#    y 0.000000 4.050100 0.000000 
#    z -1.106090 0.000000 3.528660 
# 
# 
# High freq. dielectric constant tensor:
#      x y z
#    x 1.896770 0.000000 -0.014980 
#    y 0.000000 1.871520 0.000000 
#    z -0.014980 0.000000 1.914780 
# 
# From -- ./inp_files/17012.got.cif
#   From: 2010.03.12/outbox.cif.g09.slc.cpg/sg5_9_cif.got.tgz:17012.got - 2010.03.31 09:47:26.
