data_PCOD8051291
_publ_section_title
;
Structure prediction by ZEFSAII (Michael W. Deem and Ramdas Pophale) SiO2 
 PCOD8051291
Probable space group: C 2
;
_chemical_formula_sum "Si O2"
_cell_formula_units_Z 26
_cell_length_a 5.782716
_cell_length_b 18.796328
_cell_length_c 10.783291
_cell_angle_alpha 90.000000
_cell_angle_beta 106.680609
_cell_angle_gamma 90.000000
_cell_volume 1122.755796
_symmetry_space_group_name_H-M "C 2"
_symmetry_group_IT_number 5
_symmetry_cell_setting 'monoclinic'
loop_
_space_group_symop_operation_xyz
x,y,z
-x,y,-z
1/2+x,1/2+y,z
1/2-x,1/2+y,-z
loop_
_atom_site_type_symbol
_atom_site_label
_atom_site_fract_x
_atom_site_fract_y
_atom_site_fract_z
Si Si1 0.446939 0.153160 0.129415
Si Si2 0.500000 0.932895 0.000000
Si Si3 0.183248 0.274196 0.774142
Si Si4 0.736674 0.335690 0.585973
Si Si5 0.500000 0.947227 0.500000
Si Si6 0.845277 0.507372 0.224057
Si Si7 0.500000 0.747401 0.000000
Si Si8 0.942419 0.898015 0.198043
O O1 0.683400 0.197281 0.214081
O O2 0.360220 0.092228 0.210324
O O3 0.217778 0.203328 0.090535
O O4 0.500000 0.122533 0.000000
O O5 0.252709 0.887803 0.943856
O O6 0.518542 0.977863 0.876049
O O7 0.365985 0.335851 0.772428
O O8 0.955742 0.279897 0.644107
O O9 0.092164 0.293344 0.898394
O O10 0.500000 0.292520 0.500000
O O11 0.704903 0.388228 0.697858
O O12 0.777576 0.391900 0.479679
O O13 0.480872 0.993821 0.374009
O O14 0.574464 0.474905 0.198079
#
# Coordination Sequence:
#
# PCOD8051291 Si02
#       8
#     4   2   4   4   2   4   2   4
#     4  10  24  44  71 108 149 197 246 306 377 449
#     4  12  26  41  70 114 143 182 244 304 367 440
#     4  11  24  45  71 108 146 197 249 308 378 443
#     4  12  23  44  71 109 141 195 241 318 375 444
#     4  12  24  48  74 106 146 194 248 308 380 442
#     4  12  25  44  74 108 147 198 244 307 373 445
#     4  10  24  43  72 104 147 192 244 310 365 446
#     4  12  25  41  73 112 146 185 252 311 376 435
#
# _framework density 23.157305999999998
#
# number of rings (size 3 to 8) (size 9 to 14) (size 15 to 20)
#    0.000    0.615    5.385    1.385    2.154   11.692 
#    0.000    0.000   16.923    0.000    0.000    0.000 
#    0.000    0.000    0.000    0.000    0.000    0.000 
#
# Total GULP energy -161060.218112 kJ/mol
# GULP energy per Si atom -12389.247547 kJ/mol
# Density = 2.310460 g / cm^3
# Si number density = 23.157306 Si / 1000 Ang^3
#
#
#
# Elastic Constant Matrix: (Units=GPa)
#
#
# Indices 1 2 3 4 5 6 
#
# 1 95.3205 36.2444 43.7906 0.0000 21.1475 0.0000
# 2 36.2444 94.8274 49.4953 0.0000 7.4024 0.0000
# 3 43.7906 49.4953 139.9903 0.0000 17.3849 0.0000
# 4 0.0000 0.0000 0.0000 32.8373 0.0000 -10.5858
# 5 21.1475 7.4024 17.3849 0.0000 64.2290 0.0000
# 6 0.0000 0.0000 0.0000 -10.5858 0.0000 23.1077
#
#
#
# Elastic Compliance Matrix: (Units=1/GPa)
#
#
# Indices 1 2 3 4 5 6 
#
# 1 0.013843 -0.003661 -0.002610 0.000000 -0.003429 0.000000
# 2 -0.003661 0.013904 -0.003851 0.000000 0.000645 0.000000
# 3 -0.002610 -0.003851 0.009478 0.000000 -0.001262 0.000000
# 4 0.000000 0.000000 0.000000 0.035730 0.000000 0.016368
# 5 -0.003429 0.000645 -0.001262 0.000000 0.016966 0.000000
# 6 0.000000 0.000000 0.000000 0.016368 0.000000 0.050774
#
#
# Mechanical properties :
#
#
# Convention : Reuss Voigt Hill
#
# Bulk Modulus (GPa) = 58.88755 65.46653 62.17704
# Shear Modulus (GPa) = 30.01220 37.40868 33.71044
#
# Velocity S-wave (km/s) = 3.60393 4.02358 3.81952
# Velocity P-wave (km/s) = 6.54234 7.06522 6.80880
#
# Compressibility (1/GPa) = 0.01698152
#
# Stress axis : x y z
#
# Youngs Moduli (GPa) = 72.23975 71.91962 105.50638
#
# Poissons Ratio (x) = 0.26329 0.27536
# Poissons Ratio (y) = 0.26447 0.40631
# Poissons Ratio (z) = 0.18854 0.27696
#
# Static dielectric constant tensor:
#      x y z
#    x 4.946320 0.000000 -0.159090 
#    y 0.000000 3.868680 0.000000 
#    z -0.159090 0.000000 4.376490 
# 
# 
# High freq. dielectric constant tensor:
#      x y z
#    x 1.940980 0.000000 -0.002230 
#    y 0.000000 1.877840 0.000000 
#    z -0.002230 0.000000 1.927400 
# 
# From -- ./inp_files/33848.got.cif
#   From: 2010.03.12/outbox.cif.g09.slc.cpg/sg5_17_cif.got.tgz:33848.got - 2010.03.31 09:47:26.
