data_PCOD8051249
_publ_section_title
;
Structure prediction by ZEFSAII (Michael W. Deem and Ramdas Pophale) SiO2 
 PCOD8051249
Probable space group: C 2
;
_chemical_formula_sum "Si O2"
_cell_formula_units_Z 26
_cell_length_a 9.747625
_cell_length_b 14.962592
_cell_length_c 15.328215
_cell_angle_alpha 90.000000
_cell_angle_beta 143.853845
_cell_angle_gamma 90.000000
_cell_volume 1318.671562
_symmetry_space_group_name_H-M "C 2"
_symmetry_group_IT_number 5
_symmetry_cell_setting 'monoclinic'
loop_
_space_group_symop_operation_xyz
x,y,z
-x,y,-z
1/2+x,1/2+y,z
1/2-x,1/2+y,-z
loop_
_atom_site_type_symbol
_atom_site_label
_atom_site_fract_x
_atom_site_fract_y
_atom_site_fract_z
Si Si1 0.744314 0.230470 0.377457
Si Si2 0.909703 0.681336 0.049898
Si Si3 0.000000 0.401169 0.500000
Si Si4 0.993764 0.307033 0.098203
Si Si5 0.250940 0.008991 0.229270
Si Si6 0.595794 0.196441 0.645266
Si Si7 0.222980 0.488615 0.958196
O O1 0.604830 0.209806 0.218592
O O2 0.619660 0.193931 0.399128
O O3 0.000000 0.184665 0.500000
O O4 0.776694 0.337988 0.405109
O O5 0.846584 0.577977 0.027377
O O6 0.686263 0.743043 0.946251
O O7 0.000000 0.700214 0.000000
O O8 0.055511 0.461818 0.611911
O O9 0.932174 0.409891 0.081844
O O10 0.251107 0.286400 0.267826
O O11 0.000000 0.283609 0.000000
O O12 0.237136 0.113451 0.245721
O O13 0.333683 0.997698 0.172775
O O14 0.995553 0.967422 0.112900
O O15 0.500000 0.186966 0.500000
#
# Coordination Sequence:
#
# PCOD8051249 Si02
#       7
#     4   4   2   4   4   4   4
#     4  10  25  44  66  97 139 175 225 275 336 407
#     4  12  25  45  69 101 138 177 227 282 341 407
#     4  10  24  42  66  94 130 180 224 266 338 402
#     4  12  25  45  71 100 135 178 230 288 335 402
#     4  11  22  44  69  98 134 178 227 278 335 410
#     4  12  25  45  70  99 137 184 222 277 347 406
#     4  11  25  42  69 103 131 173 232 282 341 394
#
# _framework density 19.716812999999998
#
# number of rings (size 3 to 8) (size 9 to 14) (size 15 to 20)
#    0.462    0.308    5.385    1.385    8.615    0.000 
#    0.000    0.769    0.000    0.000    0.000    0.000 
#    0.000    0.000    0.000    0.000    0.000    0.000 
#
# Total GULP energy -161235.973535 kJ/mol
# GULP energy per Si atom -12402.767195 kJ/mol
# Density = 1.967194 g / cm^3
# Si number density = 19.716813 Si / 1000 Ang^3
#
#
#
# Elastic Constant Matrix: (Units=GPa)
#
#
# Indices 1 2 3 4 5 6 
#
# 1 144.9269 32.6459 60.5436 -0.0021 -15.4576 -0.0024
# 2 32.6459 100.3949 19.0861 -0.0033 0.9722 -0.0040
# 3 60.5436 19.0861 102.6131 -0.0097 -9.6623 -0.0062
# 4 -0.0021 -0.0033 -0.0097 22.6925 -0.0020 22.7575
# 5 -15.4576 0.9722 -9.6623 -0.0020 36.7044 -0.0011
# 6 -0.0024 -0.0040 -0.0062 22.7575 -0.0011 -4.1628
#
#
#
# Elastic Compliance Matrix: (Units=1/GPa)
#
#
# Indices 1 2 3 4 5 6 
#
# 1 0.009855 -0.002258 -0.005125 -0.000001 0.002861 -0.000001
# 2 -0.002258 0.010866 -0.000826 0.000001 -0.001456 0.000000
# 3 -0.005125 -0.000826 0.013045 0.000003 0.001298 0.000002
# 4 -0.000001 0.000001 0.000003 0.006798 0.000002 0.037163
# 5 0.002861 -0.001456 0.001298 0.000002 0.028830 0.000001
# 6 -0.000001 0.000000 0.000002 0.037163 0.000001 -0.037057
#
#
# Mechanical properties :
#
#
# Convention : Reuss Voigt Hill
#
# Bulk Modulus (GPa) = 57.64419 63.60959 60.62689
# Shear Modulus (GPa) = 91.68065 26.75744 59.21905
#
# Velocity S-wave (km/s) = 6.82639 3.68786 5.48635
# Velocity P-wave (km/s) = 9.56203 7.10390 8.42312
#
# Compressibility (1/GPa) = 0.01734780
#
# Stress axis : x y z
#
# Youngs Moduli (GPa) = 101.47307 92.03012 76.65703
#
# Poissons Ratio (x) = 0.20779 0.39288
# Poissons Ratio (y) = 0.22912 0.06332
# Poissons Ratio (z) = 0.52007 0.07602
#
# Static dielectric constant tensor:
#      x y z
#    x 3.216740 0.000000 -0.003700 
#    y 0.000000 3.616010 0.000000 
#    z -0.003700 0.000000 3.645960 
# 
# 
# High freq. dielectric constant tensor:
#      x y z
#    x 1.770990 0.000000 -0.004660 
#    y 0.000000 1.771590 0.000000 
#    z -0.004660 0.000000 1.776480 
# 
# From -- ./inp_files/51035.got.cif
#   From: 2010.03.12/outbox.cif.g09.slc.cpg/sg5_26_cif.got.tgz:51035.got - 2010.03.31 09:47:26.
