data_PCOD8051056
_publ_section_title
;
Structure prediction by ZEFSAII (Michael W. Deem and Ramdas Pophale) SiO2 
 PCOD8051056
Probable space group: C 2
;
_chemical_formula_sum "Si O2"
_cell_formula_units_Z 22
_cell_length_a 7.085750
_cell_length_b 7.765186
_cell_length_c 16.470932
_cell_angle_alpha 90.000000
_cell_angle_beta 84.842630
_cell_angle_gamma 90.000000
_cell_volume 902.597398
_symmetry_space_group_name_H-M "C 2"
_symmetry_group_IT_number 5
_symmetry_cell_setting 'monoclinic'
loop_
_space_group_symop_operation_xyz
x,y,z
-x,y,-z
1/2+x,1/2+y,z
1/2-x,1/2+y,-z
loop_
_atom_site_type_symbol
_atom_site_label
_atom_site_fract_x
_atom_site_fract_y
_atom_site_fract_z
Si Si1 0.000000 0.291821 0.000000
Si Si2 0.799463 0.461801 0.468121
Si Si3 0.429787 0.790578 0.316965
Si Si4 0.304270 0.300310 0.375505
Si Si5 0.083599 0.928571 0.250387
Si Si6 0.626363 0.460378 0.066840
O O1 0.153871 0.413092 0.951584
O O2 0.897806 0.168522 0.937060
O O3 0.818963 0.292444 0.408657
O O4 0.652444 0.419346 0.546960
O O5 0.732285 0.615471 0.411634
O O6 0.000000 0.510239 0.500000
O O7 0.633534 0.879358 0.327232
O O8 0.309411 0.910130 0.258669
O O9 0.474570 0.602346 0.280233
O O10 0.485481 0.281073 0.309681
O O11 0.050150 0.895629 0.156472
O O12 0.500000 0.373302 0.000000
#
# Coordination Sequence:
#
# PCOD8051056 Si02
#       6
#     2   4   4   4   4   4
#     4  10  24  50  78 108 148 192 246 294 382 444
#     4  10  23  42  67 102 143 205 251 301 369 434
#     4  11  25  45  65 107 143 193 240 305 357 443
#     4  11  25  44  68 101 149 195 251 307 365 434
#     4  12  26  44  74 106 146 189 248 301 380 429
#     4  10  26  48  74 113 144 202 239 314 368 465
#
# _framework density 24.374102000000001
#
# number of rings (size 3 to 8) (size 9 to 14) (size 15 to 20)
#    0.545    0.727    1.818    2.182    8.909    2.909 
#    0.000    0.000    0.000    0.000    0.000    0.000 
#    0.000    0.000    0.000    0.000    0.000    0.000 
#
# Total GULP energy -136269.795963 kJ/mol
# GULP energy per Si atom -12388.163269 kJ/mol
# Density = 2.431863 g / cm^3
# Si number density = 24.374102 Si / 1000 Ang^3
#
#
#
# Elastic Constant Matrix: (Units=GPa)
#
#
# Indices 1 2 3 4 5 6 
#
# 1 107.5348 50.0458 85.2476 0.0000 -0.5372 0.0000
# 2 50.0458 97.7730 47.3823 0.0000 -4.4444 0.0000
# 3 85.2476 47.3823 198.4365 0.0000 -6.5855 0.0000
# 4 0.0000 0.0000 0.0000 23.1711 0.0000 -4.4812
# 5 -0.5372 -4.4444 -6.5855 0.0000 39.6840 0.0000
# 6 0.0000 0.0000 0.0000 -4.4812 0.0000 43.9287
#
#
#
# Elastic Compliance Matrix: (Units=1/GPa)
#
#
# Indices 1 2 3 4 5 6 
#
# 1 0.016544 -0.005727 -0.005786 0.000000 -0.001378 0.000000
# 2 -0.005727 0.013577 -0.000738 0.000000 0.001321 0.000000
# 3 -0.005786 -0.000738 0.007738 0.000000 0.001123 0.000000
# 4 0.000000 0.000000 0.000000 0.044026 0.000000 0.004491
# 5 -0.001378 0.001321 0.001123 0.000000 0.025515 0.000000
# 6 0.000000 0.000000 0.000000 0.004491 0.000000 0.023222
#
#
# Mechanical properties :
#
#
# Convention : Reuss Voigt Hill
#
# Bulk Modulus (GPa) = 74.85821 85.45505 80.15663
# Shear Modulus (GPa) = 31.33312 36.09468 33.71390
#
# Velocity S-wave (km/s) = 3.58929 3.85237 3.72315
# Velocity P-wave (km/s) = 6.92504 7.41104 7.17216
#
# Compressibility (1/GPa) = 0.01335859
#
# Stress axis : x y z
#
# Youngs Moduli (GPa) = 60.44389 73.65532 129.22799
#
# Poissons Ratio (x) = 0.42183 0.74766
# Poissons Ratio (y) = 0.34617 0.09532
# Poissons Ratio (z) = 0.34970 0.05433
#
# Static dielectric constant tensor:
#      x y z
#    x 4.404200 0.000000 0.015270 
#    y 0.000000 4.007430 0.000000 
#    z 0.015270 0.000000 4.401790 
# 
# 
# High freq. dielectric constant tensor:
#      x y z
#    x 1.972210 0.000000 0.007460 
#    y 0.000000 1.943860 0.000000 
#    z 0.007460 0.000000 1.961750 
# 
# From -- ./inp_files/49887.got.cif
#   From: 2010.03.12/outbox.cif.g09.slc.cpg/sg5_25_cif.got.tgz:49887.got - 2010.03.31 09:47:26.
