data_PCOD8051281
_publ_section_title
;
Structure prediction by ZEFSAII (Michael W. Deem and Ramdas Pophale) SiO2 
 PCOD8051281
Probable space group: C 2
;
_chemical_formula_sum "Si O2"
_cell_formula_units_Z 18
_cell_length_a 7.671170
_cell_length_b 16.176172
_cell_length_c 8.612154
_cell_angle_alpha 90.000000
_cell_angle_beta 128.446806
_cell_angle_gamma 90.000000
_cell_volume 836.977798
_symmetry_space_group_name_H-M "C 2"
_symmetry_group_IT_number 5
_symmetry_cell_setting 'monoclinic'
loop_
_space_group_symop_operation_xyz
x,y,z
-x,y,-z
1/2+x,1/2+y,z
1/2-x,1/2+y,-z
loop_
_atom_site_type_symbol
_atom_site_label
_atom_site_fract_x
_atom_site_fract_y
_atom_site_fract_z
Si Si1 0.724569 0.135970 0.197750
Si Si2 0.587734 0.249226 0.378778
Si Si3 0.330494 0.787410 0.038900
Si Si4 0.400366 0.894746 0.602174
Si Si5 0.000000 0.006953 0.500000
O O1 0.660839 0.164504 0.336983
O O2 0.818358 0.213214 0.154675
O O3 0.910134 0.064392 0.309827
O O4 0.500000 0.098344 0.000000
O O5 0.500000 0.226190 0.500000
O O6 0.803053 0.305601 0.507816
O O7 0.408329 0.299926 0.175126
O O8 0.407119 0.873794 0.163457
O O9 0.500000 0.759552 0.000000
O O10 0.500000 0.935006 0.500000
O O11 0.206841 0.952110 0.560914
#
# Coordination Sequence:
#
# PCOD8051281 Si02
#       5
#     4   4   4   4   2
#     4  10  24  43  66  95 135 171 221 275 328 392
#     4  11  21  40  71 101 123 170 226 278 330 382
#     4  11  21  39  71  98 124 169 228 275 322 387
#     4  12  24  42  67  98 133 179 218 274 330 391
#     4  12  26  44  64  96 144 178 210 270 338 400
#
# _framework density 21.505946000000002
#
# number of rings (size 3 to 8) (size 9 to 14) (size 15 to 20)
#    0.000    0.889    5.556    1.333    0.000    3.556 
#    4.000    0.000    0.000    0.000    0.000    0.000 
#    0.000    0.000    0.000    0.000    0.000    0.000 
#
# Total GULP energy -111589.167387 kJ/mol
# GULP energy per Si atom -12398.796376 kJ/mol
# Density = 2.145700 g / cm^3
# Si number density = 21.505946 Si / 1000 Ang^3
#
#
#
# Elastic Constant Matrix: (Units=GPa)
#
#
# Indices 1 2 3 4 5 6 
#
# 1 110.9985 25.2112 30.7540 0.0000 -22.9743 0.0000
# 2 25.2112 61.2304 42.0798 0.0000 -0.0007 0.0000
# 3 30.7540 42.0798 112.6128 0.0000 -7.4935 0.0000
# 4 0.0000 0.0000 0.0000 23.8099 0.0000 12.5323
# 5 -22.9743 -0.0007 -7.4935 0.0000 39.7279 0.0000
# 6 0.0000 0.0000 0.0000 12.5323 0.0000 14.2256
#
#
#
# Elastic Compliance Matrix: (Units=1/GPa)
#
#
# Indices 1 2 3 4 5 6 
#
# 1 0.011584 -0.003890 -0.001280 0.000000 0.006457 0.000000
# 2 -0.003890 0.023378 -0.007922 0.000000 -0.003743 0.000000
# 3 -0.001280 -0.007922 0.012295 0.000000 0.001579 0.000000
# 4 0.000000 0.000000 0.000000 0.078313 0.000000 -0.068991
# 5 0.006457 -0.003743 0.001579 0.000000 0.029203 0.000000
# 6 0.000000 0.000000 0.000000 -0.068991 0.000000 0.131074
#
#
# Mechanical properties :
#
#
# Convention : Reuss Voigt Hill
#
# Bulk Modulus (GPa) = 47.45647 53.43688 50.44667
# Shear Modulus (GPa) = 15.67127 28.00579 21.83853
#
# Velocity S-wave (km/s) = 2.70236 3.61256 3.19009
# Velocity P-wave (km/s) = 5.64372 6.50402 6.08908
#
# Compressibility (1/GPa) = 0.02107194
#
# Stress axis : x y z
#
# Youngs Moduli (GPa) = 86.32717 42.77563 81.33360
#
# Poissons Ratio (x) = 0.16638 0.10414
# Poissons Ratio (y) = 0.33577 0.64436
# Poissons Ratio (z) = 0.11053 0.33889
#
# Static dielectric constant tensor:
#      x y z
#    x 4.051720 0.000000 0.110020 
#    y 0.000000 3.542850 0.000000 
#    z 0.110020 0.000000 4.489080 
# 
# 
# High freq. dielectric constant tensor:
#      x y z
#    x 1.855110 0.000000 0.008480 
#    y 0.000000 1.806410 0.000000 
#    z 0.008480 0.000000 1.868890 
# 
# From -- ./inp_files/15260.got.cif
#   From: 2010.03.12/outbox.cif.g09.slc.cpg/sg5_8_cif.got.tgz:15260.got - 2010.03.31 09:47:26.
