data_PCOD8051254
_publ_section_title
;
Structure prediction by ZEFSAII (Michael W. Deem and Ramdas Pophale) SiO2 
 PCOD8051254
Probable space group: C 2
;
_chemical_formula_sum "Si O2"
_cell_formula_units_Z 32
_cell_length_a 22.304391
_cell_length_b 6.621984
_cell_length_c 19.901904
_cell_angle_alpha 90.000000
_cell_angle_beta 150.107179
_cell_angle_gamma 90.000000
_cell_volume 1464.984263
_symmetry_space_group_name_H-M "C 2"
_symmetry_group_IT_number 5
_symmetry_cell_setting 'monoclinic'
loop_
_space_group_symop_operation_xyz
x,y,z
-x,y,-z
1/2+x,1/2+y,z
1/2-x,1/2+y,-z
loop_
_atom_site_type_symbol
_atom_site_label
_atom_site_fract_x
_atom_site_fract_y
_atom_site_fract_z
Si Si1 0.192918 0.282260 0.051751
Si Si2 0.959221 0.860856 0.296081
Si Si3 0.016907 0.154500 0.236586
Si Si4 0.299977 0.439406 0.837568
Si Si5 0.975230 0.622130 0.049394
Si Si6 0.422183 0.938371 0.595453
Si Si7 0.931571 0.198109 0.365710
Si Si8 0.331712 0.404594 0.716652
O O1 0.320304 0.326723 0.140141
O O2 0.225389 0.145906 0.147861
O O3 0.112222 0.477306 0.993362
O O4 0.118596 0.167344 0.922517
O O5 0.049956 0.673782 0.385920
O O6 0.951457 0.965868 0.362364
O O7 0.022363 0.997565 0.302219
O O8 0.064381 0.367799 0.313544
O O9 0.100204 0.081489 0.256850
O O10 0.206220 0.256318 0.756976
O O11 0.306669 0.495605 0.765897
O O12 0.421948 0.345310 0.984737
O O13 0.096956 0.687539 0.208450
O O14 0.000000 0.520681 0.000000
O O15 0.526339 0.836538 0.653888
O O16 0.293361 0.867282 0.442894
O O17 0.000000 0.246222 0.500000
#
# Coordination Sequence:
#
# PCOD8051254 Si02
#       8
#     4   4   4   4   4   4   4   4
#     4  12  25  42  74 100 136 185 234 300 356 423
#     4  11  27  45  69 101 137 186 243 289 356 424
#     4  11  29  42  66 101 137 189 237 285 352 427
#     4  11  22  44  71 105 140 170 237 297 367 415
#     4  10  24  42  67 105 138 178 227 295 365 430
#     4  11  26  47  67  99 143 192 235 290 352 436
#     4  11  22  45  71 106 138 177 236 300 362 421
#     4  11  25  47  71  98 147 188 228 303 355 440
#
# _framework density 21.843237999999999
#
# number of rings (size 3 to 8) (size 9 to 14) (size 15 to 20)
#    0.000    1.000    5.000    0.000    7.000    1.500 
#    2.250    0.000    0.000    0.000    0.000    0.000 
#    0.000    0.000    0.000    0.000    0.000    0.000 
#
# Total GULP energy -198347.043523 kJ/mol
# GULP energy per Si atom -12396.690220 kJ/mol
# Density = 2.179352 g / cm^3
# Si number density = 21.843238 Si / 1000 Ang^3
#
#
#
# Elastic Constant Matrix: (Units=GPa)
#
#
# Indices 1 2 3 4 5 6 
#
# 1 85.2685 40.2533 34.0995 0.0000 -6.9001 0.0000
# 2 40.2533 98.7205 26.0328 0.0000 -5.0264 0.0000
# 3 34.0995 26.0328 106.1367 0.0000 0.8514 0.0000
# 4 0.0000 0.0000 0.0000 31.5859 0.0000 12.9654
# 5 -6.9001 -5.0264 0.8514 0.0000 35.7951 0.0000
# 6 0.0000 0.0000 0.0000 12.9654 0.0000 28.4684
#
#
#
# Elastic Compliance Matrix: (Units=1/GPa)
#
#
# Indices 1 2 3 4 5 6 
#
# 1 0.016003 -0.005390 -0.003839 0.000000 0.002419 0.000000
# 2 -0.005390 0.012736 -0.001398 0.000000 0.000783 0.000000
# 3 -0.003839 -0.001398 0.011008 0.000000 -0.001198 0.000000
# 4 0.000000 0.000000 0.000000 0.038939 0.000000 -0.017734
# 5 0.002419 0.000783 -0.001198 0.000000 0.028542 0.000000
# 6 0.000000 0.000000 0.000000 -0.017734 0.000000 0.043203
#
#
# Mechanical properties :
#
#
# Convention : Reuss Voigt Hill
#
# Bulk Modulus (GPa) = 54.07587 54.54408 54.30997
# Shear Modulus (GPa) = 28.11373 31.81923 29.96648
#
# Velocity S-wave (km/s) = 3.59146 3.82083 3.70792
# Velocity P-wave (km/s) = 6.48138 6.67007 6.57640
#
# Compressibility (1/GPa) = 0.01849254
#
# Stress axis : x y z
#
# Youngs Moduli (GPa) = 62.48840 78.51822 90.84486
#
# Poissons Ratio (x) = 0.42319 0.34874
# Poissons Ratio (y) = 0.33679 0.12705
# Poissons Ratio (z) = 0.23988 0.10981
#
# Static dielectric constant tensor:
#      x y z
#    x 4.123430 0.000000 -0.000470 
#    y 0.000000 3.887950 0.000000 
#    z -0.000470 0.000000 3.997730 
# 
# 
# High freq. dielectric constant tensor:
#      x y z
#    x 1.867580 0.000000 0.002460 
#    y 0.000000 1.848860 0.000000 
#    z 0.002460 0.000000 1.865440 
# 
# From -- ./inp_files/67285.got.cif
#   From: 2010.03.12/outbox.cif.g09.slc.cpg/sg5_34_cif.got.tgz:67285.got - 2010.03.31 09:47:26.
