data_PCOD8051014
_publ_section_title
;
Structure prediction by ZEFSAII (Michael W. Deem and Ramdas Pophale) SiO2 
 PCOD8051014
Probable space group: C 2
;
_chemical_formula_sum "Si O2"
_cell_formula_units_Z 30
_cell_length_a 5.242799
_cell_length_b 17.772371
_cell_length_c 14.838544
_cell_angle_alpha 90.000000
_cell_angle_beta 97.826441
_cell_angle_gamma 90.000000
_cell_volume 1369.731680
_symmetry_space_group_name_H-M "C 2"
_symmetry_group_IT_number 5
_symmetry_cell_setting 'monoclinic'
loop_
_space_group_symop_operation_xyz
x,y,z
-x,y,-z
1/2+x,1/2+y,z
1/2-x,1/2+y,-z
loop_
_atom_site_type_symbol
_atom_site_label
_atom_site_fract_x
_atom_site_fract_y
_atom_site_fract_z
Si Si1 0.281464 0.981380 0.919657
Si Si2 0.497883 0.351275 0.143575
Si Si3 0.000000 0.728969 0.000000
Si Si4 0.982634 0.352160 0.396458
Si Si5 0.916299 0.464974 0.239178
Si Si6 0.370738 0.635293 0.106875
Si Si7 0.441906 0.279648 0.323874
Si Si8 0.888091 0.634354 0.220725
O O1 0.176670 0.898231 0.935818
O O2 0.346983 0.975954 0.816712
O O3 0.071553 0.048183 0.917294
O O4 0.500000 0.002761 0.000000
O O5 0.564174 0.275995 0.093084
O O6 0.726822 0.408277 0.178140
O O7 0.362052 0.324351 0.228972
O O8 0.262880 0.678004 0.011112
O O9 0.225887 0.298530 0.387186
O O10 0.000000 0.378799 0.500000
O O11 0.997072 0.428082 0.337767
O O12 0.723317 0.305235 0.368679
O O13 0.816932 0.550378 0.253633
O O14 0.629806 0.669225 0.161553
O O15 0.125261 0.635934 0.163018
O O16 0.450425 0.189753 0.307240
#
# Coordination Sequence:
#
# PCOD8051014 Si02
#       8
#     4   4   2   4   4   4   4   4
#     4  11  21  38  60  90 130 178 217 269 316 377
#     4  11  22  40  58  93 126 174 218 274 308 384
#     4  12  24  40  58  96 132 182 232 270 310 380
#     4  11  24  45  71  99 132 165 209 271 333 395
#     4  10  23  41  65  92 129 169 217 261 329 384
#     4  11  24  41  58  92 131 179 221 267 319 374
#     4  11  23  42  68  98 129 164 216 262 332 388
#     4  11  23  43  68  90 130 174 216 269 326 384
#
# _framework density 21.902100999999998
#
# number of rings (size 3 to 8) (size 9 to 14) (size 15 to 20)
#    0.000    1.067    4.667    2.000    1.867    1.600 
#    2.400    1.333    0.000    0.000    0.000    0.000 
#    0.000    0.000    0.000    0.000    0.000    0.000 
#
# Total GULP energy -185860.879257 kJ/mol
# GULP energy per Si atom -12390.725284 kJ/mol
# Density = 2.185225 g / cm^3
# Si number density = 21.902101 Si / 1000 Ang^3
#
#
#
# Elastic Constant Matrix: (Units=GPa)
#
#
# Indices 1 2 3 4 5 6 
#
# 1 98.0184 14.4301 23.5691 0.0000 2.2804 0.0000
# 2 14.4301 134.8075 41.5856 0.0000 5.7459 0.0000
# 3 23.5691 41.5856 109.8541 0.0000 -8.2336 0.0000
# 4 0.0000 0.0000 0.0000 22.3767 0.0000 8.4700
# 5 2.2804 5.7459 -8.2336 0.0000 26.3091 0.0000
# 6 0.0000 0.0000 0.0000 8.4700 0.0000 16.6532
#
#
#
# Elastic Compliance Matrix: (Units=1/GPa)
#
#
# Indices 1 2 3 4 5 6 
#
# 1 0.010849 -0.000385 -0.002300 0.000000 -0.001576 0.000000
# 2 -0.000385 0.008634 -0.003405 0.000000 -0.002918 0.000000
# 3 -0.002300 -0.003405 0.011219 0.000000 0.004454 0.000000
# 4 0.000000 0.000000 0.000000 0.055344 0.000000 -0.028149
# 5 -0.001576 -0.002918 0.004454 0.000000 0.040177 0.000000
# 6 0.000000 0.000000 0.000000 -0.028149 0.000000 0.074366
#
#
# Mechanical properties :
#
#
# Convention : Reuss Voigt Hill
#
# Bulk Modulus (GPa) = 53.98682 55.76107 54.87395
# Shear Modulus (GPa) = 22.83717 30.60746 26.72232
#
# Velocity S-wave (km/s) = 3.23258 3.74233 3.49675
# Velocity P-wave (km/s) = 6.21574 6.64739 6.43519
#
# Compressibility (1/GPa) = 0.01852304
#
# Stress axis : x y z
#
# Youngs Moduli (GPa) = 92.17846 115.82466 89.13380
#
# Poissons Ratio (x) = 0.04454 0.20502
# Poissons Ratio (y) = 0.03545 0.30346
# Poissons Ratio (z) = 0.21202 0.39433
#
# Static dielectric constant tensor:
#      x y z
#    x 3.871380 0.000000 -0.010110 
#    y 0.000000 4.511590 0.000000 
#    z -0.010110 0.000000 3.717250 
# 
# 
# High freq. dielectric constant tensor:
#      x y z
#    x 1.862620 0.000000 0.001760 
#    y 0.000000 1.883160 0.000000 
#    z 0.001760 0.000000 1.829950 
# 
# From -- ./inp_files/49220.got.cif
#   From: 2010.03.12/outbox.cif.g09.slc.cpg/sg5_25_cif.got.tgz:49220.got - 2010.03.31 09:47:26.
