data_PCOD8051732
_publ_section_title
;
Structure prediction by ZEFSAII (Michael W. Deem and Ramdas Pophale) SiO2 
 PCOD8051732
Probable space group: C 2
;
_chemical_formula_sum "Si O2"
_cell_formula_units_Z 30
_cell_length_a 11.910041
_cell_length_b 14.714965
_cell_length_c 9.383565
_cell_angle_alpha 90.000000
_cell_angle_beta 58.638652
_cell_angle_gamma 90.000000
_cell_volume 1404.262917
_symmetry_space_group_name_H-M "C 2"
_symmetry_group_IT_number 5
_symmetry_cell_setting 'monoclinic'
loop_
_space_group_symop_operation_xyz
x,y,z
-x,y,-z
1/2+x,1/2+y,z
1/2-x,1/2+y,-z
loop_
_atom_site_type_symbol
_atom_site_label
_atom_site_fract_x
_atom_site_fract_y
_atom_site_fract_z
Si Si1 0.918248 0.968890 0.289230
Si Si2 0.550093 0.952045 0.319763
Si Si3 0.657119 0.773753 0.899532
Si Si4 0.712464 0.779691 0.182937
Si Si5 0.357004 0.576096 0.759130
Si Si6 0.723459 0.575697 0.867014
Si Si7 0.000000 0.840753 0.000000
Si Si8 0.716673 0.933133 0.660358
O O1 0.808554 0.921127 0.460923
O O2 0.010805 0.897798 0.141661
O O3 0.848710 0.023299 0.210174
O O4 0.997065 0.032508 0.351726
O O5 0.500000 0.992930 0.500000
O O6 0.633704 0.861710 0.309814
O O7 0.435113 0.936730 0.283248
O O8 0.634958 0.032936 0.197154
O O9 0.727899 0.679480 0.814673
O O10 0.726849 0.843251 0.747378
O O11 0.500000 0.765354 0.000000
O O12 0.693230 0.804211 0.032299
O O13 0.653080 0.682912 0.273783
O O14 0.869164 0.780014 0.106882
O O15 0.252662 0.521100 0.732593
O O16 0.346873 0.566442 0.935842
#
# Coordination Sequence:
#
# PCOD8051732 Si02
#       8
#     4   4   4   4   4   4   2   4
#     4  12  22  44  69  96 137 180 225 275 341 404
#     4  12  23  44  64  99 139 177 221 280 349 394
#     4  11  23  42  69  98 129 176 229 273 332 403
#     4  11  24  42  68  99 134 179 227 275 336 406
#     4  11  25  43  67 100 133 179 224 285 330 400
#     4  11  22  42  71  95 131 186 226 268 338 415
#     4  12  22  44  70  94 132 182 226 274 340 404
#     4  12  26  42  71 103 135 174 232 287 333 394
#
# _framework density 21.363520999999999
#
# number of rings (size 3 to 8) (size 9 to 14) (size 15 to 20)
#    0.000    0.533    5.333    3.600    0.000    3.200 
#    2.400    4.000    0.000    0.000    0.000    0.000 
#    0.000    0.000    0.000    0.000    0.000    0.000 
#
# Total GULP energy -185923.831452 kJ/mol
# GULP energy per Si atom -12394.922097 kJ/mol
# Density = 2.131490 g / cm^3
# Si number density = 21.363521 Si / 1000 Ang^3
#
#
#
# Elastic Constant Matrix: (Units=GPa)
#
#
# Indices 1 2 3 4 5 6 
#
# 1 109.2142 28.2178 7.5315 0.0000 -12.0043 0.0000
# 2 28.2178 116.4722 35.1149 0.0000 -13.7888 0.0000
# 3 7.5315 35.1149 52.5688 0.0000 -4.6374 0.0000
# 4 0.0000 0.0000 0.0000 11.8000 0.0000 3.8669
# 5 -12.0043 -13.7888 -4.6374 0.0000 37.7956 0.0000
# 6 0.0000 0.0000 0.0000 3.8669 0.0000 44.9908
#
#
#
# Elastic Compliance Matrix: (Units=1/GPa)
#
#
# Indices 1 2 3 4 5 6 
#
# 1 0.009973 -0.002211 0.000259 0.000000 0.002393 0.000000
# 2 -0.002211 0.011606 -0.007202 0.000000 0.002648 0.000000
# 3 0.000259 -0.007202 0.023830 0.000000 0.000379 0.000000
# 4 0.000000 0.000000 0.000000 0.087202 0.000000 -0.007495
# 5 0.002393 0.002648 0.000379 0.000000 0.028231 0.000000
# 6 0.000000 0.000000 0.000000 -0.007495 0.000000 0.022871
#
#
# Mechanical properties :
#
#
# Convention : Reuss Voigt Hill
#
# Bulk Modulus (GPa) = 36.89952 46.66485 41.78219
# Shear Modulus (GPa) = 23.69058 32.74335 28.21696
#
# Velocity S-wave (km/s) = 3.33367 3.91919 3.63823
# Velocity P-wave (km/s) = 5.66811 6.50928 6.10320
#
# Compressibility (1/GPa) = 0.02710062
#
# Stress axis : x y z
#
# Youngs Moduli (GPa) = 100.27390 86.15958 41.96384
#
# Poissons Ratio (x) = 0.19050 -0.01088
# Poissons Ratio (y) = 0.22170 0.30224
# Poissons Ratio (z) = -0.02599 0.62056
#
# Static dielectric constant tensor:
#      x y z
#    x 3.546450 0.000000 -0.037360 
#    y 0.000000 4.009370 0.000000 
#    z -0.037360 0.000000 3.852480 
# 
# 
# High freq. dielectric constant tensor:
#      x y z
#    x 1.850510 0.000000 0.004760 
#    y 0.000000 1.833000 0.000000 
#    z 0.004760 0.000000 1.840340 
# 
# From -- ./inp_files/20569.got.cif
#   From: 2010.03.12/outbox.cif.g09.slc.cpg/sg5_11_cif.got.tgz:20569.got - 2010.03.31 09:47:26.
