data_PCOD8051954
_publ_section_title
;
Structure prediction by ZEFSAII (Michael W. Deem and Ramdas Pophale) SiO2 
 PCOD8051954
Probable space group: C 2
;
_chemical_formula_sum "Si O2"
_cell_formula_units_Z 26
_cell_length_a 8.412111
_cell_length_b 19.337268
_cell_length_c 11.398541
_cell_angle_alpha 90.000000
_cell_angle_beta 40.655233
_cell_angle_gamma 90.000000
_cell_volume 1208.002121
_symmetry_space_group_name_H-M "C 2"
_symmetry_group_IT_number 5
_symmetry_cell_setting 'monoclinic'
loop_
_space_group_symop_operation_xyz
x,y,z
-x,y,-z
1/2+x,1/2+y,z
1/2-x,1/2+y,-z
loop_
_atom_site_type_symbol
_atom_site_label
_atom_site_fract_x
_atom_site_fract_y
_atom_site_fract_z
Si Si1 0.748216 0.847580 0.930385
Si Si2 0.755230 0.696073 0.569554
Si Si3 0.999830 0.976324 0.134162
Si Si4 0.878385 0.130169 0.943271
Si Si5 0.568743 0.814040 0.279525
Si Si6 0.931376 0.723488 0.231988
Si Si7 0.500000 0.932054 0.500000
O O1 0.869631 0.922709 0.850783
O O2 0.921064 0.786167 0.787108
O O3 0.500000 0.845458 0.000000
O O4 0.723053 0.836760 0.082738
O O5 0.547033 0.647761 0.738943
O O6 0.674912 0.775948 0.628211
O O7 0.792171 0.680277 0.410784
O O8 0.000000 0.680238 0.500000
O O9 0.728128 0.982517 0.343314
O O10 0.151333 0.047606 0.047039
O O11 0.000000 0.948324 0.000000
O O12 0.622018 0.169794 0.065882
O O13 0.000000 0.152334 0.000000
O O14 0.734053 0.758021 0.256758
O O15 0.478201 0.880668 0.401449
#
# Coordination Sequence:
#
# PCOD8051954 Si02
#       7
#     4   4   4   4   4   4   2
#     4  12  23  43  69 100 134 171 226 289 340 400
#     4  12  23  38  63  99 136 170 217 283 342 392
#     4  11  24  44  68  95 136 186 228 272 340 414
#     4  11  25  41  65  99 136 186 226 275 338 399
#     4  12  23  41  72 104 129 176 222 287 348 398
#     4  12  22  42  67  99 134 173 229 279 337 404
#     4  12  22  40  72 100 132 172 230 276 328 416
#
# _framework density 21.523140999999999
#
# number of rings (size 3 to 8) (size 9 to 14) (size 15 to 20)
#    0.000    0.308    7.692    1.846    1.077    0.000 
#    2.769    0.000    0.000    0.000    0.000    0.000 
#    0.000    0.000    0.000    0.000    0.000    0.000 
#
# Total GULP energy -161127.217857 kJ/mol
# GULP energy per Si atom -12394.401374 kJ/mol
# Density = 2.147415 g / cm^3
# Si number density = 21.523141 Si / 1000 Ang^3
#
#
#
# Elastic Constant Matrix: (Units=GPa)
#
#
# Indices 1 2 3 4 5 6 
#
# 1 66.5588 22.1446 32.3191 0.0000 5.8631 0.0000
# 2 22.1446 101.3675 24.0727 0.0000 -6.0373 0.0000
# 3 32.3191 24.0727 134.3715 0.0001 2.4402 0.0000
# 4 0.0000 0.0000 0.0001 30.0325 -0.0001 -2.9430
# 5 5.8631 -6.0373 2.4402 -0.0001 29.8809 0.0000
# 6 0.0000 0.0000 0.0000 -2.9430 0.0000 22.9109
#
#
#
# Elastic Compliance Matrix: (Units=1/GPa)
#
#
# Indices 1 2 3 4 5 6 
#
# 1 0.018298 -0.003348 -0.003729 0.000000 -0.003962 0.000000
# 2 -0.003348 0.011067 -0.001232 0.000000 0.002994 0.000000
# 3 -0.003729 -0.001232 0.008564 0.000000 -0.000216 0.000000
# 4 0.000000 0.000000 0.000000 0.033722 0.000000 0.004332
# 5 -0.003962 0.002994 -0.000216 0.000000 0.034866 0.000000
# 6 0.000000 0.000000 0.000000 0.004332 0.000000 0.044204
#
#
# Mechanical properties :
#
#
# Convention : Reuss Voigt Hill
#
# Bulk Modulus (GPa) = 46.92394 51.04118 48.98256
# Shear Modulus (GPa) = 28.66281 31.48230 30.07256
#
# Velocity S-wave (km/s) = 3.65323 3.82870 3.74200
# Velocity P-wave (km/s) = 6.29633 6.58113 6.44031
#
# Compressibility (1/GPa) = 0.02131108
#
# Stress axis : x y z
#
# Youngs Moduli (GPa) = 54.65077 90.35649 116.77254
#
# Poissons Ratio (x) = 0.30249 0.43548
# Poissons Ratio (y) = 0.18295 0.14385
# Poissons Ratio (z) = 0.20381 0.11131
#
# Static dielectric constant tensor:
#      x y z
#    x 3.749320 0.000000 -0.025410 
#    y 0.000000 3.791010 0.000000 
#    z -0.025410 0.000000 4.379950 
# 
# 
# High freq. dielectric constant tensor:
#      x y z
#    x 1.824670 0.000000 -0.002170 
#    y 0.000000 1.831880 0.000000 
#    z -0.002170 0.000000 1.869030 
# 
# From -- ./inp_files/37282.got.cif
#   From: 2010.03.12/outbox.cif.g09.slc.cpg/sg5_19_cif.got.tgz:37282.got - 2010.03.31 09:47:26.
