data_PCOD8051317
_publ_section_title
;
Structure prediction by ZEFSAII (Michael W. Deem and Ramdas Pophale) SiO2 
 PCOD8051317
Probable space group: C 2
;
_chemical_formula_sum "Si O2"
_cell_formula_units_Z 24
_cell_length_a 20.519372
_cell_length_b 8.096508
_cell_length_c 9.111122
_cell_angle_alpha 90.000000
_cell_angle_beta 47.025543
_cell_angle_gamma 90.000000
_cell_volume 1107.494571
_symmetry_space_group_name_H-M "C 2"
_symmetry_group_IT_number 5
_symmetry_cell_setting 'monoclinic'
loop_
_space_group_symop_operation_xyz
x,y,z
-x,y,-z
1/2+x,1/2+y,z
1/2-x,1/2+y,-z
loop_
_atom_site_type_symbol
_atom_site_label
_atom_site_fract_x
_atom_site_fract_y
_atom_site_fract_z
Si Si1 0.325726 0.583200 0.353922
Si Si2 0.000000 0.447550 0.500000
Si Si3 0.329230 0.215299 0.226023
Si Si4 0.330629 0.074233 0.917738
Si Si5 0.509488 0.745949 0.751684
Si Si6 0.500000 0.018426 0.000000
Si Si7 0.684256 0.717625 0.938327
O O1 0.323362 0.400383 0.293397
O O2 0.255493 0.609669 0.591040
O O3 0.423047 0.624489 0.270303
O O4 0.301941 0.706988 0.258115
O O5 0.074012 0.562519 0.310457
O O6 0.048560 0.323876 0.541798
O O7 0.415917 0.132878 0.163792
O O8 0.333823 0.213450 0.040879
O O9 0.256617 0.108913 0.910065
O O10 0.302215 0.905593 0.037781
O O11 0.415597 0.651774 0.867014
O O12 0.479870 0.904636 0.892125
#
# Coordination Sequence:
#
# PCOD8051317 Si02
#       7
#     4   2   4   4   4   2   4
#     4  12  26  45  73 103 142 187 241 293 350 417
#     4  10  24  44  72 100 140 188 222 288 356 414
#     4  12  27  44  71 106 139 190 238 294 349 418
#     4  11  24  46  70 101 143 185 237 282 357 420
#     4  11  23  46  71 101 141 186 229 291 355 417
#     4  12  22  46  72  98 140 180 240 292 348 412
#     4  11  23  43  69 101 139 187 227 292 345 417
#
# _framework density 21.670535000000001
#
# number of rings (size 3 to 8) (size 9 to 14) (size 15 to 20)
#    0.000    0.667    5.000    3.000   11.667    0.000 
#    0.000    0.000    0.000    2.000    0.000    0.000 
#    0.000    0.000    0.000    0.000    0.000    0.000 
#
# Total GULP energy -148816.876487 kJ/mol
# GULP energy per Si atom -12401.406374 kJ/mol
# Density = 2.162121 g / cm^3
# Si number density = 21.670535 Si / 1000 Ang^3
#
#
#
# Elastic Constant Matrix: (Units=GPa)
#
#
# Indices 1 2 3 4 5 6 
#
# 1 154.0551 44.6475 56.3900 0.0000 -6.0587 0.0000
# 2 44.6475 90.3736 45.3596 0.0000 -2.2925 0.0000
# 3 56.3900 45.3596 140.2039 0.0000 3.4377 0.0000
# 4 0.0000 0.0000 0.0000 30.8700 0.0000 2.7043
# 5 -6.0587 -2.2925 3.4377 0.0000 41.1002 0.0000
# 6 0.0000 0.0000 0.0000 2.7043 0.0000 35.2597
#
#
#
# Elastic Compliance Matrix: (Units=1/GPa)
#
#
# Indices 1 2 3 4 5 6 
#
# 1 0.008250 -0.002821 -0.002437 0.000000 0.001263 0.000000
# 2 -0.002821 0.014224 -0.003484 0.000000 0.000669 0.000000
# 3 -0.002437 -0.003484 0.009272 0.000000 -0.001329 0.000000
# 4 0.000000 0.000000 0.000000 0.032613 0.000000 -0.002501
# 5 0.001263 0.000669 -0.001329 0.000000 0.024665 0.000000
# 6 0.000000 0.000000 0.000000 -0.002501 0.000000 0.028553
#
#
# Mechanical properties :
#
#
# Convention : Reuss Voigt Hill
#
# Bulk Modulus (GPa) = 70.10558 75.26963 72.68761
# Shear Modulus (GPa) = 35.76148 37.32834 36.54491
#
# Velocity S-wave (km/s) = 4.06672 4.15485 4.11102
# Velocity P-wave (km/s) = 7.38050 7.60435 7.49326
#
# Compressibility (1/GPa) = 0.01426420
#
# Stress axis : x y z
#
# Youngs Moduli (GPa) = 121.20826 70.30214 107.85006
#
# Poissons Ratio (x) = 0.19832 0.26278
# Poissons Ratio (y) = 0.34192 0.37572
# Poissons Ratio (z) = 0.29533 0.24492
#
# Static dielectric constant tensor:
#      x y z
#    x 4.146370 0.000000 0.151100 
#    y 0.000000 3.710520 0.000000 
#    z 0.151100 0.000000 4.087280 
# 
# 
# High freq. dielectric constant tensor:
#      x y z
#    x 1.869470 0.000000 0.004400 
#    y 0.000000 1.836290 0.000000 
#    z 0.004400 0.000000 1.858490 
# 
# From -- ./inp_files/28895.got.cif
#   From: 2010.03.12/outbox.cif.g09.slc.cpg/sg5_15_cif.got.tgz:28895.got - 2010.03.31 09:47:26.
