data_PCOD8051610
_publ_section_title
;
Structure prediction by ZEFSAII (Michael W. Deem and Ramdas Pophale) SiO2 
 PCOD8051610
Probable space group: C 2
;
_chemical_formula_sum "Si O2"
_cell_formula_units_Z 24
_cell_length_a 11.797898
_cell_length_b 21.359591
_cell_length_c 11.767410
_cell_angle_alpha 90.000000
_cell_angle_beta 156.030429
_cell_angle_gamma 90.000000
_cell_volume 1204.684551
_symmetry_space_group_name_H-M "C 2"
_symmetry_group_IT_number 5
_symmetry_cell_setting 'monoclinic'
loop_
_space_group_symop_operation_xyz
x,y,z
-x,y,-z
1/2+x,1/2+y,z
1/2-x,1/2+y,-z
loop_
_atom_site_type_symbol
_atom_site_label
_atom_site_fract_x
_atom_site_fract_y
_atom_site_fract_z
Si Si1 0.093156 0.510970 0.712626
Si Si2 0.802929 0.307003 0.426970
Si Si3 0.251826 0.263817 0.008519
Si Si4 0.579605 0.442709 0.280336
Si Si5 0.785817 0.877608 0.205949
Si Si6 0.294082 0.151623 0.212793
O O1 0.834252 0.487275 0.552387
O O2 0.000000 0.493128 0.500000
O O3 0.109258 0.584875 0.746744
O O4 0.382331 0.475641 0.005631
O O5 0.506383 0.270910 0.151360
O O6 0.726223 0.379882 0.367411
O O7 0.000000 0.295246 0.500000
O O8 0.961175 0.278014 0.680211
O O9 0.263186 0.312425 0.120977
O O10 0.266622 0.195673 0.078052
O O11 0.390113 0.431397 0.216770
O O12 0.000000 0.864371 0.500000
O O13 0.500000 0.900411 0.000000
O O14 0.500000 0.177587 0.500000
O O15 0.000000 0.141043 0.000000
#
# Coordination Sequence:
#
# PCOD8051610 Si02
#       6
#     4   4   4   4   4   4
#     4  11  22  37  59  88 119 152 189 235 290 344
#     4  11  23  38  58  86 116 151 190 235 287 343
#     4  11  22  38  60  86 114 150 189 238 291 340
#     4  11  22  37  58  86 118 153 190 236 288 344
#     4  11  21  36  56  82 113 148 188 235 286 340
#     4  11  22  38  61  90 118 150 190 239 290 343
#
# _framework density 19.922226999999999
#
# number of rings (size 3 to 8) (size 9 to 14) (size 15 to 20)
#    0.000    1.000    0.000   10.500    0.000    2.667 
#    0.000    0.000    0.000   10.000    0.000    0.000 
#    0.000    0.000    0.000    0.000    0.000    0.000 
#
# Total GULP energy -148785.459002 kJ/mol
# GULP energy per Si atom -12398.788250 kJ/mol
# Density = 1.987688 g / cm^3
# Si number density = 19.922227 Si / 1000 Ang^3
#
#
#
# Elastic Constant Matrix: (Units=GPa)
#
#
# Indices 1 2 3 4 5 6 
#
# 1 85.1826 41.2031 9.8834 -0.0011 17.7727 0.0008
# 2 41.2031 119.0178 35.4161 0.0001 6.3942 0.0013
# 3 9.8834 35.4161 113.0565 -0.0044 3.8277 0.0027
# 4 -0.0011 0.0001 -0.0044 38.1121 -0.0016 0.4829
# 5 17.7727 6.3942 3.8277 -0.0016 46.6310 -0.0011
# 6 0.0008 0.0013 0.0027 0.4829 -0.0011 30.4558
#
#
#
# Elastic Compliance Matrix: (Units=1/GPa)
#
#
# Indices 1 2 3 4 5 6 
#
# 1 0.015244 -0.005135 0.000450 0.000000 -0.005143 0.000000
# 2 -0.005135 0.011046 -0.003035 0.000000 0.000692 0.000000
# 3 0.000450 -0.003035 0.009775 0.000001 -0.000558 -0.000001
# 4 0.000000 0.000000 0.000001 0.026244 0.000001 -0.000416
# 5 -0.005143 0.000692 -0.000558 0.000001 0.023356 0.000001
# 6 0.000000 0.000000 -0.000001 -0.000416 0.000001 0.032841
#
#
# Mechanical properties :
#
#
# Convention : Reuss Voigt Hill
#
# Bulk Modulus (GPa) = 48.48289 54.47359 51.47824
# Shear Modulus (GPa) = 35.50622 38.42342 36.96482
#
# Velocity S-wave (km/s) = 4.22624 4.39643 4.31217
# Velocity P-wave (km/s) = 6.94289 7.29204 7.11961
#
# Compressibility (1/GPa) = 0.02062583
#
# Stress axis : x y z
#
# Youngs Moduli (GPa) = 65.59910 90.53300 102.29844
#
# Poissons Ratio (x) = 0.46489 -0.04604
# Poissons Ratio (y) = 0.33685 0.31044
# Poissons Ratio (z) = -0.02952 0.27474
#
# Static dielectric constant tensor:
#      x y z
#    x 3.659490 -0.000010 0.226350 
#    y -0.000010 3.539700 0.000020 
#    z 0.226350 0.000020 3.974860 
# 
# 
# High freq. dielectric constant tensor:
#      x y z
#    x 1.769230 0.000000 0.014870 
#    y 0.000000 1.759870 0.000000 
#    z 0.014870 0.000000 1.806750 
# 
# From -- ./inp_files/40838.got.cif
#   From: 2010.03.12/outbox.cif.g09.slc.cpg/sg5_21_cif.got.tgz:40838.got - 2010.03.31 09:47:26.
