data_PCOD8051110
_publ_section_title
;
Structure prediction by ZEFSAII (Michael W. Deem and Ramdas Pophale) SiO2 
 PCOD8051110
Probable space group: C 2
;
_chemical_formula_sum "Si O2"
_cell_formula_units_Z 20
_cell_length_a 10.784344
_cell_length_b 8.073630
_cell_length_c 10.106821
_cell_angle_alpha 90.000000
_cell_angle_beta 110.942916
_cell_angle_gamma 90.000000
_cell_volume 821.854114
_symmetry_space_group_name_H-M "C 2"
_symmetry_group_IT_number 5
_symmetry_cell_setting 'monoclinic'
loop_
_space_group_symop_operation_xyz
x,y,z
-x,y,-z
1/2+x,1/2+y,z
1/2-x,1/2+y,-z
loop_
_atom_site_type_symbol
_atom_site_label
_atom_site_fract_x
_atom_site_fract_y
_atom_site_fract_z
Si Si1 0.790470 0.545760 0.889907
Si Si2 0.899883 0.768260 0.146445
Si Si3 0.884783 0.607498 0.636751
Si Si4 0.889706 0.246498 0.559829
Si Si5 0.485205 0.614000 0.140433
O O1 0.744855 0.351679 0.881217
O O2 0.866504 0.569822 0.784156
O O3 0.657302 0.659593 0.848467
O O4 0.884348 0.607934 0.045499
O O5 0.974963 0.708781 0.311003
O O6 0.995593 0.913804 0.124404
O O7 0.904333 0.443316 0.560100
O O8 0.760508 0.710233 0.537859
O O9 0.905180 0.177426 0.714632
O O10 0.000000 0.170712 0.500000
O O11 0.500000 0.697091 0.000000
#
# Coordination Sequence:
#
# PCOD8051110 Si02
#       5
#     4   4   4   4   4
#     4  10  24  43  71  99 143 175 230 287 343 407
#     4  10  24  42  69 106 138 175 232 286 343 405
#     4  12  26  45  71  99 141 186 234 281 346 411
#     4  12  27  48  70 102 144 185 229 288 345 413
#     4  10  23  43  74 103 137 177 233 282 346 410
#
# _framework density 24.335218999999999
#
# number of rings (size 3 to 8) (size 9 to 14) (size 15 to 20)
#    1.200    0.000    2.000    3.000    5.600    1.600 
#    0.000    0.000    0.000    0.000    0.000    0.000 
#    0.000    0.000    0.000    0.000    0.000    0.000 
#
# Total GULP energy -123883.641457 kJ/mol
# GULP energy per Si atom -12388.364146 kJ/mol
# Density = 2.427983 g / cm^3
# Si number density = 24.335219 Si / 1000 Ang^3
#
#
#
# Elastic Constant Matrix: (Units=GPa)
#
#
# Indices 1 2 3 4 5 6 
#
# 1 66.6609 26.0952 39.1334 0.0000 18.6326 0.0000
# 2 26.0952 98.1306 50.0029 0.0000 21.4467 0.0000
# 3 39.1334 50.0029 153.0261 0.0000 32.8966 0.0000
# 4 0.0000 0.0000 0.0000 47.2413 0.0000 15.8208
# 5 18.6326 21.4467 32.8966 0.0000 44.0051 0.0000
# 6 0.0000 0.0000 0.0000 15.8208 0.0000 30.9554
#
#
#
# Elastic Compliance Matrix: (Units=1/GPa)
#
#
# Indices 1 2 3 4 5 6 
#
# 1 0.019060 -0.002506 -0.003078 0.000000 -0.004548 0.000000
# 2 -0.002506 0.013037 -0.002956 0.000000 -0.003083 0.000000
# 3 -0.003078 -0.002956 0.009172 0.000000 -0.004113 0.000000
# 4 0.000000 0.000000 0.000000 0.025539 0.000000 -0.013053
# 5 -0.004548 -0.003083 -0.004113 0.000000 0.029227 0.000000
# 6 0.000000 0.000000 0.000000 -0.013053 0.000000 0.038975
#
#
# Mechanical properties :
#
#
# Convention : Reuss Voigt Hill
#
# Bulk Modulus (GPa) = 41.34122 60.92008 51.13065
# Shear Modulus (GPa) = 31.21970 37.94611 34.58291
#
# Velocity S-wave (km/s) = 3.58565 3.95309 3.77384
# Velocity P-wave (km/s) = 5.84531 6.77672 6.32817
#
# Compressibility (1/GPa) = 0.02418893
#
# Stress axis : x y z
#
# Youngs Moduli (GPa) = 52.46465 76.70389 109.02719
#
# Poissons Ratio (x) = 0.19225 0.33554
# Poissons Ratio (y) = 0.13150 0.32233
# Poissons Ratio (z) = 0.16146 0.22677
#
# Static dielectric constant tensor:
#      x y z
#    x 4.128940 0.000000 0.170470 
#    y 0.000000 4.201640 0.000000 
#    z 0.170470 0.000000 4.361260 
# 
# 
# High freq. dielectric constant tensor:
#      x y z
#    x 1.960990 0.000000 0.018130 
#    y 0.000000 1.950850 0.000000 
#    z 0.018130 0.000000 1.968610 
# 
# From -- ./inp_files/38111.got.cif
#   From: 2010.03.12/outbox.cif.g09.slc.cpg/sg5_20_cif.got.tgz:38111.got - 2010.03.31 09:47:26.
