data_PCOD8051939
_publ_section_title
;
Structure prediction by ZEFSAII (Michael W. Deem and Ramdas Pophale) SiO2 
 PCOD8051939
Probable space group: C 2
;
_chemical_formula_sum "Si O2"
_cell_formula_units_Z 18
_cell_length_a 11.308085
_cell_length_b 9.100749
_cell_length_c 8.106124
_cell_angle_alpha 90.000000
_cell_angle_beta 105.457831
_cell_angle_gamma 90.000000
_cell_volume 804.041521
_symmetry_space_group_name_H-M "C 2"
_symmetry_group_IT_number 5
_symmetry_cell_setting 'monoclinic'
loop_
_space_group_symop_operation_xyz
x,y,z
-x,y,-z
1/2+x,1/2+y,z
1/2-x,1/2+y,-z
loop_
_atom_site_type_symbol
_atom_site_label
_atom_site_fract_x
_atom_site_fract_y
_atom_site_fract_z
Si Si1 0.631969 0.270420 0.464464
Si Si2 0.866740 0.907387 0.889462
Si Si3 0.000000 0.365768 0.000000
Si Si4 0.298715 0.666451 0.055248
Si Si5 0.295797 0.994903 0.697148
O O1 0.500000 0.279074 0.500000
O O2 0.633232 0.369499 0.301391
O O3 0.738242 0.340736 0.617854
O O4 0.665745 0.101046 0.439763
O O5 0.819881 0.771993 0.984483
O O6 0.000000 0.950984 0.000000
O O7 0.784808 0.053487 0.895796
O O8 0.079882 0.264827 0.908478
O O9 0.915416 0.467304 0.853782
O O10 0.306602 0.576667 0.229766
#
# Coordination Sequence:
#
# PCOD8051939 Si02
#       5
#     4   4   2   4   4
#     4  11  28  44  72 104 148 184 235 293 359 420
#     4  11  24  42  70 102 137 188 232 288 347 420
#     4  12  26  44  76 104 142 184 240 294 350 422
#     4  11  24  42  74 101 139 184 242 286 347 419
#     4  11  28  47  70 107 143 188 236 293 358 419
#
# _framework density 22.386906
#
# number of rings (size 3 to 8) (size 9 to 14) (size 15 to 20)
#    0.000    0.889    3.333    1.333    9.333    3.556 
#    0.000    0.000    0.000    0.000    0.000    0.000 
#    0.000    0.000    0.000    0.000    0.000    0.000 
#
# Total GULP energy -111605.204544 kJ/mol
# GULP energy per Si atom -12400.578283 kJ/mol
# Density = 2.233595 g / cm^3
# Si number density = 22.386906 Si / 1000 Ang^3
#
#
#
# Elastic Constant Matrix: (Units=GPa)
#
#
# Indices 1 2 3 4 5 6 
#
# 1 121.4746 65.3533 57.7381 0.0000 -16.1152 0.0000
# 2 65.3533 146.3200 50.8484 0.0000 -7.5188 0.0000
# 3 57.7381 50.8484 74.9012 0.0000 -0.6451 0.0000
# 4 0.0000 0.0000 0.0000 42.8928 0.0000 -9.3105
# 5 -16.1152 -7.5188 -0.6451 0.0000 43.9682 0.0000
# 6 0.0000 0.0000 0.0000 -9.3105 0.0000 37.6883
#
#
#
# Elastic Compliance Matrix: (Units=1/GPa)
#
#
# Indices 1 2 3 4 5 6 
#
# 1 0.015068 -0.003219 -0.009388 0.000000 0.004834 0.000000
# 2 -0.003219 0.009724 -0.004117 0.000000 0.000423 0.000000
# 3 -0.009388 -0.004117 0.023350 0.000000 -0.003802 0.000000
# 4 0.000000 0.000000 0.000000 0.024635 0.000000 0.006086
# 5 0.004834 0.000423 -0.003802 0.000000 0.024532 0.000000
# 6 0.000000 0.000000 0.000000 0.006086 0.000000 0.028037
#
#
# Mechanical properties :
#
#
# Convention : Reuss Voigt Hill
#
# Bulk Modulus (GPa) = 68.05323 76.73060 72.39191
# Shear Modulus (GPa) = 30.54540 36.16024 33.35282
#
# Velocity S-wave (km/s) = 3.69783 4.02337 3.86403
# Velocity P-wave (km/s) = 6.97829 7.47880 7.23288
#
# Compressibility (1/GPa) = 0.01469438
#
# Stress axis : x y z
#
# Youngs Moduli (GPa) = 66.36786 102.83433 42.82724
#
# Poissons Ratio (x) = 0.33102 0.40206
# Poissons Ratio (y) = 0.21364 0.17630
# Poissons Ratio (z) = 0.62306 0.42333
#
# Static dielectric constant tensor:
#      x y z
#    x 4.208620 0.000000 -0.438990 
#    y 0.000000 4.309060 0.000000 
#    z -0.438990 0.000000 3.909270 
# 
# 
# High freq. dielectric constant tensor:
#      x y z
#    x 1.889170 0.000000 -0.026040 
#    y 0.000000 1.904640 0.000000 
#    z -0.026040 0.000000 1.863040 
# 
# From -- ./inp_files/17937.got.cif
#   From: 2010.03.12/outbox.cif.g09.slc.cpg/sg5_9_cif.got.tgz:17937.got - 2010.03.31 09:47:26.
