data_PCOD8051849
_publ_section_title
;
Structure prediction by ZEFSAII (Michael W. Deem and Ramdas Pophale) SiO2 
 PCOD8051849
Probable space group: C 2
;
_chemical_formula_sum "Si O2"
_cell_formula_units_Z 28
_cell_length_a 20.298097
_cell_length_b 6.508376
_cell_length_c 10.074149
_cell_angle_alpha 90.000000
_cell_angle_beta 65.587794
_cell_angle_gamma 90.000000
_cell_volume 1211.886346
_symmetry_space_group_name_H-M "C 2"
_symmetry_group_IT_number 5
_symmetry_cell_setting 'monoclinic'
loop_
_space_group_symop_operation_xyz
x,y,z
-x,y,-z
1/2+x,1/2+y,z
1/2-x,1/2+y,-z
loop_
_atom_site_type_symbol
_atom_site_label
_atom_site_fract_x
_atom_site_fract_y
_atom_site_fract_z
Si Si1 0.239370 0.285410 0.823948
Si Si2 0.871914 0.061943 0.695414
Si Si3 0.093100 0.273121 0.074495
Si Si4 0.324684 0.043827 0.347669
Si Si5 0.500000 0.474766 0.000000
Si Si6 0.270557 0.892212 0.662212
Si Si7 0.486714 0.129959 0.224028
Si Si8 0.500000 0.307010 0.500000
O O1 0.311398 0.408108 0.805867
O O2 0.210374 0.360154 0.705914
O O3 0.256627 0.042837 0.798219
O O4 0.177928 0.325650 0.985430
O O5 0.917807 0.157817 0.777070
O O6 0.836009 0.238628 0.637944
O O7 0.927436 0.943489 0.553307
O O8 0.048589 0.485091 0.111169
O O9 0.067679 0.123459 0.976738
O O10 0.302420 0.264992 0.306014
O O11 0.410550 0.015733 0.272089
O O12 0.294594 0.034454 0.520880
O O13 0.516366 0.340324 0.856330
O O14 0.503005 0.169179 0.365330
#
# Coordination Sequence:
#
# PCOD8051849 Si02
#       8
#     4   4   4   4   2   4   4   2
#     4  11  25  47  71 105 147 189 243 309 365 439
#     4  11  29  46  70 109 145 194 245 302 374 442
#     4  12  28  47  76 110 143 199 252 300 380 455
#     4  11  23  43  72 107 139 186 248 295 375 433
#     4  12  24  52  72 110 150 188 256 302 374 448
#     4  11  24  43  74 103 142 190 242 309 368 437
#     4  12  28  46  78 109 153 200 241 314 376 440
#     4  12  28  52  74 110 156 192 254 312 378 440
#
# _framework density 23.104478
#
# number of rings (size 3 to 8) (size 9 to 14) (size 15 to 20)
#    0.000    0.571    2.857    3.857   10.000    2.286 
#    0.000    0.000    0.000    0.000    0.000    0.000 
#    0.000    0.000    0.000    0.000    0.000    0.000 
#
# Total GULP energy -173701.304775 kJ/mol
# GULP energy per Si atom -12407.236055 kJ/mol
# Density = 2.305189 g / cm^3
# Si number density = 23.104478 Si / 1000 Ang^3
#
#
#
# Elastic Constant Matrix: (Units=GPa)
#
#
# Indices 1 2 3 4 5 6 
#
# 1 96.8614 39.2841 21.1031 0.0000 -11.3866 0.0000
# 2 39.2841 120.6721 31.5146 0.0000 -4.1354 0.0000
# 3 21.1031 31.5146 88.6599 0.0000 -9.9948 0.0000
# 4 0.0000 0.0000 0.0000 38.6703 0.0000 3.5694
# 5 -11.3866 -4.1354 -9.9948 0.0000 48.5842 0.0000
# 6 0.0000 0.0000 0.0000 3.5694 0.0000 31.3089
#
#
#
# Elastic Compliance Matrix: (Units=1/GPa)
#
#
# Indices 1 2 3 4 5 6 
#
# 1 0.012351 -0.003574 -0.001410 0.000000 0.002300 0.000000
# 2 -0.003574 0.010170 -0.002827 0.000000 -0.000553 0.000000
# 3 -0.001410 -0.002827 0.012853 0.000000 0.002073 0.000000
# 4 0.000000 0.000000 0.000000 0.026135 0.000000 -0.002980
# 5 0.002300 -0.000553 0.002073 0.000000 0.021501 0.000000
# 6 0.000000 0.000000 0.000000 -0.002980 0.000000 0.032279
#
#
# Mechanical properties :
#
#
# Convention : Reuss Voigt Hill
#
# Bulk Modulus (GPa) = 50.62583 54.44410 52.53496
# Shear Modulus (GPa) = 36.36509 37.99878 37.18193
#
# Velocity S-wave (km/s) = 3.97160 4.05983 4.01595
# Velocity P-wave (km/s) = 6.55673 6.75217 6.65516
#
# Compressibility (1/GPa) = 0.01975276
#
# Stress axis : x y z
#
# Youngs Moduli (GPa) = 80.96456 98.33290 77.80196
#
# Poissons Ratio (x) = 0.35141 0.10972
# Poissons Ratio (y) = 0.28934 0.21991
# Poissons Ratio (z) = 0.11418 0.27795
#
# Static dielectric constant tensor:
#      x y z
#    x 4.220780 0.000000 -0.034250 
#    y 0.000000 4.188250 0.000000 
#    z -0.034250 0.000000 3.929620 
# 
# 
# High freq. dielectric constant tensor:
#      x y z
#    x 1.921600 0.000000 -0.001610 
#    y 0.000000 1.920540 0.000000 
#    z -0.001610 0.000000 1.907800 
# 
# From -- ./inp_files/45431.got.cif
#   From: 2010.03.12/outbox.cif.g09.slc.cpg/sg5_23_cif.got.tgz:45431.got - 2010.03.31 09:47:26.
