data_PCOD8051526
_publ_section_title
;
Structure prediction by ZEFSAII (Michael W. Deem and Ramdas Pophale) SiO2 
 PCOD8051526
Probable space group: C 2
;
_chemical_formula_sum "Si O2"
_cell_formula_units_Z 22
_cell_length_a 35.636441
_cell_length_b 4.955594
_cell_length_c 4.955335
_cell_angle_alpha 90.000000
_cell_angle_beta 91.950154
_cell_angle_gamma 90.000000
_cell_volume 874.603984
_symmetry_space_group_name_H-M "C 2"
_symmetry_group_IT_number 5
_symmetry_cell_setting 'monoclinic'
loop_
_space_group_symop_operation_xyz
x,y,z
-x,y,-z
1/2+x,1/2+y,z
1/2-x,1/2+y,-z
loop_
_atom_site_type_symbol
_atom_site_label
_atom_site_fract_x
_atom_site_fract_y
_atom_site_fract_z
Si Si1 0.563606 0.170670 0.290348
Si Si2 0.375416 0.510056 0.508291
Si Si3 0.000000 0.993423 0.500000
Si Si4 0.724795 0.980797 0.991375
Si Si5 0.566080 0.807999 0.781951
Si Si6 0.174541 0.507756 0.480838
O O1 0.595960 0.397666 0.250674
O O2 0.522896 0.310516 0.291163
O O3 0.573555 0.059421 0.588543
O O4 0.564189 0.922775 0.083603
O O5 0.399847 0.595789 0.249867
O O6 0.346118 0.277477 0.421057
O O7 0.354250 0.773491 0.618515
O O8 0.973415 0.173418 0.305822
O O9 0.699840 0.086072 0.232496
O O10 0.752375 0.219489 0.907148
O O11 0.699318 0.895889 0.732318
#
# Coordination Sequence:
#
# PCOD8051526 Si02
#       6
#     4   4   2   4   4   4
#     4  11  26  47  75 106 154 195 263 319 390 457
#     4  11  26  48  74 118 148 203 252 319 378 460
#     4  10  26  46  76 110 148 212 260 336 392 466
#     4  12  26  48  74 112 152 197 248 305 370 454
#     4  11  26  47  75 106 154 195 263 319 390 457
#     4  12  26  45  80 108 154 197 250 307 382 446
#
# _framework density 25.154243999999998
#
# number of rings (size 3 to 8) (size 9 to 14) (size 15 to 20)
#    0.000    0.727    1.818    3.818    2.545   13.091 
#    0.000    0.000    4.000    0.000    0.000    0.000 
#    0.000    0.000    0.000    0.000    0.000    0.000 
#
# Total GULP energy -136443.570476 kJ/mol
# GULP energy per Si atom -12403.960952 kJ/mol
# Density = 2.509699 g / cm^3
# Si number density = 25.154244 Si / 1000 Ang^3
#
#
#
# Elastic Constant Matrix: (Units=GPa)
#
#
# Indices 1 2 3 4 5 6 
#
# 1 140.1358 54.6663 36.6068 0.0000 -8.8754 0.0000
# 2 54.6663 148.8305 18.0305 0.0000 -8.8625 0.0000
# 3 36.6068 18.0305 88.8562 0.0000 -8.7278 0.0000
# 4 0.0000 0.0000 0.0000 45.4558 0.0000 -0.9163
# 5 -8.8754 -8.8625 -8.7278 0.0000 10.8180 0.0000
# 6 0.0000 0.0000 0.0000 -0.9163 0.0000 41.4756
#
#
#
# Elastic Compliance Matrix: (Units=1/GPa)
#
#
# Indices 1 2 3 4 5 6 
#
# 1 0.009194 -0.002853 -0.002930 0.000000 0.002842 0.000000
# 2 -0.002853 0.008022 -0.000040 0.000000 0.004199 0.000000
# 3 -0.002930 -0.000040 0.013283 0.000000 0.008280 0.000000
# 4 0.000000 0.000000 0.000000 0.022009 0.000000 0.000486
# 5 0.002842 0.004199 0.008280 0.000000 0.104890 0.000000
# 6 0.000000 0.000000 0.000000 0.000486 0.000000 0.024121
#
#
# Mechanical properties :
#
#
# Convention : Reuss Voigt Hill
#
# Bulk Modulus (GPa) = 53.04122 66.26996 59.65559
# Shear Modulus (GPa) = 25.06906 37.45113 31.26009
#
# Velocity S-wave (km/s) = 3.16034 3.86276 3.52907
# Velocity P-wave (km/s) = 5.86934 6.80420 6.35399
#
# Compressibility (1/GPa) = 0.01885326
#
# Stress axis : x y z
#
# Youngs Moduli (GPa) = 108.76472 124.66009 75.28702
#
# Poissons Ratio (x) = 0.35564 0.22057
# Poissons Ratio (y) = 0.31029 0.00301
# Poissons Ratio (z) = 0.31865 0.00499
#
# Static dielectric constant tensor:
#      x y z
#    x 4.869730 0.000000 -0.081440 
#    y 0.000000 4.709280 0.000000 
#    z -0.081440 0.000000 4.141720 
# 
# 
# High freq. dielectric constant tensor:
#      x y z
#    x 2.020430 0.000000 -0.005260 
#    y 0.000000 2.025820 0.000000 
#    z -0.005260 0.000000 1.979490 
# 
# From -- ./inp_files/11020.got.cif
#   From: 2010.03.12/outbox.cif.g09.slc.cpg/sg5_6_cif.got.tgz:11020.got - 2010.03.31 09:47:26.
