data_PCOD8051752
_publ_section_title
;
Structure prediction by ZEFSAII (Michael W. Deem and Ramdas Pophale) SiO2 
 PCOD8051752
Probable space group: C 2
;
_chemical_formula_sum "Si O2"
_cell_formula_units_Z 32
_cell_length_a 11.437099
_cell_length_b 9.324182
_cell_length_c 13.336701
_cell_angle_alpha 90.000000
_cell_angle_beta 85.695969
_cell_angle_gamma 90.000000
_cell_volume 1418.236094
_symmetry_space_group_name_H-M "C 2"
_symmetry_group_IT_number 5
_symmetry_cell_setting 'monoclinic'
loop_
_space_group_symop_operation_xyz
x,y,z
-x,y,-z
1/2+x,1/2+y,z
1/2-x,1/2+y,-z
loop_
_atom_site_type_symbol
_atom_site_label
_atom_site_fract_x
_atom_site_fract_y
_atom_site_fract_z
Si Si1 0.725826 0.711360 0.425971
Si Si2 0.173262 0.118949 0.779832
Si Si3 0.366994 0.422566 0.042171
Si Si4 0.561911 0.528825 0.303001
Si Si5 0.017598 0.713349 0.675013
Si Si6 0.824751 0.533544 0.596547
Si Si7 0.940731 0.646451 0.113256
Si Si8 0.755482 0.417813 0.153533
O O1 0.618399 0.621531 0.387608
O O2 0.753235 0.643431 0.531745
O O3 0.842204 0.701158 0.349017
O O4 0.677603 0.872730 0.447304
O O5 0.175635 0.059931 0.893186
O O6 0.260657 0.025169 0.707527
O O7 0.221165 0.279761 0.780152
O O8 0.044783 0.115099 0.739465
O O9 0.355692 0.284528 0.115350
O O10 0.500000 0.448380 0.000000
O O11 0.282387 0.385219 0.956619
O O12 0.522651 0.374547 0.349620
O O13 0.656251 0.514028 0.209315
O O14 0.955580 0.597863 0.605320
O O15 0.978579 0.679290 0.793679
O O16 0.877675 0.499562 0.140878
O O17 0.000000 0.636371 0.000000
#
# Coordination Sequence:
#
# PCOD8051752 Si02
#       8
#     4   4   4   4   4   4   4   4
#     4  12  28  50  75 109 140 194 244 300 376 432
#     4  12  26  46  74 110 145 193 243 301 366 425
#     4  11  22  44  69 101 146 198 238 287 362 425
#     4  12  24  48  75 102 149 187 242 302 360 434
#     4  12  24  51  74 102 150 191 240 301 365 433
#     4  12  28  48  78 106 143 189 243 306 369 435
#     4  11  24  43  69 104 147 195 240 298 365 422
#     4  12  25  43  70 108 147 190 245 300 352 442
#
# _framework density 22.563237000000001
#
# number of rings (size 3 to 8) (size 9 to 14) (size 15 to 20)
#    0.000    0.250    6.250    2.625    3.500    1.000 
#    4.500    0.000    0.000    0.000    0.000    0.000 
#    0.000    0.000    0.000    0.000    0.000    0.000 
#
# Total GULP energy -198414.376073 kJ/mol
# GULP energy per Si atom -12400.898505 kJ/mol
# Density = 2.251188 g / cm^3
# Si number density = 22.563237 Si / 1000 Ang^3
#
#
#
# Elastic Constant Matrix: (Units=GPa)
#
#
# Indices 1 2 3 4 5 6 
#
# 1 85.3507 41.8249 16.1088 0.0000 20.7299 0.0000
# 2 41.8249 117.4172 32.8667 0.0000 19.4640 0.0000
# 3 16.1088 32.8667 79.3130 0.0000 18.5987 0.0000
# 4 0.0000 0.0000 0.0000 36.8220 0.0000 9.1610
# 5 20.7299 19.4640 18.5987 0.0000 44.4972 0.0000
# 6 0.0000 0.0000 0.0000 9.1610 0.0000 40.7401
#
#
#
# Elastic Compliance Matrix: (Units=1/GPa)
#
#
# Indices 1 2 3 4 5 6 
#
# 1 0.015188 -0.004568 -0.000001 0.000000 -0.005077 0.000000
# 2 -0.004568 0.011339 -0.003444 0.000000 -0.001392 0.000000
# 3 -0.000001 -0.003444 0.015169 0.000000 -0.004833 0.000000
# 4 0.000000 0.000000 0.000000 0.028767 0.000000 -0.006469
# 5 -0.005077 -0.001392 -0.004833 0.000000 0.027468 0.000000
# 6 0.000000 0.000000 0.000000 -0.006469 0.000000 0.026000
#
#
# Mechanical properties :
#
#
# Convention : Reuss Voigt Hill
#
# Bulk Modulus (GPa) = 38.95834 51.52020 45.23927
# Shear Modulus (GPa) = 33.66656 37.16388 35.41522
#
# Velocity S-wave (km/s) = 3.86696 4.06285 3.96611
# Velocity P-wave (km/s) = 6.10259 6.70017 6.40835
#
# Compressibility (1/GPa) = 0.02566844
#
# Stress axis : x y z
#
# Youngs Moduli (GPa) = 65.84010 88.19295 65.92288
#
# Poissons Ratio (x) = 0.40289 0.00008
# Poissons Ratio (y) = 0.30077 0.22707
# Poissons Ratio (z) = 0.00008 0.30378
#
# Static dielectric constant tensor:
#      x y z
#    x 4.067410 0.000000 0.111420 
#    y 0.000000 4.169830 0.000000 
#    z 0.111420 0.000000 4.119870 
# 
# 
# High freq. dielectric constant tensor:
#      x y z
#    x 1.887850 0.000000 0.008690 
#    y 0.000000 1.891860 0.000000 
#    z 0.008690 0.000000 1.900320 
# 
# From -- ./inp_files/52455.got.cif
#   From: 2010.03.12/outbox.cif.g09.slc.cpg/sg5_27_cif.got.tgz:52455.got - 2010.03.31 09:47:26.
