data_PCOD8051035
_publ_section_title
;
Structure prediction by ZEFSAII (Michael W. Deem and Ramdas Pophale) SiO2 
 PCOD8051035
Probable space group: C 2
;
_chemical_formula_sum "Si O2"
_cell_formula_units_Z 32
_cell_length_a 21.527371
_cell_length_b 14.547420
_cell_length_c 15.972291
_cell_angle_alpha 90.000000
_cell_angle_beta 162.232046
_cell_angle_gamma 90.000000
_cell_volume 1526.425699
_symmetry_space_group_name_H-M "C 2"
_symmetry_group_IT_number 5
_symmetry_cell_setting 'monoclinic'
loop_
_space_group_symop_operation_xyz
x,y,z
-x,y,-z
1/2+x,1/2+y,z
1/2-x,1/2+y,-z
loop_
_atom_site_type_symbol
_atom_site_label
_atom_site_fract_x
_atom_site_fract_y
_atom_site_fract_z
Si Si1 0.513337 0.387920 0.653202
Si Si2 0.933793 0.160945 0.739194
Si Si3 0.622083 0.466208 0.242844
Si Si4 0.703390 0.127423 0.108038
Si Si5 0.877230 0.310836 0.927182
Si Si6 0.951530 0.791829 0.740883
Si Si7 0.543982 0.947296 0.841014
Si Si8 0.560618 0.591626 0.436244
O O1 0.353475 0.349745 0.378514
O O2 0.515827 0.313667 0.729072
O O3 0.434663 0.485716 0.585722
O O4 0.742462 0.404129 0.914858
O O5 0.750133 0.230691 0.520395
O O6 0.961209 0.152971 0.674432
O O7 0.910171 0.062718 0.752135
O O8 0.129891 0.213398 0.031222
O O9 0.543089 0.384195 0.198746
O O10 0.865044 0.446369 0.541164
O O11 0.500000 0.466612 0.000000
O O12 0.737599 0.111742 0.251185
O O13 0.889026 0.113807 0.283432
O O14 0.629141 0.230706 0.007246
O O15 0.541162 0.051842 0.869938
O O16 0.016115 0.383857 0.157111
O O17 0.000000 0.294365 0.000000
#
# Coordination Sequence:
#
# PCOD8051035 Si02
#       8
#     4   4   4   4   4   4   4   4
#     4  11  23  45  72 101 136 178 242 287 346 407
#     4  12  25  42  69 102 143 183 231 288 349 423
#     4  12  27  47  66 100 144 190 232 289 360 420
#     4  10  23  41  70 100 134 176 230 292 350 410
#     4  12  23  40  71 106 136 179 231 292 351 410
#     4  12  25  42  67 101 137 183 233 287 340 425
#     4  11  23  44  72 103 135 180 233 304 341 410
#     4  10  23  45  67  99 136 179 230 293 351 405
#
# _framework density 20.964006000000001
#
# number of rings (size 3 to 8) (size 9 to 14) (size 15 to 20)
#    0.000    0.750    6.250    0.750    3.500    0.000 
#    2.250    0.000    0.000    0.000    0.000    0.000 
#    0.000    0.000    0.000    0.000    0.000    0.000 
#
# Total GULP energy -198280.781539 kJ/mol
# GULP energy per Si atom -12392.548846 kJ/mol
# Density = 2.091629 g / cm^3
# Si number density = 20.964006 Si / 1000 Ang^3
#
#
#
# Elastic Constant Matrix: (Units=GPa)
#
#
# Indices 1 2 3 4 5 6 
#
# 1 99.6815 55.8028 53.8465 0.0046 -30.0040 0.0021
# 2 55.8028 131.9290 51.7360 0.0087 -1.7771 0.0089
# 3 53.8465 51.7360 143.6466 0.0059 -23.7973 0.0088
# 4 0.0046 0.0087 0.0059 41.3518 0.0090 -7.3032
# 5 -30.0040 -1.7771 -23.7973 0.0090 22.6092 0.0077
# 6 0.0021 0.0089 0.0088 -7.3032 0.0077 35.2294
#
#
#
# Elastic Compliance Matrix: (Units=1/GPa)
#
#
# Indices 1 2 3 4 5 6 
#
# 1 0.026213 -0.010427 -0.000537 -0.000009 0.033402 -0.000008
# 2 -0.010427 0.013171 -0.003580 0.000003 -0.016571 0.000002
# 3 -0.000537 -0.003580 0.010038 -0.000003 0.009571 -0.000004
# 4 -0.000009 0.000003 -0.000003 0.025102 -0.000028 0.005204
# 5 0.033402 -0.016571 0.009571 -0.000028 0.097328 -0.000027
# 6 -0.000008 0.000002 -0.000004 0.005204 -0.000027 0.029464
#
#
# Mechanical properties :
#
#
# Convention : Reuss Voigt Hill
#
# Bulk Modulus (GPa) = 49.18025 77.55864 63.36944
# Shear Modulus (GPa) = 21.08076 34.09620 27.58848
#
# Velocity S-wave (km/s) = 3.17451 4.03726 3.63160
# Velocity P-wave (km/s) = 6.07840 7.66871 6.91939
#
# Compressibility (1/GPa) = 0.02033336
#
# Stress axis : x y z
#
# Youngs Moduli (GPa) = 38.14876 75.92445 99.62144
#
# Poissons Ratio (x) = 0.79166 0.05351
# Poissons Ratio (y) = 0.39778 0.35667
# Poissons Ratio (z) = 0.02049 0.27183
#
# Static dielectric constant tensor:
#      x y z
#    x 3.626100 0.000000 -0.241560 
#    y 0.000000 4.230250 0.000000 
#    z -0.241560 0.000000 4.199600 
# 
# 
# High freq. dielectric constant tensor:
#      x y z
#    x 1.811400 0.000000 -0.010130 
#    y 0.000000 1.838780 0.000000 
#    z -0.010130 0.000000 1.824750 
# 
# From -- ./inp_files/57184.got.cif
#   From: 2010.03.12/outbox.cif.g09.slc.cpg/sg5_29_cif.got.tgz:57184.got - 2010.03.31 09:47:26.
