data_PCOD8051183
_publ_section_title
;
Structure prediction by ZEFSAII (Michael W. Deem and Ramdas Pophale) SiO2 
 PCOD8051183
Probable space group: C 2
;
_chemical_formula_sum "Si O2"
_cell_formula_units_Z 26
_cell_length_a 6.593442
_cell_length_b 14.181018
_cell_length_c 17.757425
_cell_angle_alpha 90.000000
_cell_angle_beta 133.707956
_cell_angle_gamma 90.000000
_cell_volume 1200.219041
_symmetry_space_group_name_H-M "C 2"
_symmetry_group_IT_number 5
_symmetry_cell_setting 'monoclinic'
loop_
_space_group_symop_operation_xyz
x,y,z
-x,y,-z
1/2+x,1/2+y,z
1/2-x,1/2+y,-z
loop_
_atom_site_type_symbol
_atom_site_label
_atom_site_fract_x
_atom_site_fract_y
_atom_site_fract_z
Si Si1 0.823429 0.531260 0.579841
Si Si2 0.948015 0.464510 0.779547
Si Si3 0.000000 0.386249 0.500000
Si Si4 0.371992 0.102560 0.889588
Si Si5 0.260095 0.295482 0.809275
Si Si6 0.204273 0.166219 0.285278
Si Si7 0.997989 0.824216 0.284130
O O1 0.500000 0.565374 0.500000
O O2 0.925312 0.504210 0.689475
O O3 0.855633 0.447126 0.529149
O O4 0.037298 0.614054 0.606915
O O5 0.013120 0.547207 0.855832
O O6 0.655364 0.418865 0.729125
O O7 0.188086 0.383716 0.845104
O O8 0.772743 0.316412 0.406281
O O9 0.441885 0.214916 0.898744
O O10 0.030419 0.090761 0.803883
O O11 0.500000 0.063501 0.000000
O O12 0.428654 0.337979 0.783611
O O13 0.966402 0.242848 0.706225
O O14 0.324512 0.227363 0.246553
#
# Coordination Sequence:
#
# PCOD8051183 Si02
#       7
#     4   4   2   4   4   4   4
#     4  12  24  40  64 100 135 183 225 268 335 408
#     4  11  22  43  68  98 139 176 222 287 344 399
#     4  12  24  36  64  96 138 182 236 258 326 428
#     4  10  23  48  71 100 133 177 235 286 350 414
#     4   9  22  42  70  90 137 175 222 285 346 398
#     4   9  24  42  64  95 134 173 222 289 337 398
#     4  11  21  43  64  97 135 181 220 284 334 407
#
# _framework density 21.662713
#
# number of rings (size 3 to 8) (size 9 to 14) (size 15 to 20)
#    0.923    0.615    3.077    1.846    1.077    0.000 
#    2.769    3.077    0.000    0.000    0.000    0.000 
#    0.000    0.000    0.000    0.000    0.000    0.000 
#
# Total GULP energy -161056.773959 kJ/mol
# GULP energy per Si atom -12388.982612 kJ/mol
# Density = 2.161341 g / cm^3
# Si number density = 21.662713 Si / 1000 Ang^3
#
#
#
# Elastic Constant Matrix: (Units=GPa)
#
#
# Indices 1 2 3 4 5 6 
#
# 1 89.7533 21.4040 18.2498 -0.0003 -13.1119 -0.0001
# 2 21.4040 82.1674 14.6202 -0.0002 -6.8208 0.0000
# 3 18.2498 14.6202 64.0315 -0.0007 -19.9680 -0.0003
# 4 -0.0003 -0.0002 -0.0007 23.1497 -0.0003 -4.2059
# 5 -13.1119 -6.8208 -19.9680 -0.0003 31.7057 -0.0001
# 6 -0.0001 0.0000 -0.0003 -4.2059 -0.0001 31.1871
#
#
#
# Elastic Compliance Matrix: (Units=1/GPa)
#
#
# Indices 1 2 3 4 5 6 
#
# 1 0.012675 -0.002672 -0.001925 0.000000 0.003454 0.000000
# 2 -0.002672 0.013282 -0.002146 0.000000 0.000401 0.000000
# 3 -0.001925 -0.002146 0.020239 0.000001 0.011488 0.000000
# 4 0.000000 0.000000 0.000001 0.044282 0.000001 0.005972
# 5 0.003454 0.000401 0.011488 0.000001 0.040290 0.000000
# 6 0.000000 0.000000 0.000000 0.005972 0.000000 0.032870
#
#
# Mechanical properties :
#
#
# Convention : Reuss Voigt Hill
#
# Bulk Modulus (GPa) = 30.57346 38.27779 34.42562
# Shear Modulus (GPa) = 26.59193 29.32039 27.95616
#
# Velocity S-wave (km/s) = 3.50743 3.68298 3.59628
# Velocity P-wave (km/s) = 5.52692 5.98281 5.75938
#
# Compressibility (1/GPa) = 0.03270810
#
# Stress axis : x y z
#
# Youngs Moduli (GPa) = 78.89512 75.29263 49.41062
#
# Poissons Ratio (x) = 0.20122 0.09512
# Poissons Ratio (y) = 0.21084 0.10603
# Poissons Ratio (z) = 0.15188 0.16157
#
# Static dielectric constant tensor:
#      x y z
#    x 4.018250 0.000000 0.101230 
#    y 0.000000 3.886670 0.000000 
#    z 0.101230 0.000000 3.422750 
# 
# 
# High freq. dielectric constant tensor:
#      x y z
#    x 1.864200 0.000000 0.001570 
#    y 0.000000 1.853670 0.000000 
#    z 0.001570 0.000000 1.801550 
# 
# From -- ./inp_files/58818.got.cif
#   From: 2010.03.12/outbox.cif.g09.slc.cpg/sg5_30_cif.got.tgz:58818.got - 2010.03.31 09:47:26.
