data_PCOD8051593
_publ_section_title
;
Structure prediction by ZEFSAII (Michael W. Deem and Ramdas Pophale) SiO2 
 PCOD8051593
Probable space group: C 2
;
_chemical_formula_sum "Si O2"
_cell_formula_units_Z 32
_cell_length_a 10.735965
_cell_length_b 16.280211
_cell_length_c 15.627047
_cell_angle_alpha 90.000000
_cell_angle_beta 147.012307
_cell_angle_gamma 90.000000
_cell_volume 1487.110084
_symmetry_space_group_name_H-M "C 2"
_symmetry_group_IT_number 5
_symmetry_cell_setting 'monoclinic'
loop_
_space_group_symop_operation_xyz
x,y,z
-x,y,-z
1/2+x,1/2+y,z
1/2-x,1/2+y,-z
loop_
_atom_site_type_symbol
_atom_site_label
_atom_site_fract_x
_atom_site_fract_y
_atom_site_fract_z
Si Si1 0.156545 0.140270 0.672843
Si Si2 0.489305 0.291488 0.891040
Si Si3 0.520986 0.585072 0.766924
Si Si4 0.263358 0.949824 0.323804
Si Si5 0.044084 0.333649 0.925163
Si Si6 0.236271 0.577318 0.824613
Si Si7 0.046822 0.524779 0.892728
Si Si8 0.289557 0.205941 0.315218
O O1 0.338109 0.213841 0.776989
O O2 0.287776 0.053419 0.757812
O O3 0.000000 0.146921 0.500000
O O4 0.996208 0.136237 0.664390
O O5 0.375208 0.372878 0.789507
O O6 0.500000 0.296422 0.000000
O O7 0.737382 0.284791 0.988130
O O8 0.386242 0.497896 0.690308
O O9 0.409598 0.642886 0.773455
O O10 0.785747 0.569594 0.943562
O O11 0.500000 0.918271 0.500000
O O12 0.318461 0.009049 0.277348
O O13 0.066717 0.427966 0.914505
O O14 0.815384 0.296841 0.749734
O O15 0.000000 0.320134 0.000000
O O16 0.096766 0.550856 0.825836
O O17 0.141470 0.666661 0.737347
O O18 0.500000 0.581244 0.000000
O O19 0.500000 0.206870 0.500000
#
# Coordination Sequence:
#
# PCOD8051593 Si02
#       8
#     4   4   4   4   4   4   4   4
#     4  12  29  43  68 101 143 187 232 290 362 416
#     4  12  25  49  73 103 139 194 244 289 347 432
#     4  11  22  46  68 100 138 184 234 287 349 423
#     4  11  23  40  73 105 141 176 232 299 351 412
#     4  12  26  44  72 105 140 184 241 292 353 421
#     4  11  20  40  71 102 128 181 236 278 338 423
#     4  12  24  44  70  98 138 185 236 279 347 432
#     4  11  25  41  71 103 141 176 232 297 351 408
#
# _framework density 21.518246000000001
#
# number of rings (size 3 to 8) (size 9 to 14) (size 15 to 20)
#    0.000    0.500    3.750    6.750    5.250    0.500 
#    0.000    2.500    0.000    0.000    0.000    0.000 
#    0.000    0.000    0.000    0.000    0.000    0.000 
#
# Total GULP energy -198375.571351 kJ/mol
# GULP energy per Si atom -12398.473209 kJ/mol
# Density = 2.146927 g / cm^3
# Si number density = 21.518246 Si / 1000 Ang^3
#
#
#
# Elastic Constant Matrix: (Units=GPa)
#
#
# Indices 1 2 3 4 5 6 
#
# 1 113.3049 29.7447 39.1063 -0.0001 -17.0971 -0.0011
# 2 29.7447 92.1979 57.0751 0.0038 -2.5972 0.0007
# 3 39.1063 57.0751 141.2936 0.0015 -7.4115 -0.0025
# 4 -0.0001 0.0038 0.0015 27.3548 0.0015 1.0145
# 5 -17.0971 -2.5972 -7.4115 0.0015 32.0322 -0.0012
# 6 -0.0011 0.0007 -0.0025 1.0145 -0.0012 23.6672
#
#
#
# Elastic Compliance Matrix: (Units=1/GPa)
#
#
# Indices 1 2 3 4 5 6 
#
# 1 0.010818 -0.002212 -0.001829 0.000000 0.005172 0.000001
# 2 -0.002212 0.014916 -0.005478 -0.000002 -0.001239 -0.000001
# 3 -0.001829 -0.005478 0.009842 0.000000 0.000857 0.000001
# 4 0.000000 -0.000002 0.000000 0.036615 -0.000002 -0.001570
# 5 0.005172 -0.001239 0.000857 -0.000002 0.034077 0.000002
# 6 0.000001 -0.000001 0.000001 -0.001570 0.000002 0.042320
#
#
# Mechanical properties :
#
#
# Convention : Reuss Voigt Hill
#
# Bulk Modulus (GPa) = 60.47045 66.51651 63.49348
# Shear Modulus (GPa) = 28.87861 31.33554 30.10707
#
# Velocity S-wave (km/s) = 3.66738 3.82020 3.74457
# Velocity P-wave (km/s) = 6.78939 7.10193 6.94742
#
# Compressibility (1/GPa) = 0.01653700
#
# Stress axis : x y z
#
# Youngs Moduli (GPa) = 92.43697 67.04130 101.60973
#
# Poissons Ratio (x) = 0.14829 0.18588
# Poissons Ratio (y) = 0.20447 0.55663
# Poissons Ratio (z) = 0.16910 0.36726
#
# Static dielectric constant tensor:
#      x y z
#    x 4.228080 0.000000 0.007160 
#    y 0.000000 4.140090 0.000010 
#    z 0.007160 0.000010 3.855770 
# 
# 
# High freq. dielectric constant tensor:
#      x y z
#    x 1.855840 0.000000 -0.005050 
#    y 0.000000 1.849130 0.000000 
#    z -0.005050 0.000000 1.846960 
# 
# From -- ./inp_files/53485.got.cif
#   From: 2010.03.12/outbox.cif.g09.slc.cpg/sg5_27_cif.got.tgz:53485.got - 2010.03.31 09:47:26.
