data_PCOD8051061
_publ_section_title
;
Structure prediction by ZEFSAII (Michael W. Deem and Ramdas Pophale) SiO2 
 PCOD8051061
Probable space group: C 2
;
_chemical_formula_sum "Si O2"
_cell_formula_units_Z 32
_cell_length_a 14.391984
_cell_length_b 8.578788
_cell_length_c 11.537286
_cell_angle_alpha 90.000000
_cell_angle_beta 82.010233
_cell_angle_gamma 90.000000
_cell_volume 1410.632648
_symmetry_space_group_name_H-M "C 2"
_symmetry_group_IT_number 5
_symmetry_cell_setting 'monoclinic'
loop_
_space_group_symop_operation_xyz
x,y,z
-x,y,-z
1/2+x,1/2+y,z
1/2-x,1/2+y,-z
loop_
_atom_site_type_symbol
_atom_site_label
_atom_site_fract_x
_atom_site_fract_y
_atom_site_fract_z
Si Si1 0.386699 0.016400 0.271849
Si Si2 0.688573 0.100814 0.130468
Si Si3 0.777729 0.541576 0.624540
Si Si4 0.600500 0.529718 0.244969
Si Si5 0.280441 0.910090 0.087684
Si Si6 0.500436 0.270356 0.140965
Si Si7 0.044961 0.337585 0.377039
Si Si8 0.793114 0.902946 0.571984
O O1 0.408009 0.189670 0.213604
O O2 0.364656 0.906915 0.165284
O O3 0.475011 0.951866 0.324063
O O4 0.295277 0.010085 0.369973
O O5 0.741655 0.037189 0.235099
O O6 0.750347 0.236179 0.065068
O O7 0.585693 0.165870 0.175728
O O8 0.679759 0.964346 0.040911
O O9 0.872848 0.445816 0.586777
O O10 0.778615 0.719483 0.582202
O O11 0.695485 0.454449 0.564929
O O12 0.694497 0.515646 0.150965
O O13 0.514999 0.444804 0.190593
O O14 0.576984 0.708846 0.277545
O O15 0.616822 0.444724 0.366188
O O16 0.500000 0.274761 0.000000
O O17 0.000000 0.258827 0.500000
#
# Coordination Sequence:
#
# PCOD8051061 Si02
#       8
#     4   4   4   4   4   4   4   4
#     4  11  21  42  67  97 132 172 225 280 337 411
#     4  11  22  42  65 100 134 179 228 281 340 409
#     4  12  23  44  71  95 138 179 226 285 344 402
#     4  10  24  47  63  97 141 172 225 287 335 408
#     4  10  23  42  67  95 134 173 234 272 336 416
#     4  11  21  43  70  97 138 182 223 282 348 411
#     4  12  25  44  67  98 138 178 227 290 349 404
#     4  11  23  44  68  99 133 177 230 277 335 417
#
# _framework density 22.684857999999998
#
# number of rings (size 3 to 8) (size 9 to 14) (size 15 to 20)
#    0.000    1.000    7.500    0.750    1.750    0.000 
#    6.750    2.500    0.000    0.000    0.000    0.000 
#    0.000    0.000    0.000    0.000    0.000    0.000 
#
# Total GULP energy -198276.625281 kJ/mol
# GULP energy per Si atom -12392.289080 kJ/mol
# Density = 2.263323 g / cm^3
# Si number density = 22.684858 Si / 1000 Ang^3
#
#
#
# Elastic Constant Matrix: (Units=GPa)
#
#
# Indices 1 2 3 4 5 6 
#
# 1 41.3336 24.1532 7.9950 0.0000 10.3714 0.0000
# 2 24.1532 56.8197 38.1681 0.0000 -3.9775 0.0000
# 3 7.9950 38.1681 114.3118 0.0000 16.8531 0.0000
# 4 0.0000 0.0000 0.0000 35.1060 0.0000 13.0347
# 5 10.3714 -3.9775 16.8531 0.0000 28.3714 0.0000
# 6 0.0000 0.0000 0.0000 13.0347 0.0000 27.0842
#
#
#
# Elastic Compliance Matrix: (Units=1/GPa)
#
#
# Indices 1 2 3 4 5 6 
#
# 1 0.045020 -0.027664 0.009959 0.000000 -0.026251 0.000000
# 2 -0.027664 0.041684 -0.015712 0.000000 0.025290 0.000000
# 3 0.009959 -0.015712 0.015518 0.000000 -0.015061 0.000000
# 4 0.000000 0.000000 0.000000 0.034683 0.000000 -0.016692
# 5 -0.026251 0.025290 -0.015061 0.000000 0.057335 0.000000
# 6 0.000000 0.000000 0.000000 -0.016692 0.000000 0.044955
#
#
# Mechanical properties :
#
#
# Convention : Reuss Voigt Hill
#
# Bulk Modulus (GPa) = 28.25939 39.23309 33.74624
# Shear Modulus (GPa) = 15.73193 27.58889 21.66041
#
# Velocity S-wave (km/s) = 2.63629 3.49116 3.09340
# Velocity P-wave (km/s) = 4.66381 5.79511 5.25997
#
# Compressibility (1/GPa) = 0.03538647
#
# Stress axis : x y z
#
# Youngs Moduli (GPa) = 22.21245 23.99016 64.44145
#
# Poissons Ratio (x) = 0.66368 -0.64174
# Poissons Ratio (y) = 0.61450 1.01248
# Poissons Ratio (z) = -0.22120 0.37692
#
# Static dielectric constant tensor:
#      x y z
#    x 4.057580 0.000000 0.232830 
#    y 0.000000 3.987470 0.000000 
#    z 0.232830 0.000000 4.356950 
# 
# 
# High freq. dielectric constant tensor:
#      x y z
#    x 1.871240 0.000000 0.024660 
#    y 0.000000 1.887590 0.000000 
#    z 0.024660 0.000000 1.913000 
# 
# From -- ./inp_files/41978.got.cif
#   From: 2010.03.12/outbox.cif.g09.slc.cpg/sg5_21_cif.got.tgz:41978.got - 2010.03.31 09:47:26.
