data_PCOD8051065
_publ_section_title
;
Structure prediction by ZEFSAII (Michael W. Deem and Ramdas Pophale) SiO2 
 PCOD8051065
Probable space group: C 2
;
_chemical_formula_sum "Si O2"
_cell_formula_units_Z 16
_cell_length_a 8.096402
_cell_length_b 19.872231
_cell_length_c 7.100866
_cell_angle_alpha 90.000000
_cell_angle_beta 143.569711
_cell_angle_gamma 90.000000
_cell_volume 678.457431
_symmetry_space_group_name_H-M "C 2"
_symmetry_group_IT_number 5
_symmetry_cell_setting 'monoclinic'
loop_
_space_group_symop_operation_xyz
x,y,z
-x,y,-z
1/2+x,1/2+y,z
1/2-x,1/2+y,-z
loop_
_atom_site_type_symbol
_atom_site_label
_atom_site_fract_x
_atom_site_fract_y
_atom_site_fract_z
Si Si1 0.748661 0.990670 0.126189
Si Si2 0.000000 0.067196 0.000000
Si Si3 0.955349 0.365099 0.675378
Si Si4 0.553650 0.277578 0.834217
Si Si5 0.000000 0.661271 0.500000
O O1 0.000000 0.973292 0.500000
O O2 0.500000 0.035304 0.000000
O O3 0.555412 0.927117 0.891095
O O4 0.880951 0.022473 0.061176
O O5 0.238659 0.114129 0.300236
O O6 0.638443 0.339936 0.416861
O O7 0.000000 0.385407 0.500000
O O8 0.130356 0.300284 0.899700
O O9 0.521055 0.207410 0.701400
O O10 0.500000 0.261238 0.000000
#
# Coordination Sequence:
#
# PCOD8051065 Si02
#       5
#     4   2   4   4   2
#     4  12  28  46  75 111 143 197 242 302 367 431
#     4  12  30  50  70 104 152 196 250 296 352 432
#     4  10  23  42  71 105 150 178 227 307 369 423
#     4  10  23  42  68 106 139 186 232 296 363 422
#     4  12  26  46  74  98 146 202 238 294 350 446
#
# _framework density 23.582912
#
# number of rings (size 3 to 8) (size 9 to 14) (size 15 to 20)
#    0.000    1.000    0.000    4.500   15.750    3.000 
#    0.000    0.000    0.000    0.000    0.000    0.000 
#    0.000    0.000    0.000    0.000    0.000    0.000 
#
# Total GULP energy -99140.428393 kJ/mol
# GULP energy per Si atom -12392.553549 kJ/mol
# Density = 2.352924 g / cm^3
# Si number density = 23.582912 Si / 1000 Ang^3
#
#
#
# Elastic Constant Matrix: (Units=GPa)
#
#
# Indices 1 2 3 4 5 6 
#
# 1 152.0250 60.4559 61.6062 0.0000 -1.9520 0.0000
# 2 60.4559 99.2191 38.5231 0.0000 -18.2725 0.0000
# 3 61.6062 38.5231 145.2666 0.0000 -8.2259 0.0000
# 4 0.0000 0.0000 0.0000 32.9725 0.0000 -13.4019
# 5 -1.9520 -18.2725 -8.2259 0.0000 42.4954 0.0000
# 6 0.0000 0.0000 0.0000 -13.4019 0.0000 22.1195
#
#
#
# Elastic Compliance Matrix: (Units=1/GPa)
#
#
# Indices 1 2 3 4 5 6 
#
# 1 0.009831 -0.005306 -0.002898 0.000000 -0.002391 0.000000
# 2 -0.005306 0.014934 -0.001376 0.000000 0.005912 0.000000
# 3 -0.002898 -0.001376 0.008530 0.000000 0.000927 0.000000
# 4 0.000000 0.000000 0.000000 0.040237 0.000000 0.024379
# 5 -0.002391 0.005912 0.000927 0.000000 0.026143 0.000000
# 6 0.000000 0.000000 0.000000 0.024379 0.000000 0.059980
#
#
# Mechanical properties :
#
#
# Convention : Reuss Voigt Hill
#
# Bulk Modulus (GPa) = 70.73251 79.74235 75.23743
# Shear Modulus (GPa) = 27.24393 35.24586 31.24489
#
# Velocity S-wave (km/s) = 3.40257 3.87014 3.64386
# Velocity P-wave (km/s) = 6.74499 7.33878 7.04814
#
# Compressibility (1/GPa) = 0.01413777
#
# Stress axis : x y z
#
# Youngs Moduli (GPa) = 101.71576 66.96013 117.23234
#
# Poissons Ratio (x) = 0.35526 0.33971
# Poissons Ratio (y) = 0.53966 0.16127
# Poissons Ratio (z) = 0.29475 0.09211
#
# Static dielectric constant tensor:
#      x y z
#    x 4.397970 0.000000 0.012890 
#    y 0.000000 3.977370 0.000000 
#    z 0.012890 0.000000 4.773070 
# 
# 
# High freq. dielectric constant tensor:
#      x y z
#    x 1.960060 0.000000 -0.000170 
#    y 0.000000 1.910320 0.000000 
#    z -0.000170 0.000000 1.963350 
# 
# From -- ./inp_files/16963.got.cif
#   From: 2010.03.12/outbox.cif.g09.slc.cpg/sg5_9_cif.got.tgz:16963.got - 2010.03.31 09:47:26.
