data_PCOD8051906
_publ_section_title
;
Structure prediction by ZEFSAII (Michael W. Deem and Ramdas Pophale) SiO2 
 PCOD8051906
Probable space group: C 2
;
_chemical_formula_sum "Si O2"
_cell_formula_units_Z 30
_cell_length_a 20.233135
_cell_length_b 11.698004
_cell_length_c 11.314262
_cell_angle_alpha 90.000000
_cell_angle_beta 151.961852
_cell_angle_gamma 90.000000
_cell_volume 1258.791656
_symmetry_space_group_name_H-M "C 2"
_symmetry_group_IT_number 5
_symmetry_cell_setting 'monoclinic'
loop_
_space_group_symop_operation_xyz
x,y,z
-x,y,-z
1/2+x,1/2+y,z
1/2-x,1/2+y,-z
loop_
_atom_site_type_symbol
_atom_site_label
_atom_site_fract_x
_atom_site_fract_y
_atom_site_fract_z
Si Si1 0.199295 0.327750 0.116310
Si Si2 0.000000 0.051917 0.000000
Si Si3 0.660665 0.123810 0.780907
Si Si4 0.186114 0.933370 0.105981
Si Si5 0.806397 0.239240 0.639456
Si Si6 0.761253 0.591722 0.831749
Si Si7 0.993608 0.735747 0.122768
Si Si8 0.404996 0.781944 0.550807
O O1 0.069752 0.305548 0.822775
O O2 0.318638 0.239808 0.262293
O O3 0.145228 0.305818 0.165357
O O4 0.261995 0.455552 0.204823
O O5 0.094712 0.131177 0.234488
O O6 0.115621 0.985260 0.110343
O O7 0.500000 0.084496 0.500000
O O8 0.782422 0.031814 0.938453
O O9 0.693999 0.142080 0.970607
O O10 0.340354 0.880203 0.367608
O O11 0.076903 0.831026 0.900109
O O12 0.645979 0.203596 0.412012
O O13 0.821543 0.308348 0.542110
O O14 0.626820 0.657785 0.561434
O O15 0.896767 0.622429 0.964632
O O16 0.000000 0.786286 0.000000
#
# Coordination Sequence:
#
# PCOD8051906 Si02
#       8
#     4   2   4   4   4   4   4   4
#     4  12  27  47  71 111 153 204 256 318 393 463
#     4  12  22  40  70 110 144 196 242 308 380 456
#     4  12  27  52  74 106 153 208 261 316 390 479
#     4  11  23  46  76 104 146 200 260 312 386 460
#     4  12  22  43  70 109 156 186 246 317 392 462
#     4  11  28  47  75 112 148 204 260 322 391 467
#     4  11  23  47  73 111 145 193 256 321 385 458
#     4  11  24  47  73 113 148 196 256 320 389 461
#
# _framework density 23.832377999999999
#
# number of rings (size 3 to 8) (size 9 to 14) (size 15 to 20)
#    0.000    0.533    6.000    1.600    5.600    4.800 
#    2.400    0.000    0.000    0.000    0.000    0.000 
#    0.000    0.000    0.000    0.000    0.000    0.000 
#
# Total GULP energy -185855.260654 kJ/mol
# GULP energy per Si atom -12390.350710 kJ/mol
# Density = 2.377813 g / cm^3
# Si number density = 23.832378 Si / 1000 Ang^3
#
#
#
# Elastic Constant Matrix: (Units=GPa)
#
#
# Indices 1 2 3 4 5 6 
#
# 1 82.3757 30.7884 8.5208 0.0000 -8.1784 0.0000
# 2 30.7884 138.6828 28.7853 0.0000 4.4786 0.0000
# 3 8.5208 28.7853 109.2707 0.0000 6.3630 0.0000
# 4 0.0000 0.0000 0.0000 16.8466 0.0000 4.8694
# 5 -8.1784 4.4786 6.3630 0.0000 42.3217 0.0000
# 6 0.0000 0.0000 0.0000 4.8694 0.0000 27.8425
#
#
#
# Elastic Compliance Matrix: (Units=1/GPa)
#
#
# Indices 1 2 3 4 5 6 
#
# 1 0.013617 -0.003029 -0.000440 0.000000 0.003018 0.000000
# 2 -0.003029 0.008313 -0.001885 0.000000 -0.001182 0.000000
# 3 -0.000440 -0.001885 0.009761 0.000000 -0.001353 0.000000
# 4 0.000000 0.000000 0.000000 0.062519 0.000000 -0.010934
# 5 0.003018 -0.001182 -0.001353 0.000000 0.024540 0.000000
# 6 0.000000 0.000000 0.000000 -0.010934 0.000000 0.037829
#
#
# Mechanical properties :
#
#
# Convention : Reuss Voigt Hill
#
# Bulk Modulus (GPa) = 47.65673 51.83534 49.74603
# Shear Modulus (GPa) = 28.68939 34.88448 31.78694
#
# Velocity S-wave (km/s) = 3.47334 3.83004 3.65605
# Velocity P-wave (km/s) = 6.01045 6.43087 6.22421
#
# Compressibility (1/GPa) = 0.02098340
#
# Stress axis : x y z
#
# Youngs Moduli (GPa) = 73.43866 120.29964 102.44688
#
# Poissons Ratio (x) = 0.36442 0.04503
# Poissons Ratio (y) = 0.22246 0.19309
# Poissons Ratio (z) = 0.03228 0.22674
#
# Static dielectric constant tensor:
#      x y z
#    x 4.589030 0.000000 0.102920 
#    y 0.000000 4.381420 0.000000 
#    z 0.102920 0.000000 4.280180 
# 
# 
# High freq. dielectric constant tensor:
#      x y z
#    x 1.944040 0.000000 0.007420 
#    y 0.000000 1.939520 0.000000 
#    z 0.007420 0.000000 1.945150 
# 
# From -- ./inp_files/46509.got.cif
#   From: 2010.03.12/outbox.cif.g09.slc.cpg/sg5_24_cif.got.tgz:46509.got - 2010.03.31 09:47:26.
