data_PCOD8051604
_publ_section_title
;
Structure prediction by ZEFSAII (Michael W. Deem and Ramdas Pophale) SiO2 
 PCOD8051604
Probable space group: C 2
;
_chemical_formula_sum "Si O2"
_cell_formula_units_Z 20
_cell_length_a 26.456580
_cell_length_b 7.545751
_cell_length_c 21.334549
_cell_angle_alpha 90.000000
_cell_angle_beta 12.355969
_cell_angle_gamma 90.000000
_cell_volume 911.386039
_symmetry_space_group_name_H-M "C 2"
_symmetry_group_IT_number 5
_symmetry_cell_setting 'monoclinic'
loop_
_space_group_symop_operation_xyz
x,y,z
-x,y,-z
1/2+x,1/2+y,z
1/2-x,1/2+y,-z
loop_
_atom_site_type_symbol
_atom_site_label
_atom_site_fract_x
_atom_site_fract_y
_atom_site_fract_z
Si Si1 0.278046 0.750000 0.540361
Si Si2 0.847215 0.585236 0.123377
Si Si3 0.182373 0.187996 0.835935
Si Si4 0.470117 0.874959 0.439901
Si Si5 0.967286 0.006077 0.855883
O O1 0.370246 0.841556 0.491788
O O2 0.489289 0.632612 0.256323
O O3 0.209514 0.897701 0.572288
O O4 0.033687 0.639688 0.844210
O O5 0.736881 0.389609 0.247886
O O6 0.632581 0.725784 0.388526
O O7 0.000000 0.590272 0.000000
O O8 0.404668 0.070130 0.545347
O O9 0.070604 0.111899 0.034150
O O10 0.000000 0.178308 0.000000
O O11 0.753301 0.873321 0.097509
#
# Coordination Sequence:
#
# PCOD8051604 Si02
#       5
#     4   4   4   4   4
#     4  11  24  46  67 102 149 181 228 298 358 409
#     4   9  20  41  72  98 132 188 232 279 351 417
#     4  11  20  43  75 101 137 186 238 286 345 424
#     4  11  23  47  70 100 142 188 236 288 343 428
#     4  12  25  43  71 104 143 187 232 292 361 408
#
# _framework density 21.944597000000002
#
# number of rings (size 3 to 8) (size 9 to 14) (size 15 to 20)
#    0.000    1.200    4.000    2.400    0.000    1.600 
#   21.600    0.000    0.000    0.000    0.000    0.000 
#    0.000    0.000    0.000    0.000    0.000    0.000 
#
# Total GULP energy -123975.358010 kJ/mol
# GULP energy per Si atom -12397.535801 kJ/mol
# Density = 2.189465 g / cm^3
# Si number density = 21.944597 Si / 1000 Ang^3
#
#
#
# Elastic Constant Matrix: (Units=GPa)
#
#
# Indices 1 2 3 4 5 6 
#
# 1 71.8622 42.7421 43.6919 0.0314 9.5247 0.0099
# 2 42.7421 136.7086 50.9965 0.0317 -2.5794 0.0039
# 3 43.6919 50.9965 115.1459 0.0738 2.4110 -0.0094
# 4 0.0314 0.0317 0.0738 28.9303 -0.0195 11.2644
# 5 9.5247 -2.5794 2.4110 -0.0195 32.5947 -0.0097
# 6 0.0099 0.0039 -0.0094 11.2644 -0.0097 16.3773
#
#
#
# Elastic Compliance Matrix: (Units=1/GPa)
#
#
# Indices 1 2 3 4 5 6 
#
# 1 0.020925 -0.004482 -0.005829 0.000000 -0.006038 -0.000019
# 2 -0.004482 0.009754 -0.002667 0.000003 0.002279 -0.000002
# 3 -0.005829 -0.002667 0.012065 -0.000035 0.000600 0.000035
# 4 0.000000 0.000003 -0.000035 0.047209 0.000021 -0.032470
# 5 -0.006038 0.002279 0.000600 0.000021 0.032580 0.000008
# 6 -0.000019 -0.000002 0.000035 -0.032470 0.000008 0.083393
#
#
# Mechanical properties :
#
#
# Convention : Reuss Voigt Hill
#
# Bulk Modulus (GPa) = 59.56238 66.50864 63.03551
# Shear Modulus (GPa) = 21.05456 27.99955 24.52706
#
# Velocity S-wave (km/s) = 3.10085 3.57588 3.34680
# Velocity P-wave (km/s) = 6.32625 6.88640 6.61226
#
# Compressibility (1/GPa) = 0.01678912
#
# Stress axis : x y z
#
# Youngs Moduli (GPa) = 47.78867 102.52232 82.88490
#
# Poissons Ratio (x) = 0.45951 0.48311
# Poissons Ratio (y) = 0.21419 0.22105
# Poissons Ratio (z) = 0.27854 0.27342
#
# Static dielectric constant tensor:
#      x y z
#    x 3.905750 -0.000200 0.061190 
#    y -0.000200 4.430610 -0.000290 
#    z 0.061190 -0.000290 3.822240 
# 
# 
# High freq. dielectric constant tensor:
#      x y z
#    x 1.871610 0.000000 -0.004310 
#    y 0.000000 1.867970 0.000000 
#    z -0.004310 0.000000 1.850480 
# 
# From -- ./inp_files/26621.got.cif
#   From: 2010.03.12/outbox.cif.g09.slc.cpg/sg5_14_cif.got.tgz:26621.got - 2010.03.31 09:47:26.
