data_PCOD8051464
_publ_section_title
;
Structure prediction by ZEFSAII (Michael W. Deem and Ramdas Pophale) SiO2 
 PCOD8051464
Probable space group: C 2
;
_chemical_formula_sum "Si O2"
_cell_formula_units_Z 30
_cell_length_a 26.382868
_cell_length_b 5.409263
_cell_length_c 8.348339
_cell_angle_alpha 90.000000
_cell_angle_beta 106.655371
_cell_angle_gamma 90.000000
_cell_volume 1141.422834
_symmetry_space_group_name_H-M "C 2"
_symmetry_group_IT_number 5
_symmetry_cell_setting 'monoclinic'
loop_
_space_group_symop_operation_xyz
x,y,z
-x,y,-z
1/2+x,1/2+y,z
1/2-x,1/2+y,-z
loop_
_atom_site_type_symbol
_atom_site_label
_atom_site_fract_x
_atom_site_fract_y
_atom_site_fract_z
Si Si1 0.353207 0.808120 0.828360
Si Si2 0.253250 0.511682 0.771065
Si Si3 0.612380 0.422907 0.644371
Si Si4 0.652421 0.923221 0.521261
Si Si5 0.024863 0.525183 0.842834
Si Si6 0.826946 0.697088 0.037040
Si Si7 0.000000 0.746343 0.500000
Si Si8 0.055933 0.024971 0.962092
O O1 0.291598 0.736397 0.759676
O O2 0.367315 0.950272 0.678029
O O3 0.394139 0.575580 0.875713
O O4 0.363678 0.984679 0.990778
O O5 0.216699 0.431766 0.588388
O O6 0.213102 0.576441 0.875417
O O7 0.291934 0.293797 0.858830
O O8 0.634896 0.656079 0.571656
O O9 0.638614 0.421105 0.848644
O O10 0.549008 0.428973 0.578589
O O11 0.628085 0.152070 0.593901
O O12 0.052093 0.258151 0.835085
O O13 0.988724 0.578936 0.651348
O O14 0.065414 0.759917 0.883196
O O15 0.000000 0.499747 0.000000
O O16 0.000000 0.992732 0.000000
#
# Coordination Sequence:
#
# PCOD8051464 Si02
#       8
#     4   4   4   4   4   4   2   4
#     4  12  28  43  81 112 150 213 254 328 406 472
#     4  11  25  45  76 102 155 192 262 320 393 466
#     4  11  29  50  76 115 155 208 261 327 395 482
#     4  11  30  49  75 113 160 198 261 333 404 473
#     4  10  25  46  73 105 151 197 253 315 381 455
#     4  11  24  48  73 108 147 207 257 323 391 477
#     4  12  28  48  86 110 162 206 270 324 400 462
#     4  10  25  46  73 107 153 196 251 313 385 470
#
# _framework density 26.282989000000001
#
# number of rings (size 3 to 8) (size 9 to 14) (size 15 to 20)
#    0.000    1.067    1.333    1.600   18.667    2.133 
#    0.000    0.000    0.000    0.000    0.000    0.000 
#    0.000    0.000    0.000    0.000    0.000    0.000 
#
# Total GULP energy -185834.620233 kJ/mol
# GULP energy per Si atom -12388.974682 kJ/mol
# Density = 2.622317 g / cm^3
# Si number density = 26.282989 Si / 1000 Ang^3
#
#
#
# Elastic Constant Matrix: (Units=GPa)
#
#
# Indices 1 2 3 4 5 6 
#
# 1 110.9741 31.2518 37.5619 0.0000 24.7401 0.0000
# 2 31.2518 155.9870 19.7016 0.0000 14.0496 0.0000
# 3 37.5619 19.7016 121.5621 0.0000 1.8458 0.0000
# 4 0.0000 0.0000 0.0000 30.3125 0.0000 14.7958
# 5 24.7401 14.0496 1.8458 0.0000 42.2538 0.0000
# 6 0.0000 0.0000 0.0000 14.7958 0.0000 28.6172
#
#
#
# Elastic Compliance Matrix: (Units=1/GPa)
#
#
# Indices 1 2 3 4 5 6 
#
# 1 0.011974 -0.001396 -0.003376 0.000000 -0.006399 0.000000
# 2 -0.001396 0.006905 -0.000666 0.000000 -0.001449 0.000000
# 3 -0.003376 -0.000666 0.009350 0.000000 0.001790 0.000000
# 4 0.000000 0.000000 0.000000 0.044125 0.000000 -0.022814
# 5 -0.006399 -0.001449 0.001790 0.000000 0.027817 0.000000
# 6 0.000000 0.000000 0.000000 -0.022814 0.000000 0.046739
#
#
# Mechanical properties :
#
#
# Convention : Reuss Voigt Hill
#
# Bulk Modulus (GPa) = 57.62806 62.83932 60.23369
# Shear Modulus (GPa) = 30.56771 40.23725 35.40248
#
# Velocity S-wave (km/s) = 3.41401 3.91695 3.67409
# Velocity P-wave (km/s) = 6.12489 6.66463 6.40045
#
# Compressibility (1/GPa) = 0.01735266
#
# Stress axis : x y z
#
# Youngs Moduli (GPa) = 83.51670 144.81981 106.94921
#
# Poissons Ratio (x) = 0.20218 0.36110
# Poissons Ratio (y) = 0.11660 0.07120
# Poissons Ratio (z) = 0.28198 0.09641
#
# Static dielectric constant tensor:
#      x y z
#    x 5.102040 0.000000 0.228190 
#    y 0.000000 5.141200 0.000000 
#    z 0.228190 0.000000 5.137200 
# 
# 
# High freq. dielectric constant tensor:
#      x y z
#    x 2.069490 0.000000 0.010170 
#    y 0.000000 2.061370 0.000000 
#    z 0.010170 0.000000 2.055140 
# 
# From -- ./inp_files/32299.got.cif
#   From: 2010.03.12/outbox.cif.g09.slc.cpg/sg5_17_cif.got.tgz:32299.got - 2010.03.31 09:47:26.
