data_PCOD8051473
_publ_section_title
;
Structure prediction by ZEFSAII (Michael W. Deem and Ramdas Pophale) SiO2 
 PCOD8051473
Probable space group: C 2
;
_chemical_formula_sum "Si O2"
_cell_formula_units_Z 28
_cell_length_a 11.364780
_cell_length_b 19.049585
_cell_length_c 8.142884
_cell_angle_alpha 90.000000
_cell_angle_beta 45.790874
_cell_angle_gamma 90.000000
_cell_volume 1263.637562
_symmetry_space_group_name_H-M "C 2"
_symmetry_group_IT_number 5
_symmetry_cell_setting 'monoclinic'
loop_
_space_group_symop_operation_xyz
x,y,z
-x,y,-z
1/2+x,1/2+y,z
1/2-x,1/2+y,-z
loop_
_atom_site_type_symbol
_atom_site_label
_atom_site_fract_x
_atom_site_fract_y
_atom_site_fract_z
Si Si1 0.518655 0.039130 0.656692
Si Si2 0.180828 0.447945 0.746301
Si Si3 0.500000 0.274308 0.000000
Si Si4 0.726382 0.163042 0.418274
Si Si5 0.500000 0.575960 0.000000
Si Si6 0.174294 0.184352 0.326050
Si Si7 0.617928 0.318750 0.534269
Si Si8 0.829630 0.040947 0.854354
O O1 0.500000 0.000004 0.500000
O O2 0.555032 0.121484 0.589971
O O3 0.666785 0.003641 0.611940
O O4 0.356671 0.033375 0.915160
O O5 0.236398 0.375032 0.610509
O O6 0.329613 0.479132 0.716779
O O7 0.000000 0.435549 0.000000
O O8 0.663921 0.228809 0.879306
O O9 0.533227 0.318345 0.799541
O O10 0.809041 0.151759 0.512151
O O11 0.696116 0.244109 0.410749
O O12 0.842082 0.126228 0.171063
O O13 0.457040 0.527509 0.881913
O O14 0.142710 0.119315 0.236401
O O15 0.000000 0.228301 0.500000
O O16 0.500000 0.339265 0.500000
#
# Coordination Sequence:
#
# PCOD8051473 Si02
#       8
#     4   4   2   4   2   4   4   4
#     4  11  21  41  69  98 133 178 233 299 360 421
#     4  10  25  47  70  98 139 198 236 294 369 439
#     4  10  26  48  69 109 144 192 246 298 366 440
#     4  11  23  39  66 104 136 175 237 298 355 429
#     4  12  24  34  65 113 134 178 232 316 342 438
#     4  11  21  39  69 106 142 183 228 300 365 427
#     4  11  26  48  70  98 145 197 236 300 368 437
#     4  11  22  40  67 104 140 179 237 293 365 427
#
# _framework density 22.158252000000001
#
# number of rings (size 3 to 8) (size 9 to 14) (size 15 to 20)
#    0.000    1.143    4.286    2.143    4.000    1.714 
#    7.714    1.429    0.000    0.000    0.000    0.000 
#    0.000    0.000    0.000    0.000    0.000    0.000 
#
# Total GULP energy -173437.101178 kJ/mol
# GULP energy per Si atom -12388.364370 kJ/mol
# Density = 2.210782 g / cm^3
# Si number density = 22.158252 Si / 1000 Ang^3
#
#
#
# Elastic Constant Matrix: (Units=GPa)
#
#
# Indices 1 2 3 4 5 6 
#
# 1 133.7697 42.7969 38.7083 0.0000 11.5375 0.0000
# 2 42.7969 114.5474 35.9178 0.0000 0.0766 0.0000
# 3 38.7083 35.9178 88.8976 0.0000 1.8655 0.0000
# 4 0.0000 0.0000 0.0000 24.5209 0.0000 0.7042
# 5 11.5375 0.0766 1.8655 0.0000 41.0037 0.0000
# 6 0.0000 0.0000 0.0000 0.7042 0.0000 15.9794
#
#
#
# Elastic Compliance Matrix: (Units=1/GPa)
#
#
# Indices 1 2 3 4 5 6 
#
# 1 0.009378 -0.002563 -0.002995 0.000000 -0.002498 0.000000
# 2 -0.002563 0.010698 -0.003224 0.000000 0.000848 0.000000
# 3 -0.002995 -0.003224 0.013851 0.000000 0.000219 0.000000
# 4 0.000000 0.000000 0.000000 0.040833 0.000000 -0.001799
# 5 -0.002498 0.000848 0.000219 0.000000 0.025079 0.000000
# 6 0.000000 0.000000 0.000000 -0.001799 0.000000 0.062660
#
#
# Mechanical properties :
#
#
# Convention : Reuss Voigt Hill
#
# Bulk Modulus (GPa) = 61.11701 63.56231 62.33966
# Shear Modulus (GPa) = 26.95154 30.95357 28.95255
#
# Velocity S-wave (km/s) = 3.49136 3.74161 3.61865
# Velocity P-wave (km/s) = 6.62531 6.88579 6.75680
#
# Compressibility (1/GPa) = 0.01636206
#
# Stress axis : x y z
#
# Youngs Moduli (GPa) = 106.63698 93.47602 72.19532
#
# Poissons Ratio (x) = 0.23955 0.21626
# Poissons Ratio (y) = 0.27328 0.23278
# Poissons Ratio (z) = 0.31942 0.30139
#
# Static dielectric constant tensor:
#      x y z
#    x 4.355140 0.000000 0.172110 
#    y 0.000000 3.672170 0.000000 
#    z 0.172110 0.000000 4.155950 
# 
# 
# High freq. dielectric constant tensor:
#      x y z
#    x 1.894180 0.000000 0.002950 
#    y 0.000000 1.837410 0.000000 
#    z 0.002950 0.000000 1.885140 
# 
# From -- ./inp_files/21767.got.cif
#   From: 2010.03.12/outbox.cif.g09.slc.cpg/sg5_11_cif.got.tgz:21767.got - 2010.03.31 09:47:26.
