data_PCOD8051712
_publ_section_title
;
Structure prediction by ZEFSAII (Michael W. Deem and Ramdas Pophale) SiO2 
 PCOD8051712
Probable space group: C 2
;
_chemical_formula_sum "Si O2"
_cell_formula_units_Z 20
_cell_length_a 29.069793
_cell_length_b 5.068558
_cell_length_c 18.875899
_cell_angle_alpha 90.000000
_cell_angle_beta 161.362134
_cell_angle_gamma 90.000000
_cell_volume 888.835141
_symmetry_space_group_name_H-M "C 2"
_symmetry_group_IT_number 5
_symmetry_cell_setting 'monoclinic'
loop_
_space_group_symop_operation_xyz
x,y,z
-x,y,-z
1/2+x,1/2+y,z
1/2-x,1/2+y,-z
loop_
_atom_site_type_symbol
_atom_site_label
_atom_site_fract_x
_atom_site_fract_y
_atom_site_fract_z
Si Si1 0.156451 0.131410 0.252318
Si Si2 0.369963 0.409941 0.360516
Si Si3 0.444313 0.922721 0.144131
Si Si4 0.630666 0.913730 0.547328
Si Si5 0.398388 0.413568 0.681233
O O1 0.258466 0.373070 0.426532
O O2 0.224477 0.983329 0.284203
O O3 0.150183 0.920647 0.307632
O O4 0.000000 0.238260 0.000000
O O5 0.500000 0.495498 0.500000
O O6 0.354514 0.618537 0.401543
O O7 0.396294 0.119101 0.429158
O O8 0.226436 0.398523 0.104320
O O9 0.491311 0.934835 0.294121
O O10 0.523000 0.683854 0.220678
O O11 0.488000 0.181134 0.164168
#
# Coordination Sequence:
#
# PCOD8051712 Si02
#       5
#     4   4   4   4   4
#     4  11  22  41  67  96 135 175 213 256 312 385
#     4  12  26  45  69  95 125 168 221 273 326 378
#     4  11  24  45  66  95 137 166 210 271 315 382
#     4  11  25  42  66  98 127 170 217 261 325 381
#     4  11  24  41  66 100 134 173 211 255 318 382
#
# _framework density 22.501359999999998
#
# number of rings (size 3 to 8) (size 9 to 14) (size 15 to 20)
#    0.000    0.800    0.000    9.000    0.000    3.200 
#    0.000   21.000    0.000    0.000    0.000    0.000 
#    0.000    0.000    0.000    0.000    0.000    0.000 
#
# Total GULP energy -124061.460509 kJ/mol
# GULP energy per Si atom -12406.146051 kJ/mol
# Density = 2.245015 g / cm^3
# Si number density = 22.501360 Si / 1000 Ang^3
#
#
#
# Elastic Constant Matrix: (Units=GPa)
#
#
# Indices 1 2 3 4 5 6 
#
# 1 86.3397 31.2272 71.7790 -0.0001 19.4245 0.0000
# 2 31.2272 235.1174 93.0731 -0.0020 57.6429 0.0004
# 3 71.7790 93.0731 196.1174 -0.0010 29.8162 0.0002
# 4 -0.0001 -0.0020 -0.0010 24.2872 -0.0007 -11.6675
# 5 19.4245 57.6429 29.8162 -0.0007 50.8668 0.0001
# 6 0.0000 0.0004 0.0002 -11.6675 0.0001 38.6557
#
#
#
# Elastic Compliance Matrix: (Units=1/GPa)
#
#
# Indices 1 2 3 4 5 6 
#
# 1 0.017324 0.001249 -0.006271 0.000000 -0.004355 0.000000
# 2 0.001249 0.006751 -0.002663 0.000000 -0.006567 0.000000
# 3 -0.006271 -0.002663 0.008602 0.000000 0.000371 0.000000
# 4 0.000000 0.000000 0.000000 0.048157 0.000000 0.014535
# 5 -0.004355 -0.006567 0.000371 0.000000 0.028547 0.000000
# 6 0.000000 0.000000 0.000000 0.014535 0.000000 0.030257
#
#
# Mechanical properties :
#
#
# Convention : Reuss Voigt Hill
#
# Bulk Modulus (GPa) = 57.77919 101.08148 79.43033
# Shear Modulus (GPa) = 31.09917 44.19496 37.64707
#
# Velocity S-wave (km/s) = 3.72170 4.43663 4.09479
# Velocity P-wave (km/s) = 6.64845 8.44185 7.59824
#
# Compressibility (1/GPa) = 0.01730727
#
# Stress axis : x y z
#
# Youngs Moduli (GPa) = 57.72404 148.11721 116.25531
#
# Poissons Ratio (x) = -0.18507 0.72908
# Poissons Ratio (y) = -0.07212 0.30959
# Poissons Ratio (z) = 0.36201 0.39443
#
# Static dielectric constant tensor:
#      x y z
#    x 3.977430 0.000000 -0.181590 
#    y 0.000000 3.969050 0.000000 
#    z -0.181590 0.000000 4.208320 
# 
# 
# High freq. dielectric constant tensor:
#      x y z
#    x 1.882410 0.000000 -0.008240 
#    y 0.000000 1.893700 0.000000 
#    z -0.008240 0.000000 1.896580 
# 
# From -- ./inp_files/47750.got.cif
#   From: 2010.03.12/outbox.cif.g09.slc.cpg/sg5_24_cif.got.tgz:47750.got - 2010.03.31 09:47:26.
