data_PCOD8051678
_publ_section_title
;
Structure prediction by ZEFSAII (Michael W. Deem and Ramdas Pophale) SiO2 
 PCOD8051678
Probable space group: C 2
;
_chemical_formula_sum "Si O2"
_cell_formula_units_Z 32
_cell_length_a 26.927039
_cell_length_b 8.122693
_cell_length_c 14.631803
_cell_angle_alpha 90.000000
_cell_angle_beta 150.387006
_cell_angle_gamma 90.000000
_cell_volume 1581.377864
_symmetry_space_group_name_H-M "C 2"
_symmetry_group_IT_number 5
_symmetry_cell_setting 'monoclinic'
loop_
_space_group_symop_operation_xyz
x,y,z
-x,y,-z
1/2+x,1/2+y,z
1/2-x,1/2+y,-z
loop_
_atom_site_type_symbol
_atom_site_label
_atom_site_fract_x
_atom_site_fract_y
_atom_site_fract_z
Si Si1 0.913022 0.136760 0.299807
Si Si2 0.723859 0.717972 0.761823
Si Si3 0.456129 0.752582 0.085606
Si Si4 0.968616 0.382612 0.612113
Si Si5 0.270544 0.922001 0.712228
Si Si6 0.921070 0.701583 0.619051
Si Si7 0.402365 0.439786 0.095621
Si Si8 0.084589 0.504279 0.203498
O O1 0.810646 0.156462 0.192942
O O2 0.000000 0.046975 0.500000
O O3 0.955384 0.322418 0.345784
O O4 0.889859 0.031722 0.172452
O O5 0.628517 0.764673 0.547025
O O6 0.777308 0.568896 0.795839
O O7 0.794985 0.877046 0.887564
O O8 0.467588 0.861200 0.194303
O O9 0.457611 0.559039 0.110704
O O10 0.546639 0.817201 0.165896
O O11 0.348180 0.783806 0.868342
O O12 0.926912 0.569653 0.544785
O O13 0.161247 0.841207 0.531842
O O14 0.307140 0.991971 0.672495
O O15 0.900033 0.616792 0.683000
O O16 0.030089 0.780172 0.789310
O O17 0.000000 0.583261 0.000000
#
# Coordination Sequence:
#
# PCOD8051678 Si02
#       8
#     4   4   4   4   4   4   4   4
#     4   9  20  39  58  81 116 153 189 238 286 333
#     4  11  22  38  60  86 117 152 190 235 285 339
#     4   9  19  38  59  82 114 147 186 235 284 334
#     4   9  19  38  59  82 114 147 186 235 284 334
#     4  11  22  38  60  86 117 152 190 235 285 339
#     4  11  22  37  60  87 115 152 192 234 283 340
#     4  11  22  37  60  87 115 152 192 234 283 340
#     4   9  20  39  58  81 116 153 189 238 286 333
#
# _framework density 20.235517999999999
#
# number of rings (size 3 to 8) (size 9 to 14) (size 15 to 20)
#    0.000    2.000    0.000    5.250    0.000    6.000 
#    0.000   13.750    0.000    0.000    0.000    0.000 
#    0.000    0.000    0.000    0.000    0.000    0.000 
#
# Total GULP energy -198280.199286 kJ/mol
# GULP energy per Si atom -12392.512455 kJ/mol
# Density = 2.018946 g / cm^3
# Si number density = 20.235518 Si / 1000 Ang^3
#
#
#
# Elastic Constant Matrix: (Units=GPa)
#
#
# Indices 1 2 3 4 5 6 
#
# 1 119.0841 53.0971 23.7209 0.0000 9.9163 0.0000
# 2 53.0971 101.4019 18.5949 0.0000 3.4085 0.0000
# 3 23.7209 18.5949 58.5758 0.0000 -0.7815 0.0000
# 4 0.0000 0.0000 0.0000 38.5591 0.0000 -3.5102
# 5 9.9163 3.4085 -0.7815 0.0000 33.0888 0.0000
# 6 0.0000 0.0000 0.0000 -3.5102 0.0000 32.8199
#
#
#
# Elastic Compliance Matrix: (Units=1/GPa)
#
#
# Indices 1 2 3 4 5 6 
#
# 1 0.011689 -0.005462 -0.003040 0.000000 -0.003012 0.000000
# 2 -0.005462 0.013068 -0.001933 0.000000 0.000245 0.000000
# 3 -0.003040 -0.001933 0.018937 0.000000 0.001557 0.000000
# 4 0.000000 0.000000 0.000000 0.026189 0.000000 0.002801
# 5 -0.003012 0.000245 0.001557 0.000000 0.031136 0.000000
# 6 0.000000 0.000000 0.000000 0.002801 0.000000 0.030769
#
#
# Mechanical properties :
#
#
# Convention : Reuss Voigt Hill
#
# Bulk Modulus (GPa) = 43.81314 52.20972 48.01143
# Shear Modulus (GPa) = 31.19782 33.13682 32.16732
#
# Velocity S-wave (km/s) = 3.93075 4.05106 3.99136
# Velocity P-wave (km/s) = 6.50382 6.90931 6.70963
#
# Compressibility (1/GPa) = 0.02282420
#
# Stress axis : x y z
#
# Youngs Moduli (GPa) = 85.54876 76.52187 52.80546
#
# Poissons Ratio (x) = 0.41797 0.16052
# Poissons Ratio (y) = 0.46728 0.10209
# Poissons Ratio (z) = 0.26006 0.14794
#
# Static dielectric constant tensor:
#      x y z
#    x 3.874820 0.000000 -0.104960 
#    y 0.000000 3.574750 0.000000 
#    z -0.104960 0.000000 3.630190 
# 
# 
# High freq. dielectric constant tensor:
#      x y z
#    x 1.792300 0.000000 -0.002780 
#    y 0.000000 1.777510 0.000000 
#    z -0.002780 0.000000 1.793210 
# 
# From -- ./inp_files/54205.got.cif
#   From: 2010.03.12/outbox.cif.g09.slc.cpg/sg5_28_cif.got.tgz:54205.got - 2010.03.31 09:47:26.
