data_PCOD8051392
_publ_section_title
;
Structure prediction by ZEFSAII (Michael W. Deem and Ramdas Pophale) SiO2 
 PCOD8051392
Probable space group: C 2
;
_chemical_formula_sum "Si O2"
_cell_formula_units_Z 14
_cell_length_a 9.964265
_cell_length_b 10.971901
_cell_length_c 5.232651
_cell_angle_alpha 90.000000
_cell_angle_beta 87.870879
_cell_angle_gamma 90.000000
_cell_volume 571.674731
_symmetry_space_group_name_H-M "C 2"
_symmetry_group_IT_number 5
_symmetry_cell_setting 'monoclinic'
loop_
_space_group_symop_operation_xyz
x,y,z
-x,y,-z
1/2+x,1/2+y,z
1/2-x,1/2+y,-z
loop_
_atom_site_type_symbol
_atom_site_label
_atom_site_fract_x
_atom_site_fract_y
_atom_site_fract_z
Si Si1 0.896622 0.485330 0.811825
Si Si2 0.500000 0.202866 0.500000
Si Si3 0.711183 0.772569 0.446477
Si Si4 0.648160 0.623406 0.952279
O O1 0.963543 0.614354 0.737475
O O2 0.864147 0.404005 0.560775
O O3 0.752949 0.511560 0.956568
O O4 0.000000 0.418520 0.000000
O O5 0.372454 0.288772 0.452837
O O6 0.653187 0.692828 0.679744
O O7 0.680357 0.716503 0.173783
O O8 0.500000 0.567523 0.000000
#
# Coordination Sequence:
#
# PCOD8051392 Si02
#       4
#     4   2   4   4
#     4  11  24  46  74 101 144 191 235 289 363 415
#     4  10  24  48  66 110 140 186 238 300 334 444
#     4  11  25  44  75 101 144 186 237 292 356 416
#     4  11  25  46  69 108 142 179 245 293 343 433
#
# _framework density 24.489449
#
# number of rings (size 3 to 8) (size 9 to 14) (size 15 to 20)
#    0.000    1.143    2.857    1.714    8.000    0.000 
#   20.571    0.000    0.000    0.000    0.000    0.000 
#    0.000    0.000    0.000    0.000    0.000    0.000 
#
# Total GULP energy -86797.695314 kJ/mol
# GULP energy per Si atom -12399.670759 kJ/mol
# Density = 2.443371 g / cm^3
# Si number density = 24.489449 Si / 1000 Ang^3
#
#
#
# Elastic Constant Matrix: (Units=GPa)
#
#
# Indices 1 2 3 4 5 6 
#
# 1 225.8368 42.2716 52.1640 0.0000 19.2717 0.0000
# 2 42.2716 59.9105 29.8257 0.0000 19.0173 0.0000
# 3 52.1640 29.8257 125.8966 0.0000 12.3463 0.0000
# 4 0.0000 0.0000 0.0000 32.6706 0.0000 6.4204
# 5 19.2717 19.0173 12.3463 0.0000 42.2640 0.0000
# 6 0.0000 0.0000 0.0000 6.4204 0.0000 21.3526
#
#
#
# Elastic Compliance Matrix: (Units=1/GPa)
#
#
# Indices 1 2 3 4 5 6 
#
# 1 0.005359 -0.002806 -0.001483 0.000000 -0.000748 0.000000
# 2 -0.002806 0.022958 -0.003489 0.000000 -0.008031 0.000000
# 3 -0.001483 -0.003489 0.009434 0.000000 -0.000510 0.000000
# 4 0.000000 0.000000 0.000000 0.032531 0.000000 -0.009782
# 5 -0.000748 -0.008031 -0.000510 0.000000 0.027765 0.000000
# 6 0.000000 0.000000 0.000000 -0.009782 0.000000 0.049774
#
#
# Mechanical properties :
#
#
# Convention : Reuss Voigt Hill
#
# Bulk Modulus (GPa) = 45.05171 73.35182 59.20176
# Shear Modulus (GPa) = 29.27859 38.41628 33.84743
#
# Velocity S-wave (km/s) = 3.46144 3.96496 3.72172
# Velocity P-wave (km/s) = 5.86615 7.13994 6.53416
#
# Compressibility (1/GPa) = 0.02219672
#
# Stress axis : x y z
#
# Youngs Moduli (GPa) = 186.58556 43.55867 106.00209
#
# Poissons Ratio (x) = 0.12222 0.15715
# Poissons Ratio (y) = 0.52356 0.36979
# Poissons Ratio (z) = 0.27662 0.15196
#
# Static dielectric constant tensor:
#      x y z
#    x 5.081350 0.000000 0.082670 
#    y 0.000000 4.171030 0.000000 
#    z 0.082670 0.000000 4.363610 
# 
# 
# High freq. dielectric constant tensor:
#      x y z
#    x 2.005330 0.000000 0.003690 
#    y 0.000000 1.935840 0.000000 
#    z 0.003690 0.000000 1.980070 
# 
# From -- ./inp_files/1541.got.cif
#   From: 2010.03.12/outbox.cif.g09.slc.cpg/sg5_1_cif.got.tgz:1541.got - 2010.03.31 09:47:26.
