data_PCOD8051168
_publ_section_title
;
Structure prediction by ZEFSAII (Michael W. Deem and Ramdas Pophale) SiO2 
 PCOD8051168
Probable space group: C 2
;
_chemical_formula_sum "Si O2"
_cell_formula_units_Z 22
_cell_length_a 13.651129
_cell_length_b 5.108184
_cell_length_c 24.244970
_cell_angle_alpha 90.000000
_cell_angle_beta 147.134859
_cell_angle_gamma 90.000000
_cell_volume 917.460515
_symmetry_space_group_name_H-M "C 2"
_symmetry_group_IT_number 5
_symmetry_cell_setting 'monoclinic'
loop_
_space_group_symop_operation_xyz
x,y,z
-x,y,-z
1/2+x,1/2+y,z
1/2-x,1/2+y,-z
loop_
_atom_site_type_symbol
_atom_site_label
_atom_site_fract_x
_atom_site_fract_y
_atom_site_fract_z
Si Si1 0.713291 0.782610 0.715723
Si Si2 0.444621 0.285604 0.719581
Si Si3 0.691699 0.837155 0.500907
Si Si4 0.124880 0.283540 0.838389
Si Si5 0.384648 0.784029 0.834611
Si Si6 0.000000 0.535039 0.000000
O O1 0.862072 0.785969 0.740098
O O2 0.522971 0.829482 0.596237
O O3 0.726899 0.500382 0.750911
O O4 0.772292 0.013372 0.785422
O O5 0.287311 0.234204 0.601197
O O6 0.540408 0.564671 0.757615
O O7 0.591845 0.053344 0.789700
O O8 0.751012 0.637203 0.481117
O O9 0.337473 0.226684 0.941396
O O10 0.037311 0.283516 0.858556
O O11 0.473632 0.842878 0.935488
#
# Coordination Sequence:
#
# PCOD8051168 Si02
#       6
#     4   4   4   4   4   2
#     4  10  23  46  68  97 140 183 225 285 348 424
#     4  10  23  46  68  97 140 183 225 285 348 424
#     4  12  25  38  69 106 138 176 228 282 345 434
#     4  10  25  45  71 104 139 182 241 291 352 424
#     4  10  25  45  71 104 139 182 241 291 352 424
#     4  12  28  46  80 100 144 194 240 310 364 414
#
# _framework density 23.979234000000002
#
# number of rings (size 3 to 8) (size 9 to 14) (size 15 to 20)
#    0.000    1.455    0.000    2.727    7.636    7.273 
#    0.000    7.273    0.000    0.000    0.000    0.000 
#    0.000    0.000    0.000    0.000    0.000    0.000 
#
# Total GULP energy -136380.376143 kJ/mol
# GULP energy per Si atom -12398.216013 kJ/mol
# Density = 2.392466 g / cm^3
# Si number density = 23.979234 Si / 1000 Ang^3
#
#
#
# Elastic Constant Matrix: (Units=GPa)
#
#
# Indices 1 2 3 4 5 6 
#
# 1 80.1352 21.1895 47.8839 -0.0003 -1.2844 0.0006
# 2 21.1895 141.9826 47.3065 -0.0019 1.9520 -0.0001
# 3 47.8839 47.3065 168.3225 0.0001 -1.7124 0.0003
# 4 -0.0003 -0.0019 0.0001 39.5528 -0.0002 -0.9738
# 5 -1.2844 1.9520 -1.7124 -0.0002 38.3674 0.0008
# 6 0.0006 -0.0001 0.0003 -0.9738 0.0008 5.5446
#
#
#
# Elastic Compliance Matrix: (Units=1/GPa)
#
#
# Indices 1 2 3 4 5 6 
#
# 1 0.015146 -0.000917 -0.004047 0.000000 0.000373 -0.000002
# 2 -0.000917 0.007836 -0.001947 0.000000 -0.000516 0.000000
# 3 -0.004047 -0.001947 0.007642 0.000000 0.000305 0.000000
# 4 0.000000 0.000000 0.000000 0.025392 0.000000 0.004460
# 5 0.000373 -0.000516 0.000305 0.000000 0.026116 -0.000004
# 6 -0.000002 0.000000 0.000000 0.004460 -0.000004 0.181140
#
#
# Mechanical properties :
#
#
# Convention : Reuss Voigt Hill
#
# Bulk Modulus (GPa) = 59.51528 69.24445 64.37987
# Shear Modulus (GPa) = 17.68692 34.96366 26.32529
#
# Velocity S-wave (km/s) = 2.71881 3.82262 3.31696
# Velocity P-wave (km/s) = 5.89316 6.95865 6.44795
#
# Compressibility (1/GPa) = 0.01680241
#
# Stress axis : x y z
#
# Youngs Moduli (GPa) = 66.02557 127.62211 130.84822
#
# Poissons Ratio (x) = 0.11704 0.52955
# Poissons Ratio (y) = 0.06055 0.25470
# Poissons Ratio (z) = 0.26721 0.24842
#
# Static dielectric constant tensor:
#      x y z
#    x 4.452780 -0.000010 0.060560 
#    y -0.000010 5.512310 0.000000 
#    z 0.060560 0.000000 4.213820 
# 
# 
# High freq. dielectric constant tensor:
#      x y z
#    x 1.964770 0.000000 0.002840 
#    y 0.000000 1.965150 0.000000 
#    z 0.002840 0.000000 1.951280 
# 
# From -- ./inp_files/57447.got.cif
#   From: 2010.03.12/outbox.cif.g09.slc.cpg/sg5_29_cif.got.tgz:57447.got - 2010.03.31 09:47:26.
