data_PCOD8051726
_publ_section_title
;
Structure prediction by ZEFSAII (Michael W. Deem and Ramdas Pophale) SiO2 
 PCOD8051726
Probable space group: C 2
;
_chemical_formula_sum "Si O2"
_cell_formula_units_Z 26
_cell_length_a 19.520287
_cell_length_b 9.061824
_cell_length_c 7.580423
_cell_angle_alpha 90.000000
_cell_angle_beta 128.625307
_cell_angle_gamma 90.000000
_cell_volume 1047.568477
_symmetry_space_group_name_H-M "C 2"
_symmetry_group_IT_number 5
_symmetry_cell_setting 'monoclinic'
loop_
_space_group_symop_operation_xyz
x,y,z
-x,y,-z
1/2+x,1/2+y,z
1/2-x,1/2+y,-z
loop_
_atom_site_type_symbol
_atom_site_label
_atom_site_fract_x
_atom_site_fract_y
_atom_site_fract_z
Si Si1 0.238001 0.802330 0.927167
Si Si2 0.500000 0.137119 0.000000
Si Si3 0.972595 0.107505 0.637465
Si Si4 0.432285 0.282005 0.536424
Si Si5 0.179952 0.499357 0.213662
Si Si6 0.811308 0.207529 0.578441
Si Si7 0.836476 0.046718 0.972984
O O1 0.165449 0.732676 0.675243
O O2 0.299442 0.928362 0.941837
O O3 0.300727 0.661400 0.067644
O O4 0.192552 0.878084 0.026091
O O5 0.541040 0.235234 0.223492
O O6 0.576757 0.034459 0.047695
O O7 0.921561 0.958448 0.501962
O O8 0.000000 0.191422 0.500000
O O9 0.908871 0.206822 0.652107
O O10 0.059055 0.056728 0.880630
O O11 0.500000 0.219330 0.500000
O O12 0.205476 0.377912 0.402773
O O13 0.236431 0.649059 0.325639
O O14 0.801192 0.098849 0.728492
#
# Coordination Sequence:
#
# PCOD8051726 Si02
#       7
#     4   2   4   4   4   4   4
#     4  11  24  45  68 102 142 181 240 293 345 431
#     4  12  28  44  74 102 144 192 224 302 368 410
#     4  11  22  42  68 100 137 184 232 290 345 422
#     4  11  24  47  69 105 142 181 241 286 350 439
#     4  11  26  46  68 101 141 184 238 291 358 424
#     4  11  25  44  72 100 145 182 243 292 352 432
#     4  11  24  40  72  98 138 185 231 296 356 405
#
# _framework density 24.819381
#
# number of rings (size 3 to 8) (size 9 to 14) (size 15 to 20)
#    0.000    0.923    4.615    2.308    8.615    2.462 
#    0.000    0.769    0.000    0.000    0.000    0.000 
#    0.000    0.000    0.000    0.000    0.000    0.000 
#
# Total GULP energy -161153.132718 kJ/mol
# GULP energy per Si atom -12396.394824 kJ/mol
# Density = 2.476289 g / cm^3
# Si number density = 24.819381 Si / 1000 Ang^3
#
#
#
# Elastic Constant Matrix: (Units=GPa)
#
#
# Indices 1 2 3 4 5 6 
#
# 1 131.8670 24.6805 22.2346 0.0000 12.4294 0.0000
# 2 24.6805 71.8256 13.0116 0.0000 3.0176 0.0000
# 3 22.2346 13.0116 43.1235 0.0000 6.0818 0.0000
# 4 0.0000 0.0000 0.0000 33.1130 0.0000 -0.4058
# 5 12.4294 3.0176 6.0818 0.0000 46.6981 0.0000
# 6 0.0000 0.0000 0.0000 -0.4058 0.0000 34.1694
#
#
#
# Elastic Compliance Matrix: (Units=1/GPa)
#
#
# Indices 1 2 3 4 5 6 
#
# 1 0.008781 -0.002294 -0.003592 0.000000 -0.001721 0.000000
# 2 -0.002294 0.015334 -0.003454 0.000000 0.000070 0.000000
# 3 -0.003592 -0.003454 0.026402 0.000000 -0.002259 0.000000
# 4 0.000000 0.000000 0.000000 0.030204 0.000000 0.000359
# 5 -0.001721 0.000070 -0.002259 0.000000 0.022162 0.000000
# 6 0.000000 0.000000 0.000000 0.000359 0.000000 0.029270
#
#
# Mechanical properties :
#
#
# Convention : Reuss Voigt Hill
#
# Bulk Modulus (GPa) = 31.41070 40.74105 36.07588
# Shear Modulus (GPa) = 30.97032 35.25542 33.11287
#
# Velocity S-wave (km/s) = 3.53629 3.77301 3.65657
# Velocity P-wave (km/s) = 5.41821 5.95244 5.69160
#
# Compressibility (1/GPa) = 0.03183628
#
# Stress axis : x y z
#
# Youngs Moduli (GPa) = 113.88587 65.21624 37.87567
#
# Poissons Ratio (x) = 0.14961 0.13607
# Poissons Ratio (y) = 0.26127 0.13081
# Poissons Ratio (z) = 0.40913 0.22523
#
# Static dielectric constant tensor:
#      x y z
#    x 4.869940 0.000000 0.087760 
#    y 0.000000 4.218290 0.000000 
#    z 0.087760 0.000000 4.163090 
# 
# 
# High freq. dielectric constant tensor:
#      x y z
#    x 2.012150 0.000000 0.010180 
#    y 0.000000 1.966190 0.000000 
#    z 0.010180 0.000000 1.976930 
# 
# From -- ./inp_files/29150.got.cif
#   From: 2010.03.12/outbox.cif.g09.slc.cpg/sg5_15_cif.got.tgz:29150.got - 2010.03.31 09:47:26.
