data_PCOD8051027
_publ_section_title
;
Structure prediction by ZEFSAII (Michael W. Deem and Ramdas Pophale) SiO2 
 PCOD8051027
Probable space group: C 2
;
_chemical_formula_sum "Si O2"
_cell_formula_units_Z 18
_cell_length_a 18.045191
_cell_length_b 5.116383
_cell_length_c 9.613242
_cell_angle_alpha 90.000000
_cell_angle_beta 55.831832
_cell_angle_gamma 90.000000
_cell_volume 734.355080
_symmetry_space_group_name_H-M "C 2"
_symmetry_group_IT_number 5
_symmetry_cell_setting 'monoclinic'
loop_
_space_group_symop_operation_xyz
x,y,z
-x,y,-z
1/2+x,1/2+y,z
1/2-x,1/2+y,-z
loop_
_atom_site_type_symbol
_atom_site_label
_atom_site_fract_x
_atom_site_fract_y
_atom_site_fract_z
Si Si1 0.500000 0.627960 0.500000
Si Si2 0.144916 0.378405 0.854588
Si Si3 0.378390 0.274106 0.774901
Si Si4 0.507484 0.941095 0.771405
Si Si5 0.237039 0.892579 0.854535
O O1 0.409748 0.454408 0.615055
O O2 0.522857 0.790768 0.612446
O O3 0.217874 0.601601 0.818413
O O4 0.101203 0.461464 0.754062
O O5 0.195893 0.103509 0.789852
O O6 0.068836 0.320243 0.049198
O O7 0.468237 0.227220 0.773301
O O8 0.341015 0.987399 0.761506
O O9 0.304289 0.423745 0.945912
#
# Coordination Sequence:
#
# PCOD8051027 Si02
#       5
#     2   4   4   4   4
#     4  12  24  42  74 106 150 184 234 296 364 436
#     4  10  23  42  73 104 137 180 245 294 345 413
#     4  11  24  43  72 106 141 186 244 290 355 426
#     4  10  23  41  69 104 141 187 235 295 355 424
#     4  11  23  42  73 104 136 184 243 295 340 416
#
# _framework density 24.511299999999999
#
# number of rings (size 3 to 8) (size 9 to 14) (size 15 to 20)
#    0.000    1.333    2.222    3.333    6.222    1.778 
#    0.000    0.000    9.778    0.000    0.000    0.000 
#    0.000    0.000    0.000    0.000    0.000    0.000 
#
# Total GULP energy -111534.465302 kJ/mol
# GULP energy per Si atom -12392.718367 kJ/mol
# Density = 2.445551 g / cm^3
# Si number density = 24.511300 Si / 1000 Ang^3
#
#
#
# Elastic Constant Matrix: (Units=GPa)
#
#
# Indices 1 2 3 4 5 6 
#
# 1 125.5140 24.2542 30.5022 -0.0001 28.6314 -0.0004
# 2 24.2542 94.6717 25.9553 0.0001 7.9372 0.0012
# 3 30.5022 25.9553 100.3201 -0.0001 21.0881 -0.0003
# 4 -0.0001 0.0001 -0.0001 41.6370 0.0000 -8.8330
# 5 28.6314 7.9372 21.0881 0.0000 29.8894 0.0000
# 6 -0.0004 0.0012 -0.0003 -8.8330 0.0000 42.0265
#
#
#
# Elastic Compliance Matrix: (Units=1/GPa)
#
#
# Indices 1 2 3 4 5 6 
#
# 1 0.010577 -0.001712 -0.000867 0.000000 -0.009065 0.000000
# 2 -0.001712 0.011678 -0.002576 0.000000 0.000356 0.000000
# 3 -0.000867 -0.002576 0.012422 0.000000 -0.007249 0.000000
# 4 0.000000 0.000000 0.000000 0.025138 0.000000 0.005283
# 5 -0.009065 0.000356 -0.007249 0.000000 0.047160 0.000000
# 6 0.000000 0.000000 0.000000 0.005283 0.000000 0.024905
#
#
# Mechanical properties :
#
#
# Convention : Reuss Voigt Hill
#
# Bulk Modulus (GPa) = 41.03976 53.54769 47.29372
# Shear Modulus (GPa) = 33.26426 38.69686 35.98056
#
# Velocity S-wave (km/s) = 3.68788 3.97764 3.83550
# Velocity P-wave (km/s) = 5.90876 6.55660 6.24110
#
# Compressibility (1/GPa) = 0.02436662
#
# Stress axis : x y z
#
# Youngs Moduli (GPa) = 94.54788 85.63344 80.50182
#
# Poissons Ratio (x) = 0.14659 0.06983
# Poissons Ratio (y) = 0.16185 0.20734
# Poissons Ratio (z) = 0.08201 0.22056
#
# Static dielectric constant tensor:
#      x y z
#    x 4.712890 0.000000 0.053480 
#    y 0.000000 4.303600 0.000000 
#    z 0.053480 0.000000 4.233850 
# 
# 
# High freq. dielectric constant tensor:
#      x y z
#    x 1.981000 0.000000 -0.002630 
#    y 0.000000 1.977560 0.000000 
#    z -0.002630 0.000000 1.942750 
# 
# From -- ./inp_files/25870.got.cif
#   From: 2010.03.12/outbox.cif.g09.slc.cpg/sg5_13_cif.got.tgz:25870.got - 2010.03.31 09:47:26.
