data_PCOD8051938
_publ_section_title
;
Structure prediction by ZEFSAII (Michael W. Deem and Ramdas Pophale) SiO2 
 PCOD8051938
Probable space group: C 2
;
_chemical_formula_sum "Si O2"
_cell_formula_units_Z 28
_cell_length_a 18.043773
_cell_length_b 5.302157
_cell_length_c 14.069388
_cell_angle_alpha 90.000000
_cell_angle_beta 114.188561
_cell_angle_gamma 90.000000
_cell_volume 1227.852321
_symmetry_space_group_name_H-M "C 2"
_symmetry_group_IT_number 5
_symmetry_cell_setting 'monoclinic'
loop_
_space_group_symop_operation_xyz
x,y,z
-x,y,-z
1/2+x,1/2+y,z
1/2-x,1/2+y,-z
loop_
_atom_site_type_symbol
_atom_site_label
_atom_site_fract_x
_atom_site_fract_y
_atom_site_fract_z
Si Si1 0.722345 0.272130 0.592436
Si Si2 0.586791 0.662514 0.552072
Si Si3 0.270436 0.467760 0.960086
Si Si4 0.550053 0.635424 0.932097
Si Si5 0.344768 0.992506 0.265135
Si Si6 0.475011 0.145252 0.201075
Si Si7 0.124974 0.484888 0.397526
O O1 0.669840 0.520165 0.580187
O O2 0.820073 0.303373 0.640276
O O3 0.704720 0.097362 0.672324
O O4 0.693363 0.170910 0.475246
O O5 0.500000 0.510226 0.500000
O O6 0.594394 0.780754 0.661571
O O7 0.578185 0.863702 0.462065
O O8 0.223603 0.381100 0.840634
O O9 0.279884 0.205790 0.022949
O O10 0.358530 0.582071 0.986587
O O11 0.546140 0.884797 0.864883
O O12 0.516488 0.388713 0.860997
O O13 0.500000 0.690847 0.000000
O O14 0.403106 0.191317 0.240605
O O15 0.561433 0.127779 0.298059
#
# Coordination Sequence:
#
# PCOD8051938 Si02
#       7
#     4   4   4   4   4   4   4
#     4  11  26  43  69 101 145 184 242 288 361 427
#     4  11  24  42  69  99 146 182 235 288 352 436
#     4  12  25  48  75 102 146 185 236 302 353 424
#     4  12  28  50  73 109 144 189 238 298 364 426
#     4  11  26  42  70 107 131 191 237 289 358 419
#     4  12  27  47  78 106 146 186 242 297 359 427
#     4  11  25  45  67 104 144 191 231 300 355 426
#
# _framework density 22.804046
#
# number of rings (size 3 to 8) (size 9 to 14) (size 15 to 20)
#    0.000    0.571    5.714    0.429   10.000    1.143 
#    0.000    0.000    0.000    0.000    0.000    0.000 
#    0.000    0.000    0.000    0.000    0.000    0.000 
#
# Total GULP energy -173513.515696 kJ/mol
# GULP energy per Si atom -12393.822550 kJ/mol
# Density = 2.275214 g / cm^3
# Si number density = 22.804046 Si / 1000 Ang^3
#
#
#
# Elastic Constant Matrix: (Units=GPa)
#
#
# Indices 1 2 3 4 5 6 
#
# 1 93.8727 -3.4982 47.2385 0.0000 3.4038 0.0000
# 2 -3.4982 85.7477 24.1613 0.0000 -5.8943 0.0000
# 3 47.2385 24.1613 125.0020 0.0000 7.6518 0.0000
# 4 0.0000 0.0000 0.0000 14.7439 0.0000 6.7902
# 5 3.4038 -5.8943 7.6518 0.0000 36.4655 0.0000
# 6 0.0000 0.0000 0.0000 6.7902 0.0000 28.6080
#
#
#
# Elastic Compliance Matrix: (Units=1/GPa)
#
#
# Indices 1 2 3 4 5 6 
#
# 1 0.013506 0.002126 -0.005530 0.000000 0.000243 0.000000
# 2 0.002126 0.012903 -0.003457 0.000000 0.002613 0.000000
# 3 -0.005530 -0.003457 0.010900 0.000000 -0.002330 0.000000
# 4 0.000000 0.000000 0.000000 0.076148 0.000000 -0.018074
# 5 0.000243 0.002613 -0.002330 0.000000 0.028312 0.000000
# 6 0.000000 0.000000 0.000000 -0.018074 0.000000 0.039245
#
#
# Mechanical properties :
#
#
# Convention : Reuss Voigt Hill
#
# Bulk Modulus (GPa) = 42.39678 48.93616 45.66647
# Shear Modulus (GPa) = 24.67939 31.74487 28.21213
#
# Velocity S-wave (km/s) = 3.29331 3.73510 3.52114
# Velocity P-wave (km/s) = 5.75268 6.33303 6.04982
#
# Compressibility (1/GPa) = 0.02358670
#
# Stress axis : x y z
#
# Youngs Moduli (GPa) = 74.04262 77.50398 91.73998
#
# Poissons Ratio (x) = -0.16476 0.50729
# Poissons Ratio (y) = -0.15740 0.31716
# Poissons Ratio (z) = 0.40943 0.26794
#
# Static dielectric constant tensor:
#      x y z
#    x 4.452740 0.000000 -0.037500 
#    y 0.000000 4.039810 0.000000 
#    z -0.037500 0.000000 4.333280 
# 
# 
# High freq. dielectric constant tensor:
#      x y z
#    x 1.914160 0.000000 0.007350 
#    y 0.000000 1.886830 0.000000 
#    z 0.007350 0.000000 1.911620 
# 
# From -- ./inp_files/55509.got.cif
#   From: 2010.03.12/outbox.cif.g09.slc.cpg/sg5_28_cif.got.tgz:55509.got - 2010.03.31 09:47:26.
