data_PCOD8051214
_publ_section_title
;
Structure prediction by ZEFSAII (Michael W. Deem and Ramdas Pophale) SiO2 
 PCOD8051214
Probable space group: C 2
;
_chemical_formula_sum "Si O2"
_cell_formula_units_Z 30
_cell_length_a 10.306405
_cell_length_b 30.019191
_cell_length_c 5.060057
_cell_angle_alpha 90.000000
_cell_angle_beta 103.324088
_cell_angle_gamma 90.000000
_cell_volume 1523.389887
_symmetry_space_group_name_H-M "C 2"
_symmetry_group_IT_number 5
_symmetry_cell_setting 'monoclinic'
loop_
_space_group_symop_operation_xyz
x,y,z
-x,y,-z
1/2+x,1/2+y,z
1/2-x,1/2+y,-z
loop_
_atom_site_type_symbol
_atom_site_label
_atom_site_fract_x
_atom_site_fract_y
_atom_site_fract_z
Si Si1 0.758597 0.899070 0.630376
Si Si2 0.344082 0.049314 0.893522
Si Si3 0.843397 0.596615 0.386996
Si Si4 0.411939 0.187954 0.215212
Si Si5 0.354356 0.807078 0.496818
Si Si6 0.500000 0.349953 0.000000
Si Si7 0.206730 0.781874 0.936809
Si Si8 0.657588 0.946805 0.081210
O O1 0.653495 0.858819 0.587471
O O2 0.746287 0.918882 0.330249
O O3 0.907068 0.880941 0.769109
O O4 0.714597 0.936500 0.818586
O O5 0.279658 0.081160 0.635873
O O6 0.316891 0.997717 0.826017
O O7 0.500000 0.058750 0.000000
O O8 0.278405 0.063861 0.139341
O O9 0.819052 0.647197 0.275301
O O10 0.000000 0.588980 0.500000
O O11 0.500000 0.203474 0.500000
O O12 0.323987 0.230465 0.115375
O O13 0.500000 0.173359 0.000000
O O14 0.500000 0.788983 0.500000
O O15 0.320154 0.797894 0.786431
O O16 0.252270 0.781263 0.261600
O O17 0.414644 0.317115 0.151109
O O18 0.500000 0.935307 0.000000
#
# Coordination Sequence:
#
# PCOD8051214 Si02
#       8
#     4   4   4   4   4   2   4   4
#     4  11  23  36  56  77 111 147 193 232 278 332
#     4   9  17  29  47  72 108 140 174 217 283 341
#     4   9  16  28  46  73 108 145 168 214 275 345
#     4  11  20  32  52  80 117 149 186 220 276 358
#     4  11  23  39  57  79 109 149 195 239 283 330
#     4  10  24  40  56  84 116 158 194 242 290 332
#     4  11  23  37  58  80 115 153 189 238 287 335
#     4  11  21  35  55  81 111 147 187 233 283 339
#
# _framework density 19.692923
#
# number of rings (size 3 to 8) (size 9 to 14) (size 15 to 20)
#    0.000    1.600    0.667    6.800    1.867    4.800 
#    0.000    0.000    0.000    0.000    0.000    0.000 
#   40.000    0.000    0.000    0.000    0.000    0.000 
#
# Total GULP energy -185889.562307 kJ/mol
# GULP energy per Si atom -12392.637487 kJ/mol
# Density = 1.964810 g / cm^3
# Si number density = 19.692923 Si / 1000 Ang^3
#
#
#
# Elastic Constant Matrix: (Units=GPa)
#
#
# Indices 1 2 3 4 5 6 
#
# 1 55.6711 22.1178 5.8011 0.0000 -2.4493 0.0000
# 2 22.1178 118.8546 43.3206 0.0000 9.2480 0.0000
# 3 5.8011 43.3206 99.8084 0.0000 -2.0276 0.0000
# 4 0.0000 0.0000 0.0000 67.9605 0.0000 147.7102
# 5 -2.4493 9.2480 -2.0276 0.0000 27.6687 0.0000
# 6 0.0000 0.0000 0.0000 147.7102 0.0000 726.6237
#
#
#
# Elastic Compliance Matrix: (Units=1/GPa)
#
#
# Indices 1 2 3 4 5 6 
#
# 1 0.019687 -0.004180 0.000735 0.000000 0.003194 0.000000
# 2 -0.004180 0.011267 -0.004739 0.000000 -0.004483 0.000000
# 3 0.000735 -0.004739 0.012085 0.000000 0.002534 0.000000
# 4 0.000000 0.000000 0.000000 0.026362 0.000000 -0.005359
# 5 0.003194 -0.004483 0.002534 0.000000 0.038109 0.000000
# 6 0.000000 0.000000 0.000000 -0.005359 0.000000 0.002466
#
#
# Mechanical properties :
#
#
# Convention : Reuss Voigt Hill
#
# Bulk Modulus (GPa) = 37.49254 46.31258 41.90256
# Shear Modulus (GPa) = 36.97294 177.99021 107.48158
#
# Velocity S-wave (km/s) = 4.33768 9.51730 7.39576
# Velocity P-wave (km/s) = 6.64584 12.01418 9.70844
#
# Compressibility (1/GPa) = 0.02667197
#
# Stress axis : x y z
#
# Youngs Moduli (GPa) = 50.79428 88.75086 82.74915
#
# Poissons Ratio (x) = 0.37098 -0.06081
# Poissons Ratio (y) = 0.21232 0.39212
# Poissons Ratio (z) = -0.03733 0.42056
#
# Static dielectric constant tensor:
#      x y z
#    x 1.481790 0.000000 -1.836030 
#    y 0.000000 3.595700 0.000000 
#    z -1.836030 0.000000 2.017010 
# 
# 
# High freq. dielectric constant tensor:
#      x y z
#    x 1.702990 0.000000 -0.002500 
#    y 0.000000 1.773500 0.000000 
#    z -0.002500 0.000000 1.794600 
# 
# From -- ./inp_files/3811.got.cif
#   From: 2010.03.12/outbox.cif.g09.slc.cpg/sg5_2_cif.got.tgz:3811.got - 2010.03.31 09:47:26.
