data_PCOD8051330
_publ_section_title
;
Structure prediction by ZEFSAII (Michael W. Deem and Ramdas Pophale) SiO2 
 PCOD8051330
Probable space group: C 2
;
_chemical_formula_sum "Si O2"
_cell_formula_units_Z 20
_cell_length_a 11.725558
_cell_length_b 9.881577
_cell_length_c 8.539193
_cell_angle_alpha 90.000000
_cell_angle_beta 100.673230
_cell_angle_gamma 90.000000
_cell_volume 972.293350
_symmetry_space_group_name_H-M "C 2"
_symmetry_group_IT_number 5
_symmetry_cell_setting 'monoclinic'
loop_
_space_group_symop_operation_xyz
x,y,z
-x,y,-z
1/2+x,1/2+y,z
1/2-x,1/2+y,-z
loop_
_atom_site_type_symbol
_atom_site_label
_atom_site_fract_x
_atom_site_fract_y
_atom_site_fract_z
Si Si1 0.389358 0.107540 0.574520
Si Si2 0.329568 0.295721 0.076535
Si Si3 0.203569 0.127431 0.274112
Si Si4 0.892625 0.395771 0.852224
Si Si5 0.081977 0.848453 0.220299
O O1 0.500000 0.065870 0.500000
O O2 0.268813 0.090446 0.452019
O O3 0.390208 0.267716 0.614531
O O4 0.396608 0.020994 0.735035
O O5 0.300077 0.156444 0.162916
O O6 0.223981 0.402522 0.070913
O O7 0.444158 0.363315 0.176217
O O8 0.356711 0.261780 0.903043
O O9 0.116419 0.257632 0.256448
O O10 0.127287 0.999080 0.216621
O O11 0.000000 0.394392 0.000000
#
# Coordination Sequence:
#
# PCOD8051330 Si02
#       5
#     4   4   4   4   4
#     4  12  24  42  68 100 146 187 228 293 366 415
#     4   9  24  42  68 100 134 181 240 286 346 415
#     4  10  24  45  65 102 138 182 242 283 355 425
#     4  10  25  44  69 102 144 179 245 292 347 427
#     4  11  23  42  76  94 139 188 235 291 353 426
#
# _framework density 20.569922999999999
#
# number of rings (size 3 to 8) (size 9 to 14) (size 15 to 20)
#    1.200    0.400    2.000    1.200   11.200    0.000 
#    0.000    1.000    0.000    0.000    0.000    0.000 
#    0.000    0.000    0.000    0.000    0.000    0.000 
#
# Total GULP energy -123890.829024 kJ/mol
# GULP energy per Si atom -12389.082902 kJ/mol
# Density = 2.052311 g / cm^3
# Si number density = 20.569923 Si / 1000 Ang^3
#
#
#
# Elastic Constant Matrix: (Units=GPa)
#
#
# Indices 1 2 3 4 5 6 
#
# 1 141.8692 49.1045 47.9754 0.0000 5.5606 0.0000
# 2 49.1045 106.4295 34.1902 0.0000 8.8659 0.0000
# 3 47.9754 34.1902 83.8283 0.0000 20.4451 0.0000
# 4 0.0000 0.0000 0.0000 31.1769 0.0000 1.6949
# 5 5.5606 8.8659 20.4451 0.0000 34.0849 0.0000
# 6 0.0000 0.0000 0.0000 1.6949 0.0000 35.5126
#
#
#
# Elastic Compliance Matrix: (Units=1/GPa)
#
#
# Indices 1 2 3 4 5 6 
#
# 1 0.009651 -0.003094 -0.004772 0.000000 0.002093 0.000000
# 2 -0.003094 0.011806 -0.002833 0.000000 -0.000867 0.000000
# 3 -0.004772 -0.002833 0.018093 0.000000 -0.009337 0.000000
# 4 0.000000 0.000000 0.000000 0.032158 0.000000 -0.001535
# 5 0.002093 -0.000867 -0.009337 0.000000 0.034823 0.000000
# 6 0.000000 0.000000 0.000000 -0.001535 0.000000 0.028232
#
#
# Mechanical properties :
#
#
# Convention : Reuss Voigt Hill
#
# Bulk Modulus (GPa) = 55.09043 66.07413 60.58228
# Shear Modulus (GPa) = 30.82370 33.54533 32.18452
#
# Velocity S-wave (km/s) = 3.87523 4.04269 3.95984
# Velocity P-wave (km/s) = 6.84568 7.34728 7.10091
#
# Compressibility (1/GPa) = 0.01815197
#
# Stress axis : x y z
#
# Youngs Moduli (GPa) = 103.61137 84.70413 55.27072
#
# Poissons Ratio (x) = 0.26211 0.26375
# Poissons Ratio (y) = 0.32061 0.15657
# Poissons Ratio (z) = 0.49442 0.23995
#
# Static dielectric constant tensor:
#      x y z
#    x 3.734400 0.000000 -0.055330 
#    y 0.000000 3.508600 0.000000 
#    z -0.055330 0.000000 3.792940 
# 
# 
# High freq. dielectric constant tensor:
#      x y z
#    x 1.807060 0.000000 0.007290 
#    y 0.000000 1.795680 0.000000 
#    z 0.007290 0.000000 1.806180 
# 
# From -- ./inp_files/18359.got.cif
#   From: 2010.03.12/outbox.cif.g09.slc.cpg/sg5_10_cif.got.tgz:18359.got - 2010.03.31 09:47:26.
