data_PCOD8051731
_publ_section_title
;
Structure prediction by ZEFSAII (Michael W. Deem and Ramdas Pophale) SiO2 
 PCOD8051731
Probable space group: C 2
;
_chemical_formula_sum "Si O2"
_cell_formula_units_Z 28
_cell_length_a 29.572596
_cell_length_b 8.370146
_cell_length_c 6.493897
_cell_angle_alpha 90.000000
_cell_angle_beta 125.108089
_cell_angle_gamma 90.000000
_cell_volume 1314.975212
_symmetry_space_group_name_H-M "C 2"
_symmetry_group_IT_number 5
_symmetry_cell_setting 'monoclinic'
loop_
_space_group_symop_operation_xyz
x,y,z
-x,y,-z
1/2+x,1/2+y,z
1/2-x,1/2+y,-z
loop_
_atom_site_type_symbol
_atom_site_label
_atom_site_fract_x
_atom_site_fract_y
_atom_site_fract_z
Si Si1 0.056875 0.949930 0.241139
Si Si2 0.157347 0.427254 0.699508
Si Si3 0.788569 0.243141 0.517023
Si Si4 0.244720 0.937560 0.753309
Si Si5 0.355858 0.298200 0.279679
Si Si6 0.057329 0.220262 0.555478
Si Si7 0.370775 0.513370 0.954265
O O1 0.081501 0.830150 0.477273
O O2 0.046533 0.124139 0.315180
O O3 0.101694 0.953589 0.180360
O O4 0.000000 0.881061 0.000000
O O5 0.170641 0.357816 0.508002
O O6 0.158785 0.616821 0.714074
O O7 0.097381 0.368970 0.615631
O O8 0.205292 0.369234 0.979456
O O9 0.746720 0.353172 0.535695
O O10 0.821655 0.132749 0.765108
O O11 0.752430 0.129737 0.271734
O O12 0.185850 0.908175 0.701275
O O13 0.349937 0.357058 0.027202
O O14 0.000000 0.286299 0.500000
O O15 0.084584 0.104144 0.791626
#
# Coordination Sequence:
#
# PCOD8051731 Si02
#       7
#     4   4   4   4   4   4   4
#     4  11  22  44  72  96 128 177 228 279 338 412
#     4  12  26  44  63 101 142 178 224 287 346 405
#     4  12  25  43  71  98 136 183 232 278 347 412
#     4  12  26  41  70  99 137 180 227 283 342 415
#     4  11  27  41  65 102 139 175 226 284 345 405
#     4  11  22  42  70  98 128 174 230 284 335 403
#     4  11  22  44  68  96 127 173 232 276 334 406
#
# _framework density 21.293175000000002
#
# number of rings (size 3 to 8) (size 9 to 14) (size 15 to 20)
#    0.000    0.571    5.714    2.571    6.000    1.143 
#    2.571    0.714    0.000    0.000    0.000    0.000 
#    0.000    0.000    0.000    0.000    0.000    0.000 
#
# Total GULP energy -173613.648103 kJ/mol
# GULP energy per Si atom -12400.974864 kJ/mol
# Density = 2.124471 g / cm^3
# Si number density = 21.293175 Si / 1000 Ang^3
#
#
#
# Elastic Constant Matrix: (Units=GPa)
#
#
# Indices 1 2 3 4 5 6 
#
# 1 114.6166 26.7747 33.6202 0.0000 -13.3998 0.0000
# 2 26.7747 96.4863 28.5847 0.0000 -14.9588 0.0000
# 3 33.6202 28.5847 100.4352 0.0000 -2.1554 0.0000
# 4 0.0000 0.0000 0.0000 26.4756 0.0000 -5.0373
# 5 -13.3998 -14.9588 -2.1554 0.0000 38.4336 0.0000
# 6 0.0000 0.0000 0.0000 -5.0373 0.0000 36.8162
#
#
#
# Elastic Compliance Matrix: (Units=1/GPa)
#
#
# Indices 1 2 3 4 5 6 
#
# 1 0.010277 -0.001544 -0.002940 0.000000 0.002817 0.000000
# 2 -0.001544 0.012282 -0.002891 0.000000 0.004080 0.000000
# 3 -0.002940 -0.002891 0.011732 0.000000 -0.001492 0.000000
# 4 0.000000 0.000000 0.000000 0.038780 0.000000 0.005306
# 5 0.002817 0.004080 -0.001492 0.000000 0.028505 0.000000
# 6 0.000000 0.000000 0.000000 0.005306 0.000000 0.027888
#
#
# Mechanical properties :
#
#
# Convention : Reuss Voigt Hill
#
# Bulk Modulus (GPa) = 51.17773 54.38859 52.78316
# Shear Modulus (GPa) = 33.17228 35.18230 34.17729
#
# Velocity S-wave (km/s) = 3.95129 4.06924 4.01069
# Velocity P-wave (km/s) = 6.70103 6.90481 6.80369
#
# Compressibility (1/GPa) = 0.01953975
#
# Stress axis : x y z
#
# Youngs Moduli (GPa) = 97.30190 81.42247 85.23893
#
# Poissons Ratio (x) = 0.12572 0.25063
# Poissons Ratio (y) = 0.15024 0.24643
# Poissons Ratio (z) = 0.28610 0.23540
#
# Static dielectric constant tensor:
#      x y z
#    x 3.833590 0.000000 -0.070280 
#    y 0.000000 3.612640 0.000000 
#    z -0.070280 0.000000 4.394570 
# 
# 
# High freq. dielectric constant tensor:
#      x y z
#    x 1.839380 0.000000 -0.004690 
#    y 0.000000 1.818140 0.000000 
#    z -0.004690 0.000000 1.851670 
# 
# From -- ./inp_files/11174.got.cif
#   From: 2010.03.12/outbox.cif.g09.slc.cpg/sg5_6_cif.got.tgz:11174.got - 2010.03.31 09:47:26.
