data_PCOD8051769
_publ_section_title
;
Structure prediction by ZEFSAII (Michael W. Deem and Ramdas Pophale) SiO2 
 PCOD8051769
Probable space group: C 2
;
_chemical_formula_sum "Si O2"
_cell_formula_units_Z 26
_cell_length_a 14.191999
_cell_length_b 12.247403
_cell_length_c 19.522656
_cell_angle_alpha 90.000000
_cell_angle_beta 159.059587
_cell_angle_gamma 90.000000
_cell_volume 1212.766503
_symmetry_space_group_name_H-M "C 2"
_symmetry_group_IT_number 5
_symmetry_cell_setting 'monoclinic'
loop_
_space_group_symop_operation_xyz
x,y,z
-x,y,-z
1/2+x,1/2+y,z
1/2-x,1/2+y,-z
loop_
_atom_site_type_symbol
_atom_site_label
_atom_site_fract_x
_atom_site_fract_y
_atom_site_fract_z
Si Si1 0.977884 0.037330 0.730831
Si Si2 0.500000 0.563445 0.000000
Si Si3 0.290576 0.043904 0.721764
Si Si4 0.214269 0.875065 0.787558
Si Si5 0.614336 0.223422 0.004752
Si Si6 0.463352 0.163626 0.394360
Si Si7 0.758224 0.953159 0.958604
O O1 0.678362 0.075786 0.513971
O O2 0.151260 0.138645 0.822907
O O3 0.053927 0.928359 0.741274
O O4 0.029380 0.007538 0.845350
O O5 0.326235 0.629298 0.826985
O O6 0.300760 0.493021 0.910210
O O7 0.000000 0.060909 0.500000
O O8 0.300018 0.969286 0.794360
O O9 0.463850 0.986420 0.780574
O O10 0.391964 0.164079 0.808874
O O11 0.010229 0.786192 0.618271
O O12 0.500000 0.821145 0.000000
O O13 0.715433 0.322433 0.026131
O O14 0.500000 0.264055 0.000000
O O15 0.500000 0.173674 0.500000
#
# Coordination Sequence:
#
# PCOD8051769 Si02
#       7
#     4   2   4   4   4   4   4
#     4  11  25  47  70 106 144 188 243 305 351 445
#     4  12  26  46  70 108 150 192 240 306 358 438
#     4  11  25  44  69 106 141 183 245 295 352 437
#     4  12  23  47  74 103 141 187 242 301 358 425
#     4  11  22  45  72  98 140 188 232 293 360 421
#     4  12  28  46  74 106 146 194 247 293 373 432
#     4  11  25  44  73 102 147 191 240 297 372 421
#
# _framework density 21.438586999999998
#
# number of rings (size 3 to 8) (size 9 to 14) (size 15 to 20)
#    0.000    0.615    7.692    0.462    6.462    2.462 
#    2.769    0.000    0.000    0.000    0.000    0.000 
#    0.000    0.000    0.000    0.000    0.000    0.000 
#
# Total GULP energy -161171.659901 kJ/mol
# GULP energy per Si atom -12397.819992 kJ/mol
# Density = 2.138979 g / cm^3
# Si number density = 21.438587 Si / 1000 Ang^3
#
#
#
# Elastic Constant Matrix: (Units=GPa)
#
#
# Indices 1 2 3 4 5 6 
#
# 1 126.8573 47.7831 38.9882 -0.3973 -0.4909 0.4266
# 2 47.7831 117.1359 54.0658 0.2536 0.8373 0.0804
# 3 38.9882 54.0658 153.9740 -0.0013 -1.0963 0.2554
# 4 -0.3973 0.2536 -0.0013 12.8030 -0.5312 9.4604
# 5 -0.4909 0.8373 -1.0963 -0.5312 27.7538 0.4896
# 6 0.4266 0.0804 0.2554 9.4604 0.4896 21.0611
#
#
#
# Elastic Compliance Matrix: (Units=1/GPa)
#
#
# Indices 1 2 3 4 5 6 
#
# 1 0.009518 -0.003311 -0.001245 0.000744 0.000242 -0.000505
# 2 -0.003311 0.011347 -0.003150 -0.000607 -0.000543 0.000347
# 3 -0.001245 -0.003150 0.007919 0.000136 0.000391 -0.000129
# 4 0.000744 -0.000607 0.000136 0.117263 0.003212 -0.052762
# 5 0.000242 -0.000543 0.000391 0.003212 0.036169 -0.002291
# 6 -0.000505 0.000347 -0.000129 -0.052762 -0.002291 0.071245
#
#
# Mechanical properties :
#
#
# Convention : Reuss Voigt Hill
#
# Bulk Modulus (GPa) = 74.78779 75.51570 75.15175
# Shear Modulus (GPa) = 18.29297 29.46558 23.87927
#
# Velocity S-wave (km/s) = 2.92425 3.71134 3.34105
# Velocity P-wave (km/s) = 6.80897 7.32571 7.07206
#
# Compressibility (1/GPa) = 0.01337117
#
# Stress axis : x y z
#
# Youngs Moduli (GPa) = 105.06928 88.13100 126.27865
#
# Poissons Ratio (x) = 0.29179 0.15719
# Poissons Ratio (y) = 0.34787 0.39782
# Poissons Ratio (z) = 0.13079 0.27764
#
# Static dielectric constant tensor:
#      x y z
#    x 4.262280 0.001280 0.509230 
#    y 0.001280 3.915820 0.003630 
#    z 0.509230 0.003630 5.252670 
# 
# 
# High freq. dielectric constant tensor:
#      x y z
#    x 1.847210 0.000000 -0.002040 
#    y 0.000000 1.846220 -0.000020 
#    z -0.002040 -0.000020 1.838580 
# 
# From -- ./inp_files/23538.got.cif
#   From: 2010.03.12/outbox.cif.g09.slc.cpg/sg5_12_cif.got.tgz:23538.got - 2010.03.31 09:47:26.
