data_PCOD8051071
_publ_section_title
;
Structure prediction by ZEFSAII (Michael W. Deem and Ramdas Pophale) SiO2 
 PCOD8051071
Probable space group: C 2
;
_chemical_formula_sum "Si O2"
_cell_formula_units_Z 28
_cell_length_a 26.510740
_cell_length_b 7.692668
_cell_length_c 9.331577
_cell_angle_alpha 90.000000
_cell_angle_beta 143.725771
_cell_angle_gamma 90.000000
_cell_volume 1125.950269
_symmetry_space_group_name_H-M "C 2"
_symmetry_group_IT_number 5
_symmetry_cell_setting 'monoclinic'
loop_
_space_group_symop_operation_xyz
x,y,z
-x,y,-z
1/2+x,1/2+y,z
1/2-x,1/2+y,-z
loop_
_atom_site_type_symbol
_atom_site_label
_atom_site_fract_x
_atom_site_fract_y
_atom_site_fract_z
Si Si1 0.118713 0.930010 0.448497
Si Si2 0.145589 0.590256 0.349503
Si Si3 0.915859 0.478328 0.097542
Si Si4 0.952290 0.278633 0.754296
Si Si5 0.464814 0.338220 0.270163
Si Si6 0.781615 0.976959 0.870829
Si Si7 0.719880 0.835300 0.004778
O O1 0.129920 0.797892 0.338667
O O2 0.183989 0.869445 0.720179
O O3 0.020413 0.921634 0.272351
O O4 0.125862 0.139865 0.442907
O O5 0.138464 0.537809 0.167316
O O6 0.079226 0.475192 0.288377
O O7 0.238620 0.538546 0.623889
O O8 0.848036 0.453254 0.068645
O O9 0.977669 0.631104 0.291043
O O10 0.976058 0.308030 0.207464
O O11 0.000000 0.200854 0.000000
O O12 0.500000 0.411159 0.500000
O O13 0.365487 0.374986 0.017973
O O14 0.807427 0.138809 0.029536
O O15 0.718211 0.864401 0.828720
#
# Coordination Sequence:
#
# PCOD8051071 Si02
#       7
#     4   4   4   4   4   4   4
#     4  11  24  45  71 100 141 183 237 294 356 420
#     4  10  25  47  69 105 141 187 235 296 351 421
#     4  11  25  46  70 105 146 185 238 295 358 427
#     4  10  23  42  70 102 138 181 238 286 355 419
#     4  12  25  44  71 107 141 188 238 294 359 425
#     4  11  25  45  72 102 146 186 241 295 360 423
#     4  11  25  45  68 104 139 186 237 292 360 429
#
# _framework density 24.867885000000001
#
# number of rings (size 3 to 8) (size 9 to 14) (size 15 to 20)
#    0.000    1.143    2.857    1.714    8.000    2.286 
#    5.143    0.000    0.000    0.000    0.000    0.000 
#    0.000    0.000    0.000    0.000    0.000    0.000 
#
# Total GULP energy -173523.291108 kJ/mol
# GULP energy per Si atom -12394.520793 kJ/mol
# Density = 2.481128 g / cm^3
# Si number density = 24.867885 Si / 1000 Ang^3
#
#
#
# Elastic Constant Matrix: (Units=GPa)
#
#
# Indices 1 2 3 4 5 6 
#
# 1 79.7743 -4.5934 3.2303 0.0000 18.6439 0.0000
# 2 -4.5934 100.9065 7.3696 0.0000 6.5804 0.0000
# 3 3.2303 7.3696 55.8731 0.0000 1.1618 0.0000
# 4 0.0000 0.0000 0.0000 37.5781 0.0000 3.8797
# 5 18.6439 6.5804 1.1618 0.0000 24.6934 0.0000
# 6 0.0000 0.0000 0.0000 3.8797 0.0000 25.3895
#
#
#
# Elastic Compliance Matrix: (Units=1/GPa)
#
#
# Indices 1 2 3 4 5 6 
#
# 1 0.015478 0.001553 -0.000849 0.000000 -0.012060 0.000000
# 2 0.001553 0.010333 -0.001372 0.000000 -0.003862 0.000000
# 3 -0.000849 -0.001372 0.018125 0.000000 0.000154 0.000000
# 4 0.000000 0.000000 0.000000 0.027038 0.000000 -0.004132
# 5 -0.012060 -0.003862 0.000154 0.000000 0.050624 0.000000
# 6 0.000000 0.000000 0.000000 -0.004132 0.000000 0.040018
#
#
# Mechanical properties :
#
#
# Convention : Reuss Voigt Hill
#
# Bulk Modulus (GPa) = 23.47500 27.61857 25.54679
# Shear Modulus (GPa) = 28.22461 32.90203 30.56332
#
# Velocity S-wave (km/s) = 3.37260 3.64135 3.50955
# Velocity P-wave (km/s) = 4.96249 5.36745 5.16894
#
# Compressibility (1/GPa) = 0.04259850
#
# Stress axis : x y z
#
# Youngs Moduli (GPa) = 64.60948 96.77814 55.17367
#
# Poissons Ratio (x) = -0.15030 0.04684
# Poissons Ratio (y) = -0.10034 0.07572
# Poissons Ratio (z) = 0.05485 0.13282
#
# Static dielectric constant tensor:
#      x y z
#    x 4.316410 0.000000 -0.085240 
#    y 0.000000 4.572440 0.000000 
#    z -0.085240 0.000000 4.439410 
# 
# 
# High freq. dielectric constant tensor:
#      x y z
#    x 1.978730 0.000000 0.003470 
#    y 0.000000 2.000130 0.000000 
#    z 0.003470 0.000000 1.985300 
# 
# From -- ./inp_files/31679.got.cif
#   From: 2010.03.12/outbox.cif.g09.slc.cpg/sg5_16_cif.got.tgz:31679.got - 2010.03.31 09:47:26.
