data_PCOD8051042
_publ_section_title
;
Structure prediction by ZEFSAII (Michael W. Deem and Ramdas Pophale) SiO2 
 PCOD8051042
Probable space group: C 2
;
_chemical_formula_sum "Si O2"
_cell_formula_units_Z 22
_cell_length_a 12.582962
_cell_length_b 8.446690
_cell_length_c 15.995312
_cell_angle_alpha 90.000000
_cell_angle_beta 37.723253
_cell_angle_gamma 90.000000
_cell_volume 1040.173470
_symmetry_space_group_name_H-M "C 2"
_symmetry_group_IT_number 5
_symmetry_cell_setting 'monoclinic'
loop_
_space_group_symop_operation_xyz
x,y,z
-x,y,-z
1/2+x,1/2+y,z
1/2-x,1/2+y,-z
loop_
_atom_site_type_symbol
_atom_site_label
_atom_site_fract_x
_atom_site_fract_y
_atom_site_fract_z
Si Si1 0.275072 0.074730 0.230164
Si Si2 0.000000 0.819335 0.000000
Si Si3 0.201624 0.528966 0.108725
Si Si4 0.156055 0.425996 0.634665
Si Si5 0.562317 0.581350 0.651613
Si Si6 0.736706 0.395455 0.098586
O O1 0.076925 0.133570 0.333476
O O2 0.277816 0.002929 0.320524
O O3 0.324030 0.936579 0.133204
O O4 0.409105 0.218098 0.130438
O O5 0.138411 0.926366 0.960404
O O6 0.247292 0.710569 0.080520
O O7 0.033264 0.495760 0.270076
O O8 0.153057 0.477093 0.044139
O O9 0.284239 0.475085 0.481128
O O10 0.143858 0.234955 0.646563
O O11 0.459999 0.469663 0.782153
#
# Coordination Sequence:
#
# PCOD8051042 Si02
#       6
#     4   2   4   4   4   4
#     4  10  23  44  69  99 138 183 223 296 342 419
#     4  12  24  42  66 106 140 178 248 282 358 408
#     4  12  23  41  67  98 138 184 231 296 336 424
#     4  12  22  43  73  95 142 179 232 283 354 406
#     4  10  24  43  69 102 135 187 226 284 350 424
#     4  10  23  42  63 100 133 179 232 274 361 395
#
# _framework density 21.150317000000001
#
# number of rings (size 3 to 8) (size 9 to 14) (size 15 to 20)
#    1.091    0.000    1.818    6.000    0.000    3.636 
#    0.000    0.000    0.000    0.000    0.000    0.000 
#    0.000    0.000    0.000    0.000    0.000    0.000 
#
# Total GULP energy -136356.351645 kJ/mol
# GULP energy per Si atom -12396.031968 kJ/mol
# Density = 2.110218 g / cm^3
# Si number density = 21.150317 Si / 1000 Ang^3
#
#
#
# Elastic Constant Matrix: (Units=GPa)
#
#
# Indices 1 2 3 4 5 6 
#
# 1 60.4393 26.5432 2.1563 0.0000 -2.3907 0.0000
# 2 26.5432 157.0430 33.3294 0.0000 1.7358 0.0000
# 3 2.1563 33.3294 96.1736 0.0000 -15.4587 0.0000
# 4 0.0000 0.0000 0.0000 28.7987 0.0000 -1.2584
# 5 -2.3907 1.7358 -15.4587 0.0000 30.9094 0.0000
# 6 0.0000 0.0000 0.0000 -1.2584 0.0000 33.1445
#
#
#
# Elastic Compliance Matrix: (Units=1/GPa)
#
#
# Indices 1 2 3 4 5 6 
#
# 1 0.018041 -0.003302 0.001081 0.000000 0.002121 0.000000
# 2 -0.003302 0.007562 -0.002888 0.000000 -0.002125 0.000000
# 3 0.001081 -0.002888 0.012412 0.000000 0.006453 0.000000
# 4 0.000000 0.000000 0.000000 0.034782 0.000000 0.001321
# 5 0.002121 -0.002125 0.006453 0.000000 0.035863 0.000000
# 6 0.000000 0.000000 0.000000 0.001321 0.000000 0.030221
#
#
# Mechanical properties :
#
#
# Convention : Reuss Voigt Hill
#
# Bulk Modulus (GPa) = 35.97610 48.63486 42.30548
# Shear Modulus (GPa) = 31.57252 35.34564 33.45908
#
# Velocity S-wave (km/s) = 3.86783 4.09242 3.98171
# Velocity P-wave (km/s) = 6.08222 6.73612 6.41751
#
# Compressibility (1/GPa) = 0.02779623
#
# Stress axis : x y z
#
# Youngs Moduli (GPa) = 55.42912 132.23585 80.56824
#
# Poissons Ratio (x) = 0.43666 -0.08708
# Poissons Ratio (y) = 0.18303 0.23270
# Poissons Ratio (z) = -0.05991 0.38192
#
# Static dielectric constant tensor:
#      x y z
#    x 3.655800 0.000000 -0.154520 
#    y 0.000000 3.740590 0.000000 
#    z -0.154520 0.000000 4.018860 
# 
# 
# High freq. dielectric constant tensor:
#      x y z
#    x 1.811760 0.000000 -0.012370 
#    y 0.000000 1.832870 0.000000 
#    z -0.012370 0.000000 1.841250 
# 
# From -- ./inp_files/30636.got.cif
#   From: 2010.03.12/outbox.cif.g09.slc.cpg/sg5_16_cif.got.tgz:30636.got - 2010.03.31 09:47:26.
