data_PCOD8051043
_publ_section_title
;
Structure prediction by ZEFSAII (Michael W. Deem and Ramdas Pophale) SiO2 
 PCOD8051043
Probable space group: C 2
;
_chemical_formula_sum "Si O2"
_cell_formula_units_Z 18
_cell_length_a 5.135502
_cell_length_b 12.546865
_cell_length_c 12.886094
_cell_angle_alpha 90.000000
_cell_angle_beta 97.469454
_cell_angle_gamma 90.000000
_cell_volume 823.262642
_symmetry_space_group_name_H-M "C 2"
_symmetry_group_IT_number 5
_symmetry_cell_setting 'monoclinic'
loop_
_space_group_symop_operation_xyz
x,y,z
-x,y,-z
1/2+x,1/2+y,z
1/2-x,1/2+y,-z
loop_
_atom_site_type_symbol
_atom_site_label
_atom_site_fract_x
_atom_site_fract_y
_atom_site_fract_z
Si Si1 0.500000 0.271791 0.000000
Si Si2 0.237700 0.474841 0.937869
Si Si3 0.000000 0.006074 0.500000
Si Si4 0.547814 0.684407 0.668808
Si Si5 0.896680 0.652835 0.198850
Si Si6 0.500000 0.861556 0.500000
O O1 0.718296 0.347134 0.068722
O O2 0.363961 0.203546 0.082791
O O3 0.179019 0.527646 0.822018
O O4 0.500000 0.528057 0.000000
O O5 0.000000 0.503407 0.000000
O O6 0.742378 0.934033 0.478119
O O7 0.023482 0.079723 0.400277
O O8 0.305224 0.707629 0.732814
O O9 0.589173 0.787816 0.600057
O O10 0.810539 0.663242 0.745514
#
# Coordination Sequence:
#
# PCOD8051043 Si02
#       6
#     2   4   2   4   4   2
#     4  10  28  40  68  90 142 182 222 272 320 378
#     4  10  23  42  63  90 131 182 224 261 326 374
#     4  11  24  49  72  96 140 169 208 293 338 396
#     4  11  27  43  70 104 130 172 227 272 339 398
#     4  12  24  44  68  98 139 177 224 278 320 393
#     4  11  24  49  72 100 132 171 218 277 344 410
#
# _framework density 21.864224
#
# number of rings (size 3 to 8) (size 9 to 14) (size 15 to 20)
#    0.667    0.444    1.111    4.000    3.111    8.889 
#    0.000    0.000    0.000    0.000    0.000    0.000 
#    0.000    0.000    0.000    0.000    0.000    0.000 
#
# Total GULP energy -111593.459768 kJ/mol
# GULP energy per Si atom -12399.273308 kJ/mol
# Density = 2.181446 g / cm^3
# Si number density = 21.864224 Si / 1000 Ang^3
#
#
#
# Elastic Constant Matrix: (Units=GPa)
#
#
# Indices 1 2 3 4 5 6 
#
# 1 132.7016 26.7524 31.1112 0.0000 -0.2127 0.0000
# 2 26.7524 103.1857 45.0786 0.0000 4.1052 0.0000
# 3 31.1112 45.0786 104.7566 0.0000 -10.8550 0.0000
# 4 0.0000 0.0000 0.0000 172.3172 0.0000 -105.8414
# 5 -0.2127 4.1052 -10.8550 0.0000 43.1140 0.0000
# 6 0.0000 0.0000 0.0000 -105.8414 0.0000 122.1598
#
#
#
# Elastic Compliance Matrix: (Units=1/GPa)
#
#
# Indices 1 2 3 4 5 6 
#
# 1 0.008246 -0.001281 -0.001931 0.000000 -0.000324 0.000000
# 2 -0.001281 0.012401 -0.005215 0.000000 -0.002500 0.000000
# 3 -0.001931 -0.005215 0.012747 0.000000 0.003696 0.000000
# 4 0.000000 0.000000 0.000000 0.012405 0.000000 0.010748
# 5 -0.000324 -0.002500 0.003696 0.000000 0.024361 0.000000
# 6 0.000000 0.000000 0.000000 0.010748 0.000000 0.017498
#
#
# Mechanical properties :
#
#
# Convention : Reuss Voigt Hill
#
# Bulk Modulus (GPa) = 60.46316 60.72535 60.59425
# Shear Modulus (GPa) = 45.44373 83.36498 64.40436
#
# Velocity S-wave (km/s) = 4.56395 6.18153 5.43327
# Velocity P-wave (km/s) = 7.44895 8.87595 8.19357
#
# Compressibility (1/GPa) = 0.01653900
#
# Stress axis : x y z
#
# Youngs Moduli (GPa) = 121.26706 80.63720 78.45257
#
# Poissons Ratio (x) = 0.10333 0.15150
# Poissons Ratio (y) = 0.15540 0.40913
# Poissons Ratio (z) = 0.23418 0.42052
#
# Static dielectric constant tensor:
#      x y z
#    x 3.663000 0.000000 0.367150 
#    y 0.000000 4.077480 0.000000 
#    z 0.367150 0.000000 2.689890 
# 
# 
# High freq. dielectric constant tensor:
#      x y z
#    x 1.870460 0.000000 -0.003550 
#    y 0.000000 1.868310 0.000000 
#    z -0.003550 0.000000 1.855480 
# 
# From -- ./inp_files/48553.got.cif
#   From: 2010.03.12/outbox.cif.g09.slc.cpg/sg5_25_cif.got.tgz:48553.got - 2010.03.31 09:47:26.
