data_PCOD8051957
_publ_section_title
;
Structure prediction by ZEFSAII (Michael W. Deem and Ramdas Pophale) SiO2 
 PCOD8051957
Probable space group: C 2
;
_chemical_formula_sum "Si O2"
_cell_formula_units_Z 30
_cell_length_a 18.926237
_cell_length_b 6.342723
_cell_length_c 20.501472
_cell_angle_alpha 90.000000
_cell_angle_beta 32.952824
_cell_angle_gamma 90.000000
_cell_volume 1338.698247
_symmetry_space_group_name_H-M "C 2"
_symmetry_group_IT_number 5
_symmetry_cell_setting 'monoclinic'
loop_
_space_group_symop_operation_xyz
x,y,z
-x,y,-z
1/2+x,1/2+y,z
1/2-x,1/2+y,-z
loop_
_atom_site_type_symbol
_atom_site_label
_atom_site_fract_x
_atom_site_fract_y
_atom_site_fract_z
Si Si1 0.190561 0.892770 0.922765
Si Si2 0.500000 0.700598 0.000000
Si Si3 0.122775 0.051823 0.279876
Si Si4 0.533819 0.271899 0.815568
Si Si5 0.192841 0.427705 0.755181
Si Si6 0.815675 0.126462 0.354105
Si Si7 0.080157 0.657717 0.226496
Si Si8 0.898737 0.336985 0.425794
O O1 0.269446 0.726206 0.819005
O O2 0.287633 0.032831 0.891093
O O3 0.095767 0.762097 0.041792
O O4 0.114843 0.051647 0.935000
O O5 0.433324 0.840782 0.107980
O O6 0.979775 0.155252 0.401350
O O7 0.176162 0.935971 0.302968
O O8 0.110502 0.890961 0.228998
O O9 0.561702 0.515905 0.775997
O O10 0.505777 0.147088 0.771395
O O11 0.651793 0.159634 0.762129
O O12 0.236661 0.291041 0.658489
O O13 0.849879 0.243992 0.394592
O O14 0.720966 0.925826 0.439959
O O15 0.994818 0.534804 0.345487
#
# Coordination Sequence:
#
# PCOD8051957 Si02
#       8
#     4   2   4   4   4   4   4   4
#     4  11  25  39  70 104 148 189 240 291 358 435
#     4  12  22  46  70 104 154 192 232 298 362 438
#     4  11  25  47  71 102 149 193 228 300 370 418
#     4  12  25  42  70 109 141 185 249 290 358 434
#     4  12  26  45  74 107 145 193 237 296 361 436
#     4  12  26  47  78 105 137 187 252 297 360 428
#     4  11  24  44  69 104 142 192 236 297 359 423
#     4  11  26  48  77 100 140 190 244 307 355 426
#
# _framework density 22.409828999999998
#
# number of rings (size 3 to 8) (size 9 to 14) (size 15 to 20)
#    0.000    0.533    5.333    2.400    1.867    0.000 
#    0.000    4.000    0.000    0.000    0.000    0.000 
#    0.000    0.000    0.000    0.000    0.000    0.000 
#
# Total GULP energy -185988.326123 kJ/mol
# GULP energy per Si atom -12399.221742 kJ/mol
# Density = 2.235882 g / cm^3
# Si number density = 22.409829 Si / 1000 Ang^3
#
#
#
# Elastic Constant Matrix: (Units=GPa)
#
#
# Indices 1 2 3 4 5 6 
#
# 1 123.3007 39.5656 35.2053 -0.0003 -6.6981 -0.0009
# 2 39.5656 96.1250 32.3386 0.0099 0.3988 -0.0100
# 3 35.2053 32.3386 73.4722 0.0023 -5.4261 -0.0020
# 4 -0.0003 0.0099 0.0023 44.6365 -0.0039 -8.2589
# 5 -6.6981 0.3988 -5.4261 -0.0039 26.9628 0.0036
# 6 -0.0009 -0.0100 -0.0020 -8.2589 0.0036 48.3611
#
#
#
# Elastic Compliance Matrix: (Units=1/GPa)
#
#
# Indices 1 2 3 4 5 6 
#
# 1 0.010158 -0.003050 -0.003386 0.000001 0.001887 -0.000001
# 2 -0.003050 0.013171 -0.004472 -0.000002 -0.001853 0.000002
# 3 -0.003386 -0.004472 0.017403 0.000000 0.002727 0.000000
# 4 0.000001 -0.000002 0.000000 0.023134 0.000003 0.003951
# 5 0.001887 -0.001853 0.002727 0.000003 0.038133 -0.000003
# 6 -0.000001 0.000002 0.000000 0.003951 -0.000003 0.021352
#
#
# Mechanical properties :
#
#
# Convention : Reuss Voigt Hill
#
# Bulk Modulus (GPa) = 52.86621 56.34631 54.60626
# Shear Modulus (GPa) = 33.00915 36.37795 34.69355
#
# Velocity S-wave (km/s) = 3.84210 4.03340 3.93891
# Velocity P-wave (km/s) = 6.58211 6.84757 6.71615
#
# Compressibility (1/GPa) = 0.01891567
#
# Stress axis : x y z
#
# Youngs Moduli (GPa) = 98.44316 75.92530 57.46189
#
# Poissons Ratio (x) = 0.23157 0.19454
# Poissons Ratio (y) = 0.30025 0.25700
# Poissons Ratio (z) = 0.33329 0.33958
#
# Static dielectric constant tensor:
#      x y z
#    x 4.074170 0.000000 -0.240530 
#    y 0.000000 4.147450 -0.000030 
#    z -0.240530 -0.000030 4.395950 
# 
# 
# High freq. dielectric constant tensor:
#      x y z
#    x 1.884560 0.000000 -0.010210 
#    y 0.000000 1.899380 0.000000 
#    z -0.010210 0.000000 1.875610 
# 
# From -- ./inp_files/45692.got.cif
#   From: 2010.03.12/outbox.cif.g09.slc.cpg/sg5_23_cif.got.tgz:45692.got - 2010.03.31 09:47:26.
