data_PCOD8051268
_publ_section_title
;
Structure prediction by ZEFSAII (Michael W. Deem and Ramdas Pophale) SiO2 
 PCOD8051268
Probable space group: C 2
;
_chemical_formula_sum "Si O2"
_cell_formula_units_Z 28
_cell_length_a 19.562692
_cell_length_b 9.639698
_cell_length_c 7.870123
_cell_angle_alpha 90.000000
_cell_angle_beta 57.974504
_cell_angle_gamma 90.000000
_cell_volume 1258.268224
_symmetry_space_group_name_H-M "C 2"
_symmetry_group_IT_number 5
_symmetry_cell_setting 'monoclinic'
loop_
_space_group_symop_operation_xyz
x,y,z
-x,y,-z
1/2+x,1/2+y,z
1/2-x,1/2+y,-z
loop_
_atom_site_type_symbol
_atom_site_label
_atom_site_fract_x
_atom_site_fract_y
_atom_site_fract_z
Si Si1 0.938915 0.543260 0.933048
Si Si2 0.825729 0.330555 0.691993
Si Si3 0.000000 0.951346 0.500000
Si Si4 0.338978 0.537783 0.567246
Si Si5 0.292169 0.840072 0.118702
Si Si6 0.194458 0.034143 0.767227
Si Si7 0.000000 0.441994 0.500000
Si Si8 0.059946 0.855025 0.073301
O O1 0.979153 0.533035 0.693518
O O2 0.907055 0.699672 0.000189
O O3 0.866654 0.438630 0.060719
O O4 0.000000 0.502525 0.000000
O O5 0.800588 0.191348 0.625722
O O6 0.783154 0.465075 0.664773
O O7 0.922107 0.348938 0.560442
O O8 0.790370 0.304240 0.924430
O O9 0.017559 0.856404 0.312874
O O10 0.074596 0.048221 0.454671
O O11 0.289301 0.418829 0.727524
O O12 0.343929 0.498346 0.363898
O O13 0.298854 0.697948 0.214418
O O14 0.134040 0.963339 0.981724
O O15 0.000000 0.897333 0.000000
#
# Coordination Sequence:
#
# PCOD8051268 Si02
#       8
#     4   4   2   4   4   4   2   4
#     4  10  24  42  71  98 138 176 223 286 340 406
#     4  11  24  46  70  99 139 178 233 281 343 415
#     4  12  24  44  74 100 140 182 228 290 340 414
#     4  12  26  44  70 103 137 185 229 285 348 407
#     4  11  25  45  68 100 134 185 227 281 346 408
#     4  12  26  44  71 102 140 180 233 286 341 414
#     4  10  24  44  70 106 128 182 226 284 342 414
#     4  11  23  45  67 104 136 179 229 283 344 409
#
# _framework density 22.252808999999999
#
# number of rings (size 3 to 8) (size 9 to 14) (size 15 to 20)
#    0.000    0.857    1.429    5.143    4.000    6.286 
#    0.000    0.000    0.000    0.000    0.000    0.000 
#    0.000    0.000    0.000    0.000    0.000    0.000 
#
# Total GULP energy -173633.623278 kJ/mol
# GULP energy per Si atom -12402.401663 kJ/mol
# Density = 2.220216 g / cm^3
# Si number density = 22.252809 Si / 1000 Ang^3
#
#
#
# Elastic Constant Matrix: (Units=GPa)
#
#
# Indices 1 2 3 4 5 6 
#
# 1 128.1176 46.1293 56.5351 0.0000 3.0251 0.0000
# 2 46.1293 129.3402 37.5557 0.0000 -25.1692 0.0000
# 3 56.5351 37.5557 106.0693 0.0000 -9.0501 0.0000
# 4 0.0000 0.0000 0.0000 24.4603 0.0000 6.7132
# 5 3.0251 -25.1692 -9.0501 0.0000 34.4103 0.0000
# 6 0.0000 0.0000 0.0000 6.7132 0.0000 15.1063
#
#
#
# Elastic Compliance Matrix: (Units=1/GPa)
#
#
# Indices 1 2 3 4 5 6 
#
# 1 0.011553 -0.003548 -0.005329 0.000000 -0.005013 0.000000
# 2 -0.003548 0.010923 -0.001297 0.000000 0.007960 0.000000
# 3 -0.005329 -0.001297 0.012978 0.000000 0.002933 0.000000
# 4 0.000000 0.000000 0.000000 0.046562 0.000000 -0.020692
# 5 -0.005013 0.007960 0.002933 0.000000 0.036096 0.000000
# 6 0.000000 0.000000 0.000000 -0.020692 0.000000 0.075393
#
#
# Mechanical properties :
#
#
# Convention : Reuss Voigt Hill
#
# Bulk Modulus (GPa) = 66.20519 71.55191 68.87855
# Shear Modulus (GPa) = 22.84284 29.68252 26.26268
#
# Velocity S-wave (km/s) = 3.20740 3.65619 3.43913
# Velocity P-wave (km/s) = 6.59792 7.07443 6.84033
#
# Compressibility (1/GPa) = 0.01510456
#
# Stress axis : x y z
#
# Youngs Moduli (GPa) = 86.55855 91.55246 77.05588
#
# Poissons Ratio (x) = 0.32487 0.41063
# Poissons Ratio (y) = 0.30715 0.09993
# Poissons Ratio (z) = 0.46127 0.11873
#
# Static dielectric constant tensor:
#      x y z
#    x 4.027020 0.000000 0.052640 
#    y 0.000000 3.833430 0.000000 
#    z 0.052640 0.000000 4.101260 
# 
# 
# High freq. dielectric constant tensor:
#      x y z
#    x 1.886170 0.000000 0.006900 
#    y 0.000000 1.878540 0.000000 
#    z 0.006900 0.000000 1.883200 
# 
# From -- ./inp_files/29123.got.cif
#   From: 2010.03.12/outbox.cif.g09.slc.cpg/sg5_15_cif.got.tgz:29123.got - 2010.03.31 09:47:26.
