data_PCOD8051973
_publ_section_title
;
Structure prediction by ZEFSAII (Michael W. Deem and Ramdas Pophale) SiO2 
 PCOD8051973
Probable space group: C 2
;
_chemical_formula_sum "Si O2"
_cell_formula_units_Z 28
_cell_length_a 18.621684
_cell_length_b 10.363608
_cell_length_c 8.242168
_cell_angle_alpha 90.000000
_cell_angle_beta 51.538807
_cell_angle_gamma 90.000000
_cell_volume 1245.516770
_symmetry_space_group_name_H-M "C 2"
_symmetry_group_IT_number 5
_symmetry_cell_setting 'monoclinic'
loop_
_space_group_symop_operation_xyz
x,y,z
-x,y,-z
1/2+x,1/2+y,z
1/2-x,1/2+y,-z
loop_
_atom_site_type_symbol
_atom_site_label
_atom_site_fract_x
_atom_site_fract_y
_atom_site_fract_z
Si Si1 0.893645 0.977700 0.165498
Si Si2 0.500000 0.081941 0.500000
Si Si3 0.500000 0.606703 0.500000
Si Si4 0.175148 0.987913 0.094049
Si Si5 0.122966 0.218612 0.588008
Si Si6 0.167992 0.698878 0.101490
Si Si7 0.563788 0.991075 0.753877
Si Si8 0.671745 0.212822 0.740914
O O1 0.854978 0.848448 0.306352
O O2 0.871808 0.103214 0.295257
O O3 0.000000 0.955929 0.000000
O O4 0.844099 0.999794 0.066819
O O5 0.590237 0.167465 0.343073
O O6 0.515637 0.999484 0.643810
O O7 0.582722 0.516830 0.323729
O O8 0.538271 0.700520 0.585107
O O9 0.207725 0.841350 0.090544
O O10 0.254901 0.089133 0.017722
O O11 0.109321 0.350960 0.704464
O O12 0.220867 0.216500 0.362319
O O13 0.120980 0.702877 0.988011
O O14 0.643865 0.098413 0.657911
O O15 0.500000 0.010482 0.000000
#
# Coordination Sequence:
#
# PCOD8051973 Si02
#       8
#     4   2   2   4   4   4   4   4
#     4  11  24  45  71  99 143 191 239 292 366 446
#     4  12  28  48  74 112 144 204 246 302 376 448
#     4  12  24  46  72 104 146 188 244 308 362 456
#     4  11  26  46  73 106 144 192 244 307 367 443
#     4  12  26  45  70 107 141 192 241 301 374 432
#     4  11  26  47  73 107 149 191 250 304 373 438
#     4  12  27  49  74 107 147 191 246 309 367 438
#     4  11  25  47  71 105 145 191 241 304 363 446
#
# _framework density 22.480630000000001
#
# number of rings (size 3 to 8) (size 9 to 14) (size 15 to 20)
#    0.000    0.571    4.286    2.571    8.000    3.429 
#    0.000    0.000    0.000    0.000    0.000    0.000 
#    0.000    0.000    0.000    0.000    0.000    0.000 
#
# Total GULP energy -173579.759993 kJ/mol
# GULP energy per Si atom -12398.554285 kJ/mol
# Density = 2.242946 g / cm^3
# Si number density = 22.480630 Si / 1000 Ang^3
#
#
#
# Elastic Constant Matrix: (Units=GPa)
#
#
# Indices 1 2 3 4 5 6 
#
# 1 108.6346 67.1144 34.7283 0.0000 -0.8543 0.0000
# 2 67.1144 216.9309 59.0190 0.0000 -3.0320 0.0000
# 3 34.7283 59.0190 112.2892 0.0000 -7.5717 0.0000
# 4 0.0000 0.0000 0.0000 30.6154 0.0000 -1.2722
# 5 -0.8543 -3.0320 -7.5717 0.0000 40.0014 0.0000
# 6 0.0000 0.0000 0.0000 -1.2722 0.0000 37.4634
#
#
#
# Elastic Compliance Matrix: (Units=1/GPa)
#
#
# Indices 1 2 3 4 5 6 
#
# 1 0.011763 -0.003090 -0.002039 0.000000 -0.000369 0.000000
# 2 -0.003090 0.006191 -0.002301 0.000000 -0.000032 0.000000
# 3 -0.002039 -0.002301 0.010869 0.000000 0.001839 0.000000
# 4 0.000000 0.000000 0.000000 0.032709 0.000000 0.001111
# 5 -0.000369 -0.000032 0.001839 0.000000 0.025337 0.000000
# 6 0.000000 0.000000 0.000000 0.001111 0.000000 0.026730
#
#
# Mechanical properties :
#
#
# Convention : Reuss Voigt Hill
#
# Bulk Modulus (GPa) = 71.60791 84.39756 78.00274
# Shear Modulus (GPa) = 37.56188 40.08226 38.82207
#
# Velocity S-wave (km/s) = 4.09204 4.22710 4.16012
# Velocity P-wave (km/s) = 7.36537 7.83890 7.60582
#
# Compressibility (1/GPa) = 0.01396494
#
# Stress axis : x y z
#
# Youngs Moduli (GPa) = 85.01338 161.52171 92.00120
#
# Poissons Ratio (x) = 0.49905 0.18758
# Poissons Ratio (y) = 0.26266 0.21166
# Poissons Ratio (z) = 0.17334 0.37161
#
# Static dielectric constant tensor:
#      x y z
#    x 4.064450 0.000000 0.010910 
#    y 0.000000 4.292960 0.000000 
#    z 0.010910 0.000000 3.777110 
# 
# 
# High freq. dielectric constant tensor:
#      x y z
#    x 1.882650 0.000000 -0.000940 
#    y 0.000000 1.902610 0.000000 
#    z -0.000940 0.000000 1.889600 
# 
# From -- ./inp_files/29131.got.cif
#   From: 2010.03.12/outbox.cif.g09.slc.cpg/sg5_15_cif.got.tgz:29131.got - 2010.03.31 09:47:26.
