data_PCOD8051812
_publ_section_title
;
Structure prediction by ZEFSAII (Michael W. Deem and Ramdas Pophale) SiO2 
 PCOD8051812
Probable space group: C 2
;
_chemical_formula_sum "Si O2"
_cell_formula_units_Z 20
_cell_length_a 7.325708
_cell_length_b 11.870930
_cell_length_c 14.472832
_cell_angle_alpha 90.000000
_cell_angle_beta 127.723772
_cell_angle_gamma 90.000000
_cell_volume 995.514842
_symmetry_space_group_name_H-M "C 2"
_symmetry_group_IT_number 5
_symmetry_cell_setting 'monoclinic'
loop_
_space_group_symop_operation_xyz
x,y,z
-x,y,-z
1/2+x,1/2+y,z
1/2-x,1/2+y,-z
loop_
_atom_site_type_symbol
_atom_site_label
_atom_site_fract_x
_atom_site_fract_y
_atom_site_fract_z
Si Si1 0.981864 0.424820 0.775140
Si Si2 0.349235 0.989588 0.363199
Si Si3 0.401046 0.370120 0.218204
Si Si4 0.100062 0.187912 0.194465
Si Si5 0.727640 0.027211 0.014917
O O1 0.981495 0.468360 0.670608
O O2 0.731641 0.445728 0.744815
O O3 0.030927 0.289977 0.793198
O O4 0.175907 0.493192 0.892995
O O5 0.500000 0.005078 0.500000
O O6 0.174763 0.883260 0.319869
O O7 0.199934 0.102250 0.301516
O O8 0.313037 0.240347 0.199447
O O9 0.333431 0.415865 0.096299
O O10 0.914796 0.126905 0.071476
O O11 0.500000 0.066243 0.000000
#
# Coordination Sequence:
#
# PCOD8051812 Si02
#       5
#     4   4   4   4   4
#     4   9  21  39  61  87 121 160 188 242 304 345
#     4  11  23  40  61  85 118 161 209 246 281 344
#     4   8  20  40  59  86 124 148 193 249 294 350
#     4   9  21  41  60  90 123 153 195 241 301 351
#     4   9  17  37  62  92 123 153 189 238 297 371
#
# _framework density 20.090105000000001
#
# number of rings (size 3 to 8) (size 9 to 14) (size 15 to 20)
#    1.200    1.600    0.000    0.000    0.000    8.800 
#   18.000    0.000    0.000    0.000    0.000    0.000 
#    0.000    0.000    0.000    0.000    0.000    0.000 
#
# Total GULP energy -123918.375800 kJ/mol
# GULP energy per Si atom -12391.837580 kJ/mol
# Density = 2.004438 g / cm^3
# Si number density = 20.090105 Si / 1000 Ang^3
#
#
#
# Elastic Constant Matrix: (Units=GPa)
#
#
# Indices 1 2 3 4 5 6 
#
# 1 63.4533 15.6538 38.4462 0.0000 -5.4863 0.0000
# 2 15.6538 82.1387 16.9715 0.0000 -2.9719 0.0000
# 3 38.4462 16.9715 96.9366 0.0000 -16.6848 0.0000
# 4 0.0000 0.0000 0.0000 15.8476 0.0000 3.4660
# 5 -5.4863 -2.9719 -16.6848 0.0000 33.0427 0.0000
# 6 0.0000 0.0000 0.0000 3.4660 0.0000 28.0784
#
#
#
# Elastic Compliance Matrix: (Units=1/GPa)
#
#
# Indices 1 2 3 4 5 6 
#
# 1 0.021206 -0.002391 -0.008129 0.000000 -0.000799 0.000000
# 2 -0.002391 0.012901 -0.001291 0.000000 0.000111 0.000000
# 3 -0.008129 -0.001291 0.014800 0.000000 0.006007 0.000000
# 4 0.000000 0.000000 0.000000 0.064852 0.000000 -0.008005
# 5 -0.000799 0.000111 0.006007 0.000000 0.033175 0.000000
# 6 0.000000 0.000000 0.000000 -0.008005 0.000000 0.036603
#
#
# Mechanical properties :
#
#
# Convention : Reuss Voigt Hill
#
# Bulk Modulus (GPa) = 39.55017 42.74130 41.14573
# Shear Modulus (GPa) = 23.19244 26.82422 25.00833
#
# Velocity S-wave (km/s) = 3.40136 3.65800 3.53201
# Velocity P-wave (km/s) = 5.92915 6.25797 6.09578
#
# Compressibility (1/GPa) = 0.02528434
#
# Stress axis : x y z
#
# Youngs Moduli (GPa) = 47.15665 77.51355 67.56584
#
# Poissons Ratio (x) = 0.18530 0.54928
# Poissons Ratio (y) = 0.11273 0.08725
# Poissons Ratio (z) = 0.38336 0.10010
#
# Static dielectric constant tensor:
#      x y z
#    x 3.544170 0.000000 0.123430 
#    y 0.000000 3.537380 0.000000 
#    z 0.123430 0.000000 3.319390 
# 
# 
# High freq. dielectric constant tensor:
#      x y z
#    x 1.779550 0.000000 0.000760 
#    y 0.000000 1.774550 0.000000 
#    z 0.000760 0.000000 1.759340 
# 
# From -- ./inp_files/35017.got.cif
#   From: 2010.03.12/outbox.cif.g09.slc.cpg/sg5_18_cif.got.tgz:35017.got - 2010.03.31 09:47:26.
