data_PCOD8051699
_publ_section_title
;
Structure prediction by ZEFSAII (Michael W. Deem and Ramdas Pophale) SiO2 
 PCOD8051699
Probable space group: C 2
;
_chemical_formula_sum "Si O2"
_cell_formula_units_Z 32
_cell_length_a 19.384356
_cell_length_b 11.594744
_cell_length_c 19.656440
_cell_angle_alpha 90.000000
_cell_angle_beta 158.749973
_cell_angle_gamma 90.000000
_cell_volume 1601.222573
_symmetry_space_group_name_H-M "C 2"
_symmetry_group_IT_number 5
_symmetry_cell_setting 'monoclinic'
loop_
_space_group_symop_operation_xyz
x,y,z
-x,y,-z
1/2+x,1/2+y,z
1/2-x,1/2+y,-z
loop_
_atom_site_type_symbol
_atom_site_label
_atom_site_fract_x
_atom_site_fract_y
_atom_site_fract_z
Si Si1 0.958354 0.665330 0.886139
Si Si2 0.974985 0.108203 0.793757
Si Si3 0.076467 0.386340 0.751262
Si Si4 0.380872 0.669465 0.510006
Si Si5 0.296863 0.539834 0.132260
Si Si6 0.891344 0.620464 0.622173
Si Si7 0.755771 0.790272 0.051515
Si Si8 0.057162 0.930481 0.978724
O O1 0.006753 0.798380 0.923382
O O2 0.728285 0.660097 0.662654
O O3 0.087707 0.594720 0.950685
O O4 0.000000 0.618174 0.000000
O O5 0.113591 0.073023 0.858376
O O6 0.764486 0.147147 0.579244
O O7 0.948531 0.004236 0.821914
O O8 0.083061 0.217232 0.926554
O O9 0.935137 0.299095 0.582819
O O10 0.964451 0.490045 0.683012
O O11 0.200428 0.320154 0.922533
O O12 0.215927 0.442023 0.823151
O O13 0.565806 0.587462 0.681623
O O14 0.215169 0.621716 0.405035
O O15 0.282336 0.402296 0.122707
O O16 0.050825 0.717872 0.766929
O O17 0.000000 0.978528 0.000000
#
# Coordination Sequence:
#
# PCOD8051699 Si02
#       8
#     4   4   4   4   4   4   4   4
#     4  11  24  44  64  90 129 168 206 260 320 378
#     4  11  22  40  62  93 127 162 208 262 308 379
#     4  12  21  39  63  96 131 163 209 260 318 379
#     4  11  23  37  62  98 125 162 208 258 315 374
#     4  11  23  38  64  92 123 168 209 262 311 368
#     4  11  24  35  63  95 126 163 203 264 314 371
#     4  12  21  38  63  90 129 160 206 260 318 360
#     4  11  22  41  66  92 130 170 203 261 321 374
#
# _framework density 19.984729000000002
#
# number of rings (size 3 to 8) (size 9 to 14) (size 15 to 20)
#    0.000    0.750    6.250    3.000    3.500    1.500 
#    0.000    2.500    0.000    1.500    0.000    0.000 
#    0.000    0.000    0.000    0.000    0.000    0.000 
#
# Total GULP energy -198350.842917 kJ/mol
# GULP energy per Si atom -12396.927682 kJ/mol
# Density = 1.993924 g / cm^3
# Si number density = 19.984729 Si / 1000 Ang^3
#
#
#
# Elastic Constant Matrix: (Units=GPa)
#
#
# Indices 1 2 3 4 5 6 
#
# 1 64.1332 17.2742 22.6943 0.0092 -4.4187 0.0153
# 2 17.2742 108.3096 46.3838 -0.0146 -1.1696 -0.0143
# 3 22.6943 46.3838 135.3739 0.0116 0.7864 -0.0111
# 4 0.0092 -0.0146 0.0116 33.7823 0.0015 7.2933
# 5 -4.4187 -1.1696 0.7864 0.0015 23.6373 0.0055
# 6 0.0153 -0.0143 -0.0111 7.2933 0.0055 22.7450
#
#
#
# Elastic Compliance Matrix: (Units=1/GPa)
#
#
# Indices 1 2 3 4 5 6 
#
# 1 0.017085 -0.001706 -0.002298 -0.000002 0.003186 -0.000014
# 2 -0.001706 0.011001 -0.003485 0.000005 0.000341 0.000005
# 3 -0.002298 -0.003485 0.008972 -0.000005 -0.000901 0.000006
# 4 -0.000002 0.000005 -0.000005 0.031803 0.000000 -0.010198
# 5 0.003186 0.000341 -0.000901 0.000000 0.042948 -0.000013
# 6 -0.000014 0.000005 0.000006 -0.010198 -0.000013 0.047236
#
#
# Mechanical properties :
#
#
# Convention : Reuss Voigt Hill
#
# Bulk Modulus (GPa) = 45.29321 53.39127 49.34224
# Shear Modulus (GPa) = 27.56591 30.79721 29.18156
#
# Velocity S-wave (km/s) = 3.71799 3.92986 3.82539
# Velocity P-wave (km/s) = 6.41439 6.88228 6.65245
#
# Compressibility (1/GPa) = 0.02207836
#
# Stress axis : x y z
#
# Youngs Moduli (GPa) = 58.53145 90.89903 111.46262
#
# Poissons Ratio (x) = 0.15510 0.25614
# Poissons Ratio (y) = 0.09987 0.38848
# Poissons Ratio (z) = 0.13450 0.31681
#
# Static dielectric constant tensor:
#      x y z
#    x 3.514570 -0.000030 0.071290 
#    y -0.000030 3.764200 -0.000070 
#    z 0.071290 -0.000070 4.165690 
# 
# 
# High freq. dielectric constant tensor:
#      x y z
#    x 1.742770 0.000000 0.007080 
#    y 0.000000 1.780730 0.000000 
#    z 0.007080 0.000000 1.801050 
# 
# From -- ./inp_files/67143.got.cif
#   From: 2010.03.12/outbox.cif.g09.slc.cpg/sg5_34_cif.got.tgz:67143.got - 2010.03.31 09:47:26.
