data_PCOD8051219
_publ_section_title
;
Structure prediction by ZEFSAII (Michael W. Deem and Ramdas Pophale) SiO2 
 PCOD8051219
Probable space group: C 2
;
_chemical_formula_sum "Si O2"
_cell_formula_units_Z 22
_cell_length_a 5.204607
_cell_length_b 8.926850
_cell_length_c 22.627682
_cell_angle_alpha 90.000000
_cell_angle_beta 76.211727
_cell_angle_gamma 90.000000
_cell_volume 1021.003789
_symmetry_space_group_name_H-M "C 2"
_symmetry_group_IT_number 5
_symmetry_cell_setting 'monoclinic'
loop_
_space_group_symop_operation_xyz
x,y,z
-x,y,-z
1/2+x,1/2+y,z
1/2-x,1/2+y,-z
loop_
_atom_site_type_symbol
_atom_site_label
_atom_site_fract_x
_atom_site_fract_y
_atom_site_fract_z
Si Si1 0.932748 0.801820 0.072038
Si Si2 0.397176 0.471139 0.445271
Si Si3 0.686859 0.132935 0.263066
Si Si4 0.500000 0.187236 0.500000
Si Si5 0.139876 0.968814 0.308931
Si Si6 0.883516 0.136472 0.119768
O O1 0.659536 0.719165 0.097802
O O2 0.163136 0.719521 0.094242
O O3 0.911587 0.969252 0.095771
O O4 0.000000 0.800574 0.000000
O O5 0.500000 0.550309 0.500000
O O6 0.327104 0.297930 0.466467
O O7 0.147752 0.577610 0.444851
O O8 0.610300 0.475942 0.381283
O O9 0.642799 0.298912 0.288351
O O10 0.808309 0.137370 0.191866
O O11 0.407442 0.049164 0.275060
O O12 0.885913 0.046614 0.294605
#
# Coordination Sequence:
#
# PCOD8051219 Si02
#       6
#     4   4   4   2   4   4
#     4  12  24  42  69 103 135 178 223 276 331 394
#     4  10  26  40  66  92 130 168 215 281 342 392
#     4  12  26  47  68 102 131 187 221 278 329 396
#     4  10  24  40  64  90 128 162 216 256 364 388
#     4  12  26  43  71  96 136 171 239 272 335 406
#     4  12  25  45  70  97 145 176 225 274 333 392
#
# _framework density 21.547423999999999
#
# number of rings (size 3 to 8) (size 9 to 14) (size 15 to 20)
#    0.545    0.000    0.000    8.182    6.364    0.000 
#    0.000    0.000    0.000    0.000    0.000    0.000 
#    0.000    0.000    0.000    0.000    0.000    0.000 
#
# Total GULP energy -136357.511587 kJ/mol
# GULP energy per Si atom -12396.137417 kJ/mol
# Density = 2.149838 g / cm^3
# Si number density = 21.547424 Si / 1000 Ang^3
#
#
#
# Elastic Constant Matrix: (Units=GPa)
#
#
# Indices 1 2 3 4 5 6 
#
# 1 127.1765 71.5439 19.1984 0.0000 -3.8089 0.0000
# 2 71.5439 207.9560 45.9507 0.0000 -14.5446 0.0000
# 3 19.1984 45.9507 165.2662 0.0000 -16.7974 0.0000
# 4 0.0000 0.0000 0.0000 35.5837 0.0000 -2.8063
# 5 -3.8089 -14.5446 -16.7974 0.0000 50.3405 0.0000
# 6 0.0000 0.0000 0.0000 -2.8063 0.0000 57.3368
#
#
#
# Elastic Compliance Matrix: (Units=1/GPa)
#
#
# Indices 1 2 3 4 5 6 
#
# 1 0.009762 -0.003326 -0.000240 0.000000 -0.000303 0.000000
# 2 -0.003326 0.006310 -0.001251 0.000000 0.001154 0.000000
# 3 -0.000240 -0.001251 0.006612 0.000000 0.001827 0.000000
# 4 0.000000 0.000000 0.000000 0.028212 0.000000 0.001381
# 5 -0.000303 0.001154 0.001827 0.000000 0.020785 0.000000
# 6 0.000000 0.000000 0.000000 0.001381 0.000000 0.017508
#
#
# Mechanical properties :
#
#
# Convention : Reuss Voigt Hill
#
# Bulk Modulus (GPa) = 76.62956 85.97607 81.30282
# Shear Modulus (GPa) = 48.46237 52.89926 50.68082
#
# Velocity S-wave (km/s) = 4.74762 4.96019 4.85506
# Velocity P-wave (km/s) = 8.10516 8.53183 8.32123
#
# Compressibility (1/GPa) = 0.01304979
#
# Stress axis : x y z
#
# Youngs Moduli (GPa) = 102.44273 158.47307 151.23698
#
# Poissons Ratio (x) = 0.52716 0.03627
# Poissons Ratio (y) = 0.34077 0.18916
# Poissons Ratio (z) = 0.02457 0.19821
#
# Static dielectric constant tensor:
#      x y z
#    x 4.073440 0.000000 -0.022600 
#    y 0.000000 4.176440 0.000000 
#    z -0.022600 0.000000 4.124590 
# 
# 
# High freq. dielectric constant tensor:
#      x y z
#    x 1.850360 0.000000 -0.007280 
#    y 0.000000 1.874550 0.000000 
#    z -0.007280 0.000000 1.864110 
# 
# From -- ./inp_files/63858.got.cif
#   From: 2010.03.12/outbox.cif.g09.slc.cpg/sg5_32_cif.got.tgz:63858.got - 2010.03.31 09:47:26.
