data_PCOD8051795
_publ_section_title
;
Structure prediction by ZEFSAII (Michael W. Deem and Ramdas Pophale) SiO2 
 PCOD8051795
Probable space group: C 2
;
_chemical_formula_sum "Si O2"
_cell_formula_units_Z 22
_cell_length_a 7.546183
_cell_length_b 16.858642
_cell_length_c 8.863406
_cell_angle_alpha 90.000000
_cell_angle_beta 84.775914
_cell_angle_gamma 90.000000
_cell_volume 1122.904545
_symmetry_space_group_name_H-M "C 2"
_symmetry_group_IT_number 5
_symmetry_cell_setting 'monoclinic'
loop_
_space_group_symop_operation_xyz
x,y,z
-x,y,-z
1/2+x,1/2+y,z
1/2-x,1/2+y,-z
loop_
_atom_site_type_symbol
_atom_site_label
_atom_site_fract_x
_atom_site_fract_y
_atom_site_fract_z
Si Si1 0.321669 0.914040 0.419096
Si Si2 0.116606 0.960570 0.846484
Si Si3 0.149307 0.812822 0.669332
Si Si4 0.827220 0.066617 0.439876
Si Si5 0.057156 0.360745 0.153575
Si Si6 0.000000 0.679802 0.500000
O O1 0.500000 0.926366 0.500000
O O2 0.201172 0.844663 0.498977
O O3 0.374548 0.889594 0.246260
O O4 0.218203 0.997033 0.436701
O O5 0.129648 0.033845 0.730547
O O6 0.035621 0.881943 0.765546
O O7 0.317395 0.938151 0.882890
O O8 0.000000 0.984270 0.000000
O O9 0.331288 0.797482 0.752992
O O10 0.043801 0.731850 0.647007
O O11 0.668153 0.128448 0.438534
O O12 0.000000 0.109225 0.500000
O O13 0.000000 0.321357 0.000000
#
# Coordination Sequence:
#
# PCOD8051795 Si02
#       6
#     4   4   4   4   4   2
#     4   9  16  37  58  92 118 154 219 256 304 368
#     4   9  20  38  60  96 118 161 213 258 310 368
#     4   8  21  33  63  86 119 167 202 261 310 364
#     4  11  23  36  66  91 124 172 210 260 314 376
#     4   9  18  31  59  99 120 155 202 273 312 358
#     4  12  22  44  60  94 134 164 214 258 322 366
#
# _framework density 19.592047999999998
#
# number of rings (size 3 to 8) (size 9 to 14) (size 15 to 20)
#    1.091    1.455    2.727    0.000    7.636    2.182 
#    0.000    0.000    4.000    1.091    0.000    0.000 
#    0.000    0.000    0.000    0.000    0.000    0.000 
#
# Total GULP energy -136283.000516 kJ/mol
# GULP energy per Si atom -12389.363683 kJ/mol
# Density = 1.954746 g / cm^3
# Si number density = 19.592048 Si / 1000 Ang^3
#
#
#
# Elastic Constant Matrix: (Units=GPa)
#
#
# Indices 1 2 3 4 5 6 
#
# 1 100.9244 51.1930 51.9357 0.0000 -9.0734 0.0000
# 2 51.1930 90.5559 54.2400 0.0000 2.8511 0.0000
# 3 51.9357 54.2400 135.4836 0.0000 -11.9256 0.0000
# 4 0.0000 0.0000 0.0000 16.1806 0.0000 6.7538
# 5 -9.0734 2.8511 -11.9256 0.0000 31.9166 0.0000
# 6 0.0000 0.0000 0.0000 6.7538 0.0000 25.2916
#
#
#
# Elastic Compliance Matrix: (Units=1/GPa)
#
#
# Indices 1 2 3 4 5 6 
#
# 1 0.015261 -0.007182 -0.002622 0.000000 0.004000 0.000000
# 2 -0.007182 0.018315 -0.005070 0.000000 -0.005572 0.000000
# 3 -0.002622 -0.005070 0.010743 0.000000 0.003722 0.000000
# 4 0.000000 0.000000 0.000000 0.069555 0.000000 -0.018574
# 5 0.004000 -0.005572 0.003722 0.000000 0.034357 0.000000
# 6 0.000000 0.000000 0.000000 -0.018574 0.000000 0.044499
#
#
# Mechanical properties :
#
#
# Convention : Reuss Voigt Hill
#
# Bulk Modulus (GPa) = 68.63184 71.30015 69.96599
# Shear Modulus (GPa) = 21.99386 25.98410 23.98898
#
# Velocity S-wave (km/s) = 3.35414 3.64573 3.50297
# Velocity P-wave (km/s) = 7.07862 7.36160 7.22150
#
# Compressibility (1/GPa) = 0.01457050
#
# Stress axis : x y z
#
# Youngs Moduli (GPa) = 65.52761 54.59953 93.08023
#
# Poissons Ratio (x) = 0.39215 0.24410
# Poissons Ratio (y) = 0.47064 0.47188
# Poissons Ratio (z) = 0.17185 0.27680
#
# Static dielectric constant tensor:
#      x y z
#    x 3.864490 0.000000 -0.162730 
#    y 0.000000 3.145350 0.000000 
#    z -0.162730 0.000000 3.511630 
# 
# 
# High freq. dielectric constant tensor:
#      x y z
#    x 1.778320 0.000000 0.004000 
#    y 0.000000 1.714280 0.000000 
#    z 0.004000 0.000000 1.751540 
# 
# From -- ./inp_files/15418.got.cif
#   From: 2010.03.12/outbox.cif.g09.slc.cpg/sg5_8_cif.got.tgz:15418.got - 2010.03.31 09:47:26.
