data_PCOD8051119
_publ_section_title
;
Structure prediction by ZEFSAII (Michael W. Deem and Ramdas Pophale) SiO2 
 PCOD8051119
Probable space group: C 2
;
_chemical_formula_sum "Si O2"
_cell_formula_units_Z 32
_cell_length_a 11.630981
_cell_length_b 8.617007
_cell_length_c 28.745949
_cell_angle_alpha 90.000000
_cell_angle_beta 32.392540
_cell_angle_gamma 90.000000
_cell_volume 1543.422245
_symmetry_space_group_name_H-M "C 2"
_symmetry_group_IT_number 5
_symmetry_cell_setting 'monoclinic'
loop_
_space_group_symop_operation_xyz
x,y,z
-x,y,-z
1/2+x,1/2+y,z
1/2-x,1/2+y,-z
loop_
_atom_site_type_symbol
_atom_site_label
_atom_site_fract_x
_atom_site_fract_y
_atom_site_fract_z
Si Si1 0.030502 0.328380 0.772113
Si Si2 0.800699 0.367274 0.034775
Si Si3 0.529148 0.267801 0.603400
Si Si4 0.820075 0.539598 0.525904
Si Si5 0.079697 0.775839 0.261806
Si Si6 0.526580 0.175751 0.794960
Si Si7 0.542741 0.678878 0.106789
Si Si8 0.071312 0.132768 0.282610
O O1 0.287603 0.329040 0.681895
O O2 0.960534 0.505908 0.799632
O O3 0.928211 0.247936 0.851872
O O4 0.934132 0.240667 0.760689
O O5 0.668056 0.240832 0.108523
O O6 0.657903 0.513456 0.068345
O O7 0.863906 0.290734 0.964479
O O8 0.000000 0.417354 0.000000
O O9 0.700668 0.404862 0.538272
O O10 0.566002 0.139161 0.552541
O O11 0.554578 0.208764 0.648231
O O12 0.653900 0.640665 0.613103
O O13 0.000000 0.474514 0.500000
O O14 0.935586 0.774162 0.265003
O O15 0.288648 0.667884 0.183396
O O16 0.140947 0.956342 0.248142
O O17 0.744901 0.200324 0.747739
#
# Coordination Sequence:
#
# PCOD8051119 Si02
#       8
#     4   4   4   4   4   4   4   4
#     4  11  23  44  70  98 135 178 227 275 339 411
#     4  12  27  45  68 101 140 177 226 287 341 405
#     4  10  23  44  65  98 137 173 225 280 332 400
#     4  11  22  43  65  98 138 177 219 282 338 391
#     4  10  23  46  65  97 136 172 227 276 336 413
#     4  12  24  44  71  98 136 177 229 277 334 413
#     4  11  24  46  68  96 137 175 221 284 339 399
#     4  11  24  44  70  96 137 181 222 277 341 402
#
# _framework density 20.733146999999999
#
# number of rings (size 3 to 8) (size 9 to 14) (size 15 to 20)
#    0.000    1.000    6.250    1.500    1.750    3.000 
#    2.250    0.000    0.000    0.000    0.000    0.000 
#    0.000    0.000    0.000    0.000    0.000    0.000 
#
# Total GULP energy -198343.271320 kJ/mol
# GULP energy per Si atom -12396.454458 kJ/mol
# Density = 2.068596 g / cm^3
# Si number density = 20.733147 Si / 1000 Ang^3
#
#
#
# Elastic Constant Matrix: (Units=GPa)
#
#
# Indices 1 2 3 4 5 6 
#
# 1 153.9451 43.5727 51.8441 0.0047 3.7430 0.0029
# 2 43.5727 87.6534 64.0366 0.0109 -3.6910 0.0067
# 3 51.8441 64.0366 94.9176 0.0208 14.1712 0.0125
# 4 0.0047 0.0109 0.0208 10.9000 0.0040 -14.5525
# 5 3.7430 -3.6910 14.1712 0.0040 29.5528 0.0026
# 6 0.0029 0.0067 0.0125 -14.5525 0.0026 28.5944
#
#
#
# Elastic Compliance Matrix: (Units=1/GPa)
#
#
# Indices 1 2 3 4 5 6 
#
# 1 0.008072 -0.001414 -0.003529 0.000018 0.000493 0.000010
# 2 -0.001414 0.026529 -0.019008 0.000022 0.012607 0.000013
# 3 -0.003529 -0.019008 0.027546 -0.000107 -0.015136 -0.000060
# 4 0.000018 0.000022 -0.000107 0.286217 0.000001 0.145664
# 5 0.000493 0.012607 -0.015136 0.000001 0.042608 0.000000
# 6 0.000010 0.000013 -0.000060 0.145664 0.000000 0.109104
#
#
# Mechanical properties :
#
#
# Convention : Reuss Voigt Hill
#
# Bulk Modulus (GPa) = 70.19240 72.82475 71.50857
# Shear Modulus (GPa) = 9.04608 25.61363 17.32985
#
# Velocity S-wave (km/s) = 2.09107 3.51863 2.89425
# Velocity P-wave (km/s) = 6.30545 7.19088 6.76267
#
# Compressibility (1/GPa) = 0.01424656
#
# Stress axis : x y z
#
# Youngs Moduli (GPa) = 123.87795 37.69514 36.30253
#
# Poissons Ratio (x) = 0.05330 0.12811
# Poissons Ratio (y) = 0.17517 0.69002
# Poissons Ratio (z) = 0.43715 0.71649
#
# Static dielectric constant tensor:
#      x y z
#    x 4.088480 0.000000 0.147440 
#    y 0.000000 3.659990 -0.000020 
#    z 0.147440 -0.000020 3.901470 
# 
# 
# High freq. dielectric constant tensor:
#      x y z
#    x 1.833240 0.000000 0.010250 
#    y 0.000000 1.800500 0.000000 
#    z 0.010250 0.000000 1.818410 
# 
# From -- ./inp_files/71734.got.cif
#   From: 2010.03.12/outbox.cif.g09.slc.cpg/sg5_36_cif.got.tgz:71734.got - 2010.03.31 09:47:26.
