data_PCOD8051661
_publ_section_title
;
Structure prediction by ZEFSAII (Michael W. Deem and Ramdas Pophale) SiO2 
 PCOD8051661
Probable space group: C 2
;
_chemical_formula_sum "Si O2"
_cell_formula_units_Z 28
_cell_length_a 14.282402
_cell_length_b 6.524722
_cell_length_c 16.095389
_cell_angle_alpha 90.000000
_cell_angle_beta 126.453340
_cell_angle_gamma 90.000000
_cell_volume 1206.437837
_symmetry_space_group_name_H-M "C 2"
_symmetry_group_IT_number 5
_symmetry_cell_setting 'monoclinic'
loop_
_space_group_symop_operation_xyz
x,y,z
-x,y,-z
1/2+x,1/2+y,z
1/2-x,1/2+y,-z
loop_
_atom_site_type_symbol
_atom_site_label
_atom_site_fract_x
_atom_site_fract_y
_atom_site_fract_z
Si Si1 0.500000 0.159060 0.000000
Si Si2 0.118101 0.017333 0.454485
Si Si3 0.500000 0.181743 0.500000
Si Si4 0.420264 0.648107 0.241868
Si Si5 0.708135 0.253708 0.863144
Si Si6 0.706203 0.403567 0.187631
Si Si7 0.102754 0.414264 0.915689
Si Si8 0.712021 0.883099 0.596729
O O1 0.389573 0.299946 0.922275
O O2 0.507433 0.007417 0.926138
O O3 0.160137 0.154517 0.555107
O O4 0.040062 0.163474 0.355109
O O5 0.040559 0.825538 0.444777
O O6 0.229717 0.947467 0.459665
O O7 0.611624 0.037619 0.577075
O O8 0.373153 0.418021 0.223933
O O9 0.329603 0.799938 0.235816
O O10 0.443414 0.713090 0.157485
O O11 0.790248 0.142596 0.837957
O O12 0.625958 0.085718 0.859906
O O13 0.781056 0.366116 0.972574
O O14 0.688518 0.381028 0.278000
#
# Coordination Sequence:
#
# PCOD8051661 Si02
#       8
#     2   4   2   4   4   4   4   4
#     4  12  26  44  64 108 144 188 232 300 360 436
#     4  12  27  48  79 109 149 192 248 306 372 446
#     4  12  24  52  80 104 156 194 238 316 366 438
#     4  11  24  45  72 102 138 195 237 296 362 430
#     4  11  21  44  68  96 135 193 232 285 355 427
#     4  11  26  44  69 102 147 186 242 295 362 431
#     4  11  23  41  67  98 141 177 236 286 349 428
#     4  12  27  50  75 112 146 195 247 304 375 446
#
# _framework density 23.208819999999999
#
# number of rings (size 3 to 8) (size 9 to 14) (size 15 to 20)
#    0.000    0.571    4.286    3.857    2.000    4.000 
#    2.571    0.000    0.000    0.000    0.000    0.000 
#    0.000    0.000    0.000    0.000    0.000    0.000 
#
# Total GULP energy -173589.145396 kJ/mol
# GULP energy per Si atom -12399.224671 kJ/mol
# Density = 2.315600 g / cm^3
# Si number density = 23.208820 Si / 1000 Ang^3
#
#
#
# Elastic Constant Matrix: (Units=GPa)
#
#
# Indices 1 2 3 4 5 6 
#
# 1 91.2746 38.6050 15.4712 0.0000 -10.7894 0.0000
# 2 38.6050 114.7662 22.6590 0.0000 -10.4626 0.0000
# 3 15.4712 22.6590 92.1641 0.0000 -9.2110 0.0000
# 4 0.0000 0.0000 0.0000 29.5315 0.0000 -11.2715
# 5 -10.7894 -10.4626 -9.2110 0.0000 37.7736 0.0000
# 6 0.0000 0.0000 0.0000 -11.2715 0.0000 37.1632
#
#
#
# Elastic Compliance Matrix: (Units=1/GPa)
#
#
# Indices 1 2 3 4 5 6 
#
# 1 0.013094 -0.003993 -0.000977 0.000000 0.002396 0.000000
# 2 -0.003993 0.010531 -0.001785 0.000000 0.001341 0.000000
# 3 -0.000977 -0.001785 0.011660 0.000000 0.002070 0.000000
# 4 0.000000 0.000000 0.000000 0.038295 0.000000 0.011615
# 5 0.002396 0.001341 0.002070 0.000000 0.028034 0.000000
# 6 0.000000 0.000000 0.000000 0.011615 0.000000 0.030431
#
#
# Mechanical properties :
#
#
# Convention : Reuss Voigt Hill
#
# Bulk Modulus (GPa) = 45.92382 50.18614 48.05498
# Shear Modulus (GPa) = 32.71970 35.65831 34.18901
#
# Velocity S-wave (km/s) = 3.75880 3.92396 3.84227
# Velocity P-wave (km/s) = 6.21838 6.49620 6.35881
#
# Compressibility (1/GPa) = 0.02177519
#
# Stress axis : x y z
#
# Youngs Moduli (GPa) = 76.37288 94.95557 85.76438
#
# Poissons Ratio (x) = 0.37917 0.08377
# Poissons Ratio (y) = 0.30497 0.15307
# Poissons Ratio (z) = 0.07460 0.16948
#
# Static dielectric constant tensor:
#      x y z
#    x 4.149020 0.000000 -0.327060 
#    y 0.000000 4.501600 0.000000 
#    z -0.327060 0.000000 4.384910 
# 
# 
# High freq. dielectric constant tensor:
#      x y z
#    x 1.908780 0.000000 -0.009720 
#    y 0.000000 1.929130 0.000000 
#    z -0.009720 0.000000 1.919540 
# 
# From -- ./inp_files/55389.got.cif
#   From: 2010.03.12/outbox.cif.g09.slc.cpg/sg5_28_cif.got.tgz:55389.got - 2010.03.31 09:47:26.
