data_PCOD8051079
_publ_section_title
;
Structure prediction by ZEFSAII (Michael W. Deem and Ramdas Pophale) SiO2 
 PCOD8051079
Probable space group: C 2
;
_chemical_formula_sum "Si O2"
_cell_formula_units_Z 26
_cell_length_a 15.289826
_cell_length_b 11.968949
_cell_length_c 15.481138
_cell_angle_alpha 90.000000
_cell_angle_beta 154.036125
_cell_angle_gamma 90.000000
_cell_volume 1240.342239
_symmetry_space_group_name_H-M "C 2"
_symmetry_group_IT_number 5
_symmetry_cell_setting 'monoclinic'
loop_
_space_group_symop_operation_xyz
x,y,z
-x,y,-z
1/2+x,1/2+y,z
1/2-x,1/2+y,-z
loop_
_atom_site_type_symbol
_atom_site_label
_atom_site_fract_x
_atom_site_fract_y
_atom_site_fract_z
Si Si1 0.577615 0.611600 0.434724
Si Si2 0.831340 0.237130 0.078434
Si Si3 0.703575 0.927664 0.819549
Si Si4 0.000000 0.927991 0.500000
Si Si5 0.000000 0.078337 0.000000
Si Si6 0.047117 0.621638 0.342432
Si Si7 0.500000 0.791730 0.500000
Si Si8 0.205602 0.247598 0.296993
O O1 0.425764 0.642302 0.223448
O O2 0.483839 0.505145 0.400434
O O3 0.796049 0.586181 0.591779
O O4 0.611834 0.715963 0.528912
O O5 0.759801 0.343380 0.069497
O O6 0.992814 0.278137 0.150927
O O7 0.642254 0.184194 0.864725
O O8 0.667184 0.865441 0.696295
O O9 0.901630 0.002745 0.987257
O O10 0.511878 0.004808 0.666711
O O11 0.799978 0.853583 0.331274
O O12 0.825870 0.152074 0.802609
O O13 0.140282 0.705944 0.494309
#
# Coordination Sequence:
#
# PCOD8051079 Si02
#       8
#     4   4   4   2   2   4   2   4
#     4   9  22  42  65  92 128 158 212 254 308 376
#     4  10  23  43  62  94 125 165 210 254 305 388
#     4  11  22  38  65  89 124 164 205 252 314 355
#     4  11  22  43  66  94 128 171 198 267 324 354
#     4  12  24  42  60  94 120 162 214 260 298 372
#     4  11  22  43  63  89 127 167 205 259 307 377
#     4   9  20  41  62  96 120 159 208 259 302 368
#     4  11  24  43  63  90 129 160 212 259 310 372
#
# _framework density 20.961955
#
# number of rings (size 3 to 8) (size 9 to 14) (size 15 to 20)
#    0.000    1.538    1.538    2.769    2.154    1.231 
#    5.538    0.000    0.000    0.000    0.000    0.000 
#    0.000    0.000    0.000    0.000    0.000    0.000 
#
# Total GULP energy -161257.151949 kJ/mol
# GULP energy per Si atom -12404.396304 kJ/mol
# Density = 2.091424 g / cm^3
# Si number density = 20.961955 Si / 1000 Ang^3
#
#
#
# Elastic Constant Matrix: (Units=GPa)
#
#
# Indices 1 2 3 4 5 6 
#
# 1 131.5083 64.2265 56.3225 0.0047 13.2056 0.0043
# 2 64.2265 121.7800 52.1186 0.0126 6.3401 0.0138
# 3 56.3225 52.1186 122.3446 0.0117 3.7001 0.0152
# 4 0.0047 0.0126 0.0117 23.7195 0.0043 5.9715
# 5 13.2056 6.3401 3.7001 0.0043 26.8509 0.0047
# 6 0.0043 0.0138 0.0152 5.9715 0.0047 38.8744
#
#
#
# Elastic Compliance Matrix: (Units=1/GPa)
#
#
# Indices 1 2 3 4 5 6 
#
# 1 0.011646 -0.004504 -0.003315 0.000002 -0.004207 0.000002
# 2 -0.004504 0.011871 -0.002978 -0.000003 -0.000177 -0.000002
# 3 -0.003315 -0.002978 0.010944 -0.000003 0.000826 -0.000003
# 4 0.000002 -0.000003 -0.000003 0.043855 -0.000006 -0.006737
# 5 -0.004207 -0.000177 0.000826 -0.000006 0.039240 -0.000004
# 6 0.000002 -0.000002 -0.000003 -0.006737 -0.000004 0.026759
#
#
# Mechanical properties :
#
#
# Convention : Reuss Voigt Hill
#
# Bulk Modulus (GPa) = 77.72853 80.10757 78.91805
# Shear Modulus (GPa) = 29.37741 31.41996 30.39869
#
# Velocity S-wave (km/s) = 3.74767 3.87577 3.81226
# Velocity P-wave (km/s) = 7.47583 7.63724 7.55697
#
# Compressibility (1/GPa) = 0.01286529
#
# Stress axis : x y z
#
# Youngs Moduli (GPa) = 85.86402 84.24027 91.37779
#
# Poissons Ratio (x) = 0.37944 0.30296
# Poissons Ratio (y) = 0.38676 0.27212
# Poissons Ratio (z) = 0.28468 0.25087
#
# Static dielectric constant tensor:
#      x y z
#    x 4.106630 0.000000 0.000060 
#    y 0.000000 3.900200 0.000000 
#    z 0.000060 0.000000 3.543190 
# 
# 
# High freq. dielectric constant tensor:
#      x y z
#    x 1.841320 0.000000 -0.001540 
#    y 0.000000 1.827370 0.000000 
#    z -0.001540 0.000000 1.807730 
# 
# From -- ./inp_files/9509.got.cif
#   From: 2010.03.12/outbox.cif.g09.slc.cpg/sg5_5_cif.got.tgz:9509.got - 2010.03.31 09:47:26.
