data_PCOD8051703
_publ_section_title
;
Structure prediction by ZEFSAII (Michael W. Deem and Ramdas Pophale) SiO2 
 PCOD8051703
Probable space group: C 2
;
_chemical_formula_sum "Si O2"
_cell_formula_units_Z 26
_cell_length_a 8.370432
_cell_length_b 20.557217
_cell_length_c 8.472881
_cell_angle_alpha 90.000000
_cell_angle_beta 52.107573
_cell_angle_gamma 90.000000
_cell_volume 1150.565280
_symmetry_space_group_name_H-M "C 2"
_symmetry_group_IT_number 5
_symmetry_cell_setting 'monoclinic'
loop_
_space_group_symop_operation_xyz
x,y,z
-x,y,-z
1/2+x,1/2+y,z
1/2-x,1/2+y,-z
loop_
_atom_site_type_symbol
_atom_site_label
_atom_site_fract_x
_atom_site_fract_y
_atom_site_fract_z
Si Si1 0.445451 0.173470 0.350903
Si Si2 0.634688 0.689675 0.064693
Si Si3 0.541656 0.558595 0.293167
Si Si4 0.208039 0.279065 0.312367
Si Si5 0.875376 0.534122 0.428183
Si Si6 0.654986 0.959222 0.027539
Si Si7 0.000000 0.879451 0.000000
O O1 0.500000 0.186020 0.500000
O O2 0.285716 0.227524 0.393437
O O3 0.343733 0.104454 0.363401
O O4 0.642189 0.174245 0.125088
O O5 0.531902 0.624814 0.198829
O O6 0.655742 0.747168 0.176686
O O7 0.500000 0.714199 0.000000
O O8 0.500000 0.573794 0.500000
O O9 0.346602 0.511438 0.373010
O O10 0.747527 0.519248 0.131240
O O11 0.000000 0.311086 0.500000
O O12 0.373855 0.335469 0.197305
O O13 0.000000 0.556777 0.500000
O O14 0.002594 0.481422 0.256693
O O15 0.838998 0.919326 0.991597
O O16 0.500000 0.921967 0.000000
#
# Coordination Sequence:
#
# PCOD8051703 Si02
#       7
#     4   4   4   4   4   4   2
#     4  11  22  42  70 113 144 184 234 293 374 448
#     4  12  23  40  74 113 151 186 232 298 374 452
#     4  12  24  41  69 110 149 186 230 294 380 448
#     4  12  26  50  73 102 145 191 243 308 367 431
#     4  11  22  40  70 107 149 179 226 297 373 445
#     4  12  27  49  73 103 143 196 251 299 360 433
#     4  12  30  52  74 100 144 198 266 306 354 418
#
# _framework density 22.59759
#
# number of rings (size 3 to 8) (size 9 to 14) (size 15 to 20)
#    0.000    0.308    4.615    6.000    1.077    2.462 
#    2.769    0.000    0.000    0.000    0.000    0.000 
#    0.000    0.000    0.000    0.000    0.000    0.000 
#
# Total GULP energy -161076.299842 kJ/mol
# GULP energy per Si atom -12390.484603 kJ/mol
# Density = 2.254616 g / cm^3
# Si number density = 22.597590 Si / 1000 Ang^3
#
#
#
# Elastic Constant Matrix: (Units=GPa)
#
#
# Indices 1 2 3 4 5 6 
#
# 1 144.8268 42.0033 9.8973 0.0000 0.2370 0.0000
# 2 42.0033 79.6333 20.1304 0.0000 3.4032 0.0000
# 3 9.8973 20.1304 104.2873 0.0000 -17.1337 0.0000
# 4 0.0000 0.0000 0.0000 32.4594 0.0000 -25.3905
# 5 0.2370 3.4032 -17.1337 0.0000 47.2265 0.0000
# 6 0.0000 0.0000 0.0000 -25.3905 0.0000 81.4821
#
#
#
# Elastic Compliance Matrix: (Units=1/GPa)
#
#
# Indices 1 2 3 4 5 6 
#
# 1 0.008157 -0.004345 0.000116 0.000000 0.000314 0.000000
# 2 -0.004345 0.015696 -0.002977 0.000000 -0.002189 0.000000
# 3 0.000116 -0.002977 0.010833 0.000000 0.004144 0.000000
# 4 0.000000 0.000000 0.000000 0.040737 0.000000 0.012694
# 5 0.000314 -0.002189 0.004144 0.000000 0.022834 0.000000
# 6 0.000000 0.000000 0.000000 0.012694 0.000000 0.016228
#
#
# Mechanical properties :
#
#
# Convention : Reuss Voigt Hill
#
# Bulk Modulus (GPa) = 49.32459 52.53437 50.92948
# Shear Modulus (GPa) = 36.85830 49.34803 43.10316
#
# Velocity S-wave (km/s) = 4.04303 4.67816 4.37214
# Velocity P-wave (km/s) = 6.60830 7.24420 6.93354
#
# Compressibility (1/GPa) = 0.02027386
#
# Stress axis : x y z
#
# Youngs Moduli (GPa) = 122.60141 63.71244 92.30727
#
# Poissons Ratio (x) = 0.27683 -0.01073
# Poissons Ratio (y) = 0.53271 0.27480
# Poissons Ratio (z) = -0.01426 0.18967
#
# Static dielectric constant tensor:
#      x y z
#    x 4.522360 0.000000 0.177060 
#    y 0.000000 3.709690 0.000000 
#    z 0.177060 0.000000 1.897120 
# 
# 
# High freq. dielectric constant tensor:
#      x y z
#    x 1.924230 0.000000 -0.015600 
#    y 0.000000 1.850600 0.000000 
#    z -0.015600 0.000000 1.915950 
# 
# From -- ./inp_files/16990.got.cif
#   From: 2010.03.12/outbox.cif.g09.slc.cpg/sg5_9_cif.got.tgz:16990.got - 2010.03.31 09:47:26.
