data_PCOD8051459
_publ_section_title
;
Structure prediction by ZEFSAII (Michael W. Deem and Ramdas Pophale) SiO2 
 PCOD8051459
Probable space group: C 2
;
_chemical_formula_sum "Si O2"
_cell_formula_units_Z 26
_cell_length_a 11.357076
_cell_length_b 8.679482
_cell_length_c 24.592248
_cell_angle_alpha 90.000000
_cell_angle_beta 30.500483
_cell_angle_gamma 90.000000
_cell_volume 1230.364122
_symmetry_space_group_name_H-M "C 2"
_symmetry_group_IT_number 5
_symmetry_cell_setting 'monoclinic'
loop_
_space_group_symop_operation_xyz
x,y,z
-x,y,-z
1/2+x,1/2+y,z
1/2-x,1/2+y,-z
loop_
_atom_site_type_symbol
_atom_site_label
_atom_site_fract_x
_atom_site_fract_y
_atom_site_fract_z
Si Si1 0.909282 0.872210 0.295719
Si Si2 0.248503 0.122622 0.199692
Si Si3 0.512503 0.842523 0.374909
Si Si4 0.500000 0.277238 0.000000
Si Si5 0.271873 0.826759 0.062792
Si Si6 0.283035 0.627457 0.548445
Si Si7 0.286884 0.002386 0.953103
O O1 0.666160 0.913840 0.363067
O O2 0.879322 0.747999 0.355233
O O3 0.075290 0.795871 0.185106
O O4 0.018593 0.027233 0.276659
O O5 0.386460 0.172715 0.091259
O O6 0.176668 0.271347 0.262995
O O7 0.431759 0.016986 0.160354
O O8 0.359075 0.705244 0.461471
O O9 0.356292 0.973521 0.410216
O O10 0.289200 0.381061 0.061979
O O11 0.334404 0.666178 0.008849
O O12 0.500000 0.895059 0.000000
O O13 0.189956 0.948892 0.050343
O O14 0.500000 0.580402 0.500000
#
# Coordination Sequence:
#
# PCOD8051459 Si02
#       7
#     4   4   4   2   4   4   4
#     4  11  24  42  67  96 131 172 222 273 330 389
#     4  12  25  41  64  96 134 174 224 270 326 391
#     4  11  24  45  70  98 132 170 219 276 339 395
#     4  12  26  38  64  96 134 180 228 266 320 390
#     4  12  24  41  66  92 137 182 222 269 325 385
#     4  10  25  45  71  99 129 166 219 278 337 401
#     4  12  24  40  61  92 132 178 226 266 315 387
#
# _framework density 21.131955000000001
#
# number of rings (size 3 to 8) (size 9 to 14) (size 15 to 20)
#    0.000    0.615    5.385    1.846    2.154    3.692 
#    0.000    0.000    0.000    0.000    0.000    0.000 
#    0.000    0.000    0.000    0.000    0.000    0.000 
#
# Total GULP energy -161242.896025 kJ/mol
# GULP energy per Si atom -12403.299694 kJ/mol
# Density = 2.108386 g / cm^3
# Si number density = 21.131955 Si / 1000 Ang^3
#
#
#
# Elastic Constant Matrix: (Units=GPa)
#
#
# Indices 1 2 3 4 5 6 
#
# 1 122.4994 64.6107 34.5298 -0.0002 -11.6636 -0.0001
# 2 64.6107 104.3142 37.2304 0.0002 -6.4360 0.0001
# 3 34.5298 37.2304 102.7354 -0.0022 5.6179 -0.0020
# 4 -0.0002 0.0002 -0.0022 34.5615 0.0005 -13.8625
# 5 -11.6636 -6.4360 5.6179 0.0005 35.2132 -0.0003
# 6 -0.0001 0.0001 -0.0020 -13.8625 -0.0003 39.6028
#
#
#
# Elastic Compliance Matrix: (Units=1/GPa)
#
#
# Indices 1 2 3 4 5 6 
#
# 1 0.012691 -0.006978 -0.001914 0.000000 0.003234 0.000000
# 2 -0.006978 0.015103 -0.003180 -0.000001 0.000956 0.000000
# 3 -0.001914 -0.003180 0.011698 0.000001 -0.003081 0.000001
# 4 0.000000 -0.000001 0.000001 0.033660 -0.000001 0.011782
# 5 0.003234 0.000956 -0.003081 -0.000001 0.030136 0.000000
# 6 0.000000 0.000000 0.000001 0.011782 0.000000 0.029375
#
#
# Mechanical properties :
#
#
# Convention : Reuss Voigt Hill
#
# Bulk Modulus (GPa) = 65.15457 66.92119 66.03788
# Shear Modulus (GPa) = 30.87916 34.75403 32.81660
#
# Velocity S-wave (km/s) = 3.82678 4.05979 3.94501
# Velocity P-wave (km/s) = 7.10105 7.32891 7.21588
#
# Compressibility (1/GPa) = 0.01534812
#
# Stress axis : x y z
#
# Youngs Moduli (GPa) = 78.79505 66.21379 85.48660
#
# Poissons Ratio (x) = 0.46206 0.16358
# Poissons Ratio (y) = 0.54985 0.27184
# Poissons Ratio (z) = 0.15077 0.21055
#
# Static dielectric constant tensor:
#      x y z
#    x 4.175850 0.000000 -0.025290 
#    y 0.000000 3.726550 0.000000 
#    z -0.025290 0.000000 3.821170 
# 
# 
# High freq. dielectric constant tensor:
#      x y z
#    x 1.847740 0.000000 0.003250 
#    y 0.000000 1.827550 0.000000 
#    z 0.003250 0.000000 1.822800 
# 
# From -- ./inp_files/38397.got.cif
#   From: 2010.03.12/outbox.cif.g09.slc.cpg/sg5_20_cif.got.tgz:38397.got - 2010.03.31 09:47:26.
