data_PCOD8051307
_publ_section_title
;
Structure prediction by ZEFSAII (Michael W. Deem and Ramdas Pophale) SiO2 
 PCOD8051307
Probable space group: C 2
;
_chemical_formula_sum "Si O2"
_cell_formula_units_Z 28
_cell_length_a 14.589354
_cell_length_b 10.021551
_cell_length_c 19.578024
_cell_angle_alpha 90.000000
_cell_angle_beta 151.962343
_cell_angle_gamma 90.000000
_cell_volume 1345.505728
_symmetry_space_group_name_H-M "C 2"
_symmetry_group_IT_number 5
_symmetry_cell_setting 'monoclinic'
loop_
_space_group_symop_operation_xyz
x,y,z
-x,y,-z
1/2+x,1/2+y,z
1/2-x,1/2+y,-z
loop_
_atom_site_type_symbol
_atom_site_label
_atom_site_fract_x
_atom_site_fract_y
_atom_site_fract_z
Si Si1 0.990117 0.490380 0.411825
Si Si2 0.947234 0.327443 0.806255
Si Si3 0.411161 0.580626 0.685021
Si Si4 0.313874 0.113348 0.695401
Si Si5 0.036806 0.188743 0.629342
Si Si6 0.704768 0.704768 0.163776
Si Si7 0.627188 0.317845 0.861548
O O1 0.195771 0.541266 0.517710
O O2 0.940048 0.346816 0.348171
O O3 0.000000 0.483653 0.500000
O O4 0.818474 0.584298 0.273278
O O5 0.889243 0.201423 0.723008
O O6 0.871716 0.460513 0.719809
O O7 0.840854 0.316240 0.809375
O O8 0.178330 0.336887 0.967094
O O9 0.542926 0.623525 0.707813
O O10 0.510601 0.456097 0.787852
O O11 0.169120 0.159504 0.541283
O O12 0.505142 0.204271 0.819579
O O13 0.215439 0.127218 0.704728
O O14 0.833851 0.774465 0.190653
O O15 0.500000 0.648021 0.000000
#
# Coordination Sequence:
#
# PCOD8051307 Si02
#       7
#     4   4   4   4   4   4   4
#     4  12  22  44  68 101 137 170 222 279 330 396
#     4  11  25  42  67 100 130 174 227 272 332 395
#     4  12  25  41  69  99 132 175 226 269 336 395
#     4  11  23  44  66  94 136 169 217 279 330 387
#     4  11  25  42  67  97 132 172 217 280 335 389
#     4  10  24  44  68  98 134 175 222 274 336 395
#     4  11  23  46  67  93 137 178 217 276 331 397
#
# _framework density 20.810019
#
# number of rings (size 3 to 8) (size 9 to 14) (size 15 to 20)
#    0.000    0.857    4.286    2.571    4.000    2.286 
#    0.000    3.571    0.000    0.000    0.000    0.000 
#    0.000    0.000    0.000    0.000    0.000    0.000 
#
# Total GULP energy -173701.133899 kJ/mol
# GULP energy per Si atom -12407.223850 kJ/mol
# Density = 2.076265 g / cm^3
# Si number density = 20.810019 Si / 1000 Ang^3
#
#
#
# Elastic Constant Matrix: (Units=GPa)
#
#
# Indices 1 2 3 4 5 6 
#
# 1 77.6392 7.5423 -2.4027 0.0021 12.0689 0.0008
# 2 7.5423 141.3413 31.6797 0.0036 13.9666 0.0018
# 3 -2.4027 31.6797 63.4667 0.0004 19.4610 0.0007
# 4 0.0021 0.0036 0.0004 27.2934 -0.0008 6.1434
# 5 12.0689 13.9666 19.4610 -0.0008 29.1840 -0.0003
# 6 0.0008 0.0018 0.0007 6.1434 -0.0003 30.2741
#
#
#
# Elastic Compliance Matrix: (Units=1/GPa)
#
#
# Indices 1 2 3 4 5 6 
#
# 1 0.014254 -0.000731 0.003274 -0.000001 -0.007728 0.000000
# 2 -0.000731 0.008054 -0.003719 -0.000001 -0.001072 0.000000
# 3 0.003274 -0.003719 0.022131 0.000000 -0.014332 0.000000
# 4 -0.000001 -0.000001 0.000000 0.038393 0.000002 -0.007791
# 5 -0.007728 -0.001072 -0.014332 0.000002 0.047532 0.000001
# 6 0.000000 0.000000 0.000000 -0.007791 0.000001 0.034612
#
#
# Mechanical properties :
#
#
# Convention : Reuss Voigt Hill
#
# Bulk Modulus (GPa) = 23.76010 39.56507 31.66258
# Shear Modulus (GPa) = 27.57015 33.72550 30.64782
#
# Velocity S-wave (km/s) = 3.64380 4.03008 3.84180
# Velocity P-wave (km/s) = 5.39865 6.38038 5.90993
#
# Compressibility (1/GPa) = 0.04208736
#
# Stress axis : x y z
#
# Youngs Moduli (GPa) = 70.15703 124.16891 45.18492
#
# Poissons Ratio (x) = 0.09074 -0.14794
# Poissons Ratio (y) = 0.05127 0.16804
# Poissons Ratio (z) = -0.22970 0.46177
#
# Static dielectric constant tensor:
#      x y z
#    x 3.916680 0.000000 0.145030 
#    y 0.000000 3.772340 -0.000010 
#    z 0.145030 -0.000010 3.703240 
# 
# 
# High freq. dielectric constant tensor:
#      x y z
#    x 1.825450 0.000000 0.011700 
#    y 0.000000 1.825150 0.000000 
#    z 0.011700 0.000000 1.811680 
# 
# From -- ./inp_files/54290.got.cif
#   From: 2010.03.12/outbox.cif.g09.slc.cpg/sg5_28_cif.got.tgz:54290.got - 2010.03.31 09:47:26.
