data_PCOD8051221
_publ_section_title
;
Structure prediction by ZEFSAII (Michael W. Deem and Ramdas Pophale) SiO2 
 PCOD8051221
Probable space group: C 2
;
_chemical_formula_sum "Si O2"
_cell_formula_units_Z 30
_cell_length_a 5.100495
_cell_length_b 8.731864
_cell_length_c 31.537651
_cell_angle_alpha 90.000000
_cell_angle_beta 71.693410
_cell_angle_gamma 90.000000
_cell_volume 1333.499910
_symmetry_space_group_name_H-M "C 2"
_symmetry_group_IT_number 5
_symmetry_cell_setting 'monoclinic'
loop_
_space_group_symop_operation_xyz
x,y,z
-x,y,-z
1/2+x,1/2+y,z
1/2-x,1/2+y,-z
loop_
_atom_site_type_symbol
_atom_site_label
_atom_site_fract_x
_atom_site_fract_y
_atom_site_fract_z
Si Si1 0.764330 0.403420 0.859731
Si Si2 0.087501 0.433752 0.687929
Si Si3 0.233619 0.882390 0.958752
Si Si4 0.199826 0.933612 0.414845
Si Si5 0.133068 0.267593 0.448602
Si Si6 0.165594 0.069676 0.174654
Si Si7 0.000000 0.595615 0.000000
Si Si8 0.977710 0.099467 0.278415
O O1 0.663987 0.387785 0.912995
O O2 0.728626 0.241218 0.838447
O O3 0.572808 0.527882 0.846624
O O4 0.081767 0.453096 0.842383
O O5 0.230079 0.388489 0.636683
O O6 0.062290 0.281425 0.717254
O O7 0.268669 0.555924 0.704288
O O8 0.793059 0.509182 0.692705
O O9 0.258694 0.707172 0.974514
O O10 0.492367 0.988177 0.958232
O O11 0.000000 0.964135 0.000000
O O12 0.449235 0.891224 0.433344
O O13 0.930159 0.840821 0.442467
O O14 0.153003 0.115194 0.419482
O O15 0.000000 0.222627 0.500000
O O16 0.038662 0.052231 0.227461
#
# Coordination Sequence:
#
# PCOD8051221 Si02
#       8
#     4   4   4   4   4   4   2   4
#     4  12  27  44  71  97 137 171 223 266 331 382
#     4  12  25  44  72 100 132 176 217 289 328 395
#     4  10  26  41  68  93 130 168 215 265 320 383
#     4  12  25  44  67 101 134 172 236 273 332 391
#     4  12  24  42  66  96 139 183 221 273 329 393
#     4  12  26  46  67 102 131 178 215 274 321 416
#     4  10  24  40  66  90 128 160 216 256 322 372
#     4  12  24  44  70  97 136 171 222 265 352 389
#
# _framework density 22.497187
#
# number of rings (size 3 to 8) (size 9 to 14) (size 15 to 20)
#    0.400    0.000    0.000    9.200    4.667    0.000 
#    0.000    0.000    0.000    0.000    0.000    0.000 
#    0.000    0.000    0.000    0.000    0.000    0.000 
#
# Total GULP energy -186045.230853 kJ/mol
# GULP energy per Si atom -12403.015390 kJ/mol
# Density = 2.244598 g / cm^3
# Si number density = 22.497187 Si / 1000 Ang^3
#
#
#
# Elastic Constant Matrix: (Units=GPa)
#
#
# Indices 1 2 3 4 5 6 
#
# 1 82.6936 27.9731 27.0190 0.0002 2.6373 0.0000
# 2 27.9731 113.5268 12.5891 0.0001 -3.6185 0.0000
# 3 27.0190 12.5891 115.4112 0.0001 7.2757 -0.0001
# 4 0.0002 0.0001 0.0001 25.6985 0.0000 9.4175
# 5 2.6373 -3.6185 7.2757 0.0000 33.7841 0.0000
# 6 0.0000 0.0000 -0.0001 9.4175 0.0000 36.9932
#
#
#
# Elastic Compliance Matrix: (Units=1/GPa)
#
#
# Indices 1 2 3 4 5 6 
#
# 1 0.014150 -0.003190 -0.002913 0.000000 -0.000819 0.000000
# 2 -0.003190 0.009682 -0.000396 0.000000 0.001371 0.000000
# 3 -0.002913 -0.000396 0.009507 0.000000 -0.001862 0.000000
# 4 0.000000 0.000000 0.000000 0.042916 0.000000 -0.010925
# 5 -0.000819 0.001371 -0.001862 0.000000 0.030212 0.000000
# 6 0.000000 0.000000 0.000000 -0.010925 0.000000 0.029813
#
#
# Mechanical properties :
#
#
# Convention : Reuss Voigt Hill
#
# Bulk Modulus (GPa) = 49.15936 49.64377 49.40157
# Shear Modulus (GPa) = 32.03939 35.56520 33.80229
#
# Velocity S-wave (km/s) = 3.77789 3.98033 3.88043
# Velocity P-wave (km/s) = 6.39755 6.57561 6.48719
#
# Compressibility (1/GPa) = 0.02034200
#
# Stress axis : x y z
#
# Youngs Moduli (GPa) = 70.67294 103.28439 105.18304
#
# Poissons Ratio (x) = 0.32943 0.30640
# Poissons Ratio (y) = 0.22542 0.04164
# Poissons Ratio (z) = 0.20587 0.04089
#
# Static dielectric constant tensor:
#      x y z
#    x 4.101220 0.000000 -0.043590 
#    y 0.000000 4.054110 0.000000 
#    z -0.043590 0.000000 4.099400 
# 
# 
# High freq. dielectric constant tensor:
#      x y z
#    x 1.888140 0.000000 0.001710 
#    y 0.000000 1.902500 0.000000 
#    z 0.001710 0.000000 1.898350 
# 
# From -- ./inp_files/71489.got.cif
#   From: 2010.03.12/outbox.cif.g09.slc.cpg/sg5_36_cif.got.tgz:71489.got - 2010.03.31 09:47:26.
