data_PCOD8051224
_publ_section_title
;
Structure prediction by ZEFSAII (Michael W. Deem and Ramdas Pophale) SiO2 
 PCOD8051224
Probable space group: C 2
;
_chemical_formula_sum "Si O2"
_cell_formula_units_Z 20
_cell_length_a 8.818891
_cell_length_b 4.963696
_cell_length_c 18.540735
_cell_angle_alpha 90.000000
_cell_angle_beta 77.744879
_cell_angle_gamma 90.000000
_cell_volume 793.112783
_symmetry_space_group_name_H-M "C 2"
_symmetry_group_IT_number 5
_symmetry_cell_setting 'monoclinic'
loop_
_space_group_symop_operation_xyz
x,y,z
-x,y,-z
1/2+x,1/2+y,z
1/2-x,1/2+y,-z
loop_
_atom_site_type_symbol
_atom_site_label
_atom_site_fract_x
_atom_site_fract_y
_atom_site_fract_z
Si Si1 0.652332 0.945090 0.122533
Si Si2 0.863865 0.932534 0.956744
Si Si3 0.426354 0.536552 0.188673
Si Si4 0.534999 0.933223 0.413644
Si Si5 0.605330 0.432351 0.643857
O O1 0.725950 0.693935 0.067099
O O2 0.480061 0.845501 0.163032
O O3 0.746485 0.007332 0.185533
O O4 0.710262 0.130864 0.045679
O O5 0.966886 0.837513 0.870522
O O6 0.000000 0.993137 0.000000
O O7 0.452423 0.474760 0.269201
O O8 0.500000 0.990179 0.500000
O O9 0.428777 0.127610 0.375889
O O10 0.713681 0.994658 0.380347
O O11 0.491617 0.627970 0.398473
#
# Coordination Sequence:
#
# PCOD8051224 Si02
#       5
#     4   4   4   4   4
#     4  10  24  40  67  91 137 168 233 277 345 398
#     4  10  24  42  66  95 132 179 227 284 339 402
#     4  10  26  41  68  99 135 177 231 278 346 400
#     4  12  26  48  72 107 141 185 229 283 346 417
#     4  12  26  43  76 102 145 183 231 286 344 411
#
# _framework density 25.217093999999999
#
# number of rings (size 3 to 8) (size 9 to 14) (size 15 to 20)
#    1.200    0.000    0.000    4.800    8.400    1.600 
#    0.000    0.000    0.000    0.000    0.000    0.000 
#    0.000    0.000    0.000    0.000    0.000    0.000 
#
# Total GULP energy -123882.170411 kJ/mol
# GULP energy per Si atom -12388.217041 kJ/mol
# Density = 2.515970 g / cm^3
# Si number density = 25.217094 Si / 1000 Ang^3
#
#
#
# Elastic Constant Matrix: (Units=GPa)
#
#
# Indices 1 2 3 4 5 6 
#
# 1 104.5498 7.7286 44.0980 0.0012 12.3675 -0.0022
# 2 7.7286 83.1893 -4.9017 0.0056 17.5606 -0.0105
# 3 44.0980 -4.9017 124.0725 0.0035 -4.0010 -0.0065
# 4 0.0012 0.0056 0.0035 -502.9460 0.0012 1003.3698
# 5 12.3675 17.5606 -4.0010 0.0012 43.9044 -0.0022
# 6 -0.0022 -0.0105 -0.0065 1003.3698 -0.0022-1788.1053
#
#
#
# Elastic Compliance Matrix: (Units=1/GPa)
#
#
# Indices 1 2 3 4 5 6 
#
# 1 0.011859 -0.000622 -0.004352 0.000000 -0.003489 0.000000
# 2 -0.000622 0.013177 0.000579 0.000000 -0.005043 0.000000
# 3 -0.004352 0.000579 0.009690 0.000000 0.001877 0.000000
# 4 0.000000 0.000000 0.000000 0.016644 0.000000 0.009340
# 5 -0.003489 -0.005043 0.001877 0.000000 0.025947 0.000000
# 6 0.000000 0.000000 0.000000 0.009340 0.000000 0.004682
#
#
# Mechanical properties :
#
#
# Convention : Reuss Voigt Hill
#
# Bulk Modulus (GPa) = 38.55565 45.07348 41.81457
# Shear Modulus (GPa) = 50.28423 -431.77028 -190.74303
#
# Velocity S-wave (km/s) = 4.47033 -13.09935 -8.70658
# Velocity P-wave (km/s) = 6.47825 14.52163 9.18994
#
# Compressibility (1/GPa) = 0.02593653
#
# Stress axis : x y z
#
# Youngs Moduli (GPa) = 84.32355 75.88916 103.19895
#
# Poissons Ratio (x) = 0.04719 0.44912
# Poissons Ratio (y) = 0.05243 -0.05975
# Poissons Ratio (z) = 0.36698 -0.04394
#
# Static dielectric constant tensor:
#      x y z
#    x 5.211460 0.000000 -1.660260 
#    y 0.000000 5.537030 0.000000 
#    z -1.660260 0.000000 6.634650 
# 
# 
# High freq. dielectric constant tensor:
#      x y z
#    x 2.007640 0.000000 -0.023350 
#    y 0.000000 2.037320 0.000000 
#    z -0.023350 0.000000 2.032640 
# 
# From -- ./inp_files/59166.got.cif
#   From: 2010.03.12/outbox.cif.g09.slc.cpg/sg5_30_cif.got.tgz:59166.got - 2010.03.31 09:47:26.
