data_PCOD8051048
_publ_section_title
;
Structure prediction by ZEFSAII (Michael W. Deem and Ramdas Pophale) SiO2 
 PCOD8051048
Probable space group: C 2
;
_chemical_formula_sum "Si O2"
_cell_formula_units_Z 32
_cell_length_a 31.792869
_cell_length_b 8.475761
_cell_length_c 5.280702
_cell_angle_alpha 90.000000
_cell_angle_beta 87.436075
_cell_angle_gamma 90.000000
_cell_volume 1421.559714
_symmetry_space_group_name_H-M "C 2"
_symmetry_group_IT_number 5
_symmetry_cell_setting 'monoclinic'
loop_
_space_group_symop_operation_xyz
x,y,z
-x,y,-z
1/2+x,1/2+y,z
1/2-x,1/2+y,-z
loop_
_atom_site_type_symbol
_atom_site_label
_atom_site_fract_x
_atom_site_fract_y
_atom_site_fract_z
Si Si1 0.048579 0.920690 0.988423
Si Si2 0.950960 0.116888 0.511767
Si Si3 0.320765 0.057569 0.768006
Si Si4 0.886489 0.663277 0.124502
Si Si5 0.767109 0.284457 0.894276
Si Si6 0.194853 0.155670 0.626007
Si Si7 0.311720 0.298633 0.373011
Si Si8 0.881827 0.355255 0.416412
O O1 0.072152 0.752875 0.980213
O O2 0.060835 0.015354 0.237814
O O3 0.000000 0.874951 0.000000
O O4 0.060411 0.021163 0.738493
O O5 0.923418 0.275920 0.524871
O O6 0.000000 0.165306 0.500000
O O7 0.349859 0.168241 0.928001
O O8 0.294758 0.168389 0.578924
O O9 0.286708 0.958689 0.945006
O O10 0.354097 0.937058 0.636493
O O11 0.861972 0.764262 0.345251
O O12 0.897644 0.485569 0.208419
O O13 0.784131 0.249952 0.607505
O O14 0.716199 0.280720 0.879297
O O15 0.779574 0.167874 0.117032
O O16 0.147932 0.221459 0.701931
O O17 0.193276 0.976374 0.529653
#
# Coordination Sequence:
#
# PCOD8051048 Si02
#       8
#     4   4   4   4   4   4   4   4
#     4  10  24  45  70 100 136 175 219 274 326 403
#     4  10  23  45  72 102 133 172 221 271 330 399
#     4  10  24  43  61  95 134 177 216 283 329 399
#     4  11  24  42  66  96 136 175 222 272 338 395
#     4  11  25  44  64  91 134 170 224 279 339 386
#     4  11  25  42  65  95 125 176 222 276 330 396
#     4  11  26  39  68  92 128 175 229 273 335 397
#     4  10  23  42  64  96 134 175 214 278 328 401
#
# _framework density 22.510486
#
# number of rings (size 3 to 8) (size 9 to 14) (size 15 to 20)
#    0.000    1.500    1.250    1.500   12.250    1.000 
#    2.250    0.000    0.000    0.000    0.000    0.000 
#    0.000    0.000    0.000    0.000    0.000    0.000 
#
# Total GULP energy -198337.553539 kJ/mol
# GULP energy per Si atom -12396.097096 kJ/mol
# Density = 2.245925 g / cm^3
# Si number density = 22.510486 Si / 1000 Ang^3
#
#
#
# Elastic Constant Matrix: (Units=GPa)
#
#
# Indices 1 2 3 4 5 6 
#
# 1 113.9931 63.8209 32.2098 0.0000 7.4394 0.0000
# 2 63.8209 129.6731 30.0661 0.0000 1.0975 0.0000
# 3 32.2098 30.0661 105.9349 0.0000 4.5860 0.0000
# 4 0.0000 0.0000 0.0000 24.8355 0.0000 13.7880
# 5 7.4394 1.0975 4.5860 0.0000 19.5219 0.0000
# 6 0.0000 0.0000 0.0000 13.7880 0.0000 38.8526
#
#
#
# Elastic Compliance Matrix: (Units=1/GPa)
#
#
# Indices 1 2 3 4 5 6 
#
# 1 0.012892 -0.005826 -0.002089 0.000000 -0.004094 0.000000
# 2 -0.005826 0.010888 -0.001403 0.000000 0.001938 0.000000
# 3 -0.002089 -0.001403 0.010542 0.000000 -0.001602 0.000000
# 4 0.000000 0.000000 0.000000 0.050144 0.000000 -0.017795
# 5 -0.004094 0.001938 -0.001602 0.000000 0.053052 0.000000
# 6 0.000000 0.000000 0.000000 -0.017795 0.000000 0.032053
#
#
# Mechanical properties :
#
#
# Convention : Reuss Voigt Hill
#
# Bulk Modulus (GPa) = 63.74789 66.86608 65.30699
# Shear Modulus (GPa) = 25.84839 31.54230 28.69534
#
# Velocity S-wave (km/s) = 3.39231 3.74736 3.57424
# Velocity P-wave (km/s) = 6.61244 6.96365 6.79032
#
# Compressibility (1/GPa) = 0.01568679
#
# Stress axis : x y z
#
# Youngs Moduli (GPa) = 77.56977 91.84591 94.85534
#
# Poissons Ratio (x) = 0.53508 0.19815
# Poissons Ratio (y) = 0.45191 0.13305
# Poissons Ratio (z) = 0.16204 0.12883
#
# Static dielectric constant tensor:
#      x y z
#    x 4.029970 0.000000 0.013220 
#    y 0.000000 4.081200 0.000000 
#    z 0.013220 0.000000 3.988600 
# 
# 
# High freq. dielectric constant tensor:
#      x y z
#    x 1.888300 0.000000 0.003100 
#    y 0.000000 1.890240 0.000000 
#    z 0.003100 0.000000 1.884480 
# 
# From -- ./inp_files/11235.got.cif
#   From: 2010.03.12/outbox.cif.g09.slc.cpg/sg5_6_cif.got.tgz:11235.got - 2010.03.31 09:47:26.
