data_PCOD8051507
_publ_section_title
;
Structure prediction by ZEFSAII (Michael W. Deem and Ramdas Pophale) SiO2 
 PCOD8051507
Probable space group: C 2
;
_chemical_formula_sum "Si O2"
_cell_formula_units_Z 14
_cell_length_a 6.907945
_cell_length_b 7.613506
_cell_length_c 18.380330
_cell_angle_alpha 90.000000
_cell_angle_beta 39.516243
_cell_angle_gamma 90.000000
_cell_volume 615.101390
_symmetry_space_group_name_H-M "C 2"
_symmetry_group_IT_number 5
_symmetry_cell_setting 'monoclinic'
loop_
_space_group_symop_operation_xyz
x,y,z
-x,y,-z
1/2+x,1/2+y,z
1/2-x,1/2+y,-z
loop_
_atom_site_type_symbol
_atom_site_label
_atom_site_fract_x
_atom_site_fract_y
_atom_site_fract_z
Si Si1 0.000000 0.314430 0.500000
Si Si2 0.163766 0.479504 0.597487
Si Si3 0.875343 0.282056 0.962868
Si Si4 0.257670 0.418240 0.147748
O O1 0.992970 0.436095 0.572521
O O2 0.300870 0.190979 0.407797
O O3 0.500000 0.391180 0.500000
O O4 0.975914 0.402524 0.718804
O O5 0.929495 0.397591 0.873755
O O6 0.507949 0.261539 0.080301
O O7 0.048018 0.097192 0.906279
O O8 0.000000 0.378991 0.000000
#
# Coordination Sequence:
#
# PCOD8051507 Si02
#       4
#     2   4   4   4
#     4  10  26  44  70 102 136 176 230 266 354 382
#     4  10  27  45  71 103 134 182 221 286 331 409
#     4  11  25  46  66 104 133 187 214 288 325 408
#     4  11  27  44  73  99 142 173 235 269 347 395
#
# _framework density 22.760475
#
# number of rings (size 3 to 8) (size 9 to 14) (size 15 to 20)
#    0.857    0.571    2.857    0.000   14.000    0.000 
#    0.000    0.000    0.000    0.000    0.000    0.000 
#    0.000    0.000    0.000    0.000    0.000    0.000 
#
# Total GULP energy -86716.440090 kJ/mol
# GULP energy per Si atom -12388.062870 kJ/mol
# Density = 2.270867 g / cm^3
# Si number density = 22.760475 Si / 1000 Ang^3
#
#
#
# Elastic Constant Matrix: (Units=GPa)
#
#
# Indices 1 2 3 4 5 6 
#
# 1 215.3801 68.3457 85.5630 -0.0007 44.3545 0.0006
# 2 68.3457 87.2899 33.5525 -0.0006 0.3365 0.0005
# 3 85.5630 33.5525 194.2466 -0.0019 31.4305 0.0012
# 4 -0.0007 -0.0006 -0.0019 19.2094 0.0005 1.5698
# 5 44.3545 0.3365 31.4305 0.0005 36.3587 -0.0003
# 6 0.0006 0.0005 0.0012 1.5698 -0.0003 46.9000
#
#
#
# Elastic Compliance Matrix: (Units=1/GPa)
#
#
# Indices 1 2 3 4 5 6 
#
# 1 0.009483 -0.006881 -0.001310 0.000000 -0.010372 0.000000
# 2 -0.006881 0.017390 -0.001517 0.000000 0.009545 0.000000
# 3 -0.001310 -0.001517 0.006658 0.000001 -0.004143 0.000000
# 4 0.000000 0.000000 0.000001 0.052201 -0.000002 -0.001747
# 5 -0.010372 0.009545 -0.004143 -0.000002 0.043650 0.000000
# 6 0.000000 0.000000 0.000000 -0.001747 0.000000 0.021380
#
#
# Mechanical properties :
#
#
# Convention : Reuss Voigt Hill
#
# Bulk Modulus (GPa) = 70.85437 96.87100 83.86269
# Shear Modulus (GPa) = 28.59028 41.12398 34.85713
#
# Velocity S-wave (km/s) = 3.54805 4.25528 3.91765
# Velocity P-wave (km/s) = 6.92697 8.17292 7.57560
#
# Compressibility (1/GPa) = 0.01411345
#
# Stress axis : x y z
#
# Youngs Moduli (GPa) = 105.45015 57.50284 150.20319
#
# Poissons Ratio (x) = 0.39570 0.19680
# Poissons Ratio (y) = 0.72565 0.22789
# Poissons Ratio (z) = 0.13817 0.08724
#
# Static dielectric constant tensor:
#      x y z
#    x 4.444330 0.000000 0.133790 
#    y 0.000000 3.804240 0.000000 
#    z 0.133790 0.000000 4.136710 
# 
# 
# High freq. dielectric constant tensor:
#      x y z
#    x 1.917110 0.000000 0.014650 
#    y 0.000000 1.877100 0.000000 
#    z 0.014650 0.000000 1.886240 
# 
# From -- ./inp_files/32748.got.cif
#   From: 2010.03.12/outbox.cif.g09.slc.cpg/sg5_17_cif.got.tgz:32748.got - 2010.03.31 09:47:26.
