data_PCOD8051323
_publ_section_title
;
Structure prediction by ZEFSAII (Michael W. Deem and Ramdas Pophale) SiO2 
 PCOD8051323
Probable space group: C 2
;
_chemical_formula_sum "Si O2"
_cell_formula_units_Z 28
_cell_length_a 27.078233
_cell_length_b 8.576602
_cell_length_c 7.878055
_cell_angle_alpha 90.000000
_cell_angle_beta 42.337671
_cell_angle_gamma 90.000000
_cell_volume 1232.228712
_symmetry_space_group_name_H-M "C 2"
_symmetry_group_IT_number 5
_symmetry_cell_setting 'monoclinic'
loop_
_space_group_symop_operation_xyz
x,y,z
-x,y,-z
1/2+x,1/2+y,z
1/2-x,1/2+y,-z
loop_
_atom_site_type_symbol
_atom_site_label
_atom_site_fract_x
_atom_site_fract_y
_atom_site_fract_z
Si Si1 0.124782 0.697730 0.279128
Si Si2 0.151592 0.030816 0.116558
Si Si3 0.793493 0.552027 0.248502
Si Si4 0.000000 0.204897 0.000000
Si Si5 0.192472 0.520683 0.410101
Si Si6 0.000000 0.513589 0.500000
Si Si7 0.647214 0.673397 0.477637
Si Si8 0.599017 0.796687 0.042816
O O1 0.171724 0.649353 0.322716
O O2 0.044170 0.625368 0.516276
O O3 0.112487 0.882858 0.300777
O O4 0.161060 0.647082 0.007382
O O5 0.165689 0.153284 0.232885
O O6 0.102694 0.118673 0.099073
O O7 0.224689 0.970334 0.840772
O O8 0.813262 0.604597 0.391161
O O9 0.706599 0.576515 0.437908
O O10 0.818205 0.367841 0.187247
O O11 0.064605 0.110084 0.735108
O O12 0.952518 0.308772 0.990502
O O13 0.147109 0.359234 0.515615
O O14 0.937222 0.406533 0.729758
#
# Coordination Sequence:
#
# PCOD8051323 Si02
#       8
#     4   4   4   2   4   2   4   4
#     4  11  25  46  69 107 146 194 246 311 376 444
#     4  12  25  43  77 103 148 190 251 308 374 444
#     4  11  24  44  72 109 144 194 253 310 369 446
#     4  12  24  46  68 110 146 198 246 314 366 458
#     4  12  23  44  73 106 146 191 245 311 367 444
#     4  10  24  44  72  94 146 194 248 302 388 440
#     4  12  25  44  73 109 149 197 254 307 378 450
#     4  11  24  44  74 106 146 199 255 308 380 453
#
# _framework density 22.723054000000001
#
# number of rings (size 3 to 8) (size 9 to 14) (size 15 to 20)
#    0.000    0.571    4.286    4.286    2.000    1.714 
#    2.571    0.000    0.000    0.000    0.000    0.000 
#    0.000    0.000    0.000    0.000    0.000    0.000 
#
# Total GULP energy -173451.735774 kJ/mol
# GULP energy per Si atom -12389.409698 kJ/mol
# Density = 2.267134 g / cm^3
# Si number density = 22.723054 Si / 1000 Ang^3
#
#
#
# Elastic Constant Matrix: (Units=GPa)
#
#
# Indices 1 2 3 4 5 6 
#
# 1 124.0791 57.3040 41.6718 0.0000 5.6147 0.0000
# 2 57.3040 110.4417 25.7055 0.0000 -9.9787 0.0000
# 3 41.6718 25.7055 104.7864 0.0000 -1.5303 0.0000
# 4 0.0000 0.0000 0.0000 16.7044 0.0000 -4.2131
# 5 5.6147 -9.9787 -1.5303 0.0000 46.9826 0.0000
# 6 0.0000 0.0000 0.0000 -4.2131 0.0000 31.3541
#
#
#
# Elastic Compliance Matrix: (Units=1/GPa)
#
#
# Indices 1 2 3 4 5 6 
#
# 1 0.011933 -0.005648 -0.003400 0.000000 -0.002736 0.000000
# 2 -0.005648 0.012460 -0.000763 0.000000 0.003297 0.000000
# 3 -0.003400 -0.000763 0.011091 0.000000 0.000606 0.000000
# 4 0.000000 0.000000 0.000000 0.061965 0.000000 0.008326
# 5 -0.002736 0.003297 0.000606 0.000000 0.022331 0.000000
# 6 0.000000 0.000000 0.000000 0.008326 0.000000 0.033013
#
#
# Mechanical properties :
#
#
# Convention : Reuss Voigt Hill
#
# Bulk Modulus (GPa) = 63.03516 65.40775 64.22145
# Shear Modulus (GPa) = 28.13693 33.31662 30.72678
#
# Velocity S-wave (km/s) = 3.52270 3.83326 3.68126
# Velocity P-wave (km/s) = 6.65934 6.95982 6.81123
#
# Compressibility (1/GPa) = 0.01586416
#
# Stress axis : x y z
#
# Youngs Moduli (GPa) = 83.79816 80.25541 90.16031
#
# Poissons Ratio (x) = 0.45325 0.30657
# Poissons Ratio (y) = 0.47326 0.06875
# Poissons Ratio (z) = 0.28494 0.06120
#
# Static dielectric constant tensor:
#      x y z
#    x 4.292810 0.000000 -0.311810 
#    y 0.000000 3.923170 0.000000 
#    z -0.311810 0.000000 5.261370 
# 
# 
# High freq. dielectric constant tensor:
#      x y z
#    x 1.902460 0.000000 0.005010 
#    y 0.000000 1.873360 0.000000 
#    z 0.005010 0.000000 1.903710 
# 
# From -- ./inp_files/32500.got.cif
#   From: 2010.03.12/outbox.cif.g09.slc.cpg/sg5_17_cif.got.tgz:32500.got - 2010.03.31 09:47:26.
