data_PCOD8051461
_publ_section_title
;
Structure prediction by ZEFSAII (Michael W. Deem and Ramdas Pophale) SiO2 
 PCOD8051461
Probable space group: C 2
;
_chemical_formula_sum "Si O2"
_cell_formula_units_Z 30
_cell_length_a 7.986013
_cell_length_b 15.199084
_cell_length_c 11.572385
_cell_angle_alpha 90.000000
_cell_angle_beta 107.017004
_cell_angle_gamma 90.000000
_cell_volume 1343.158273
_symmetry_space_group_name_H-M "C 2"
_symmetry_group_IT_number 5
_symmetry_cell_setting 'monoclinic'
loop_
_space_group_symop_operation_xyz
x,y,z
-x,y,-z
1/2+x,1/2+y,z
1/2-x,1/2+y,-z
loop_
_atom_site_type_symbol
_atom_site_label
_atom_site_fract_x
_atom_site_fract_y
_atom_site_fract_z
Si Si1 0.135238 0.440180 0.696504
Si Si2 0.608159 0.241157 0.413439
Si Si3 0.500000 0.807162 0.500000
Si Si4 0.978559 0.604278 0.217509
Si Si5 0.310025 0.684655 0.999306
Si Si6 0.319921 0.876457 0.035191
Si Si7 0.017037 0.936397 0.372155
Si Si8 0.726912 0.524504 0.856855
O O1 0.004868 0.369273 0.613705
O O2 0.055041 0.537070 0.685247
O O3 0.173554 0.404836 0.831310
O O4 0.299653 0.457970 0.648535
O O5 0.500000 0.199476 0.500000
O O6 0.593784 0.181781 0.295952
O O7 0.501767 0.330722 0.364294
O O8 0.818627 0.251928 0.477156
O O9 0.073365 0.548477 0.135733
O O10 0.801683 0.641039 0.125222
O O11 0.227337 0.779666 0.017422
O O12 0.344751 0.617612 0.111615
O O13 0.500000 0.712773 0.000000
O O14 0.500000 0.877204 0.000000
O O15 0.200191 0.949113 0.947532
O O16 0.000000 0.969889 0.500000
O O17 0.866651 0.989759 0.276550
#
# Coordination Sequence:
#
# PCOD8051461 Si02
#       8
#     4   4   2   4   4   4   4   4
#     4  11  24  44  73  98 139 187 246 292 368 431
#     4  10  25  47  72 103 145 188 250 306 364 441
#     4  10  26  48  70 102 142 202 248 298 376 438
#     4  12  25  44  68 108 143 184 240 308 366 439
#     4  11  25  43  69 104 145 186 241 294 372 442
#     4  11  23  43  71 102 137 188 227 297 363 439
#     4  10  25  46  70 102 140 195 241 298 363 437
#     4  12  24  44  69 104 146 183 242 296 368 438
#
# _framework density 22.335419000000002
#
# number of rings (size 3 to 8) (size 9 to 14) (size 15 to 20)
#    0.000    1.067    2.667    2.000   10.267    2.133 
#    6.000    0.000    0.000    0.000    0.000    0.000 
#    0.000    0.000    0.000    0.000    0.000    0.000 
#
# Total GULP energy -185881.566331 kJ/mol
# GULP energy per Si atom -12392.104422 kJ/mol
# Density = 2.228458 g / cm^3
# Si number density = 22.335419 Si / 1000 Ang^3
#
#
#
# Elastic Constant Matrix: (Units=GPa)
#
#
# Indices 1 2 3 4 5 6 
#
# 1 95.7276 34.1981 46.8877 0.0000 -0.7510 0.0000
# 2 34.1981 137.8575 65.5374 0.0000 -1.0682 0.0000
# 3 46.8877 65.5374 158.4810 0.0000 -3.1693 0.0000
# 4 0.0000 0.0000 0.0000 26.3405 0.0000 7.4230
# 5 -0.7510 -1.0682 -3.1693 0.0000 39.5436 0.0000
# 6 0.0000 0.0000 0.0000 7.4230 0.0000 23.4010
#
#
#
# Elastic Compliance Matrix: (Units=1/GPa)
#
#
# Indices 1 2 3 4 5 6 
#
# 1 0.012520 -0.001674 -0.003013 0.000000 -0.000049 0.000000
# 2 -0.001674 0.009253 -0.003332 0.000000 -0.000049 0.000000
# 3 -0.003013 -0.003332 0.008590 0.000000 0.000541 0.000000
# 4 0.000000 0.000000 0.000000 0.041691 0.000000 -0.013225
# 5 -0.000049 -0.000049 0.000541 0.000000 0.025330 0.000000
# 6 0.000000 0.000000 0.000000 -0.013225 0.000000 0.046928
#
#
# Mechanical properties :
#
#
# Convention : Reuss Voigt Hill
#
# Bulk Modulus (GPa) = 69.80835 76.14584 72.97709
# Shear Modulus (GPa) = 30.28029 34.21987 32.25008
#
# Velocity S-wave (km/s) = 3.68599 3.91844 3.80399
# Velocity P-wave (km/s) = 7.03120 7.39177 7.21373
#
# Compressibility (1/GPa) = 0.01432493
#
# Stress axis : x y z
#
# Youngs Moduli (GPa) = 79.87504 108.07537 116.41394
#
# Poissons Ratio (x) = 0.18090 0.35073
# Poissons Ratio (y) = 0.13369 0.38791
# Poissons Ratio (z) = 0.24065 0.36012
#
# Static dielectric constant tensor:
#      x y z
#    x 4.069800 0.000000 -0.458430 
#    y 0.000000 4.504710 0.000000 
#    z -0.458430 0.000000 6.154840 
# 
# 
# High freq. dielectric constant tensor:
#      x y z
#    x 1.872830 0.000000 -0.011720 
#    y 0.000000 1.896860 0.000000 
#    z -0.011720 0.000000 1.881660 
# 
# From -- ./inp_files/36217.got.cif
#   From: 2010.03.12/outbox.cif.g09.slc.cpg/sg5_19_cif.got.tgz:36217.got - 2010.03.31 09:47:26.
