data_PCOD8051444
_publ_section_title
;
Structure prediction by ZEFSAII (Michael W. Deem and Ramdas Pophale) SiO2 
 PCOD8051444
Probable space group: C 2
;
_chemical_formula_sum "Si O2"
_cell_formula_units_Z 16
_cell_length_a 19.839272
_cell_length_b 7.617283
_cell_length_c 18.386990
_cell_angle_alpha 90.000000
_cell_angle_beta 164.992995
_cell_angle_gamma 90.000000
_cell_volume 719.500012
_symmetry_space_group_name_H-M "C 2"
_symmetry_group_IT_number 5
_symmetry_cell_setting 'monoclinic'
loop_
_space_group_symop_operation_xyz
x,y,z
-x,y,-z
1/2+x,1/2+y,z
1/2-x,1/2+y,-z
loop_
_atom_site_type_symbol
_atom_site_label
_atom_site_fract_x
_atom_site_fract_y
_atom_site_fract_z
Si Si1 0.000000 0.206080 0.500000
Si Si2 0.465402 0.199809 0.245001
Si Si3 0.517174 0.743020 0.875836
Si Si4 0.500000 0.972400 0.000000
Si Si5 0.735474 0.894106 0.880764
O O1 0.244913 0.090308 0.732899
O O2 0.062931 0.326496 0.634704
O O3 0.754896 0.273332 0.556488
O O4 0.445663 0.995210 0.248134
O O5 0.381970 0.232399 0.073937
O O6 0.265922 0.310796 0.088680
O O7 0.497867 0.847886 0.929153
O O8 0.553368 0.534242 0.930088
#
# Coordination Sequence:
#
# PCOD8051444 Si02
#       5
#     2   4   4   2   4
#     4  12  30  44  74 106 146 184 236 288 356 418
#     4  10  25  43  73 101 140 186 232 290 345 422
#     4  10  26  43  73  99 145 184 234 287 351 415
#     4  12  28  44  72 104 150 184 234 288 358 414
#     4  10  28  44  75 103 145 180 239 287 357 409
#
# _framework density 22.237663999999999
#
# number of rings (size 3 to 8) (size 9 to 14) (size 15 to 20)
#    1.500    0.000    0.000    1.500   17.500    0.000 
#    0.000    0.000    0.000    0.000    0.000    0.000 
#    0.000    0.000    0.000    0.000    0.000    0.000 
#
# Total GULP energy -99138.157968 kJ/mol
# GULP energy per Si atom -12392.269746 kJ/mol
# Density = 2.218705 g / cm^3
# Si number density = 22.237664 Si / 1000 Ang^3
#
#
#
# Elastic Constant Matrix: (Units=GPa)
#
#
# Indices 1 2 3 4 5 6 
#
# 1 74.8386 61.6754 63.9731 -0.0133 -7.4383 -0.2266
# 2 61.6754 105.5563 65.7737 0.0295 -22.0514 -0.1004
# 3 63.9731 65.7737 188.3132 -0.0237 -10.9880 -0.3251
# 4 -0.0133 0.0295 -0.0237 33.5339 0.0017 -29.2004
# 5 -7.4383 -22.0514 -10.9880 0.0017 60.4802 -0.0696
# 6 -0.2266 -0.1004 -0.3251 -29.2004 -0.0696 -48.6313
#
#
#
# Elastic Compliance Matrix: (Units=1/GPa)
#
#
# Indices 1 2 3 4 5 6 
#
# 1 0.029471 -0.014614 -0.005060 -0.000026 -0.002623 -0.000054
# 2 -0.014614 0.020228 -0.001794 0.000001 0.005252 0.000030
# 3 -0.005060 -0.001794 0.007663 -0.000011 0.000116 -0.000018
# 4 -0.000026 0.000001 -0.000011 0.019582 -0.000019 -0.011758
# 5 -0.002623 0.005252 0.000116 -0.000019 0.018148 -0.000014
# 6 -0.000054 0.000030 -0.000018 -0.011758 -0.000014 -0.013503
#
#
# Mechanical properties :
#
#
# Convention : Reuss Voigt Hill
#
# Bulk Modulus (GPa) = 69.32954 83.50583 76.41769
# Shear Modulus (GPa) = 38.65990 20.89561 29.77776
#
# Velocity S-wave (km/s) = 4.17404 3.06870 3.66330
# Velocity P-wave (km/s) = 7.38068 7.08441 7.23406
#
# Compressibility (1/GPa) = 0.01442387
#
# Stress axis : x y z
#
# Youngs Moduli (GPa) = 33.93199 49.43760 130.50283
#
# Poissons Ratio (x) = 0.72250 0.66040
# Poissons Ratio (y) = 0.49589 0.23410
# Poissons Ratio (z) = 0.17171 0.08868
#
# Static dielectric constant tensor:
#      x y z
#    x 7.113070 0.002470 -6.555620 
#    y 0.002470 3.973830 -0.005100 
#    z -6.555620 -0.005100 17.454050 
# 
# 
# High freq. dielectric constant tensor:
#      x y z
#    x 1.870650 0.000000 -0.002310 
#    y 0.000000 1.870440 0.000000 
#    z -0.002310 0.000000 1.887280 
# 
# From -- ./inp_files/6311.got.cif
#   From: 2010.03.12/outbox.cif.g09.slc.cpg/sg5_4_cif.got.tgz:6311.got - 2010.03.31 09:47:26.
