data_PCOD8051230
_publ_section_title
;
Structure prediction by ZEFSAII (Michael W. Deem and Ramdas Pophale) SiO2 
 PCOD8051230
Probable space group: C 2
;
_chemical_formula_sum "Si O2"
_cell_formula_units_Z 26
_cell_length_a 17.218299
_cell_length_b 8.455630
_cell_length_c 16.016148
_cell_angle_alpha 90.000000
_cell_angle_beta 33.984577
_cell_angle_gamma 90.000000
_cell_volume 1303.414574
_symmetry_space_group_name_H-M "C 2"
_symmetry_group_IT_number 5
_symmetry_cell_setting 'monoclinic'
loop_
_space_group_symop_operation_xyz
x,y,z
-x,y,-z
1/2+x,1/2+y,z
1/2-x,1/2+y,-z
loop_
_atom_site_type_symbol
_atom_site_label
_atom_site_fract_x
_atom_site_fract_y
_atom_site_fract_z
Si Si1 0.615194 0.958800 0.173723
Si Si2 0.500000 0.836630 0.000000
Si Si3 0.074131 0.213302 0.347335
Si Si4 0.864522 0.676614 0.351328
Si Si5 0.137091 0.640410 0.836293
Si Si6 0.625427 0.678399 0.044309
Si Si7 0.080114 0.023630 0.647240
O O1 0.558268 0.871091 0.306548
O O2 0.669202 0.832683 0.057822
O O3 0.490658 0.055074 0.243595
O O4 0.740469 0.071021 0.086805
O O5 0.576519 0.723866 0.996304
O O6 0.387135 0.950052 0.147160
O O7 0.235509 0.174522 0.215864
O O8 0.000000 0.246684 0.500000
O O9 0.002089 0.066015 0.364461
O O10 0.833398 0.710769 0.281533
O O11 0.730081 0.605225 0.515612
O O12 0.904095 0.835802 0.364180
O O13 0.000000 0.721513 0.000000
O O14 0.502360 0.583832 0.198758
#
# Coordination Sequence:
#
# PCOD8051230 Si02
#       7
#     4   2   4   4   4   4   4
#     4  11  25  42  68  96 131 170 219 270 319 392
#     4  10  24  42  66  98 132 164 216 280 312 384
#     4  11  24  46  65  96 132 173 216 265 332 386
#     4  12  24  45  67  96 131 173 218 265 330 384
#     4  10  24  40  69  92 135 170 214 269 332 377
#     4  11  24  43  67  97 130 171 223 264 326 379
#     4  11  26  41  72  93 131 176 215 268 323 393
#
# _framework density 19.947607000000001
#
# number of rings (size 3 to 8) (size 9 to 14) (size 15 to 20)
#    0.462    0.615    3.077    2.769   12.923    1.231 
#    0.000    0.769    0.000    0.000    0.000    0.000 
#    0.000    0.000    0.000    0.000    0.000    0.000 
#
# Total GULP energy -161260.985083 kJ/mol
# GULP energy per Si atom -12404.691160 kJ/mol
# Density = 1.990221 g / cm^3
# Si number density = 19.947607 Si / 1000 Ang^3
#
#
#
# Elastic Constant Matrix: (Units=GPa)
#
#
# Indices 1 2 3 4 5 6 
#
# 1 107.6005 51.4973 32.0220 0.0000 12.7691 0.0000
# 2 51.4973 103.1269 21.1254 0.0000 -2.3411 0.0000
# 3 32.0220 21.1254 81.6313 0.0000 -2.7817 0.0000
# 4 0.0000 0.0000 0.0000 28.0583 0.0000 -13.2691
# 5 12.7691 -2.3411 -2.7817 0.0000 33.4598 0.0000
# 6 0.0000 0.0000 0.0000 -13.2691 0.0000 32.1970
#
#
#
# Elastic Compliance Matrix: (Units=1/GPa)
#
#
# Indices 1 2 3 4 5 6 
#
# 1 0.014379 -0.006466 -0.004181 0.000000 -0.006287 0.000000
# 2 -0.006466 0.013156 -0.000755 0.000000 0.003326 0.000000
# 3 -0.004181 -0.000755 0.014178 0.000000 0.002722 0.000000
# 4 0.000000 0.000000 0.000000 0.044268 0.000000 0.018244
# 5 -0.006287 0.003326 0.002722 0.000000 0.032745 0.000000
# 6 0.000000 0.000000 0.000000 0.018244 0.000000 0.038577
#
#
# Mechanical properties :
#
#
# Convention : Reuss Voigt Hill
#
# Bulk Modulus (GPa) = 52.88628 55.73868 54.31248
# Shear Modulus (GPa) = 26.82240 31.25728 29.03984
#
# Velocity S-wave (km/s) = 3.67091 3.96279 3.81964
# Velocity P-wave (km/s) = 6.67365 6.99582 6.83663
#
# Compressibility (1/GPa) = 0.01890849
#
# Stress axis : x y z
#
# Youngs Moduli (GPa) = 69.54602 76.01117 70.52942
#
# Poissons Ratio (x) = 0.49152 0.29491
# Poissons Ratio (y) = 0.44972 0.05323
# Poissons Ratio (z) = 0.29079 0.05736
#
# Static dielectric constant tensor:
#      x y z
#    x 3.671170 0.000000 -0.109790 
#    y 0.000000 3.631370 0.000000 
#    z -0.109790 0.000000 3.633220 
# 
# 
# High freq. dielectric constant tensor:
#      x y z
#    x 1.788710 0.000000 -0.007110 
#    y 0.000000 1.773620 0.000000 
#    z -0.007110 0.000000 1.783860 
# 
# From -- ./inp_files/29154.got.cif
#   From: 2010.03.12/outbox.cif.g09.slc.cpg/sg5_15_cif.got.tgz:29154.got - 2010.03.31 09:47:26.
