data_PCOD8051210
_publ_section_title
;
Structure prediction by ZEFSAII (Michael W. Deem and Ramdas Pophale) SiO2 
 PCOD8051210
Probable space group: C 2
;
_chemical_formula_sum "Si O2"
_cell_formula_units_Z 28
_cell_length_a 27.227117
_cell_length_b 8.982054
_cell_length_c 6.697466
_cell_angle_alpha 90.000000
_cell_angle_beta 56.970335
_cell_angle_gamma 90.000000
_cell_volume 1373.197907
_symmetry_space_group_name_H-M "C 2"
_symmetry_group_IT_number 5
_symmetry_cell_setting 'monoclinic'
loop_
_space_group_symop_operation_xyz
x,y,z
-x,y,-z
1/2+x,1/2+y,z
1/2-x,1/2+y,-z
loop_
_atom_site_type_symbol
_atom_site_label
_atom_site_fract_x
_atom_site_fract_y
_atom_site_fract_z
Si Si1 0.059059 0.369440 0.756977
Si Si2 0.159183 0.861589 0.280961
Si Si3 0.627632 0.695436 0.311191
Si Si4 0.125533 0.419450 0.998729
Si Si5 0.937469 0.629433 0.566309
Si Si6 0.747281 0.468402 0.396777
Si Si7 0.256267 0.787981 0.755411
O O1 0.079298 0.222745 0.590665
O O2 0.108050 0.416081 0.806887
O O3 0.049332 0.506647 0.630028
O O4 0.000000 0.326280 0.000000
O O5 0.101702 0.761268 0.440745
O O6 0.192614 0.881531 0.417282
O O7 0.139433 0.023247 0.246795
O O8 0.200782 0.785123 0.024876
O O9 0.684857 0.792283 0.245166
O O10 0.605028 0.767617 0.154399
O O11 0.195379 0.426568 0.854505
O O12 0.096666 0.561220 0.169639
O O13 0.000000 0.694670 0.500000
O O14 0.739608 0.645340 0.398321
O O15 0.751281 0.430999 0.622392
#
# Coordination Sequence:
#
# PCOD8051210 Si02
#       7
#     4   4   4   4   4   4   4
#     4  11  23  42  67  91 122 164 223 266 310 383
#     4  11  25  42  61  95 135 167 208 267 327 380
#     4  10  24  39  62  95 127 167 208 260 328 384
#     4  11  21  41  66  91 124 165 209 265 313 379
#     4  11  24  44  67  94 124 171 221 266 321 377
#     4  11  24  37  65  93 126 172 210 260 321 380
#     4  11  23  38  61  94 131 164 211 260 320 383
#
# _framework density 20.390362
#
# number of rings (size 3 to 8) (size 9 to 14) (size 15 to 20)
#    0.000    1.143    5.714    0.000    4.000    0.000 
#    2.571    0.714    0.000    0.000    0.000    0.000 
#    0.000    0.000    0.000    0.000    0.000    0.000 
#
# Total GULP energy -173632.952553 kJ/mol
# GULP energy per Si atom -12402.353754 kJ/mol
# Density = 2.034395 g / cm^3
# Si number density = 20.390362 Si / 1000 Ang^3
#
#
#
# Elastic Constant Matrix: (Units=GPa)
#
#
# Indices 1 2 3 4 5 6 
#
# 1 91.8942 28.3404 19.6136 0.0000 -15.2039 0.0000
# 2 28.3404 57.1557 6.7437 0.0000 -1.1235 0.0000
# 3 19.6136 6.7437 73.8742 0.0000 -8.7874 0.0000
# 4 0.0000 0.0000 0.0000 24.3212 0.0000 -2.3918
# 5 -15.2039 -1.1235 -8.7874 0.0000 36.9843 0.0000
# 6 0.0000 0.0000 0.0000 -2.3918 0.0000 31.4074
#
#
#
# Elastic Compliance Matrix: (Units=1/GPa)
#
#
# Indices 1 2 3 4 5 6 
#
# 1 0.014344 -0.006707 -0.002592 0.000000 0.005077 0.000000
# 2 -0.006707 0.020823 -0.000384 0.000000 -0.002216 0.000000
# 3 -0.002592 -0.000384 0.014543 0.000000 0.002378 0.000000
# 4 0.000000 0.000000 0.000000 0.041427 0.000000 0.003155
# 5 0.005077 -0.002216 0.002378 0.000000 0.029623 0.000000
# 6 0.000000 0.000000 0.000000 0.003155 0.000000 0.032080
#
#
# Mechanical properties :
#
#
# Convention : Reuss Voigt Hill
#
# Bulk Modulus (GPa) = 32.95496 36.92439 34.93967
# Shear Modulus (GPa) = 27.42444 29.75769 28.59107
#
# Velocity S-wave (km/s) = 3.67136 3.82435 3.74864
# Velocity P-wave (km/s) = 5.84542 6.13588 5.99241
#
# Compressibility (1/GPa) = 0.03034444
#
# Stress axis : x y z
#
# Youngs Moduli (GPa) = 69.71733 48.02327 68.76334
#
# Poissons Ratio (x) = 0.32207 0.17824
# Poissons Ratio (y) = 0.46757 0.02639
# Poissons Ratio (z) = 0.18072 0.01843
#
# Static dielectric constant tensor:
#      x y z
#    x 3.802570 0.000000 -0.015790 
#    y 0.000000 3.458800 0.000000 
#    z -0.015790 0.000000 3.615480 
# 
# 
# High freq. dielectric constant tensor:
#      x y z
#    x 1.802210 0.000000 0.001250 
#    y 0.000000 1.780190 0.000000 
#    z 0.001250 0.000000 1.800860 
# 
# From -- ./inp_files/11183.got.cif
#   From: 2010.03.12/outbox.cif.g09.slc.cpg/sg5_6_cif.got.tgz:11183.got - 2010.03.31 09:47:26.
