data_PCOD8051707
_publ_section_title
;
Structure prediction by ZEFSAII (Michael W. Deem and Ramdas Pophale) SiO2 
 PCOD8051707
Probable space group: C 2
;
_chemical_formula_sum "Si O2"
_cell_formula_units_Z 32
_cell_length_a 9.609986
_cell_length_b 11.629670
_cell_length_c 13.148871
_cell_angle_alpha 90.000000
_cell_angle_beta 92.596800
_cell_angle_gamma 90.000000
_cell_volume 1468.021465
_symmetry_space_group_name_H-M "C 2"
_symmetry_group_IT_number 5
_symmetry_cell_setting 'monoclinic'
loop_
_space_group_symop_operation_xyz
x,y,z
-x,y,-z
1/2+x,1/2+y,z
1/2-x,1/2+y,-z
loop_
_atom_site_type_symbol
_atom_site_label
_atom_site_fract_x
_atom_site_fract_y
_atom_site_fract_z
Si Si1 0.915425 0.707350 0.767632
Si Si2 0.458596 0.825204 0.888581
Si Si3 0.198146 0.891135 0.390548
Si Si4 0.648512 0.362020 0.819321
Si Si5 0.628171 0.622324 0.812836
Si Si6 0.541457 0.622034 0.388088
Si Si7 0.772611 0.332104 0.615087
Si Si8 0.519831 0.972576 0.697890
O O1 0.846603 0.789423 0.683094
O O2 0.790672 0.655371 0.831667
O O3 0.020256 0.778403 0.845064
O O4 0.003328 0.608291 0.714262
O O5 0.291402 0.817867 0.874630
O O6 0.526664 0.699015 0.878683
O O7 0.523316 0.909737 0.807032
O O8 0.500000 0.874345 0.000000
O O9 0.203224 0.839028 0.503235
O O10 0.342661 0.946087 0.360157
O O11 0.084282 0.990459 0.383927
O O12 0.611814 0.491722 0.851285
O O13 0.657408 0.357735 0.696586
O O14 0.588145 0.639047 0.692521
O O15 0.500000 0.659880 0.500000
O O16 0.665390 0.706362 0.358496
O O17 0.891469 0.428939 0.626234
#
# Coordination Sequence:
#
# PCOD8051707 Si02
#       8
#     4   4   4   4   4   4   4   4
#     4  12  24  41  72  98 136 181 221 274 335 394
#     4  11  25  50  75  99 132 174 224 286 355 413
#     4  12  25  38  63 101 139 184 234 270 325 402
#     4  11  24  46  68 101 140 174 225 280 333 403
#     4  12  22  47  69  99 138 179 221 283 339 400
#     4  12  23  39  63  94 145 192 229 276 328 397
#     4  11  22  41  63  96 138 185 232 273 325 397
#     4  11  23  43  68  96 136 177 226 283 340 397
#
# _framework density 21.798045999999999
#
# number of rings (size 3 to 8) (size 9 to 14) (size 15 to 20)
#    0.000    0.500    7.500    3.375    1.750    0.000 
#    4.500    0.625    0.000    0.000    0.000    0.000 
#    0.000    0.000    0.000    0.000    0.000    0.000 
#
# Total GULP energy -198470.951674 kJ/mol
# GULP energy per Si atom -12404.434480 kJ/mol
# Density = 2.174843 g / cm^3
# Si number density = 21.798046 Si / 1000 Ang^3
#
#
#
# Elastic Constant Matrix: (Units=GPa)
#
#
# Indices 1 2 3 4 5 6 
#
# 1 80.5087 24.7192 2.1755 0.0000 11.3992 0.0000
# 2 24.7192 131.2014 -13.9219 0.0000 2.5936 0.0000
# 3 2.1755 -13.9219 38.4099 0.0000 11.6315 0.0000
# 4 0.0000 0.0000 0.0000 13.9578 0.0000 -3.7312
# 5 11.3992 2.5936 11.6315 0.0000 18.6175 0.0000
# 6 0.0000 0.0000 0.0000 -3.7312 0.0000 42.1449
#
#
#
# Elastic Compliance Matrix: (Units=1/GPa)
#
#
# Indices 1 2 3 4 5 6 
#
# 1 0.014435 -0.002423 0.001083 0.000000 -0.009178 0.000000
# 2 -0.002423 0.008531 0.003873 0.000000 -0.002124 0.000000
# 3 0.001083 0.003873 0.034215 0.000000 -0.022579 0.000000
# 4 0.000000 0.000000 0.000000 0.073381 0.000000 0.006497
# 5 -0.009178 -0.002124 -0.022579 0.000000 0.073735 0.000000
# 6 0.000000 0.000000 0.000000 0.006497 0.000000 0.024303
#
#
# Mechanical properties :
#
#
# Convention : Reuss Voigt Hill
#
# Bulk Modulus (GPa) = 16.06501 30.67395 23.36948
# Shear Modulus (GPa) = 20.46801 30.75386 25.61093
#
# Velocity S-wave (km/s) = 3.06761 3.76021 3.43143
# Velocity P-wave (km/s) = 4.46463 5.74061 5.14235
#
# Compressibility (1/GPa) = 0.06224709
#
# Stress axis : x y z
#
# Youngs Moduli (GPa) = 69.27482 117.21425 29.22707
#
# Poissons Ratio (x) = 0.28405 -0.03166
# Poissons Ratio (y) = 0.16788 -0.11319
# Poissons Ratio (z) = -0.07504 -0.45395
#
# Static dielectric constant tensor:
#      x y z
#    x 4.151440 0.000000 0.026010 
#    y 0.000000 4.139920 0.000000 
#    z 0.026010 0.000000 3.690940 
# 
# 
# High freq. dielectric constant tensor:
#      x y z
#    x 1.867350 0.000000 0.008020 
#    y 0.000000 1.872160 0.000000 
#    z 0.008020 0.000000 1.822320 
# 
# From -- ./inp_files/50491.got.cif
#   From: 2010.03.12/outbox.cif.g09.slc.cpg/sg5_26_cif.got.tgz:50491.got - 2010.03.31 09:47:26.
