data_PCOD8051922
_publ_section_title
;
Structure prediction by ZEFSAII (Michael W. Deem and Ramdas Pophale) SiO2 
 PCOD8051922
Probable space group: C 2
;
_chemical_formula_sum "Si O2"
_cell_formula_units_Z 14
_cell_length_a 5.289683
_cell_length_b 18.691456
_cell_length_c 5.402915
_cell_angle_alpha 90.000000
_cell_angle_beta 89.386660
_cell_angle_gamma 90.000000
_cell_volume 534.165740
_symmetry_space_group_name_H-M "C 2"
_symmetry_group_IT_number 5
_symmetry_cell_setting 'monoclinic'
loop_
_space_group_symop_operation_xyz
x,y,z
-x,y,-z
1/2+x,1/2+y,z
1/2-x,1/2+y,-z
loop_
_atom_site_type_symbol
_atom_site_label
_atom_site_fract_x
_atom_site_fract_y
_atom_site_fract_z
Si Si1 0.254020 0.346900 0.640587
Si Si2 0.500000 0.940677 0.000000
Si Si3 0.248273 0.694194 0.159488
Si Si4 0.348824 0.539922 0.260635
O O1 0.500000 0.377403 0.500000
O O2 0.284775 0.261860 0.663269
O O3 0.000000 0.365600 0.500000
O O4 0.228098 0.389413 0.900764
O O5 0.603326 0.990225 0.223129
O O6 0.268062 0.621688 0.319663
O O7 0.500000 0.707507 0.000000
O O8 0.000000 0.686960 0.000000
O O9 0.500000 0.511739 0.500000
O O10 0.500000 0.537755 0.000000
#
# Coordination Sequence:
#
# PCOD8051922 Si02
#       4
#     4   2   4   4
#     4  12  29  49  84 118 167 221 279 342 425 498
#     4  12  30  52  78 124 176 214 280 350 422 514
#     4  11  23  51  81 121 160 216 282 347 413 497
#     4  11  28  51  85 120 170 222 283 347 425 501
#
# _framework density 26.209094
#
# number of rings (size 3 to 8) (size 9 to 14) (size 15 to 20)
#    0.000    0.571    2.857    2.571    8.000    2.286 
#    0.000    0.000    0.000    0.000    0.000    0.000 
#    0.000    0.000    0.000    0.000    0.000    0.000 
#
# Total GULP energy -86821.362350 kJ/mol
# GULP energy per Si atom -12403.051764 kJ/mol
# Density = 2.614944 g / cm^3
# Si number density = 26.209094 Si / 1000 Ang^3
#
#
#
# Elastic Constant Matrix: (Units=GPa)
#
#
# Indices 1 2 3 4 5 6 
#
# 1 178.5703 34.6421 60.9766 0.0000 6.6061 0.0000
# 2 34.6421 183.0693 46.9000 0.0000 -3.1226 0.0000
# 3 60.9766 46.9000 131.1086 0.0000 11.5585 0.0000
# 4 0.0000 0.0000 0.0000 -33.1456 0.0000 3.0387
# 5 6.6061 -3.1226 11.5585 0.0000 59.3193 0.0000
# 6 0.0000 0.0000 0.0000 3.0387 0.0000 22.0134
#
#
#
# Elastic Compliance Matrix: (Units=1/GPa)
#
#
# Indices 1 2 3 4 5 6 
#
# 1 0.006704 -0.000526 -0.002911 0.000000 -0.000207 0.000000
# 2 -0.000526 0.006088 -0.002001 0.000000 0.000769 0.000000
# 3 -0.002911 -0.002001 0.009847 0.000000 -0.001700 0.000000
# 4 0.000000 0.000000 0.000000 -0.029793 0.000000 0.004113
# 5 -0.000207 0.000769 -0.001700 0.000000 0.017253 0.000000
# 6 0.000000 0.000000 0.000000 0.004113 0.000000 0.044859
#
#
# Mechanical properties :
#
#
# Convention : Reuss Voigt Hill
#
# Bulk Modulus (GPa) = 85.02141 86.42061 85.72101
# Shear Modulus (GPa) = 71.67980 32.98605 52.33293
#
# Velocity S-wave (km/s) = 5.23532 3.55149 4.47335
# Velocity P-wave (km/s) = 8.30993 7.06134 7.71095
#
# Compressibility (1/GPa) = 0.01176174
#
# Stress axis : x y z
#
# Youngs Moduli (GPa) = 149.16592 164.26665 101.55526
#
# Poissons Ratio (x) = 0.08645 0.29567
# Poissons Ratio (y) = 0.07850 0.20318
# Poissons Ratio (z) = 0.43428 0.32865
#
# Static dielectric constant tensor:
#      x y z
#    x 4.743280 0.000000 0.036600 
#    y 0.000000 5.359230 0.000000 
#    z 0.036600 0.000000 4.525250 
# 
# 
# High freq. dielectric constant tensor:
#      x y z
#    x 2.058030 0.000000 0.004560 
#    y 0.000000 2.083760 0.000000 
#    z 0.004560 0.000000 2.032410 
# 
# From -- ./inp_files/360.got.cif
#   From: 2010.03.12/outbox.cif.g09.slc.cpg/sg5_1_cif.got.tgz:360.got - 2010.03.31 09:47:26.
