data_PCOD8051132
_publ_section_title
;
Structure prediction by ZEFSAII (Michael W. Deem and Ramdas Pophale) SiO2 
 PCOD8051132
Probable space group: C 2
;
_chemical_formula_sum "Si O2"
_cell_formula_units_Z 32
_cell_length_a 14.950573
_cell_length_b 11.485978
_cell_length_c 18.597694
_cell_angle_alpha 90.000000
_cell_angle_beta 28.230028
_cell_angle_gamma 90.000000
_cell_volume 1510.628267
_symmetry_space_group_name_H-M "C 2"
_symmetry_group_IT_number 5
_symmetry_cell_setting 'monoclinic'
loop_
_space_group_symop_operation_xyz
x,y,z
-x,y,-z
1/2+x,1/2+y,z
1/2-x,1/2+y,-z
loop_
_atom_site_type_symbol
_atom_site_label
_atom_site_fract_x
_atom_site_fract_y
_atom_site_fract_z
Si Si1 0.821716 0.530050 0.271109
Si Si2 0.463570 0.249936 0.350931
Si Si3 0.411869 0.856042 0.852210
Si Si4 0.275074 0.047399 0.844840
Si Si5 0.376047 0.627137 0.341929
Si Si6 0.007963 0.775354 0.823926
Si Si7 0.122086 0.999344 0.808138
Si Si8 0.996485 0.992948 0.614430
O O1 0.676555 0.534342 0.440782
O O2 0.701148 0.526758 0.283132
O O3 0.959491 0.417246 0.177194
O O4 0.957334 0.643295 0.175062
O O5 0.324872 0.154002 0.481249
O O6 0.395215 0.299706 0.322315
O O7 0.498248 0.352935 0.382873
O O8 0.651247 0.178238 0.196916
O O9 0.399238 0.950913 0.797472
O O10 0.517048 0.746879 0.744890
O O11 0.212304 0.812480 0.024092
O O12 0.282059 0.019927 0.754562
O O13 0.069908 0.051592 0.024878
O O14 0.333985 0.561168 0.297849
O O15 0.499651 0.549576 0.309243
O O16 0.111114 0.860124 0.806955
#
# Coordination Sequence:
#
# PCOD8051132 Si02
#       8
#     4   4   4   4   4   4   4   4
#     4  11  24  46  65 101 141 180 223 285 343 404
#     4  12  23  43  67  95 135 177 226 277 343 404
#     4  11  24  42  68  95 135 177 222 275 344 399
#     4  10  23  44  68  95 132 172 220 283 333 401
#     4  12  24  41  66  97 133 175 224 277 334 408
#     4  11  23  43  70  92 136 181 221 277 344 402
#     4  10  24  43  67 100 129 172 230 273 340 404
#     4  11  25  43  67 102 138 176 229 281 347 408
#
# _framework density 21.183240000000001
#
# number of rings (size 3 to 8) (size 9 to 14) (size 15 to 20)
#    0.000    1.000    5.000    0.750    5.250    0.500 
#    0.000    1.250    0.000    0.000    0.000    0.000 
#    0.000    0.000    0.000    0.000    0.000    0.000 
#
# Total GULP energy -198407.494458 kJ/mol
# GULP energy per Si atom -12400.468404 kJ/mol
# Density = 2.113503 g / cm^3
# Si number density = 21.183240 Si / 1000 Ang^3
#
#
#
# Elastic Constant Matrix: (Units=GPa)
#
#
# Indices 1 2 3 4 5 6 
#
# 1 124.0410 42.3769 39.4557 0.0051 8.3954 -0.0008
# 2 42.3769 128.7510 42.5722 -0.0019 -4.0338 0.0028
# 3 39.4557 42.5722 69.0768 0.0007 4.7430 0.0018
# 4 0.0051 -0.0019 0.0007 41.0481 0.0001 1.4104
# 5 8.3954 -4.0338 4.7430 0.0001 31.1805 -0.0009
# 6 -0.0008 0.0028 0.0018 1.4104 -0.0009 29.3679
#
#
#
# Elastic Compliance Matrix: (Units=1/GPa)
#
#
# Indices 1 2 3 4 5 6 
#
# 1 0.010336 -0.001980 -0.004522 -0.000001 -0.002351 0.000001
# 2 -0.001980 0.010286 -0.005392 0.000001 0.002684 -0.000001
# 3 -0.004522 -0.005392 0.020562 0.000000 -0.002608 -0.000001
# 4 -0.000001 0.000001 0.000000 0.024402 0.000000 -0.001172
# 5 -0.002351 0.002684 -0.002608 0.000000 0.033448 0.000001
# 6 0.000001 -0.000001 -0.000001 -0.001172 0.000001 0.034107
#
#
# Mechanical properties :
#
#
# Convention : Reuss Voigt Hill
#
# Bulk Modulus (GPa) = 57.48924 63.40870 60.44897
# Shear Modulus (GPa) = 30.72615 33.48359 32.10487
#
# Velocity S-wave (km/s) = 3.81267 3.98007 3.89727
# Velocity P-wave (km/s) = 6.82494 7.14980 6.98926
#
# Compressibility (1/GPa) = 0.01739456
#
# Stress axis : x y z
#
# Youngs Moduli (GPa) = 96.75032 97.22082 48.63409
#
# Poissons Ratio (x) = 0.19254 0.21991
# Poissons Ratio (y) = 0.19161 0.26225
# Poissons Ratio (z) = 0.43747 0.52424
#
# Static dielectric constant tensor:
#      x y z
#    x 4.022360 0.000000 0.018460 
#    y 0.000000 3.874800 0.000000 
#    z 0.018460 0.000000 3.869720 
# 
# 
# High freq. dielectric constant tensor:
#      x y z
#    x 1.834440 0.000000 0.004410 
#    y 0.000000 1.844040 0.000000 
#    z 0.004410 0.000000 1.821900 
# 
# From -- ./inp_files/61680.got.cif
#   From: 2010.03.12/outbox.cif.g09.slc.cpg/sg5_31_cif.got.tgz:61680.got - 2010.03.31 09:47:26.
