data_PCOD8051349
_publ_section_title
;
Structure prediction by ZEFSAII (Michael W. Deem and Ramdas Pophale) SiO2 
 PCOD8051349
Probable space group: C 2
;
_chemical_formula_sum "Si O2"
_cell_formula_units_Z 28
_cell_length_a 15.075881
_cell_length_b 7.754733
_cell_length_c 13.437734
_cell_angle_alpha 90.000000
_cell_angle_beta 126.858888
_cell_angle_gamma 90.000000
_cell_volume 1256.979380
_symmetry_space_group_name_H-M "C 2"
_symmetry_group_IT_number 5
_symmetry_cell_setting 'monoclinic'
loop_
_space_group_symop_operation_xyz
x,y,z
-x,y,-z
1/2+x,1/2+y,z
1/2-x,1/2+y,-z
loop_
_atom_site_type_symbol
_atom_site_label
_atom_site_fract_x
_atom_site_fract_y
_atom_site_fract_z
Si Si1 0.608930 0.261260 0.130945
Si Si2 0.551614 0.238814 0.315969
Si Si3 0.808430 0.096677 0.754695
Si Si4 0.052352 0.148508 0.333808
Si Si5 0.691591 0.645764 0.868940
Si Si6 0.893224 0.455739 0.494922
Si Si7 0.805820 0.755166 0.144446
O O1 0.603547 0.209016 0.242530
O O2 0.615012 0.469226 0.127861
O O3 0.717530 0.183104 0.152979
O O4 0.500000 0.195637 0.000000
O O5 0.560542 0.440516 0.358662
O O6 0.425701 0.164409 0.228424
O O7 0.617645 0.113255 0.434056
O O8 0.881833 0.195293 0.722742
O O9 0.755560 0.237652 0.791574
O O10 0.716660 0.970008 0.644952
O O11 0.106951 0.262909 0.458159
O O12 0.927645 0.226564 0.239519
O O13 0.663364 0.448211 0.855769
O O14 0.728530 0.693072 0.003935
O O15 0.000000 0.487237 0.500000
#
# Coordination Sequence:
#
# PCOD8051349 Si02
#       7
#     4   4   4   4   4   4   4
#     4  11  23  44  70 100 135 178 224 287 347 404
#     4  10  24  46  68 102 142 175 228 288 343 404
#     4  11  26  44  68 101 138 180 229 288 342 409
#     4  10  27  45  66 103 134 185 226 279 348 403
#     4  11  24  43  70 100 143 179 226 286 343 424
#     4  12  25  47  73  96 138 184 236 283 335 416
#     4  11  23  42  69 102 139 179 226 284 349 407
#
# _framework density 22.275624000000001
#
# number of rings (size 3 to 8) (size 9 to 14) (size 15 to 20)
#    0.000    1.143    2.857    1.714   12.000    0.571 
#    2.571    0.000    0.000    0.000    0.000    0.000 
#    0.000    0.000    0.000    0.000    0.000    0.000 
#
# Total GULP energy -173566.478104 kJ/mol
# GULP energy per Si atom -12397.605579 kJ/mol
# Density = 2.222492 g / cm^3
# Si number density = 22.275624 Si / 1000 Ang^3
#
#
#
# Elastic Constant Matrix: (Units=GPa)
#
#
# Indices 1 2 3 4 5 6 
#
# 1 149.4964 12.2115 27.1440 0.0000 -8.7304 0.0000
# 2 12.2115 74.1467 35.6588 0.0000 -10.0122 0.0000
# 3 27.1440 35.6588 72.2264 0.0000 -12.2295 0.0000
# 4 0.0000 0.0000 0.0000 39.0541 0.0000 -8.1757
# 5 -8.7304 -10.0122 -12.2295 0.0000 30.3566 0.0000
# 6 0.0000 0.0000 0.0000 -8.1757 0.0000 34.7082
#
#
#
# Elastic Compliance Matrix: (Units=1/GPa)
#
#
# Indices 1 2 3 4 5 6 
#
# 1 0.007213 0.000228 -0.002640 0.000000 0.001086 0.000000
# 2 0.000228 0.017870 -0.008477 0.000000 0.002544 0.000000
# 3 -0.002640 -0.008477 0.019769 0.000000 0.004409 0.000000
# 4 0.000000 0.000000 0.000000 0.026934 0.000000 0.006344
# 5 0.001086 0.002544 0.004409 0.000000 0.035870 0.000000
# 6 0.000000 0.000000 0.000000 0.006344 0.000000 0.030306
#
#
# Mechanical properties :
#
#
# Convention : Reuss Voigt Hill
#
# Bulk Modulus (GPa) = 43.33769 49.54422 46.44096
# Shear Modulus (GPa) = 29.86311 35.54747 32.70529
#
# Velocity S-wave (km/s) = 3.66542 3.99908 3.83588
# Velocity P-wave (km/s) = 6.11647 6.60403 6.36492
#
# Compressibility (1/GPa) = 0.02307460
#
# Stress axis : x y z
#
# Youngs Moduli (GPa) = 138.63491 55.96054 50.58358
#
# Poissons Ratio (x) = -0.01277 0.13352
# Poissons Ratio (y) = -0.03163 0.42882
# Poissons Ratio (z) = 0.36593 0.47440
#
# Static dielectric constant tensor:
#      x y z
#    x 4.133560 0.000000 -0.075220 
#    y 0.000000 3.886740 0.000000 
#    z -0.075220 0.000000 3.799260 
# 
# 
# High freq. dielectric constant tensor:
#      x y z
#    x 1.899760 0.000000 0.002780 
#    y 0.000000 1.864710 0.000000 
#    z 0.002780 0.000000 1.878450 
# 
# From -- ./inp_files/42034.got.cif
#   From: 2010.03.12/outbox.cif.g09.slc.cpg/sg5_22_cif.got.tgz:42034.got - 2010.03.31 09:47:26.
