data_PCOD8051976
_publ_section_title
;
Structure prediction by ZEFSAII (Michael W. Deem and Ramdas Pophale) SiO2 
 PCOD8051976
Probable space group: C 2
;
_chemical_formula_sum "Si O2"
_cell_formula_units_Z 24
_cell_length_a 18.112460
_cell_length_b 10.328786
_cell_length_c 15.881047
_cell_angle_alpha 90.000000
_cell_angle_beta 21.176541
_cell_angle_gamma 90.000000
_cell_volume 1073.260298
_symmetry_space_group_name_H-M "C 2"
_symmetry_group_IT_number 5
_symmetry_cell_setting 'monoclinic'
loop_
_space_group_symop_operation_xyz
x,y,z
-x,y,-z
1/2+x,1/2+y,z
1/2-x,1/2+y,-z
loop_
_atom_site_type_symbol
_atom_site_label
_atom_site_fract_x
_atom_site_fract_y
_atom_site_fract_z
Si Si1 0.000000 0.204370 0.000000
Si Si2 0.870141 0.277640 0.765814
Si Si3 0.703903 0.941831 0.502330
Si Si4 0.633122 0.509992 0.979133
Si Si5 0.682511 0.364001 0.431256
Si Si6 0.101492 0.670484 0.191676
Si Si7 0.500000 0.562925 0.500000
O O1 0.113091 0.288863 0.810255
O O2 0.836913 0.111277 0.128121
O O3 0.891983 0.152310 0.684238
O O4 0.072564 0.322750 0.602027
O O5 0.790560 0.394109 0.791303
O O6 0.679213 0.253430 0.030483
O O7 0.779836 0.914978 0.515353
O O8 0.580460 0.074990 0.640645
O O9 0.899904 0.962835 0.234515
O O10 0.704660 0.585333 0.986728
O O11 0.483484 0.270183 0.646934
O O12 0.653079 0.473828 0.391414
#
# Coordination Sequence:
#
# PCOD8051976 Si02
#       7
#     2   4   4   4   4   4   2
#     4  12  26  44  72 106 142 182 244 300 366 424
#     4  11  27  45  73 104 149 188 241 301 363 433
#     4  11  25  48  74 102 138 202 250 286 355 450
#     4  11  24  45  74 102 138 189 242 302 357 423
#     4  12  26  46  73 105 148 191 239 300 369 433
#     4  11  24  46  75 101 139 193 252 290 350 446
#     4  12  30  44  68 114 156 178 230 318 380 402
#
# _framework density 22.36177
#
# number of rings (size 3 to 8) (size 9 to 14) (size 15 to 20)
#    0.000    0.667    3.333    3.000    9.333    0.000 
#    0.000    0.000    0.000    0.000    0.000    0.000 
#    0.000    0.000    0.000    0.000    0.000    0.000 
#
# Total GULP energy -148786.478914 kJ/mol
# GULP energy per Si atom -12398.873243 kJ/mol
# Density = 2.231087 g / cm^3
# Si number density = 22.361770 Si / 1000 Ang^3
#
#
#
# Elastic Constant Matrix: (Units=GPa)
#
#
# Indices 1 2 3 4 5 6 
#
# 1 98.6005 52.0744 24.8932 0.0033 -10.0421 -0.0016
# 2 52.0744 128.3813 34.3602 0.0042 -7.9010 -0.0023
# 3 24.8932 34.3602 91.3905 0.0067 -5.3166 -0.0029
# 4 0.0033 0.0042 0.0067 33.0976 -0.0023 7.5497
# 5 -10.0421 -7.9010 -5.3166 -0.0023 33.1358 0.0009
# 6 -0.0016 -0.0023 -0.0029 7.5497 0.0009 46.7151
#
#
#
# Elastic Compliance Matrix: (Units=1/GPa)
#
#
# Indices 1 2 3 4 5 6 
#
# 1 0.013377 -0.004814 -0.001680 0.000000 0.002637 0.000000
# 2 -0.004814 0.010474 -0.002590 0.000000 0.000623 0.000000
# 3 -0.001680 -0.002590 0.012424 -0.000002 0.000867 0.000001
# 4 0.000000 0.000000 -0.000002 0.031370 0.000002 -0.005070
# 5 0.002637 0.000623 0.000867 0.000002 0.031265 -0.000001
# 6 0.000000 0.000000 0.000001 -0.005070 -0.000001 0.022226
#
#
# Mechanical properties :
#
#
# Convention : Reuss Voigt Hill
#
# Bulk Modulus (GPa) = 55.23226 60.11422 57.67324
# Shear Modulus (GPa) = 34.40194 36.39267 35.39731
#
# Velocity S-wave (km/s) = 3.92653 4.03854 3.98293
# Velocity P-wave (km/s) = 6.73126 6.97764 6.85556
#
# Compressibility (1/GPa) = 0.01810536
#
# Stress axis : x y z
#
# Youngs Moduli (GPa) = 74.75407 95.47821 80.48910
#
# Poissons Ratio (x) = 0.45964 0.13525
# Poissons Ratio (y) = 0.35987 0.20849
# Poissons Ratio (z) = 0.12562 0.24731
#
# Static dielectric constant tensor:
#      x y z
#    x 4.052710 0.000000 -0.095980 
#    y 0.000000 4.344740 0.000000 
#    z -0.095980 0.000000 3.839390 
# 
# 
# High freq. dielectric constant tensor:
#      x y z
#    x 1.881450 0.000000 -0.002440 
#    y 0.000000 1.902390 0.000000 
#    z -0.002440 0.000000 1.878630 
# 
# From -- ./inp_files/62828.got.cif
#   From: 2010.03.12/outbox.cif.g09.slc.cpg/sg5_32_cif.got.tgz:62828.got - 2010.03.31 09:47:26.
