data_PCOD8051275
_publ_section_title
;
Structure prediction by ZEFSAII (Michael W. Deem and Ramdas Pophale) SiO2 
 PCOD8051275
Probable space group: C 2
;
_chemical_formula_sum "Si O2"
_cell_formula_units_Z 22
_cell_length_a 14.612156
_cell_length_b 7.968412
_cell_length_c 25.943019
_cell_angle_alpha 90.000000
_cell_angle_beta 160.649969
_cell_angle_gamma 90.000000
_cell_volume 1000.871595
_symmetry_space_group_name_H-M "C 2"
_symmetry_group_IT_number 5
_symmetry_cell_setting 'monoclinic'
loop_
_space_group_symop_operation_xyz
x,y,z
-x,y,-z
1/2+x,1/2+y,z
1/2-x,1/2+y,-z
loop_
_atom_site_type_symbol
_atom_site_label
_atom_site_fract_x
_atom_site_fract_y
_atom_site_fract_z
Si Si1 0.137260 0.616660 0.737185
Si Si2 0.159010 0.482620 0.635843
Si Si3 0.000000 0.883439 0.000000
Si Si4 0.464678 0.608648 0.538115
Si Si5 0.384884 0.918990 0.825404
Si Si6 0.194753 0.176161 0.914640
O O1 0.069019 0.575398 0.640874
O O2 0.357126 0.489306 0.878633
O O3 0.284395 0.798779 0.818424
O O4 0.857303 0.625851 0.620413
O O5 0.475900 0.526454 0.791752
O O6 0.000000 0.545344 0.500000
O O7 0.121819 0.285793 0.625173
O O8 0.756045 0.769576 0.893685
O O9 0.500000 0.535509 0.500000
O O10 0.603625 0.470518 0.647598
O O11 0.597445 0.816948 0.902891
O O12 0.521559 0.090243 0.916935
#
# Coordination Sequence:
#
# PCOD8051275 Si02
#       6
#     4   4   2   4   4   4
#     4  11  25  43  66  95 131 172 217 268 320 382
#     4  10  24  43  65  95 131 172 218 265 319 382
#     4  12  26  42  66  96 130 170 216 270 324 384
#     4  11  23  40  66  97 132 171 214 266 322 385
#     4  11  23  42  66  91 130 173 214 265 318 383
#     4  11  24  41  65  94 128 170 215 264 321 384
#
# _framework density 21.980843
#
# number of rings (size 3 to 8) (size 9 to 14) (size 15 to 20)
#    0.000    1.091    0.000    6.545    0.000   15.273 
#    0.000    0.000    0.000    0.000    0.000    0.000 
#    0.000    0.000    0.000    0.000    0.000    0.000 
#
# Total GULP energy -136407.872693 kJ/mol
# GULP energy per Si atom -12400.715699 kJ/mol
# Density = 2.193081 g / cm^3
# Si number density = 21.980843 Si / 1000 Ang^3
#
#
#
# Elastic Constant Matrix: (Units=GPa)
#
#
# Indices 1 2 3 4 5 6 
#
# 1 126.7123 29.9044 52.3764 0.0077 17.1366 -0.0018
# 2 29.9044 87.4827 35.5971 0.0059 10.8985 0.0005
# 3 52.3764 35.5971 97.7190 0.0353 11.1172 -0.0164
# 4 0.0077 0.0059 0.0353 31.4603 -0.0096 9.6607
# 5 17.1366 10.8985 11.1172 -0.0096 42.1913 -0.0029
# 6 -0.0018 0.0005 -0.0164 9.6607 -0.0029 38.6102
#
#
#
# Elastic Compliance Matrix: (Units=1/GPa)
#
#
# Indices 1 2 3 4 5 6 
#
# 1 0.010583 -0.001292 -0.004898 0.000003 -0.002674 -0.000003
# 2 -0.001292 0.013787 -0.004108 0.000003 -0.001954 -0.000003
# 3 -0.004898 -0.004108 0.014441 -0.000018 -0.000755 0.000010
# 4 0.000003 0.000003 -0.000018 0.034432 0.000010 -0.008615
# 5 -0.002674 -0.001954 -0.000755 0.000010 0.025492 -0.000001
# 6 -0.000003 -0.000003 0.000010 -0.008615 -0.000001 0.028056
#
#
# Mechanical properties :
#
#
# Convention : Reuss Voigt Hill
#
# Bulk Modulus (GPa) = 54.89387 60.85220 57.87304
# Shear Modulus (GPa) = 32.58272 35.38810 33.98541
#
# Velocity S-wave (km/s) = 3.85427 4.01677 3.93636
# Velocity P-wave (km/s) = 6.69589 7.01833 6.85900
#
# Compressibility (1/GPa) = 0.01821697
#
# Stress axis : x y z
#
# Youngs Moduli (GPa) = 94.49336 72.53052 69.24863
#
# Poissons Ratio (x) = 0.09368 0.33915
# Poissons Ratio (y) = 0.12204 0.28446
# Poissons Ratio (z) = 0.46278 0.29794
#
# Static dielectric constant tensor:
#      x y z
#    x 4.031020 0.000000 -0.002040 
#    y 0.000000 4.019210 -0.000010 
#    z -0.002040 -0.000010 3.951150 
# 
# 
# High freq. dielectric constant tensor:
#      x y z
#    x 1.868130 0.000000 0.006490 
#    y 0.000000 1.877690 0.000000 
#    z 0.006490 0.000000 1.866700 
# 
# From -- ./inp_files/56670.got.cif
#   From: 2010.03.12/outbox.cif.g09.slc.cpg/sg5_29_cif.got.tgz:56670.got - 2010.03.31 09:47:26.
