data_PCOD8051755
_publ_section_title
;
Structure prediction by ZEFSAII (Michael W. Deem and Ramdas Pophale) SiO2 
 PCOD8051755
Probable space group: C 2
;
_chemical_formula_sum "Si O2"
_cell_formula_units_Z 28
_cell_length_a 14.633102
_cell_length_b 10.385196
_cell_length_c 9.567966
_cell_angle_alpha 90.000000
_cell_angle_beta 58.050290
_cell_angle_gamma 90.000000
_cell_volume 1233.755684
_symmetry_space_group_name_H-M "C 2"
_symmetry_group_IT_number 5
_symmetry_cell_setting 'monoclinic'
loop_
_space_group_symop_operation_xyz
x,y,z
-x,y,-z
1/2+x,1/2+y,z
1/2-x,1/2+y,-z
loop_
_atom_site_type_symbol
_atom_site_label
_atom_site_fract_x
_atom_site_fract_y
_atom_site_fract_z
Si Si1 0.799941 0.027030 0.923971
Si Si2 0.595221 0.244385 0.645915
Si Si3 0.686755 0.630435 0.602970
Si Si4 0.878426 0.929223 0.129057
Si Si5 0.945199 0.539094 0.893628
Si Si6 0.973553 0.244800 0.858748
Si Si7 0.109609 0.969385 0.433213
O O1 0.878399 0.148577 0.888227
O O2 0.829853 0.944576 0.761463
O O3 0.814555 0.919280 0.034286
O O4 0.679424 0.083182 0.006268
O O5 0.705397 0.210512 0.478801
O O6 0.618762 0.298235 0.783489
O O7 0.555591 0.352060 0.568652
O O8 0.510750 0.127242 0.728910
O O9 0.683808 0.540407 0.739652
O O10 0.581866 0.720103 0.683007
O O11 0.695292 0.545263 0.456498
O O12 0.000000 0.974532 0.000000
O O13 0.942533 0.391027 0.847659
O O14 0.000000 0.556066 0.000000
O O15 0.000000 0.228424 0.000000
O O16 0.000000 0.053086 0.500000
#
# Coordination Sequence:
#
# PCOD8051755 Si02
#       7
#     4   4   4   4   4   4   4
#     4  12  23  46  74 110 134 191 249 291 354 430
#     4  11  27  44  70 103 151 186 232 296 362 418
#     4  11  22  44  71 101 142 182 237 291 359 411
#     4  11  22  45  75 103 134 191 242 288 350 433
#     4  11  28  45  69 108 152 188 235 295 362 422
#     4  11  23  45  76 104 141 190 243 296 350 433
#     4  11  24  42  71 105 135 183 239 298 350 418
#
# _framework density 22.694928999999998
#
# number of rings (size 3 to 8) (size 9 to 14) (size 15 to 20)
#    0.000    0.857    4.286    2.143    8.000    5.714 
#    0.000    0.000    3.143    0.000    0.000    0.000 
#    0.000    0.000    0.000    0.000    0.000    0.000 
#
# Total GULP energy -173505.434162 kJ/mol
# GULP energy per Si atom -12393.245297 kJ/mol
# Density = 2.264327 g / cm^3
# Si number density = 22.694929 Si / 1000 Ang^3
#
#
#
# Elastic Constant Matrix: (Units=GPa)
#
#
# Indices 1 2 3 4 5 6 
#
# 1 116.3003 18.1570 59.9490 0.0000 -17.7942 0.0000
# 2 18.1570 102.5692 47.6104 0.0000 -5.1787 0.0000
# 3 59.9490 47.6104 151.7814 0.0000 -0.1749 0.0000
# 4 0.0000 0.0000 0.0000 30.7474 0.0000 -5.3987
# 5 -17.7942 -5.1787 -0.1749 0.0000 50.8493 0.0000
# 6 0.0000 0.0000 0.0000 -5.3987 0.0000 19.0691
#
#
#
# Elastic Compliance Matrix: (Units=1/GPa)
#
#
# Indices 1 2 3 4 5 6 
#
# 1 0.011577 0.000323 -0.004669 0.000000 0.004068 0.000000
# 2 0.000323 0.011488 -0.003730 0.000000 0.001270 0.000000
# 3 -0.004669 -0.003730 0.009600 0.000000 -0.001981 0.000000
# 4 0.000000 0.000000 0.000000 0.034224 0.000000 0.009689
# 5 0.004068 0.001270 -0.001981 0.000000 0.021212 0.000000
# 6 0.000000 0.000000 0.000000 0.009689 0.000000 0.055184
#
#
# Mechanical properties :
#
#
# Convention : Reuss Voigt Hill
#
# Bulk Modulus (GPa) = 60.55511 69.12041 64.83776
# Shear Modulus (GPa) = 30.31367 36.46211 33.38789
#
# Velocity S-wave (km/s) = 3.65869 4.01261 3.83973
# Velocity P-wave (km/s) = 6.67744 7.21045 6.94905
#
# Compressibility (1/GPa) = 0.01651388
#
# Stress axis : x y z
#
# Youngs Moduli (GPa) = 86.37569 87.04999 104.16281
#
# Poissons Ratio (x) = -0.02815 0.48638
# Poissons Ratio (y) = -0.02794 0.38850
# Poissons Ratio (z) = 0.40333 0.32467
#
# Static dielectric constant tensor:
#      x y z
#    x 4.020440 0.000000 0.085250 
#    y 0.000000 3.988790 0.000000 
#    z 0.085250 0.000000 4.258630 
# 
# 
# High freq. dielectric constant tensor:
#      x y z
#    x 1.898460 0.000000 -0.000540 
#    y 0.000000 1.883470 0.000000 
#    z -0.000540 0.000000 1.905620 
# 
# From -- ./inp_files/23527.got.cif
#   From: 2010.03.12/outbox.cif.g09.slc.cpg/sg5_12_cif.got.tgz:23527.got - 2010.03.31 09:47:26.
