data_PCOD8051335
_publ_section_title
;
Structure prediction by ZEFSAII (Michael W. Deem and Ramdas Pophale) SiO2 
 PCOD8051335
Probable space group: C 2
;
_chemical_formula_sum "Si O2"
_cell_formula_units_Z 22
_cell_length_a 10.648821
_cell_length_b 9.816858
_cell_length_c 9.135361
_cell_angle_alpha 90.000000
_cell_angle_beta 78.046671
_cell_angle_gamma 90.000000
_cell_volume 934.284593
_symmetry_space_group_name_H-M "C 2"
_symmetry_group_IT_number 5
_symmetry_cell_setting 'monoclinic'
loop_
_space_group_symop_operation_xyz
x,y,z
-x,y,-z
1/2+x,1/2+y,z
1/2-x,1/2+y,-z
loop_
_atom_site_type_symbol
_atom_site_label
_atom_site_fract_x
_atom_site_fract_y
_atom_site_fract_z
Si Si1 0.172801 0.597120 0.486572
Si Si2 0.345226 0.942575 0.233468
Si Si3 0.599904 0.276187 0.260229
Si Si4 0.237618 0.688211 0.939744
Si Si5 0.812110 0.846546 0.326399
Si Si6 0.500000 0.750561 0.000000
O O1 0.100377 0.510538 0.631161
O O2 0.079609 0.651081 0.379864
O O3 0.239505 0.727408 0.551236
O O4 0.274761 0.498354 0.383231
O O5 0.318852 0.052668 0.114905
O O6 0.209306 0.872196 0.302556
O O7 0.451151 0.839723 0.148371
O O8 0.466046 0.353019 0.283828
O O9 0.639758 0.225436 0.091614
O O10 0.242226 0.812250 0.822186
O O11 0.381015 0.661011 0.969038
#
# Coordination Sequence:
#
# PCOD8051335 Si02
#       6
#     4   4   4   4   4   2
#     4  11  24  43  70 103 140 185 231 284 358 405
#     4  10  24  45  68 104 137 181 234 285 348 413
#     4  11  24  44  72 104 140 185 235 291 342 423
#     4  10  25  44  69 101 135 185 232 282 356 406
#     4  11  25  45  72 105 141 185 236 288 353 420
#     4  10  24  46  68  98 138 174 230 294 332 422
#
# _framework density 23.547431
#
# number of rings (size 3 to 8) (size 9 to 14) (size 15 to 20)
#    0.000    1.455    1.818    1.091   10.182    4.364 
#    0.000    3.636    0.000    0.000    0.000    0.000 
#    0.000    0.000    0.000    0.000    0.000    0.000 
#
# Total GULP energy -136362.090062 kJ/mol
# GULP energy per Si atom -12396.553642 kJ/mol
# Density = 2.349384 g / cm^3
# Si number density = 23.547431 Si / 1000 Ang^3
#
#
#
# Elastic Constant Matrix: (Units=GPa)
#
#
# Indices 1 2 3 4 5 6 
#
# 1 86.1132 0.6332 23.3441 0.0000 -8.9761 0.0000
# 2 0.6332 50.9479 24.7091 0.0000 -5.5083 0.0000
# 3 23.3441 24.7091 136.5983 0.0000 15.3222 0.0000
# 4 0.0000 0.0000 0.0000 38.0642 0.0000 -2.6731
# 5 -8.9761 -5.5083 15.3222 0.0000 31.6103 0.0000
# 6 0.0000 0.0000 0.0000 -2.6731 0.0000 17.3701
#
#
#
# Elastic Compliance Matrix: (Units=1/GPa)
#
#
# Indices 1 2 3 4 5 6 
#
# 1 0.013058 0.002010 -0.003226 0.000000 0.005622 0.000000
# 2 0.002010 0.022942 -0.005294 0.000000 0.007134 0.000000
# 3 -0.003226 -0.005294 0.009555 0.000000 -0.006470 0.000000
# 4 0.000000 0.000000 0.000000 0.026558 0.000000 0.004087
# 5 0.005622 0.007134 -0.006470 0.000000 0.037611 0.000000
# 6 0.000000 0.000000 0.000000 0.004087 0.000000 0.058199
#
#
# Mechanical properties :
#
#
# Convention : Reuss Voigt Hill
#
# Bulk Modulus (GPa) = 30.73487 41.22580 35.98034
# Shear Modulus (GPa) = 26.07043 32.40713 29.23878
#
# Velocity S-wave (km/s) = 3.33099 3.71381 3.52760
# Velocity P-wave (km/s) = 5.27964 5.99461 5.64845
#
# Compressibility (1/GPa) = 0.03253633
#
# Stress axis : x y z
#
# Youngs Moduli (GPa) = 76.57951 43.58894 104.65366
#
# Poissons Ratio (x) = -0.08761 0.33759
# Poissons Ratio (y) = -0.15392 0.55400
# Poissons Ratio (z) = 0.24703 0.23074
#
# Static dielectric constant tensor:
#      x y z
#    x 3.989340 0.000000 0.125820 
#    y 0.000000 4.353600 0.000000 
#    z 0.125820 0.000000 4.582720 
# 
# 
# High freq. dielectric constant tensor:
#      x y z
#    x 1.922470 0.000000 0.005910 
#    y 0.000000 1.924370 0.000000 
#    z 0.005910 0.000000 1.962150 
# 
# From -- ./inp_files/19022.got.cif
#   From: 2010.03.12/outbox.cif.g09.slc.cpg/sg5_10_cif.got.tgz:19022.got - 2010.03.31 09:47:26.
