data_PCOD8051711
_publ_section_title
;
Structure prediction by ZEFSAII (Michael W. Deem and Ramdas Pophale) SiO2 
 PCOD8051711
Probable space group: C 2
;
_chemical_formula_sum "Si O2"
_cell_formula_units_Z 24
_cell_length_a 20.969787
_cell_length_b 13.601950
_cell_length_c 12.348447
_cell_angle_alpha 90.000000
_cell_angle_beta 162.225946
_cell_angle_gamma 90.000000
_cell_volume 1075.185206
_symmetry_space_group_name_H-M "C 2"
_symmetry_group_IT_number 5
_symmetry_cell_setting 'monoclinic'
loop_
_space_group_symop_operation_xyz
x,y,z
-x,y,-z
1/2+x,1/2+y,z
1/2-x,1/2+y,-z
loop_
_atom_site_type_symbol
_atom_site_label
_atom_site_fract_x
_atom_site_fract_y
_atom_site_fract_z
Si Si1 0.222802 0.205550 0.406581
Si Si2 0.507625 0.016927 0.887314
Si Si3 0.945479 0.823034 0.167474
Si Si4 0.344512 0.721900 0.151518
Si Si5 0.978030 0.015265 0.585383
Si Si6 0.123528 0.325276 0.451024
O O1 0.369949 0.111898 0.644513
O O2 0.322435 0.289857 0.491256
O O3 0.202012 0.244095 0.494171
O O4 0.000000 0.174719 0.000000
O O5 0.409931 0.930227 0.657783
O O6 0.500000 0.983653 0.000000
O O7 0.740000 0.046195 0.225209
O O8 0.879791 0.750389 0.160637
O O9 0.798944 0.824859 0.826232
O O10 0.947774 0.934695 0.210282
O O11 0.500000 0.746253 0.500000
O O12 0.366378 0.608516 0.150820
O O13 0.401152 0.791755 0.141764
O O14 0.000000 0.973045 0.500000
#
# Coordination Sequence:
#
# PCOD8051711 Si02
#       6
#     4   4   4   4   4   4
#     4  12  26  43  64  94 129 171 218 266 321 382
#     4  12  25  43  66  94 129 172 216 265 320 380
#     4  11  23  42  68  97 131 170 212 265 322 380
#     4   9  20  39  65  93 126 166 208 257 317 376
#     4  11  22  41  67  96 130 172 214 262 319 381
#     4  11  23  42  66  96 130 167 212 265 321 383
#
# _framework density 22.321736000000001
#
# number of rings (size 3 to 8) (size 9 to 14) (size 15 to 20)
#    0.000    1.000    0.000    9.000    0.000    4.000 
#    0.000    0.000    0.000   10.000    0.000    0.000 
#    0.000    0.000    0.000    0.000    0.000    0.000 
#
# Total GULP energy -148830.844301 kJ/mol
# GULP energy per Si atom -12402.570358 kJ/mol
# Density = 2.227093 g / cm^3
# Si number density = 22.321736 Si / 1000 Ang^3
#
#
#
# Elastic Constant Matrix: (Units=GPa)
#
#
# Indices 1 2 3 4 5 6 
#
# 1 165.3854 67.7299 53.3464 0.0000 11.6141 0.0000
# 2 67.7299 141.3590 49.9216 0.0000 -12.2237 0.0000
# 3 53.3464 49.9216 95.6097 0.0000 14.0658 0.0000
# 4 0.0000 0.0000 0.0000 29.6265 0.0000 0.5810
# 5 11.6141 -12.2237 14.0658 0.0000 28.2733 0.0000
# 6 0.0000 0.0000 0.0000 0.5810 0.0000 49.3162
#
#
#
# Elastic Compliance Matrix: (Units=1/GPa)
#
#
# Indices 1 2 3 4 5 6 
#
# 1 0.008549 -0.003625 -0.002298 0.000000 -0.003935 0.000000
# 2 -0.003625 0.011469 -0.005303 0.000000 0.009086 0.000000
# 3 -0.002298 -0.005303 0.015870 0.000000 -0.009244 0.000000
# 4 0.000000 0.000000 0.000000 0.033761 0.000000 -0.000398
# 5 -0.003935 0.009086 -0.009244 0.000000 0.045512 0.000000
# 6 0.000000 0.000000 0.000000 -0.000398 0.000000 0.020282
#
#
# Mechanical properties :
#
#
# Convention : Reuss Voigt Hill
#
# Bulk Modulus (GPa) = 74.42290 82.70554 78.56422
# Shear Modulus (GPa) = 30.79310 36.86693 33.83001
#
# Velocity S-wave (km/s) = 3.71821 4.06842 3.89725
# Velocity P-wave (km/s) = 7.20047 7.69424 7.45145
#
# Compressibility (1/GPa) = 0.01343672
#
# Stress axis : x y z
#
# Youngs Moduli (GPa) = 116.97955 87.19001 63.01081
#
# Poissons Ratio (x) = 0.31602 0.14482
# Poissons Ratio (y) = 0.42399 0.33414
# Poissons Ratio (z) = 0.26885 0.46235
#
# Static dielectric constant tensor:
#      x y z
#    x 4.634800 0.000000 0.289550 
#    y 0.000000 3.953470 0.000000 
#    z 0.289550 0.000000 3.839990 
# 
# 
# High freq. dielectric constant tensor:
#      x y z
#    x 1.910430 0.000000 0.010430 
#    y 0.000000 1.887280 0.000000 
#    z 0.010430 0.000000 1.861030 
# 
# From -- ./inp_files/46580.got.cif
#   From: 2010.03.12/outbox.cif.g09.slc.cpg/sg5_24_cif.got.tgz:46580.got - 2010.03.31 09:47:26.
