data_PCOD8051817
_publ_section_title
;
Structure prediction by ZEFSAII (Michael W. Deem and Ramdas Pophale) SiO2 
 PCOD8051817
Probable space group: C 2
;
_chemical_formula_sum "Si O2"
_cell_formula_units_Z 20
_cell_length_a 22.245675
_cell_length_b 4.842607
_cell_length_c 16.341178
_cell_angle_alpha 90.000000
_cell_angle_beta 149.139971
_cell_angle_gamma 90.000000
_cell_volume 902.977387
_symmetry_space_group_name_H-M "C 2"
_symmetry_group_IT_number 5
_symmetry_cell_setting 'monoclinic'
loop_
_space_group_symop_operation_xyz
x,y,z
-x,y,-z
1/2+x,1/2+y,z
1/2-x,1/2+y,-z
loop_
_atom_site_type_symbol
_atom_site_label
_atom_site_fract_x
_atom_site_fract_y
_atom_site_fract_z
Si Si1 0.429326 0.199800 0.336790
Si Si2 0.478787 0.693686 0.289631
Si Si3 0.157393 0.234309 0.030159
Si Si4 0.527334 0.252852 0.940998
Si Si5 0.673634 0.435711 0.411768
O O1 0.500000 0.122513 0.500000
O O2 0.448372 0.515204 0.333587
O O3 0.293243 0.171168 0.197868
O O4 0.475696 0.010339 0.315990
O O5 0.604410 0.596482 0.402559
O O6 0.380878 0.647269 0.105878
O O7 0.116158 0.545528 0.999005
O O8 0.092270 0.045960 0.021058
O O9 0.407100 0.290275 0.750608
O O10 0.500000 0.147001 0.000000
O O11 0.751959 0.681208 0.463066
#
# Coordination Sequence:
#
# PCOD8051817 Si02
#       5
#     4   4   4   4   4
#     4  12  25  41  64  96 125 161 211 268 317 361
#     4  11  23  43  64  89 127 169 209 253 311 385
#     4  11  23  43  65  90 124 172 212 250 312 384
#     4  11  24  42  64  94 128 165 210 259 312 372
#     4  11  23  41  66  95 126 167 213 258 312 374
#
# _framework density 22.148949999999999
#
# number of rings (size 3 to 8) (size 9 to 14) (size 15 to 20)
#    0.000    0.800    0.000    9.600    0.000    4.800 
#    0.000    0.000    0.000    0.000    0.000    0.000 
#    0.000    0.000    0.000    0.000    0.000    0.000 
#
# Total GULP energy -124027.423584 kJ/mol
# GULP energy per Si atom -12402.742358 kJ/mol
# Density = 2.209854 g / cm^3
# Si number density = 22.148950 Si / 1000 Ang^3
#
#
#
# Elastic Constant Matrix: (Units=GPa)
#
#
# Indices 1 2 3 4 5 6 
#
# 1 91.4065 21.5377 59.9476 0.0002 -5.1589 -0.0001
# 2 21.5377 105.2284 38.6596 0.0012 1.9021 0.0007
# 3 59.9476 38.6596 136.1200 0.0001 14.1458 0.0001
# 4 0.0002 0.0012 0.0001 33.3805 -0.0005 10.6648
# 5 -5.1589 1.9021 14.1458 -0.0005 23.8161 -0.0003
# 6 -0.0001 0.0007 0.0001 10.6648 -0.0003 60.0080
#
#
#
# Elastic Compliance Matrix: (Units=1/GPa)
#
#
# Indices 1 2 3 4 5 6 
#
# 1 0.016927 -0.000618 -0.008170 0.000000 0.008569 0.000000
# 2 -0.000618 0.010655 -0.002826 0.000000 0.000694 0.000000
# 3 -0.008170 -0.002826 0.012691 0.000000 -0.009082 0.000000
# 4 0.000000 0.000000 0.000000 0.031761 0.000001 -0.005645
# 5 0.008569 0.000694 -0.009082 0.000001 0.049183 0.000000
# 6 0.000000 0.000000 0.000000 -0.005645 0.000000 0.017668
#
#
# Mechanical properties :
#
#
# Convention : Reuss Voigt Hill
#
# Bulk Modulus (GPa) = 58.66574 63.67165 61.16869
# Shear Modulus (GPa) = 29.79814 37.61491 33.70653
#
# Velocity S-wave (km/s) = 3.67188 4.12548 3.90527
# Velocity P-wave (km/s) = 6.67244 7.17650 6.92905
#
# Compressibility (1/GPa) = 0.01704572
#
# Stress axis : x y z
#
# Youngs Moduli (GPa) = 59.07578 93.84920 78.79640
#
# Poissons Ratio (x) = 0.05800 0.64375
# Poissons Ratio (y) = 0.03651 0.22269
# Poissons Ratio (z) = 0.48264 0.26523
#
# Static dielectric constant tensor:
#      x y z
#    x 3.777150 0.000000 0.206800 
#    y 0.000000 4.126950 0.000000 
#    z 0.206800 0.000000 3.915210 
# 
# 
# High freq. dielectric constant tensor:
#      x y z
#    x 1.866510 0.000000 0.013790 
#    y 0.000000 1.893340 0.000000 
#    z 0.013790 0.000000 1.867020 
# 
# From -- ./inp_files/43651.got.cif
#   From: 2010.03.12/outbox.cif.g09.slc.cpg/sg5_22_cif.got.tgz:43651.got - 2010.03.31 09:47:26.
