data_PCOD8051910
_publ_section_title
;
Structure prediction by ZEFSAII (Michael W. Deem and Ramdas Pophale) SiO2 
 PCOD8051910
Probable space group: C 2
;
_chemical_formula_sum "Si O2"
_cell_formula_units_Z 24
_cell_length_a 9.355478
_cell_length_b 15.257915
_cell_length_c 17.927299
_cell_angle_alpha 90.000000
_cell_angle_beta 26.005947
_cell_angle_gamma 90.000000
_cell_volume 1122.045341
_symmetry_space_group_name_H-M "C 2"
_symmetry_group_IT_number 5
_symmetry_cell_setting 'monoclinic'
loop_
_space_group_symop_operation_xyz
x,y,z
-x,y,-z
1/2+x,1/2+y,z
1/2-x,1/2+y,-z
loop_
_atom_site_type_symbol
_atom_site_label
_atom_site_fract_x
_atom_site_fract_y
_atom_site_fract_z
Si Si1 0.724972 0.104760 0.829797
Si Si2 0.353775 0.451521 0.296311
Si Si3 0.129272 0.765177 0.658008
Si Si4 0.375538 0.089329 0.840548
Si Si5 0.711888 0.928226 0.193404
Si Si6 0.283636 0.758708 0.422719
O O1 0.486706 0.080518 0.873537
O O2 0.984138 0.174692 0.678725
O O3 0.500000 0.146640 0.000000
O O4 0.899714 0.019344 0.781467
O O5 0.490225 0.353704 0.246450
O O6 0.345229 0.461494 0.211147
O O7 0.000000 0.462375 0.500000
O O8 0.500000 0.742597 0.500000
O O9 0.085518 0.776368 0.590861
O O10 0.924426 0.684711 0.784422
O O11 0.529686 0.006468 0.723368
O O12 0.000000 0.067304 0.000000
O O13 0.492266 0.842659 0.303599
O O14 0.000000 0.904093 0.000000
O O15 0.000000 0.734448 0.500000
#
# Coordination Sequence:
#
# PCOD8051910 Si02
#       6
#     4   4   4   4   4   4
#     4  12  26  45  68 101 137 178 223 280 341 402
#     4  11  24  46  71 101 138 176 227 277 338 403
#     4  11  23  47  68  98 135 178 223 280 341 397
#     4  11  26  44  69  97 135 178 226 278 339 400
#     4  11  24  46  69  99 138 179 225 280 335 401
#     4  12  27  43  70 102 137 177 229 279 336 402
#
# _framework density 21.389510000000001
#
# number of rings (size 3 to 8) (size 9 to 14) (size 15 to 20)
#    0.000    0.667    5.000    3.000    9.333    1.333 
#    0.000    0.000    0.000    0.000    0.000    0.000 
#    0.000    0.000    0.000    0.000    0.000    0.000 
#
# Total GULP energy -148769.952564 kJ/mol
# GULP energy per Si atom -12397.496047 kJ/mol
# Density = 2.134083 g / cm^3
# Si number density = 21.389510 Si / 1000 Ang^3
#
#
#
# Elastic Constant Matrix: (Units=GPa)
#
#
# Indices 1 2 3 4 5 6 
#
# 1 187.8570 48.1974 46.3730 -0.8014 14.4211 -0.0101
# 2 48.1974 137.5129 21.1233 0.8058 2.1373 0.1135
# 3 46.3730 21.1233 51.3413 -4.0176 12.6546 0.3502
# 4 -0.8014 0.8058 -4.0176 6.6003 1.6166 2.8791
# 5 14.4211 2.1373 12.6546 1.6166 44.2135 -0.1187
# 6 -0.0101 0.1135 0.3502 2.8791 -0.1187 36.8508
#
#
#
# Elastic Compliance Matrix: (Units=1/GPa)
#
#
# Indices 1 2 3 4 5 6 
#
# 1 0.007229 -0.001597 -0.005955 -0.002548 -0.000483 0.000261
# 2 -0.001597 0.008202 -0.002394 -0.002979 0.000919 0.000233
# 3 -0.005955 -0.002394 0.029132 0.019823 -0.007010 -0.001842
# 4 -0.002548 -0.002979 0.019823 0.172299 -0.011035 -0.013677
# 5 -0.000483 0.000919 -0.007010 -0.011035 0.025143 0.001007
# 6 0.000261 0.000233 -0.001842 -0.013677 0.001007 0.028225
#
#
# Mechanical properties :
#
#
# Convention : Reuss Voigt Hill
#
# Bulk Modulus (GPa) = 40.52940 67.56653 54.04796
# Shear Modulus (GPa) = 16.75912 34.93407 25.84660
#
# Velocity S-wave (km/s) = 2.80218 4.04571 3.47994
# Velocity P-wave (km/s) = 5.42762 7.31307 6.43972
#
# Compressibility (1/GPa) = 0.02467345
#
# Stress axis : x y z
#
# Youngs Moduli (GPa) = 138.33175 121.91583 34.32620
#
# Poissons Ratio (x) = 0.19468 0.20440
# Poissons Ratio (y) = 0.22089 0.08216
# Poissons Ratio (z) = 0.82372 0.29182
#
# Static dielectric constant tensor:
#      x y z
#    x 4.208100 0.000070 0.220750 
#    y 0.000070 4.089310 0.002600 
#    z 0.220750 0.002600 3.865640 
# 
# 
# High freq. dielectric constant tensor:
#      x y z
#    x 1.858030 0.000000 0.010910 
#    y 0.000000 1.862040 0.000060 
#    z 0.010910 0.000060 1.827300 
# 
# From -- ./inp_files/27664.got.cif
#   From: 2010.03.12/outbox.cif.g09.slc.cpg/sg5_14_cif.got.tgz:27664.got - 2010.03.31 09:47:26.
