data_PCOD8051647
_publ_section_title
;
Structure prediction by ZEFSAII (Michael W. Deem and Ramdas Pophale) SiO2 
 PCOD8051647
Probable space group: C 2
;
_chemical_formula_sum "Si O2"
_cell_formula_units_Z 28
_cell_length_a 11.008107
_cell_length_b 8.690798
_cell_length_c 14.307297
_cell_angle_alpha 90.000000
_cell_angle_beta 114.671188
_cell_angle_gamma 90.000000
_cell_volume 1243.824519
_symmetry_space_group_name_H-M "C 2"
_symmetry_group_IT_number 5
_symmetry_cell_setting 'monoclinic'
loop_
_space_group_symop_operation_xyz
x,y,z
-x,y,-z
1/2+x,1/2+y,z
1/2-x,1/2+y,-z
loop_
_atom_site_type_symbol
_atom_site_label
_atom_site_fract_x
_atom_site_fract_y
_atom_site_fract_z
Si Si1 0.499496 0.125000 0.755197
Si Si2 0.342870 0.344876 0.944500
Si Si3 0.218106 0.864409 0.281153
Si Si4 0.861399 0.174695 0.461419
Si Si5 0.367180 0.141335 0.395771
Si Si6 0.815099 0.406983 0.598347
Si Si7 0.875204 0.518023 0.015969
O O1 0.423535 0.288107 0.739230
O O2 0.596801 0.148480 0.700788
O O3 0.577436 0.100756 0.875181
O O4 0.413834 0.967248 0.710904
O O5 0.276295 0.405948 0.826899
O O6 0.251519 0.408230 0.001656
O O7 0.500000 0.396016 0.000000
O O8 0.328633 0.159858 0.935648
O O9 0.325680 0.733684 0.345765
O O10 0.250214 0.010494 0.358520
O O11 0.889179 0.317970 0.539701
O O12 0.000000 0.081529 0.500000
O O13 0.746155 0.064944 0.466160
O O14 0.500000 0.103342 0.500000
O O15 0.305551 0.306025 0.400664
O O16 0.000000 0.434600 0.000000
#
# Coordination Sequence:
#
# PCOD8051647 Si02
#       7
#     4   4   4   4   4   4   4
#     4  11  23  44  68  96 139 183 226 288 344 412
#     4  11  24  47  70 101 140 183 234 296 356 413
#     4  11  21  42  68  94 134 183 225 279 349 404
#     4  11  23  40  65  96 137 176 224 275 332 417
#     4  12  24  41  68 102 140 178 229 281 345 418
#     4  11  25  41  64 101 135 178 227 275 344 408
#     4  11  24  47  73 100 142 181 237 296 352 413
#
# _framework density 22.511212
#
# number of rings (size 3 to 8) (size 9 to 14) (size 15 to 20)
#    0.000    0.857    4.286    5.143    0.000    2.857 
#    2.571    1.429    0.000    0.000    0.000    0.000 
#    0.000    0.000    0.000    0.000    0.000    0.000 
#
# Total GULP energy -173454.988254 kJ/mol
# GULP energy per Si atom -12389.642018 kJ/mol
# Density = 2.245998 g / cm^3
# Si number density = 22.511212 Si / 1000 Ang^3
#
#
#
# Elastic Constant Matrix: (Units=GPa)
#
#
# Indices 1 2 3 4 5 6 
#
# 1 119.8164 21.9741 15.3801 0.0000 1.6036 0.0000
# 2 21.9741 77.4019 8.7791 0.0000 6.3748 0.0000
# 3 15.3801 8.7791 83.5332 0.0000 -7.9672 0.0000
# 4 0.0000 0.0000 0.0000 18.4847 0.0000 -11.8109
# 5 1.6036 6.3748 -7.9672 0.0000 30.5077 0.0000
# 6 0.0000 0.0000 0.0000 -11.8109 0.0000 34.2332
#
#
#
# Elastic Compliance Matrix: (Units=1/GPa)
#
#
# Indices 1 2 3 4 5 6 
#
# 1 0.008967 -0.002353 -0.001438 0.000000 -0.000355 0.000000
# 2 -0.002353 0.013999 -0.001338 0.000000 -0.003151 0.000000
# 3 -0.001438 -0.001338 0.012728 0.000000 0.003679 0.000000
# 4 0.000000 0.000000 0.000000 0.069397 0.000000 0.023943
# 5 -0.000355 -0.003151 0.003679 0.000000 0.034417 0.000000
# 6 0.000000 0.000000 0.000000 0.023943 0.000000 0.037472
#
#
# Mechanical properties :
#
#
# Convention : Reuss Voigt Hill
#
# Bulk Modulus (GPa) = 39.31631 41.44644 40.38138
# Shear Modulus (GPa) = 25.54715 32.28633 28.91674
#
# Velocity S-wave (km/s) = 3.37243 3.79124 3.58795
# Velocity P-wave (km/s) = 5.71555 6.13319 5.92805
#
# Compressibility (1/GPa) = 0.02543473
#
# Stress axis : x y z
#
# Youngs Moduli (GPa) = 111.52016 71.43349 78.56978
#
# Poissons Ratio (x) = 0.16811 0.11295
# Poissons Ratio (y) = 0.26245 0.10516
# Poissons Ratio (z) = 0.16031 0.09561
#
# Static dielectric constant tensor:
#      x y z
#    x 4.142470 0.000000 -0.009990 
#    y 0.000000 4.056850 0.000000 
#    z -0.009990 0.000000 4.059760 
# 
# 
# High freq. dielectric constant tensor:
#      x y z
#    x 1.892490 0.000000 -0.002710 
#    y 0.000000 1.875700 0.000000 
#    z -0.002710 0.000000 1.891940 
# 
# From -- ./inp_files/52226.got.cif
#   From: 2010.03.12/outbox.cif.g09.slc.cpg/sg5_27_cif.got.tgz:52226.got - 2010.03.31 09:47:26.
