data_PCOD8051118
_publ_section_title
;
Structure prediction by ZEFSAII (Michael W. Deem and Ramdas Pophale) SiO2 
 PCOD8051118
Probable space group: C 2
;
_chemical_formula_sum "Si O2"
_cell_formula_units_Z 32
_cell_length_a 17.792979
_cell_length_b 5.056438
_cell_length_c 16.109513
_cell_angle_alpha 90.000000
_cell_angle_beta 112.513130
_cell_angle_gamma 90.000000
_cell_volume 1338.905337
_symmetry_space_group_name_H-M "C 2"
_symmetry_group_IT_number 5
_symmetry_cell_setting 'monoclinic'
loop_
_space_group_symop_operation_xyz
x,y,z
-x,y,-z
1/2+x,1/2+y,z
1/2-x,1/2+y,-z
loop_
_atom_site_type_symbol
_atom_site_label
_atom_site_fract_x
_atom_site_fract_y
_atom_site_fract_z
Si Si1 0.418044 0.517830 0.833249
Si Si2 0.922743 0.850748 0.416303
Si Si3 0.741725 0.445148 0.552535
Si Si4 0.817330 0.988124 0.945821
Si Si5 0.950079 0.654169 0.049087
Si Si6 0.054256 0.363523 0.677886
Si Si7 0.860563 0.327392 0.123568
Si Si8 0.097009 0.502853 0.282997
O O1 0.349331 0.597536 0.871734
O O2 0.500378 0.426080 0.914561
O O3 0.394477 0.290733 0.756308
O O4 0.436384 0.791811 0.796962
O O5 0.898907 0.615022 0.342332
O O6 0.000000 0.740543 0.500000
O O7 0.844798 0.907196 0.440097
O O8 0.954900 0.121920 0.388940
O O9 0.753547 0.236233 0.484081
O O10 0.813771 0.415442 0.649590
O O11 0.721213 0.994478 0.899196
O O12 0.846873 0.121436 0.044112
O O13 0.859411 0.699249 0.971924
O O14 0.937044 0.511961 0.130721
O O15 0.000000 0.486898 0.000000
O O16 0.109557 0.227522 0.774397
O O17 0.966739 0.484932 0.667900
#
# Coordination Sequence:
#
# PCOD8051118 Si02
#       8
#     4   4   4   4   4   4   4   4
#     4  11  26  44  70 101 141 193 244 301 342 422
#     4  12  27  50  77 110 145 184 232 291 375 440
#     4  12  26  48  78 107 144 184 232 290 364 443
#     4  11  26  41  68  97 145 193 247 297 356 410
#     4  10  23  44  64  96 131 192 243 290 347 410
#     4  12  27  45  76 107 148 186 237 300 357 436
#     4  12  25  42  69 101 145 190 247 294 362 406
#     4  12  25  46  72 105 143 183 242 293 360 415
#
# _framework density 23.900123000000001
#
# number of rings (size 3 to 8) (size 9 to 14) (size 15 to 20)
#    0.000    0.500    2.500    4.875    8.750    0.500 
#    0.000    0.000    0.000    0.000    0.000    0.000 
#    0.000    0.000    0.000    0.000    0.000    0.000 
#
# Total GULP energy -198295.897199 kJ/mol
# GULP energy per Si atom -12393.493575 kJ/mol
# Density = 2.384573 g / cm^3
# Si number density = 23.900123 Si / 1000 Ang^3
#
#
#
# Elastic Constant Matrix: (Units=GPa)
#
#
# Indices 1 2 3 4 5 6 
#
# 1 162.9347 28.4035 55.3123 0.0000 -4.6841 0.0000
# 2 28.4035 76.6056 13.9668 -0.0001 -13.8050 -0.0001
# 3 55.3123 13.9668 92.4847 0.0000 -4.8828 0.0000
# 4 0.0000 -0.0001 0.0000 50.0895 0.0000 -6.8174
# 5 -4.6841 -13.8050 -4.8828 0.0000 38.6447 0.0000
# 6 0.0000 -0.0001 0.0000 -6.8174 0.0000 30.2263
#
#
#
# Elastic Compliance Matrix: (Units=1/GPa)
#
#
# Indices 1 2 3 4 5 6 
#
# 1 0.008040 -0.002233 -0.004492 0.000000 -0.000391 0.000000
# 2 -0.002233 0.014896 -0.000652 0.000000 0.004968 0.000000
# 3 -0.004492 -0.000652 0.013648 0.000000 0.000947 0.000000
# 4 0.000000 0.000000 0.000000 0.020597 0.000000 0.004645
# 5 -0.000391 0.004968 0.000947 0.000000 0.027724 0.000000
# 6 0.000000 0.000000 0.000000 0.004645 0.000000 0.034131
#
#
# Mechanical properties :
#
#
# Convention : Reuss Voigt Hill
#
# Bulk Modulus (GPa) = 45.80754 58.59889 52.20321
# Shear Modulus (GPa) = 35.44438 39.41494 37.42966
#
# Velocity S-wave (km/s) = 3.85518 4.06538 3.96167
# Velocity P-wave (km/s) = 6.24695 6.82700 6.54340
#
# Compressibility (1/GPa) = 0.02183047
#
# Stress axis : x y z
#
# Youngs Moduli (GPa) = 124.37250 67.13281 73.27248
#
# Poissons Ratio (x) = 0.14988 0.32915
# Poissons Ratio (y) = 0.27767 0.04777
# Poissons Ratio (z) = 0.55870 0.04377
#
# Static dielectric constant tensor:
#      x y z
#    x 4.688810 0.000000 -0.071060 
#    y 0.000000 4.092580 0.000000 
#    z -0.071060 0.000000 4.479000 
# 
# 
# High freq. dielectric constant tensor:
#      x y z
#    x 1.967880 0.000000 -0.007990 
#    y 0.000000 1.938520 0.000000 
#    z -0.007990 0.000000 1.956920 
# 
# From -- ./inp_files/55476.got.cif
#   From: 2010.03.12/outbox.cif.g09.slc.cpg/sg5_28_cif.got.tgz:55476.got - 2010.03.31 09:47:26.
