data_PCOD8051409
_publ_section_title
;
Structure prediction by ZEFSAII (Michael W. Deem and Ramdas Pophale) SiO2 
 PCOD8051409
Probable space group: C 2
;
_chemical_formula_sum "Si O2"
_cell_formula_units_Z 20
_cell_length_a 11.688894
_cell_length_b 9.059651
_cell_length_c 11.001117
_cell_angle_alpha 90.000000
_cell_angle_beta 139.463500
_cell_angle_gamma 90.000000
_cell_volume 757.163748
_symmetry_space_group_name_H-M "C 2"
_symmetry_group_IT_number 5
_symmetry_cell_setting 'monoclinic'
loop_
_space_group_symop_operation_xyz
x,y,z
-x,y,-z
1/2+x,1/2+y,z
1/2-x,1/2+y,-z
loop_
_atom_site_type_symbol
_atom_site_label
_atom_site_fract_x
_atom_site_fract_y
_atom_site_fract_z
Si Si1 0.645885 0.905550 0.346622
Si Si2 0.190883 0.706716 0.708263
Si Si3 0.899742 0.681098 0.095737
Si Si4 0.093175 0.207815 0.685169
Si Si5 0.167655 0.921069 0.263584
O O1 0.738503 0.854943 0.297476
O O2 0.531569 0.772690 0.310693
O O3 0.799100 0.946327 0.565559
O O4 0.538116 0.052219 0.229107
O O5 0.183545 0.734894 0.845598
O O6 0.338568 0.580899 0.803731
O O7 0.000000 0.659809 0.500000
O O8 0.988259 0.826119 0.105330
O O9 0.749814 0.622201 0.881746
O O10 0.167980 0.342153 0.665995
O O11 0.000000 0.110541 0.500000
#
# Coordination Sequence:
#
# PCOD8051409 Si02
#       5
#     4   4   4   4   4
#     4  11  23  46  78 115 154 197 255 319 384 458
#     4  12  23  47  79 114 158 200 253 315 385 467
#     4  12  25  47  79 115 156 202 259 315 381 461
#     4  10  24  48  76 109 154 206 257 312 380 451
#     4  11  21  47  81 107 155 205 239 318 392 454
#
# _framework density 26.414366999999999
#
# number of rings (size 3 to 8) (size 9 to 14) (size 15 to 20)
#    0.000    0.800    6.000    1.200    0.000    2.400 
#   14.400    2.000    0.000    0.000    0.000    1.400 
#    0.000    0.000    0.000    0.000    0.000    0.000 
#
# Total GULP energy -123978.300212 kJ/mol
# GULP energy per Si atom -12397.830021 kJ/mol
# Density = 2.635425 g / cm^3
# Si number density = 26.414367 Si / 1000 Ang^3
#
#
#
# Elastic Constant Matrix: (Units=GPa)
#
#
# Indices 1 2 3 4 5 6 
#
# 1 167.3968 46.1608 39.3327 0.0000 -22.3644 0.0000
# 2 46.1608 53.7494 10.7847 0.0000 3.3810 0.0000
# 3 39.3327 10.7847 183.8385 0.0000 -13.5697 0.0000
# 4 0.0000 0.0000 0.0000 16.5177 0.0000 -8.1516
# 5 -22.3644 3.3810 -13.5697 0.0000 34.8574 0.0000
# 6 0.0000 0.0000 0.0000 -8.1516 0.0000 28.4942
#
#
#
# Elastic Compliance Matrix: (Units=1/GPa)
#
#
# Indices 1 2 3 4 5 6 
#
# 1 0.009335 -0.008209 -0.001045 0.000000 0.006379 0.000000
# 2 -0.008209 0.026229 -0.000370 0.000000 -0.007955 0.000000
# 3 -0.001045 -0.000370 0.005805 0.000000 0.001625 0.000000
# 4 0.000000 0.000000 0.000000 0.070494 0.000000 0.020167
# 5 0.006379 -0.007955 0.001625 0.000000 0.034185 0.000000
# 6 0.000000 0.000000 0.000000 0.020167 0.000000 0.040864
#
#
# Mechanical properties :
#
#
# Convention : Reuss Voigt Hill
#
# Bulk Modulus (GPa) = 45.20256 66.39346 55.79801
# Shear Modulus (GPa) = 23.41557 36.55428 29.98493
#
# Velocity S-wave (km/s) = 2.98060 3.72409 3.37289
# Velocity P-wave (km/s) = 5.38473 6.60921 6.02814
#
# Compressibility (1/GPa) = 0.02212264
#
# Stress axis : x y z
#
# Youngs Moduli (GPa) = 107.12138 38.12541 172.27256
#
# Poissons Ratio (x) = 0.31296 0.18000
# Poissons Ratio (y) = 0.87934 0.06367
# Poissons Ratio (z) = 0.11193 0.01409
#
# Static dielectric constant tensor:
#      x y z
#    x 5.018660 0.000000 -0.191210 
#    y 0.000000 4.271440 0.000000 
#    z -0.191210 0.000000 4.942810 
# 
# 
# High freq. dielectric constant tensor:
#      x y z
#    x 2.079360 0.000000 -0.013380 
#    y 0.000000 2.029520 0.000000 
#    z -0.013380 0.000000 2.066430 
# 
# From -- ./inp_files/39330.got.cif
#   From: 2010.03.12/outbox.cif.g09.slc.cpg/sg5_20_cif.got.tgz:39330.got - 2010.03.31 09:47:26.
