data_PCOD8051134
_publ_section_title
;
Structure prediction by ZEFSAII (Michael W. Deem and Ramdas Pophale) SiO2 
 PCOD8051134
Probable space group: C 2
;
_chemical_formula_sum "Si O2"
_cell_formula_units_Z 14
_cell_length_a 6.690758
_cell_length_b 17.831621
_cell_length_c 5.200012
_cell_angle_alpha 90.000000
_cell_angle_beta 95.765136
_cell_angle_gamma 90.000000
_cell_volume 617.260185
_symmetry_space_group_name_H-M "C 2"
_symmetry_group_IT_number 5
_symmetry_cell_setting 'monoclinic'
loop_
_space_group_symop_operation_xyz
x,y,z
-x,y,-z
1/2+x,1/2+y,z
1/2-x,1/2+y,-z
loop_
_atom_site_type_symbol
_atom_site_label
_atom_site_fract_x
_atom_site_fract_y
_atom_site_fract_z
Si Si1 0.500000 0.950320 0.500000
Si Si2 0.376857 0.175849 0.240924
Si Si3 0.873364 0.039183 0.741650
Si Si4 0.383909 0.806963 0.726673
O O1 0.366015 0.896560 0.672420
O O2 0.657279 0.997883 0.688243
O O3 0.500000 0.145914 0.500000
O O4 0.173892 0.126341 0.204080
O O5 0.328373 0.264351 0.272775
O O6 0.500000 0.162537 0.000000
O O7 0.000000 0.029405 0.500000
O O8 0.000000 0.006370 0.000000
O O9 0.500000 0.769299 0.500000
O O10 0.500000 0.789968 0.000000
#
# Coordination Sequence:
#
# PCOD8051134 Si02
#       4
#     2   4   4   4
#     4  10  28  48  74 104 158 178 238 306 352 434
#     4  12  24  44  75 105 142 187 243 298 353 420
#     4  12  27  46  77 107 143 193 244 290 366 423
#     4  10  23  44  68  97 147 181 229 294 357 409
#
# _framework density 22.680873999999999
#
# number of rings (size 3 to 8) (size 9 to 14) (size 15 to 20)
#    0.857    0.000    1.429    5.143    4.000    1.143 
#    0.000    0.000    0.000    0.000    0.000    0.000 
#    0.000    0.000    0.000    0.000    0.000    0.000 
#
# Total GULP energy -86762.815751 kJ/mol
# GULP energy per Si atom -12394.687964 kJ/mol
# Density = 2.262925 g / cm^3
# Si number density = 22.680874 Si / 1000 Ang^3
#
#
#
# Elastic Constant Matrix: (Units=GPa)
#
#
# Indices 1 2 3 4 5 6 
#
# 1 90.2848 46.8273 63.2064 0.0000 11.9576 0.0000
# 2 46.8273 104.9959 32.6665 0.0000 7.6702 0.0000
# 3 63.2064 32.6665 205.2226 0.0000 0.4966 0.0000
# 4 0.0000 0.0000 0.0000 52.1488 0.0000 -2.2380
# 5 11.9576 7.6702 0.4966 0.0000 48.1662 0.0000
# 6 0.0000 0.0000 0.0000 -2.2380 0.0000 52.6018
#
#
#
# Elastic Compliance Matrix: (Units=1/GPa)
#
#
# Indices 1 2 3 4 5 6 
#
# 1 0.017996 -0.006371 -0.004520 0.000000 -0.003407 0.000000
# 2 -0.006371 0.012397 -0.000010 0.000000 -0.000392 0.000000
# 3 -0.004520 -0.000010 0.006264 0.000000 0.001059 0.000000
# 4 0.000000 0.000000 0.000000 0.019211 0.000000 0.000817
# 5 -0.003407 -0.000392 0.001059 0.000000 0.021659 0.000000
# 6 0.000000 0.000000 0.000000 0.000817 0.000000 0.019046
#
#
# Mechanical properties :
#
#
# Convention : Reuss Voigt Hill
#
# Bulk Modulus (GPa) = 67.31882 76.21153 71.76517
# Shear Modulus (GPa) = 40.54255 47.77024 44.15639
#
# Velocity S-wave (km/s) = 4.23250 4.59430 4.41711
# Velocity P-wave (km/s) = 7.32330 7.86245 7.59766
#
# Compressibility (1/GPa) = 0.01485469
#
# Stress axis : x y z
#
# Youngs Moduli (GPa) = 55.56752 80.66200 159.64184
#
# Poissons Ratio (x) = 0.51389 0.72163
# Poissons Ratio (y) = 0.35402 0.00164
# Poissons Ratio (z) = 0.25118 0.00083
#
# Static dielectric constant tensor:
#      x y z
#    x 3.611030 0.000000 0.003030 
#    y 0.000000 3.996890 0.000000 
#    z 0.003030 0.000000 4.057090 
# 
# 
# High freq. dielectric constant tensor:
#      x y z
#    x 1.877630 0.000000 0.003770 
#    y 0.000000 1.894020 0.000000 
#    z 0.003770 0.000000 1.911740 
# 
# From -- ./inp_files/391.got.cif
#   From: 2010.03.12/outbox.cif.g09.slc.cpg/sg5_1_cif.got.tgz:391.got - 2010.03.31 09:47:26.
