data_PCOD8051263
_publ_section_title
;
Structure prediction by ZEFSAII (Michael W. Deem and Ramdas Pophale) SiO2 
 PCOD8051263
Probable space group: C 2
;
_chemical_formula_sum "Si O2"
_cell_formula_units_Z 20
_cell_length_a 10.799946
_cell_length_b 8.577877
_cell_length_c 9.957568
_cell_angle_alpha 90.000000
_cell_angle_beta 108.655659
_cell_angle_gamma 90.000000
_cell_volume 874.006574
_symmetry_space_group_name_H-M "C 2"
_symmetry_group_IT_number 5
_symmetry_cell_setting 'monoclinic'
loop_
_space_group_symop_operation_xyz
x,y,z
-x,y,-z
1/2+x,1/2+y,z
1/2-x,1/2+y,-z
loop_
_atom_site_type_symbol
_atom_site_label
_atom_site_fract_x
_atom_site_fract_y
_atom_site_fract_z
Si Si1 0.259912 0.626750 0.764499
Si Si2 0.366688 0.286499 0.510463
Si Si3 0.713348 0.771911 0.711486
Si Si4 0.500000 0.537408 0.000000
Si Si5 0.000000 0.087427 0.500000
Si Si6 0.871098 0.738258 0.018596
O O1 0.246354 0.750506 0.638433
O O2 0.211633 0.458092 0.700338
O O3 0.411017 0.638196 0.867310
O O4 0.162010 0.671389 0.849671
O O5 0.500000 0.205340 0.500000
O O6 0.321896 0.218520 0.638353
O O7 0.392679 0.474113 0.534568
O O8 0.572178 0.698345 0.632027
O O9 0.752372 0.713802 0.872902
O O10 0.599661 0.423899 0.952511
O O11 0.000000 0.655240 0.000000
#
# Coordination Sequence:
#
# PCOD8051263 Si02
#       6
#     4   4   4   2   2   4
#     4  11  22  41  74  98 127 179 221 263 334 391
#     4  10  24  42  69  97 134 173 216 276 328 384
#     4  11  23  43  69  97 132 177 219 266 331 392
#     4   8  22  42  70  94 142 160 216 276 330 384
#     4  10  26  42  66  94 142 168 220 272 326 378
#     4   9  21  41  66  95 137 168 208 278 327 379
#
# _framework density 22.883122
#
# number of rings (size 3 to 8) (size 9 to 14) (size 15 to 20)
#    1.200    0.800    0.000    2.400    1.400    8.000 
#    3.600    0.000   19.800    0.000    0.000    0.000 
#    0.000    0.000    0.000    0.000    0.000    0.000 
#
# Total GULP energy -123913.300599 kJ/mol
# GULP energy per Si atom -12391.330060 kJ/mol
# Density = 2.283104 g / cm^3
# Si number density = 22.883122 Si / 1000 Ang^3
#
#
#
# Elastic Constant Matrix: (Units=GPa)
#
#
# Indices 1 2 3 4 5 6 
#
# 1 48.4102 20.2094 24.4539 0.0000 0.8407 0.0000
# 2 20.2094 62.1948 37.2667 0.0000 17.9392 0.0000
# 3 24.4539 37.2667 92.5299 0.0000 16.0767 0.0000
# 4 0.0000 0.0000 0.0000 40.7246 0.0000 9.4093
# 5 0.8407 17.9392 16.0767 0.0000 57.5493 0.0000
# 6 0.0000 0.0000 0.0000 9.4093 0.0000 27.7428
#
#
#
# Elastic Compliance Matrix: (Units=1/GPa)
#
#
# Indices 1 2 3 4 5 6 
#
# 1 0.025643 -0.006341 -0.004731 0.000000 0.002924 0.000000
# 2 -0.006341 0.023897 -0.007011 0.000000 -0.005398 0.000000
# 3 -0.004731 -0.007011 0.015229 0.000000 -0.002000 0.000000
# 4 0.000000 0.000000 0.000000 0.026643 0.000000 -0.009036
# 5 0.002924 -0.005398 -0.002000 0.000000 0.019575 0.000000
# 6 0.000000 0.000000 0.000000 -0.009036 0.000000 0.039110
#
#
# Mechanical properties :
#
#
# Convention : Reuss Voigt Hill
#
# Bulk Modulus (GPa) = 34.96153 40.77721 37.86937
# Shear Modulus (GPa) = 25.53675 33.28364 29.41020
#
# Velocity S-wave (km/s) = 3.34423 3.81794 3.58891
# Velocity P-wave (km/s) = 5.49757 6.10688 5.81022
#
# Compressibility (1/GPa) = 0.02860287
#
# Stress axis : x y z
#
# Youngs Moduli (GPa) = 38.99706 41.84692 65.66518
#
# Poissons Ratio (x) = 0.26534 0.31067
# Poissons Ratio (y) = 0.24727 0.46037
# Poissons Ratio (z) = 0.18450 0.29338
#
# Static dielectric constant tensor:
#      x y z
#    x 3.913990 0.000000 0.161090 
#    y 0.000000 3.819970 0.000000 
#    z 0.161090 0.000000 4.101340 
# 
# 
# High freq. dielectric constant tensor:
#      x y z
#    x 1.895840 0.000000 0.003940 
#    y 0.000000 1.869650 0.000000 
#    z 0.003940 0.000000 1.913080 
# 
# From -- ./inp_files/38177.got.cif
#   From: 2010.03.12/outbox.cif.g09.slc.cpg/sg5_20_cif.got.tgz:38177.got - 2010.03.31 09:47:26.
