data_PCOD8051308
_publ_section_title
;
Structure prediction by ZEFSAII (Michael W. Deem and Ramdas Pophale) SiO2 
 PCOD8051308
Probable space group: C 2
;
_chemical_formula_sum "Si O2"
_cell_formula_units_Z 26
_cell_length_a 13.986640
_cell_length_b 9.282469
_cell_length_c 10.967843
_cell_angle_alpha 90.000000
_cell_angle_beta 120.509889
_cell_angle_gamma 90.000000
_cell_volume 1226.801663
_symmetry_space_group_name_H-M "C 2"
_symmetry_group_IT_number 5
_symmetry_cell_setting 'monoclinic'
loop_
_space_group_symop_operation_xyz
x,y,z
-x,y,-z
1/2+x,1/2+y,z
1/2-x,1/2+y,-z
loop_
_atom_site_type_symbol
_atom_site_label
_atom_site_fract_x
_atom_site_fract_y
_atom_site_fract_z
Si Si1 0.106517 0.544920 0.987386
Si Si2 0.139621 0.342972 0.400687
Si Si3 0.971254 0.242868 0.109704
Si Si4 0.000000 0.176230 0.500000
Si Si5 0.648187 0.161820 0.500871
Si Si6 0.151794 0.040553 0.783741
Si Si7 0.908685 0.718714 0.270011
O O1 0.104588 0.615042 0.853140
O O2 0.113188 0.373824 0.969260
O O3 0.219814 0.590356 0.130201
O O4 0.000000 0.591444 0.000000
O O5 0.084806 0.317484 0.233019
O O6 0.254552 0.261203 0.485790
O O7 0.160830 0.508483 0.444434
O O8 0.047964 0.282148 0.431493
O O9 0.918198 0.120355 0.157716
O O10 0.000000 0.166580 0.000000
O O11 0.901513 0.077536 0.381939
O O12 0.537368 0.240986 0.385067
O O13 0.651587 0.147970 0.650597
O O14 0.144393 0.870704 0.799480
#
# Coordination Sequence:
#
# PCOD8051308 Si02
#       7
#     4   4   4   2   4   4   4
#     4  11  25  44  70  95 137 185 226 281 343 407
#     4  11  25  43  71  98 135 179 228 282 345 404
#     4  10  24  45  68  97 137 180 225 279 346 408
#     4  10  24  44  68  98 136 178 228 282 340 404
#     4  11  26  43  71  98 136 177 230 287 340 402
#     4  11  25  43  69 101 135 179 230 280 338 404
#     4  11  25  45  66 101 137 178 229 286 337 403
#
# _framework density 21.193321000000001
#
# number of rings (size 3 to 8) (size 9 to 14) (size 15 to 20)
#    0.000    1.231    1.538    2.769   17.231    0.615 
#    0.000    0.000    0.000    0.000    0.000    0.000 
#    0.000    0.000    0.000    0.000    0.000    0.000 
#
# Total GULP energy -161220.602659 kJ/mol
# GULP energy per Si atom -12401.584820 kJ/mol
# Density = 2.114508 g / cm^3
# Si number density = 21.193321 Si / 1000 Ang^3
#
#
#
# Elastic Constant Matrix: (Units=GPa)
#
#
# Indices 1 2 3 4 5 6 
#
# 1 104.7824 39.2503 55.8620 0.0000 13.7643 0.0000
# 2 39.2503 80.4505 31.7904 0.0000 -2.4516 0.0000
# 3 55.8620 31.7904 131.6187 0.0000 3.6126 0.0000
# 4 0.0000 0.0000 0.0000 31.5957 0.0000 3.1125
# 5 13.7643 -2.4516 3.6126 0.0000 36.9137 0.0000
# 6 0.0000 0.0000 0.0000 3.1125 0.0000 29.1674
#
#
#
# Elastic Compliance Matrix: (Units=1/GPa)
#
#
# Indices 1 2 3 4 5 6 
#
# 1 0.014914 -0.005528 -0.004845 0.000000 -0.005454 0.000000
# 2 -0.005528 0.015847 -0.001571 0.000000 0.003267 0.000000
# 3 -0.004845 -0.001571 0.010014 0.000000 0.000722 0.000000
# 4 0.000000 0.000000 0.000000 0.031986 0.000000 -0.003413
# 5 -0.005454 0.003267 0.000722 0.000000 0.029270 0.000000
# 6 0.000000 0.000000 0.000000 -0.003413 0.000000 0.034649
#
#
# Mechanical properties :
#
#
# Convention : Reuss Voigt Hill
#
# Bulk Modulus (GPa) = 59.21759 63.40634 61.31196
# Shear Modulus (GPa) = 30.08487 32.19863 31.14175
#
# Velocity S-wave (km/s) = 3.77177 3.90203 3.83745
# Velocity P-wave (km/s) = 6.85351 7.09113 6.97333
#
# Compressibility (1/GPa) = 0.01688687
#
# Stress axis : x y z
#
# Youngs Moduli (GPa) = 67.05315 63.10202 99.86381
#
# Poissons Ratio (x) = 0.34881 0.48382
# Poissons Ratio (y) = 0.37066 0.15691
# Poissons Ratio (z) = 0.32486 0.09915
#
# Static dielectric constant tensor:
#      x y z
#    x 3.859240 0.000000 0.042060 
#    y 0.000000 3.699890 0.000000 
#    z 0.042060 0.000000 4.285550 
# 
# 
# High freq. dielectric constant tensor:
#      x y z
#    x 1.836730 0.000000 0.000730 
#    y 0.000000 1.822960 0.000000 
#    z 0.000730 0.000000 1.849180 
# 
# From -- ./inp_files/41631.got.cif
#   From: 2010.03.12/outbox.cif.g09.slc.cpg/sg5_21_cif.got.tgz:41631.got - 2010.03.31 09:47:26.
