data_PCOD8051985
_publ_section_title
;
Structure prediction by ZEFSAII (Michael W. Deem and Ramdas Pophale) SiO2 
 PCOD8051985
Probable space group: C 2
;
_chemical_formula_sum "Si O2"
_cell_formula_units_Z 32
_cell_length_a 14.200527
_cell_length_b 11.763649
_cell_length_c 18.122747
_cell_angle_alpha 90.000000
_cell_angle_beta 27.637276
_cell_angle_gamma 90.000000
_cell_volume 1404.329975
_symmetry_space_group_name_H-M "C 2"
_symmetry_group_IT_number 5
_symmetry_cell_setting 'monoclinic'
loop_
_space_group_symop_operation_xyz
x,y,z
-x,y,-z
1/2+x,1/2+y,z
1/2-x,1/2+y,-z
loop_
_atom_site_type_symbol
_atom_site_label
_atom_site_fract_x
_atom_site_fract_y
_atom_site_fract_z
Si Si1 0.987023 0.759970 0.153111
Si Si2 0.895806 0.377536 0.149278
Si Si3 0.299271 0.641043 0.186104
Si Si4 0.114186 0.130337 0.615291
Si Si5 0.836971 0.098783 0.677045
Si Si6 0.417391 0.838631 0.832755
Si Si7 0.737452 0.978082 0.357239
Si Si8 0.499977 0.092205 0.730306
O O1 0.841171 0.693067 0.198027
O O2 0.848746 0.857933 0.284391
O O3 0.083908 0.671122 0.145353
O O4 0.181590 0.814368 0.975999
O O5 0.745563 0.269521 0.247254
O O6 0.762219 0.478749 0.274943
O O7 0.068216 0.340311 0.088311
O O8 0.000000 0.412811 0.000000
O O9 0.342157 0.557963 0.224089
O O10 0.115173 0.597670 0.266372
O O11 0.500000 0.646420 0.000000
O O12 0.277980 0.146479 0.436566
O O13 0.917007 0.091283 0.705732
O O14 0.064955 0.244691 0.694170
O O15 0.213798 0.034369 0.597944
O O16 0.000000 0.127914 0.500000
O O17 0.496658 0.959613 0.750635
O O18 0.500000 0.965309 0.500000
#
# Coordination Sequence:
#
# PCOD8051985 Si02
#       8
#     4   4   4   4   4   4   4   4
#     4  12  28  48  77 107 155 196 250 319 372 460
#     4  11  25  47  73 107 150 198 256 313 371 451
#     4  11  24  46  72 106 148 194 251 310 374 448
#     4  12  29  47  76 109 152 199 253 313 381 455
#     4  12  27  49  73 111 155 201 252 309 385 456
#     4  12  28  50  78 112 152 199 260 311 382 448
#     4  12  27  48  73 108 147 199 253 313 382 451
#     4  12  27  48  75 111 152 198 251 310 383 451
#
# _framework density 22.786667999999999
#
# number of rings (size 3 to 8) (size 9 to 14) (size 15 to 20)
#    0.000    0.250    5.000    2.625   10.500    1.500 
#    0.000    0.000    0.000    0.000    0.000    0.000 
#    0.000    0.000    0.000    0.000    0.000    0.000 
#
# Total GULP energy -198361.490885 kJ/mol
# GULP energy per Si atom -12397.593180 kJ/mol
# Density = 2.273480 g / cm^3
# Si number density = 22.786668 Si / 1000 Ang^3
#
#
#
# Elastic Constant Matrix: (Units=GPa)
#
#
# Indices 1 2 3 4 5 6 
#
# 1 133.2581 34.2034 35.0634 0.0146 -8.8481 -0.0142
# 2 34.2034 147.9288 56.3816 -0.0013 -5.1779 -0.0007
# 3 35.0634 56.3816 96.4538 -0.0004 -12.2444 0.0101
# 4 0.0146 -0.0013 -0.0004 46.1780 -0.0010 -2.3753
# 5 -8.8481 -5.1779 -12.2444 -0.0010 18.8869 -0.0055
# 6 -0.0142 -0.0007 0.0101 -2.3753 -0.0055 37.1294
#
#
#
# Elastic Compliance Matrix: (Units=1/GPa)
#
#
# Indices 1 2 3 4 5 6 
#
# 1 0.008501 -0.001053 -0.002186 -0.000002 0.002277 0.000004
# 2 -0.001053 0.008845 -0.004950 0.000001 -0.001277 0.000001
# 3 -0.002186 -0.004950 0.014987 0.000001 0.007335 -0.000004
# 4 -0.000002 0.000001 0.000001 0.021727 0.000001 0.001390
# 5 0.002277 -0.001277 0.007335 0.000001 0.058418 0.000008
# 6 0.000004 0.000001 -0.000004 0.001390 0.000008 0.027022
#
#
# Mechanical properties :
#
#
# Convention : Reuss Voigt Hill
#
# Bulk Modulus (GPa) = 62.67259 69.88197 66.27728
# Shear Modulus (GPa) = 31.01819 37.23835 34.12827
#
# Velocity S-wave (km/s) = 3.69351 4.04693 3.87425
# Velocity P-wave (km/s) = 6.76410 7.25061 7.01158
#
# Compressibility (1/GPa) = 0.01595594
#
# Stress axis : x y z
#
# Youngs Moduli (GPa) = 117.63656 113.05404 66.72488
#
# Poissons Ratio (x) = 0.11901 0.14585
# Poissons Ratio (y) = 0.12383 0.33029
# Poissons Ratio (z) = 0.25714 0.55961
#
# Static dielectric constant tensor:
#      x y z
#    x 4.385740 0.000010 -0.014090 
#    y 0.000010 4.215020 -0.000020 
#    z -0.014090 -0.000020 3.749790 
# 
# 
# High freq. dielectric constant tensor:
#      x y z
#    x 1.916530 0.000000 -0.001760 
#    y 0.000000 1.911200 0.000000 
#    z -0.001760 0.000000 1.891230 
# 
# From -- ./inp_files/61687.got.cif
#   From: 2010.03.12/outbox.cif.g09.slc.cpg/sg5_31_cif.got.tgz:61687.got - 2010.03.31 09:47:26.
