data_PCOD8051434
_publ_section_title
;
Structure prediction by ZEFSAII (Michael W. Deem and Ramdas Pophale) SiO2 
 PCOD8051434
Probable space group: C 2
;
_chemical_formula_sum "Si O2"
_cell_formula_units_Z 22
_cell_length_a 15.674475
_cell_length_b 11.670186
_cell_length_c 8.319838
_cell_angle_alpha 90.000000
_cell_angle_beta 42.432235
_cell_angle_gamma 90.000000
_cell_volume 1026.851829
_symmetry_space_group_name_H-M "C 2"
_symmetry_group_IT_number 5
_symmetry_cell_setting 'monoclinic'
loop_
_space_group_symop_operation_xyz
x,y,z
-x,y,-z
1/2+x,1/2+y,z
1/2-x,1/2+y,-z
loop_
_atom_site_type_symbol
_atom_site_label
_atom_site_fract_x
_atom_site_fract_y
_atom_site_fract_z
Si Si1 0.314676 0.251230 0.566357
Si Si2 0.856582 0.980865 0.671808
Si Si3 0.500000 0.111154 0.500000
Si Si4 0.939876 0.268560 0.922776
Si Si5 0.815917 0.210278 0.576316
Si Si6 0.676103 0.911722 0.177926
O O1 0.330652 0.387829 0.568549
O O2 0.447826 0.192637 0.429967
O O3 0.289302 0.226119 0.415005
O O4 0.194513 0.208598 0.844560
O O5 0.000000 0.012378 0.500000
O O6 0.783240 0.098108 0.726490
O O7 0.810760 0.930687 0.906719
O O8 0.622535 0.035206 0.296504
O O9 0.922641 0.367516 0.817132
O O10 0.045755 0.185319 0.696853
O O11 0.000000 0.324272 0.000000
O O12 0.812774 0.324267 0.689663
#
# Coordination Sequence:
#
# PCOD8051434 Si02
#       6
#     4   4   2   4   4   4
#     4  10  25  42  65  99 138 170 220 273 343 387
#     4  11  25  43  67  95 138 176 222 277 329 390
#     4  12  24  42  66  94 138 176 212 280 328 400
#     4   9  19  41  67  97 128 170 222 267 318 400
#     4  11  23  44  68  99 132 176 230 268 326 399
#     4  11  24  40  70  94 133 179 225 265 334 389
#
# _framework density 21.424707000000001
#
# number of rings (size 3 to 8) (size 9 to 14) (size 15 to 20)
#    0.000    1.455    2.727    1.091   10.182    1.455 
#    0.000    2.727    0.000    0.000    0.000    0.000 
#    0.000    0.000    0.000    0.000    0.000    0.000 
#
# Total GULP energy -136309.299922 kJ/mol
# GULP energy per Si atom -12391.754538 kJ/mol
# Density = 2.137594 g / cm^3
# Si number density = 21.424707 Si / 1000 Ang^3
#
#
#
# Elastic Constant Matrix: (Units=GPa)
#
#
# Indices 1 2 3 4 5 6 
#
# 1 155.3564 64.6942 50.4321 0.0000 11.7237 0.0000
# 2 64.6942 117.5481 36.5790 0.0000 4.4256 0.0000
# 3 50.4321 36.5790 55.0563 0.0000 11.7962 0.0000
# 4 0.0000 0.0000 0.0000 25.4881 0.0000 -0.8843
# 5 11.7237 4.4256 11.7962 0.0000 28.6361 0.0000
# 6 0.0000 0.0000 0.0000 -0.8843 0.0000 29.8155
#
#
#
# Elastic Compliance Matrix: (Units=1/GPa)
#
#
# Indices 1 2 3 4 5 6 
#
# 1 0.010146 -0.003423 -0.006847 0.000000 -0.000804 0.000000
# 2 -0.003423 0.011931 -0.005151 0.000000 0.001679 0.000000
# 3 -0.006847 -0.005151 0.029708 0.000000 -0.008639 0.000000
# 4 0.000000 0.000000 0.000000 0.039274 0.000000 0.001165
# 5 -0.000804 0.001679 -0.008639 0.000000 0.038549 0.000000
# 6 0.000000 0.000000 0.000000 0.001165 0.000000 0.033574
#
#
# Mechanical properties :
#
#
# Convention : Reuss Voigt Hill
#
# Bulk Modulus (GPa) = 47.74941 70.15239 58.95090
# Shear Modulus (GPa) = 24.87498 28.53831 26.70664
#
# Velocity S-wave (km/s) = 3.41110 3.65366 3.53446
# Velocity P-wave (km/s) = 6.15220 7.11433 6.65069
#
# Compressibility (1/GPa) = 0.02094267
#
# Stress axis : x y z
#
# Youngs Moduli (GPa) = 98.56579 83.81771 33.66041
#
# Poissons Ratio (x) = 0.28689 0.23047
# Poissons Ratio (y) = 0.33737 0.17339
# Poissons Ratio (z) = 0.67488 0.43176
#
# Static dielectric constant tensor:
#      x y z
#    x 3.918220 0.000000 0.038480 
#    y 0.000000 3.699370 0.000000 
#    z 0.038480 0.000000 3.979120 
# 
# 
# High freq. dielectric constant tensor:
#      x y z
#    x 1.846970 0.000000 -0.000870 
#    y 0.000000 1.828800 0.000000 
#    z -0.000870 0.000000 1.835480 
# 
# From -- ./inp_files/23197.got.cif
#   From: 2010.03.12/outbox.cif.g09.slc.cpg/sg5_12_cif.got.tgz:23197.got - 2010.03.31 09:47:26.
