data_PCOD8051149
_publ_section_title
;
Structure prediction by ZEFSAII (Michael W. Deem and Ramdas Pophale) SiO2 
 PCOD8051149
Probable space group: C 2
;
_chemical_formula_sum "Si O2"
_cell_formula_units_Z 32
_cell_length_a 11.572870
_cell_length_b 8.993148
_cell_length_c 28.406301
_cell_angle_alpha 90.000000
_cell_angle_beta 150.441668
_cell_angle_gamma 90.000000
_cell_volume 1458.434375
_symmetry_space_group_name_H-M "C 2"
_symmetry_group_IT_number 5
_symmetry_cell_setting 'monoclinic'
loop_
_space_group_symop_operation_xyz
x,y,z
-x,y,-z
1/2+x,1/2+y,z
1/2-x,1/2+y,-z
loop_
_atom_site_type_symbol
_atom_site_label
_atom_site_fract_x
_atom_site_fract_y
_atom_site_fract_z
Si Si1 0.763956 0.873340 0.393824
Si Si2 0.235991 0.298279 0.106157
Si Si3 0.013857 0.249164 0.889946
Si Si4 0.513853 0.422423 0.389942
Si Si5 0.398589 0.543933 0.763852
Si Si6 0.101569 0.127623 0.736208
Si Si7 0.626618 0.087891 0.419430
Si Si8 0.626752 0.083689 0.919448
O O1 0.541595 0.773584 0.329876
O O2 0.000000 0.800261 0.500000
O O3 0.797768 0.894735 0.349774
O O4 0.723063 0.033692 0.403118
O O5 0.202201 0.276929 0.150215
O O6 0.458514 0.397880 0.170137
O O7 0.276565 0.137869 0.096763
O O8 0.000000 0.371449 0.000000
O O9 0.916411 0.177148 0.807879
O O10 0.130504 0.406359 0.919419
O O11 0.205404 0.139575 0.979561
O O12 0.416517 0.494363 0.307894
O O13 0.630509 0.265216 0.419445
O O14 0.705387 0.532017 0.479552
O O15 0.500496 0.585762 0.750210
O O16 0.125060 0.513187 0.659963
O O17 0.375105 0.158515 0.839990
#
# Coordination Sequence:
#
# PCOD8051149 Si02
#       8
#     4   4   4   4   4   4   4   4
#     4  10  23  45  66  97 134 171 220 272 324 386
#     4  10  23  45  66  97 134 171 220 272 324 386
#     4  11  24  47  65  96 138 165 222 276 321 390
#     4  11  24  47  65  96 138 165 222 276 321 390
#     4  12  25  43  70  97 134 178 216 268 330 389
#     4  12  25  43  70  97 134 178 216 268 330 389
#     4  11  24  45  71  97 130 178 215 274 330 383
#     4  11  24  45  71  97 130 178 215 274 330 383
#
# _framework density 21.941334999999999
#
# number of rings (size 3 to 8) (size 9 to 14) (size 15 to 20)
#    0.000    1.000    2.500    4.500    0.000    1.000 
#   18.000    0.000    0.000    0.000    0.000    0.000 
#    0.000    0.000    0.000    0.000    0.000    0.000 
#
# Total GULP energy -198421.415629 kJ/mol
# GULP energy per Si atom -12401.338477 kJ/mol
# Density = 2.189140 g / cm^3
# Si number density = 21.941335 Si / 1000 Ang^3
#
#
#
# Elastic Constant Matrix: (Units=GPa)
#
#
# Indices 1 2 3 4 5 6 
#
# 1 97.3835 29.4756 11.4356 0.0000 -16.4704 0.0000
# 2 29.4756 90.0328 -2.7147 0.0000 -10.1756 0.0000
# 3 11.4356 -2.7147 65.6983 -0.0001 9.2536 -0.0001
# 4 0.0000 0.0000 -0.0001 14.5912 0.0000 3.9396
# 5 -16.4704 -10.1756 9.2536 0.0000 38.8229 0.0000
# 6 0.0000 0.0000 -0.0001 3.9396 0.0000 38.3472
#
#
#
# Elastic Compliance Matrix: (Units=1/GPa)
#
#
# Indices 1 2 3 4 5 6 
#
# 1 0.012595 -0.003637 -0.003064 0.000000 0.005120 0.000000
# 2 -0.003637 0.012497 0.000937 0.000000 0.001509 0.000000
# 3 -0.003064 0.000937 0.016495 0.000000 -0.004986 0.000000
# 4 0.000000 0.000000 0.000000 0.070490 0.000000 -0.007242
# 5 0.005120 0.001509 -0.004986 0.000000 0.029514 0.000000
# 6 0.000000 0.000000 0.000000 -0.007242 0.000000 0.026822
#
#
# Mechanical properties :
#
#
# Convention : Reuss Voigt Hill
#
# Bulk Modulus (GPa) = 33.26786 36.61196 34.93991
# Shear Modulus (GPa) = 26.32121 32.68014 29.50067
#
# Velocity S-wave (km/s) = 3.46731 3.86350 3.67075
# Velocity P-wave (km/s) = 5.58791 6.05184 5.82449
#
# Compressibility (1/GPa) = 0.03005904
#
# Stress axis : x y z
#
# Youngs Moduli (GPa) = 79.39409 80.02147 60.62293
#
# Poissons Ratio (x) = 0.29106 0.18574
# Poissons Ratio (y) = 0.28878 -0.05680
# Poissons Ratio (z) = 0.24326 -0.07497
#
# Static dielectric constant tensor:
#      x y z
#    x 4.286490 0.000000 0.396210 
#    y 0.000000 3.980820 0.000000 
#    z 0.396210 0.000000 4.615260 
# 
# 
# High freq. dielectric constant tensor:
#      x y z
#    x 1.872340 0.000000 0.000090 
#    y 0.000000 1.859200 0.000000 
#    z 0.000090 0.000000 1.873220 
# 
# From -- ./inp_files/71764.got.cif
#   From: 2010.03.12/outbox.cif.g09.slc.cpg/sg5_36_cif.got.tgz:71764.got - 2010.03.31 09:47:26.
