data_PCOD8051073
_publ_section_title
;
Structure prediction by ZEFSAII (Michael W. Deem and Ramdas Pophale) SiO2 
 PCOD8051073
Probable space group: C 2
;
_chemical_formula_sum "Si O2"
_cell_formula_units_Z 30
_cell_length_a 8.942134
_cell_length_b 23.318220
_cell_length_c 11.451086
_cell_angle_alpha 90.000000
_cell_angle_beta 140.934336
_cell_angle_gamma 90.000000
_cell_volume 1504.765995
_symmetry_space_group_name_H-M "C 2"
_symmetry_group_IT_number 5
_symmetry_cell_setting 'monoclinic'
loop_
_space_group_symop_operation_xyz
x,y,z
-x,y,-z
1/2+x,1/2+y,z
1/2-x,1/2+y,-z
loop_
_atom_site_type_symbol
_atom_site_label
_atom_site_fract_x
_atom_site_fract_y
_atom_site_fract_z
Si Si1 0.919582 0.263930 0.070863
Si Si2 0.830417 0.017151 0.494986
Si Si3 0.053349 0.943405 0.211295
Si Si4 0.742876 0.719625 0.798016
Si Si5 0.500000 0.626916 0.500000
Si Si6 0.754997 0.346196 0.609050
Si Si7 0.394490 0.310919 0.716596
Si Si8 0.893760 0.450503 0.203572
O O1 0.927216 0.224360 0.191300
O O2 0.110587 0.314656 0.203838
O O3 0.659208 0.289416 0.897181
O O4 0.000000 0.231308 0.000000
O O5 0.556864 0.006794 0.293936
O O6 0.000000 0.988382 0.500000
O O7 0.897459 0.989426 0.658833
O O8 0.865607 0.086393 0.513555
O O9 0.121298 0.879099 0.284796
O O10 0.222531 0.959884 0.208385
O O11 0.773011 0.944991 0.010958
O O12 0.681288 0.666595 0.679103
O O13 0.733787 0.779085 0.717199
O O14 0.000000 0.705442 0.000000
O O15 0.500000 0.369484 0.500000
O O16 0.707915 0.299908 0.475557
O O17 0.923856 0.397787 0.669019
#
# Coordination Sequence:
#
# PCOD8051073 Si02
#       8
#     4   4   4   4   2   4   4   4
#     4  11  22  38  59  94 136 164 211 262 326 399
#     4  10  24  42  66  91 124 165 223 271 323 375
#     4  11  23  39  62  96 135 169 210 264 331 401
#     4  10  23  42  71  93 123 170 226 272 324 384
#     4  10  24  48  70  92 118 172 240 276 310 378
#     4  12  22  34  57  92 138 179 208 249 318 397
#     4  11  22  37  63  98 132 176 210 259 330 398
#     4  11  23  37  61  92 130 174 213 258 328 388
#
# _framework density 19.936654999999998
#
# number of rings (size 3 to 8) (size 9 to 14) (size 15 to 20)
#    0.400    0.800    4.000    2.400    3.733    2.667 
#    0.000    0.000   14.667    0.000    0.000    0.000 
#    0.000    0.000    0.000    0.000    0.000    0.000 
#
# Total GULP energy -185890.065121 kJ/mol
# GULP energy per Si atom -12392.671008 kJ/mol
# Density = 1.989128 g / cm^3
# Si number density = 19.936655 Si / 1000 Ang^3
#
#
#
# Elastic Constant Matrix: (Units=GPa)
#
#
# Indices 1 2 3 4 5 6 
#
# 1 116.2940 36.9992 46.5916 0.0000 -8.3543 0.0000
# 2 36.9992 105.5285 49.6162 0.0000 -11.8050 0.0000
# 3 46.5916 49.6162 117.9577 0.0000 -2.3120 0.0000
# 4 0.0000 0.0000 0.0000 14.2470 0.0000 1.1225
# 5 -8.3543 -11.8050 -2.3120 0.0000 37.5200 0.0000
# 6 0.0000 0.0000 0.0000 1.1225 0.0000 19.7963
#
#
#
# Elastic Compliance Matrix: (Units=1/GPa)
#
#
# Indices 1 2 3 4 5 6 
#
# 1 0.010688 -0.001999 -0.003350 0.000000 0.001544 0.000000
# 2 -0.001999 0.012640 -0.004463 0.000000 0.003257 0.000000
# 3 -0.003350 -0.004463 0.011650 0.000000 -0.001432 0.000000
# 4 0.000000 0.000000 0.000000 0.070505 0.000000 -0.003998
# 5 0.001544 0.003257 -0.001432 0.000000 0.027933 0.000000
# 6 0.000000 0.000000 0.000000 -0.003998 0.000000 0.050741
#
#
# Mechanical properties :
#
#
# Convention : Reuss Voigt Hill
#
# Bulk Modulus (GPa) = 65.13607 67.35491 66.24549
# Shear Modulus (GPa) = 23.93484 28.08422 26.00953
#
# Velocity S-wave (km/s) = 3.46865 3.75730 3.61586
# Velocity P-wave (km/s) = 6.98459 7.25816 7.12269
#
# Compressibility (1/GPa) = 0.01535248
#
# Stress axis : x y z
#
# Youngs Moduli (GPa) = 93.56071 79.11498 85.83528
#
# Poissons Ratio (x) = 0.15818 0.28759
# Poissons Ratio (y) = 0.18706 0.38309
# Poissons Ratio (z) = 0.31347 0.35310
#
# Static dielectric constant tensor:
#      x y z
#    x 3.896670 0.000000 -0.211810 
#    y 0.000000 3.267210 0.000000 
#    z -0.211810 0.000000 4.264880 
# 
# 
# High freq. dielectric constant tensor:
#      x y z
#    x 1.782980 0.000000 -0.000640 
#    y 0.000000 1.733470 0.000000 
#    z -0.000640 0.000000 1.804850 
# 
# From -- ./inp_files/37540.got.cif
#   From: 2010.03.12/outbox.cif.g09.slc.cpg/sg5_19_cif.got.tgz:37540.got - 2010.03.31 09:47:26.
