data_PCOD8051033
_publ_section_title
;
Structure prediction by ZEFSAII (Michael W. Deem and Ramdas Pophale) SiO2 
 PCOD8051033
Probable space group: C 2
;
_chemical_formula_sum "Si O2"
_cell_formula_units_Z 24
_cell_length_a 10.599243
_cell_length_b 18.932880
_cell_length_c 5.032453
_cell_angle_alpha 90.000000
_cell_angle_beta 80.784201
_cell_angle_gamma 90.000000
_cell_volume 996.848026
_symmetry_space_group_name_H-M "C 2"
_symmetry_group_IT_number 5
_symmetry_cell_setting 'monoclinic'
loop_
_space_group_symop_operation_xyz
x,y,z
-x,y,-z
1/2+x,1/2+y,z
1/2-x,1/2+y,-z
loop_
_atom_site_type_symbol
_atom_site_label
_atom_site_fract_x
_atom_site_fract_y
_atom_site_fract_z
Si Si1 0.500000 0.519161 0.500000
Si Si2 0.627315 0.858362 0.673027
Si Si3 0.000000 0.234913 0.500000
Si Si4 0.234419 0.585871 0.385090
Si Si5 0.245341 0.175554 0.154987
Si Si6 0.500000 0.983228 0.500000
Si Si7 0.780972 0.833696 0.114195
Si Si8 0.500000 0.432021 0.000000
O O1 0.373886 0.557816 0.427452
O O2 0.555305 0.476856 0.227278
O O3 0.548853 0.784804 0.730159
O O4 0.668327 0.851611 0.351924
O O5 0.544922 0.930577 0.725096
O O6 0.744160 0.859478 0.833098
O O7 0.896213 0.184166 0.671523
O O8 0.176510 0.631723 0.648583
O O9 0.124639 0.527585 0.362269
O O10 0.258290 0.633590 0.118804
O O11 0.314998 0.250695 0.095494
O O12 0.897648 0.880739 0.169881
#
# Coordination Sequence:
#
# PCOD8051033 Si02
#       8
#     2   4   2   4   4   2   4   2
#     4  12  27  46  66  98 131 180 230 272 330 394
#     4  10  23  41  69  98 128 165 227 289 332 379
#     4   9  21  42  70  98 129 169 226 294 336 379
#     4  12  27  44  69  97 142 183 222 272 326 415
#     4  11  25  44  67 101 134 175 226 273 339 402
#     4  11  26  46  68 100 138 183 224 270 340 403
#     4  11  23  42  67  99 129 170 221 286 338 390
#     4  12  24  42  68  92 134 174 220 278 340 400
#
# _framework density 24.075885
#
# number of rings (size 3 to 8) (size 9 to 14) (size 15 to 20)
#    0.000    1.000    0.000    6.500    0.000   16.667 
#    0.000    0.000    0.000    0.000    0.000    0.000 
#    0.000    0.000    0.000    0.000    0.000    0.000 
#
# Total GULP energy -148675.943189 kJ/mol
# GULP energy per Si atom -12389.661932 kJ/mol
# Density = 2.402109 g / cm^3
# Si number density = 24.075885 Si / 1000 Ang^3
#
#
#
# Elastic Constant Matrix: (Units=GPa)
#
#
# Indices 1 2 3 4 5 6 
#
# 1 78.5707 52.5034 24.0618 0.0000 3.4796 0.0000
# 2 52.5034 157.1387 61.4093 0.0000 8.1567 0.0000
# 3 24.0618 61.4093 128.5864 0.0000 21.5542 0.0000
# 4 0.0000 0.0000 0.0000 8.7943 0.0000 -23.3856
# 5 3.4796 8.1567 21.5542 0.0000 31.7919 0.0000
# 6 0.0000 0.0000 0.0000 -23.3856 0.0000 12.4578
#
#
#
# Elastic Compliance Matrix: (Units=1/GPa)
#
#
# Indices 1 2 3 4 5 6 
#
# 1 0.016418 -0.005270 -0.000543 0.000000 -0.000077 0.000000
# 2 -0.005270 0.009525 -0.003667 0.000000 0.000619 0.000000
# 3 -0.000543 -0.003667 0.010675 0.000000 -0.006237 0.000000
# 4 0.000000 0.000000 0.000000 -0.028486 0.000000 -0.053474
# 5 -0.000077 0.000619 -0.006237 0.000000 0.035533 0.000000
# 6 0.000000 0.000000 0.000000 -0.053474 0.000000 -0.020109
#
#
# Mechanical properties :
#
#
# Convention : Reuss Voigt Hill
#
# Bulk Modulus (GPa) = 56.62319 71.13832 63.88075
# Shear Modulus (GPa) = 103.30347 25.69690 64.50019
#
# Velocity S-wave (km/s) = 6.55748 3.27054 5.18156
# Velocity P-wave (km/s) = 8.99465 6.62372 7.89865
#
# Compressibility (1/GPa) = 0.01766061
#
# Stress axis : x y z
#
# Youngs Moduli (GPa) = 60.90749 104.98356 93.67632
#
# Poissons Ratio (x) = 0.55322 0.05084
# Poissons Ratio (y) = 0.32096 0.34348
# Poissons Ratio (z) = 0.03306 0.38494
#
# Static dielectric constant tensor:
#      x y z
#    x 5.205350 0.000000 0.147730 
#    y 0.000000 4.798200 0.000000 
#    z 0.147730 0.000000 4.260770 
# 
# 
# High freq. dielectric constant tensor:
#      x y z
#    x 1.944370 0.000000 0.007900 
#    y 0.000000 1.976920 0.000000 
#    z 0.007900 0.000000 1.957500 
# 
# From -- ./inp_files/5153.got.cif
#   From: 2010.03.12/outbox.cif.g09.slc.cpg/sg5_3_cif.got.tgz:5153.got - 2010.03.31 09:47:26.
