data_PCOD8051218
_publ_section_title
;
Structure prediction by ZEFSAII (Michael W. Deem and Ramdas Pophale) SiO2 
 PCOD8051218
Probable space group: C 2
;
_chemical_formula_sum "Si O2"
_cell_formula_units_Z 18
_cell_length_a 6.946667
_cell_length_b 7.855993
_cell_length_c 18.389205
_cell_angle_alpha 90.000000
_cell_angle_beta 123.521878
_cell_angle_gamma 90.000000
_cell_volume 836.637458
_symmetry_space_group_name_H-M "C 2"
_symmetry_group_IT_number 5
_symmetry_cell_setting 'monoclinic'
loop_
_space_group_symop_operation_xyz
x,y,z
-x,y,-z
1/2+x,1/2+y,z
1/2-x,1/2+y,-z
loop_
_atom_site_type_symbol
_atom_site_label
_atom_site_fract_x
_atom_site_fract_y
_atom_site_fract_z
Si Si1 0.338479 0.176920 0.826723
Si Si2 0.807058 0.000140 0.902968
Si Si3 0.033375 0.637218 0.427007
Si Si4 0.874990 0.007095 0.757429
Si Si5 0.000000 0.964161 0.500000
O O1 0.312957 0.294923 0.893557
O O2 0.361585 0.300641 0.760763
O O3 0.559187 0.056358 0.881587
O O4 0.114617 0.059353 0.769956
O O5 0.857458 0.087409 0.835101
O O6 0.000000 0.060606 0.000000
O O7 0.834235 0.575035 0.333104
O O8 0.022236 0.843226 0.432973
O O9 0.000000 0.553218 0.500000
O O10 0.278037 0.583428 0.444462
#
# Coordination Sequence:
#
# PCOD8051218 Si02
#       5
#     4   4   4   4   2
#     4  10  25  40  65  90 126 160 205 250 305 360
#     4  10  26  40  66  90 126 160 206 250 306 360
#     4  10  24  42  64  92 124 162 204 252 304 362
#     4  10  24  42  64  92 124 162 204 252 304 362
#     4  10  24  40  64  90 126 160 204 250 304 360
#
# _framework density 21.514696000000001
#
# number of rings (size 3 to 8) (size 9 to 14) (size 15 to 20)
#    2.000    0.000    0.000    1.333    7.778    3.556 
#    0.000    0.000    0.000    0.000    0.000    0.000 
#    0.000    0.000    0.000    0.000    0.000    0.000 
#
# Total GULP energy -111530.127324 kJ/mol
# GULP energy per Si atom -12392.236369 kJ/mol
# Density = 2.146573 g / cm^3
# Si number density = 21.514696 Si / 1000 Ang^3
#
#
#
# Elastic Constant Matrix: (Units=GPa)
#
#
# Indices 1 2 3 4 5 6 
#
# 1 149.3770 75.3176 59.2221 0.0000 50.4279 0.0000
# 2 75.3176 81.1723 16.9015 0.0000 10.3791 0.0000
# 3 59.2221 16.9015 134.2425 0.0000 21.0495 0.0000
# 4 0.0000 0.0000 0.0000 11.7494 0.0000 11.2037
# 5 50.4279 10.3791 21.0495 0.0000 44.1468 0.0000
# 6 0.0000 0.0000 0.0000 11.2037 0.0000 56.5340
#
#
#
# Elastic Compliance Matrix: (Units=1/GPa)
#
#
# Indices 1 2 3 4 5 6 
#
# 1 0.028336 -0.021943 -0.005914 0.000000 -0.024389 0.000000
# 2 -0.021943 0.029881 0.003339 0.000000 0.016447 0.000000
# 3 -0.005914 0.003339 0.009405 0.000000 0.001486 0.000000
# 4 0.000000 0.000000 0.000000 0.104942 0.000000 -0.020797
# 5 -0.024389 0.016447 0.001486 0.000000 0.045936 0.000000
# 6 0.000000 0.000000 0.000000 -0.020797 0.000000 0.021810
#
#
# Mechanical properties :
#
#
# Convention : Reuss Voigt Hill
#
# Bulk Modulus (GPa) = 53.79976 74.18603 63.99290
# Shear Modulus (GPa) = 16.91813 36.70940 26.81377
#
# Velocity S-wave (km/s) = 2.80724 4.13516 3.53413
# Velocity P-wave (km/s) = 5.96387 7.57336 6.81629
#
# Compressibility (1/GPa) = 0.01858744
#
# Stress axis : x y z
#
# Youngs Moduli (GPa) = 35.29036 33.46594 106.32926
#
# Poissons Ratio (x) = 0.73433 0.62882
# Poissons Ratio (y) = 0.77436 -0.35504
# Poissons Ratio (z) = 0.20870 -0.11175
#
# Static dielectric constant tensor:
#      x y z
#    x 4.013000 0.000000 0.150250 
#    y 0.000000 3.692630 0.000000 
#    z 0.150250 0.000000 3.658420 
# 
# 
# High freq. dielectric constant tensor:
#      x y z
#    x 1.845650 0.000000 0.014100 
#    y 0.000000 1.831560 0.000000 
#    z 0.014100 0.000000 1.836240 
# 
# From -- ./inp_files/58441.got.cif
#   From: 2010.03.12/outbox.cif.g09.slc.cpg/sg5_30_cif.got.tgz:58441.got - 2010.03.31 09:47:26.
