data_PCOD8051706
_publ_section_title
;
Structure prediction by ZEFSAII (Michael W. Deem and Ramdas Pophale) SiO2 
 PCOD8051706
Probable space group: C 2
;
_chemical_formula_sum "Si O2"
_cell_formula_units_Z 28
_cell_length_a 22.935266
_cell_length_b 5.184773
_cell_length_c 12.351224
_cell_angle_alpha 90.000000
_cell_angle_beta 67.857560
_cell_angle_gamma 90.000000
_cell_volume 1360.415611
_symmetry_space_group_name_H-M "C 2"
_symmetry_group_IT_number 5
_symmetry_cell_setting 'monoclinic'
loop_
_space_group_symop_operation_xyz
x,y,z
-x,y,-z
1/2+x,1/2+y,z
1/2-x,1/2+y,-z
loop_
_atom_site_type_symbol
_atom_site_label
_atom_site_fract_x
_atom_site_fract_y
_atom_site_fract_z
Si Si1 0.303693 0.617430 0.833759
Si Si2 0.062581 0.882637 0.886670
Si Si3 0.326837 0.318106 0.031395
Si Si4 0.114590 0.821315 0.360657
Si Si5 0.903299 0.506514 0.818601
Si Si6 0.458484 0.884704 0.233039
Si Si7 0.932600 0.340768 0.498853
O O1 0.235502 0.736393 0.859360
O O2 0.315412 0.397039 0.733714
O O3 0.362625 0.810811 0.773066
O O4 0.306480 0.527247 0.956518
O O5 0.123230 0.925770 0.919072
O O6 0.069977 0.644471 0.798835
O O7 0.061618 0.145756 0.823459
O O8 0.000000 0.835377 0.000000
O O9 0.359143 0.076414 0.950161
O O10 0.077699 0.748162 0.273199
O O11 0.116913 0.565020 0.432890
O O12 0.082786 0.055173 0.447382
O O13 0.965953 0.381496 0.820804
O O14 0.431689 0.839978 0.370818
O O15 0.000000 0.425530 0.500000
#
# Coordination Sequence:
#
# PCOD8051706 Si02
#       7
#     4   4   4   4   4   4   4
#     4  11  22  41  68 102 130 172 222 283 326 391
#     4  12  26  43  64  96 140 182 207 262 332 414
#     4  11  24  39  69  99 140 172 224 268 337 394
#     4  11  23  39  63 101 128 167 219 281 337 377
#     4  11  22  41  63 102 133 169 216 274 336 395
#     4  12  26  42  65  97 138 172 221 263 335 407
#     4  12  23  39  67  95 133 173 221 282 333 380
#
# _framework density 20.581947
#
# number of rings (size 3 to 8) (size 9 to 14) (size 15 to 20)
#    0.000    0.571    5.714    2.571    6.000    0.000 
#    0.000    0.000    0.000    3.429    0.000    0.000 
#    0.000    0.000    0.000    0.000    0.000    0.000 
#
# Total GULP energy -173555.979786 kJ/mol
# GULP energy per Si atom -12396.855699 kJ/mol
# Density = 2.053510 g / cm^3
# Si number density = 20.581947 Si / 1000 Ang^3
#
#
#
# Elastic Constant Matrix: (Units=GPa)
#
#
# Indices 1 2 3 4 5 6 
#
# 1 140.0079 -75.9913 -65.4147 0.0000 -59.7466 0.0000
# 2 -75.9913 531.9655 403.9903 0.0000 206.1236 0.0000
# 3 -65.4147 403.9903 418.3371 0.0000 191.5209 0.0000
# 4 0.0000 0.0000 0.0000 -5.2655 0.0000 48.1254
# 5 -59.7466 206.1236 191.5209 0.0000 127.6986 0.0000
# 6 0.0000 0.0000 0.0000 48.1254 0.0000 -24.8713
#
#
#
# Elastic Compliance Matrix: (Units=1/GPa)
#
#
# Indices 1 2 3 4 5 6 
#
# 1 0.009300 -0.000210 -0.001565 0.000000 0.007036 0.000000
# 2 -0.000210 0.007660 -0.005503 0.000000 -0.004209 0.000000
# 3 -0.001565 -0.005503 0.011898 0.000000 -0.009694 0.000000
# 4 0.000000 0.000000 0.000000 0.011382 0.000000 0.022024
# 5 0.007036 -0.004209 -0.009694 0.000000 0.032455 0.000000
# 6 0.000000 0.000000 0.000000 0.022024 0.000000 0.002410
#
#
# Mechanical properties :
#
#
# Convention : Reuss Voigt Hill
#
# Bulk Modulus (GPa) = 69.91288 179.49767 124.70528
# Shear Modulus (GPa) = 52.95004 74.69412 63.82208
#
# Velocity S-wave (km/s) = 5.07763 6.03074 5.57459
# Velocity P-wave (km/s) = 8.27153 11.65735 10.10722
#
# Compressibility (1/GPa) = 0.01430352
#
# Stress axis : x y z
#
# Youngs Moduli (GPa) = 107.52324 130.54916 84.04528
#
# Poissons Ratio (x) = 0.02737 0.13150
# Poissons Ratio (y) = 0.02254 0.46253
# Poissons Ratio (z) = 0.16823 0.71845
#
# Static dielectric constant tensor:
#      x y z
#    x 3.698190 0.000000 0.361840 
#    y 0.000000 3.811990 0.000000 
#    z 0.361840 0.000000 5.022260 
# 
# 
# High freq. dielectric constant tensor:
#      x y z
#    x 1.764890 0.000000 -0.008390 
#    y 0.000000 1.824720 0.000000 
#    z -0.008390 0.000000 1.816410 
# 
# From -- ./inp_files/45630.got.cif
#   From: 2010.03.12/outbox.cif.g09.slc.cpg/sg5_23_cif.got.tgz:45630.got - 2010.03.31 09:47:26.
