data_PCOD8051196
_publ_section_title
;
Structure prediction by ZEFSAII (Michael W. Deem and Ramdas Pophale) SiO2 
 PCOD8051196
Probable space group: C 2
;
_chemical_formula_sum "Si O2"
_cell_formula_units_Z 30
_cell_length_a 9.186272
_cell_length_b 10.591155
_cell_length_c 13.971144
_cell_angle_alpha 90.000000
_cell_angle_beta 107.947916
_cell_angle_gamma 90.000000
_cell_volume 1293.150272
_symmetry_space_group_name_H-M "C 2"
_symmetry_group_IT_number 5
_symmetry_cell_setting 'monoclinic'
loop_
_space_group_symop_operation_xyz
x,y,z
-x,y,-z
1/2+x,1/2+y,z
1/2-x,1/2+y,-z
loop_
_atom_site_type_symbol
_atom_site_label
_atom_site_fract_x
_atom_site_fract_y
_atom_site_fract_z
Si Si1 0.881258 0.110890 0.116622
Si Si2 0.619266 0.744381 0.702671
Si Si3 0.441622 0.980230 0.688355
Si Si4 0.000000 0.940076 0.000000
Si Si5 0.210348 0.763427 0.938290
Si Si6 0.528495 0.252901 0.274711
Si Si7 0.412572 0.474468 0.385678
Si Si8 0.900128 0.464567 0.892672
O O1 0.931659 0.225454 0.195279
O O2 0.020144 0.025644 0.101860
O O3 0.765050 0.030620 0.159952
O O4 0.779311 0.141900 0.002931
O O5 0.536653 0.873036 0.650442
O O6 0.798400 0.766242 0.725883
O O7 0.556282 0.620879 0.634783
O O8 0.265424 0.948504 0.633429
O O9 0.486953 0.971844 0.809976
O O10 0.484403 0.123757 0.663842
O O11 0.848675 0.856572 0.988262
O O12 0.356986 0.821514 0.913019
O O13 0.070798 0.730770 0.840749
O O14 0.476564 0.377749 0.319116
O O15 0.500000 0.442099 0.500000
O O16 0.000000 0.525640 0.000000
#
# Coordination Sequence:
#
# PCOD8051196 Si02
#       8
#     4   4   4   2   4   4   4   4
#     4  11  22  37  59  91 132 184 227 277 331 396
#     4  11  25  44  70 102 140 175 229 289 346 415
#     4  11  24  44  68 101 134 177 226 281 343 414
#     4  10  24  34  50  88 122 170 242 268 316 396
#     4  11  22  36  60  88 131 183 228 273 329 397
#     4  11  23  45  68 101 138 178 227 286 348 414
#     4  11  25  49  75  99 136 180 227 290 354 410
#     4  11  21  38  57  92 136 178 227 277 329 398
#
# _framework density 23.199159999999999
#
# number of rings (size 3 to 8) (size 9 to 14) (size 15 to 20)
#    0.000    1.067    4.000    3.200    3.733    6.400 
#    0.000    0.667    0.000    0.000    0.000    0.000 
#    0.000    0.000    0.000    0.000    0.000    0.000 
#
# Total GULP energy -185897.452975 kJ/mol
# GULP energy per Si atom -12393.163532 kJ/mol
# Density = 2.314636 g / cm^3
# Si number density = 23.199160 Si / 1000 Ang^3
#
#
#
# Elastic Constant Matrix: (Units=GPa)
#
#
# Indices 1 2 3 4 5 6 
#
# 1 67.4972 40.4285 17.1689 0.0000 6.9039 0.0000
# 2 40.4285 121.7408 13.0824 0.0000 2.3838 0.0000
# 3 17.1689 13.0824 81.8641 0.0000 18.4969 0.0000
# 4 0.0000 0.0000 0.0000 21.6584 0.0000 4.8523
# 5 6.9039 2.3838 18.4969 0.0000 21.7623 0.0000
# 6 0.0000 0.0000 0.0000 4.8523 0.0000 27.9203
#
#
#
# Elastic Compliance Matrix: (Units=1/GPa)
#
#
# Indices 1 2 3 4 5 6 
#
# 1 0.019439 -0.006139 -0.002295 0.000000 -0.003544 0.000000
# 2 -0.006139 0.010298 -0.000672 0.000000 0.001391 0.000000
# 3 -0.002295 -0.000672 0.015623 0.000000 -0.012477 0.000000
# 4 0.000000 0.000000 0.000000 0.048042 0.000000 -0.008349
# 5 -0.003544 0.001391 -0.012477 0.000000 0.057528 0.000000
# 6 0.000000 0.000000 0.000000 -0.008349 0.000000 0.037267
#
#
# Mechanical properties :
#
#
# Convention : Reuss Voigt Hill
#
# Bulk Modulus (GPa) = 36.83700 45.82906 41.33303
# Shear Modulus (GPa) = 23.20615 27.62970 25.41792
#
# Velocity S-wave (km/s) = 3.16619 3.45480 3.31364
# Velocity P-wave (km/s) = 5.41104 5.97593 5.70048
#
# Compressibility (1/GPa) = 0.02714662
#
# Stress axis : x y z
#
# Youngs Moduli (GPa) = 51.44312 97.10619 64.00667
#
# Poissons Ratio (x) = 0.59617 0.14690
# Poissons Ratio (y) = 0.31583 0.04304
# Poissons Ratio (z) = 0.11806 0.06530
#
# Static dielectric constant tensor:
#      x y z
#    x 4.021560 0.000000 -0.014570 
#    y 0.000000 4.513580 0.000000 
#    z -0.014570 0.000000 3.825750 
# 
# 
# High freq. dielectric constant tensor:
#      x y z
#    x 1.910500 0.000000 0.003330 
#    y 0.000000 1.938080 0.000000 
#    z 0.003330 0.000000 1.877750 
# 
# From -- ./inp_files/50524.got.cif
#   From: 2010.03.12/outbox.cif.g09.slc.cpg/sg5_26_cif.got.tgz:50524.got - 2010.03.31 09:47:26.
