data_PCOD8051076
_publ_section_title
;
Structure prediction by ZEFSAII (Michael W. Deem and Ramdas Pophale) SiO2 
 PCOD8051076
Probable space group: C 2
;
_chemical_formula_sum "Si O2"
_cell_formula_units_Z 32
_cell_length_a 13.149039
_cell_length_b 21.401725
_cell_length_c 13.445808
_cell_angle_alpha 90.000000
_cell_angle_beta 158.373048
_cell_angle_gamma 90.000000
_cell_volume 1394.569339
_symmetry_space_group_name_H-M "C 2"
_symmetry_group_IT_number 5
_symmetry_cell_setting 'monoclinic'
loop_
_space_group_symop_operation_xyz
x,y,z
-x,y,-z
1/2+x,1/2+y,z
1/2-x,1/2+y,-z
loop_
_atom_site_type_symbol
_atom_site_label
_atom_site_fract_x
_atom_site_fract_y
_atom_site_fract_z
Si Si1 0.201234 0.242430 0.019925
Si Si2 0.391303 0.013547 0.151584
Si Si3 0.713321 0.342313 0.280794
Si Si4 0.869072 0.933947 0.626121
Si Si5 0.208177 0.583359 0.278097
Si Si6 0.054973 0.713716 0.166149
Si Si7 0.776500 0.617515 0.207928
Si Si8 0.358629 0.321350 0.478263
O O1 0.266013 0.218288 0.966447
O O2 0.190273 0.184902 0.086584
O O3 0.466026 0.283194 0.284366
O O4 0.938118 0.287391 0.792885
O O5 0.599709 0.029919 0.251915
O O6 0.363963 0.073260 0.197395
O O7 0.563381 0.961552 0.367538
O O8 0.106046 0.987557 0.845347
O O9 0.571731 0.389422 0.227778
O O10 0.750339 0.273940 0.365518
O O11 0.000000 0.368390 0.500000
O O12 0.500000 0.333311 0.000000
O O13 0.852863 0.893556 0.509473
O O14 0.500000 0.562341 0.500000
O O15 0.219785 0.650365 0.346644
O O16 0.000000 0.591086 0.000000
O O17 0.000000 0.709686 0.000000
O O18 0.000000 0.623677 0.500000
O O19 0.500000 0.586433 0.000000
O O20 0.500000 0.320030 0.500000
#
# Coordination Sequence:
#
# PCOD8051076 Si02
#       8
#     4   4   4   4   4   4   4   4
#     4  12  24  46  75 106 144 180 236 298 374 439
#     4  12  27  47  69 103 140 191 245 291 347 420
#     4  11  24  42  68 100 136 176 226 288 364 431
#     4  12  27  45  71  99 141 190 244 291 351 419
#     4  11  24  45  72 103 141 180 229 291 366 430
#     4  10  23  42  73 109 139 177 223 295 374 442
#     4  12  26  47  74 107 144 191 239 298 362 433
#     4  12  27  46  72 104 142 188 240 301 362 431
#
# _framework density 22.946149999999999
#
# number of rings (size 3 to 8) (size 9 to 14) (size 15 to 20)
#    0.000    0.500    2.500    5.625    3.500    6.500 
#    0.000    0.000    0.000    0.000    0.000    0.000 
#    0.000    0.000    0.000    0.000    0.000    0.000 
#
# Total GULP energy -198323.149485 kJ/mol
# GULP energy per Si atom -12395.196843 kJ/mol
# Density = 2.289392 g / cm^3
# Si number density = 22.946150 Si / 1000 Ang^3
#
#
#
# Elastic Constant Matrix: (Units=GPa)
#
#
# Indices 1 2 3 4 5 6 
#
# 1 138.8730 33.4827 46.4371 0.0031 15.7353 -0.0023
# 2 33.4827 108.7758 47.9696 -0.0009 0.0230 -0.0034
# 3 46.4371 47.9696 190.9238 -0.0055 29.5903 -0.0100
# 4 0.0031 -0.0009 -0.0055 36.4425 0.0028 3.4648
# 5 15.7353 0.0230 29.5903 0.0028 40.1663 -0.0027
# 6 -0.0023 -0.0034 -0.0100 3.4648 -0.0027 30.5828
#
#
#
# Elastic Compliance Matrix: (Units=1/GPa)
#
#
# Indices 1 2 3 4 5 6 
#
# 1 0.008356 -0.002071 -0.001134 -0.000001 -0.002437 0.000000
# 2 -0.002071 0.011020 -0.002698 0.000000 0.002793 0.000000
# 3 -0.001134 -0.002698 0.006911 0.000001 -0.004646 0.000001
# 4 -0.000001 0.000000 0.000001 0.027739 -0.000003 -0.003143
# 5 -0.002437 0.002793 -0.004646 -0.000003 0.029272 0.000002
# 6 0.000000 0.000000 0.000001 -0.003143 0.000002 0.033054
#
#
# Mechanical properties :
#
#
# Convention : Reuss Voigt Hill
#
# Bulk Modulus (GPa) = 69.05923 77.15015 73.10469
# Shear Modulus (GPa) = 37.59810 42.15054 39.87432
#
# Velocity S-wave (km/s) = 4.05228 4.29060 4.17314
# Velocity P-wave (km/s) = 7.21499 7.63157 7.42620
#
# Compressibility (1/GPa) = 0.01448032
#
# Stress axis : x y z
#
# Youngs Moduli (GPa) = 119.68078 90.74498 144.68861
#
# Poissons Ratio (x) = 0.18796 0.16411
# Poissons Ratio (y) = 0.24789 0.39034
# Poissons Ratio (z) = 0.13575 0.24481
#
# Static dielectric constant tensor:
#      x y z
#    x 4.218880 -0.000030 0.016840 
#    y -0.000030 4.415570 -0.000060 
#    z 0.016840 -0.000060 3.935440 
# 
# 
# High freq. dielectric constant tensor:
#      x y z
#    x 1.922180 0.000000 0.005120 
#    y 0.000000 1.919160 0.000000 
#    z 0.005120 0.000000 1.899180 
# 
# From -- ./inp_files/55035.got.cif
#   From: 2010.03.12/outbox.cif.g09.slc.cpg/sg5_28_cif.got.tgz:55035.got - 2010.03.31 09:47:26.
