data_PCOD8051893
_publ_section_title
;
Structure prediction by ZEFSAII (Michael W. Deem and Ramdas Pophale) SiO2 
 PCOD8051893
Probable space group: C 2
;
_chemical_formula_sum "Si O2"
_cell_formula_units_Z 24
_cell_length_a 20.849892
_cell_length_b 10.595599
_cell_length_c 8.282193
_cell_angle_alpha 90.000000
_cell_angle_beta 147.722678
_cell_angle_gamma 90.000000
_cell_volume 977.080534
_symmetry_space_group_name_H-M "C 2"
_symmetry_group_IT_number 5
_symmetry_cell_setting 'monoclinic'
loop_
_space_group_symop_operation_xyz
x,y,z
-x,y,-z
1/2+x,1/2+y,z
1/2-x,1/2+y,-z
loop_
_atom_site_type_symbol
_atom_site_label
_atom_site_fract_x
_atom_site_fract_y
_atom_site_fract_z
Si Si1 0.478205 0.384280 0.128053
Si Si2 0.163836 0.478890 0.658916
Si Si3 0.741781 0.237620 0.286637
Si Si4 0.331447 0.637909 0.813826
Si Si5 0.224984 0.981299 0.766350
Si Si6 0.942028 0.394647 0.051807
O O1 0.597677 0.410459 0.485127
O O2 0.500000 0.323722 0.000000
O O3 0.395963 0.280691 0.043759
O O4 0.408527 0.514157 0.944709
O O5 0.178980 0.362274 0.565148
O O6 0.231195 0.605296 0.738028
O O7 0.018514 0.481337 0.343380
O O8 0.213824 0.436596 0.938080
O O9 0.760783 0.186119 0.507081
O O10 0.785993 0.132923 0.252835
O O11 0.427217 0.746386 0.069559
O O12 0.306231 0.948703 0.781796
O O13 0.000000 0.415713 0.000000
#
# Coordination Sequence:
#
# PCOD8051893 Si02
#       6
#     4   4   4   4   4   4
#     4  11  23  45  76 108 143 194 252 302 374 446
#     4  11  27  47  72 112 147 193 253 306 388 439
#     4  11  24  46  75 104 144 192 250 309 369 454
#     4  11  23  46  81 105 141 197 253 310 367 453
#     4  12  27  46  70 110 154 193 248 317 377 439
#     4  12  24  46  75 103 149 197 254 306 366 449
#
# _framework density 24.562971000000001
#
# number of rings (size 3 to 8) (size 9 to 14) (size 15 to 20)
#    0.000    0.667    3.333    4.000    2.333    6.000 
#    6.000    0.000    0.000    0.000    0.000    0.000 
#    0.000    0.000    0.000    0.000    0.000    0.000 
#
# Total GULP energy -148714.694273 kJ/mol
# GULP energy per Si atom -12392.891189 kJ/mol
# Density = 2.450706 g / cm^3
# Si number density = 24.562971 Si / 1000 Ang^3
#
#
#
# Elastic Constant Matrix: (Units=GPa)
#
#
# Indices 1 2 3 4 5 6 
#
# 1 65.5361 19.3039 37.5307 0.0000 5.0817 0.0000
# 2 19.3039 53.0477 32.8820 0.0000 -11.0296 0.0000
# 3 37.5307 32.8820 167.0279 0.0000 7.4966 0.0000
# 4 0.0000 0.0000 0.0000 37.6153 0.0000 14.1286
# 5 5.0817 -11.0296 7.4966 0.0000 34.0144 0.0000
# 6 0.0000 0.0000 0.0000 14.1286 0.0000 41.0258
#
#
#
# Elastic Compliance Matrix: (Units=1/GPa)
#
#
# Indices 1 2 3 4 5 6 
#
# 1 0.019004 -0.005972 -0.002909 0.000000 -0.004135 0.000000
# 2 -0.005972 0.025726 -0.004178 0.000000 0.010155 0.000000
# 3 -0.002909 -0.004178 0.007580 0.000000 -0.002591 0.000000
# 4 0.000000 0.000000 0.000000 0.030535 0.000000 -0.010516
# 5 -0.004135 0.010155 -0.002591 0.000000 0.033881 0.000000
# 6 0.000000 0.000000 0.000000 -0.010516 0.000000 0.027996
#
#
# Mechanical properties :
#
#
# Convention : Reuss Voigt Hill
#
# Bulk Modulus (GPa) = 38.18167 51.67164 44.92666
# Shear Modulus (GPa) = 27.84423 35.59078 31.71750
#
# Velocity S-wave (km/s) = 3.37053 3.81065 3.59733
# Velocity P-wave (km/s) = 5.54305 6.35952 5.96527
#
# Compressibility (1/GPa) = 0.02619058
#
# Stress axis : x y z
#
# Youngs Moduli (GPa) = 52.61946 38.87179 131.93482
#
# Poissons Ratio (x) = 0.23215 0.38379
# Poissons Ratio (y) = 0.31425 0.55127
# Poissons Ratio (z) = 0.15307 0.16242
#
# Static dielectric constant tensor:
#      x y z
#    x 4.386640 0.000000 0.447340 
#    y 0.000000 4.670220 0.000000 
#    z 0.447340 0.000000 4.478330 
# 
# 
# High freq. dielectric constant tensor:
#      x y z
#    x 1.964050 0.000000 0.021510 
#    y 0.000000 1.978380 0.000000 
#    z 0.021510 0.000000 1.982740 
# 
# From -- ./inp_files/30966.got.cif
#   From: 2010.03.12/outbox.cif.g09.slc.cpg/sg5_16_cif.got.tgz:30966.got - 2010.03.31 09:47:26.
