data_PCOD8051388
_publ_section_title
;
Structure prediction by ZEFSAII (Michael W. Deem and Ramdas Pophale) SiO2 
 PCOD8051388
Probable space group: C 2
;
_chemical_formula_sum "Si O2"
_cell_formula_units_Z 24
_cell_length_a 14.036758
_cell_length_b 5.626939
_cell_length_c 19.825310
_cell_angle_alpha 90.000000
_cell_angle_beta 139.071421
_cell_angle_gamma 90.000000
_cell_volume 1025.837033
_symmetry_space_group_name_H-M "C 2"
_symmetry_group_IT_number 5
_symmetry_cell_setting 'monoclinic'
loop_
_space_group_symop_operation_xyz
x,y,z
-x,y,-z
1/2+x,1/2+y,z
1/2-x,1/2+y,-z
loop_
_atom_site_type_symbol
_atom_site_label
_atom_site_fract_x
_atom_site_fract_y
_atom_site_fract_z
Si Si1 0.300540 0.362730 0.059252
Si Si2 0.935993 0.533860 0.597717
Si Si3 0.121540 0.037245 0.227325
Si Si4 0.276198 0.289989 0.198782
Si Si5 0.138410 0.166363 0.658982
Si Si6 0.772084 0.849861 0.407975
O O1 0.473370 0.391650 0.151513
O O2 0.238984 0.309337 0.100471
O O3 0.234741 0.618947 0.000597
O O4 0.884420 0.684083 0.506791
O O5 0.805004 0.526927 0.580853
O O6 0.076377 0.644210 0.709069
O O7 0.979461 0.273790 0.591333
O O8 0.255513 0.865548 0.311877
O O9 0.139950 0.166559 0.164459
O O10 0.136555 0.220349 0.297589
O O11 0.296314 0.555246 0.237724
O O12 0.126214 0.973229 0.593497
#
# Coordination Sequence:
#
# PCOD8051388 Si02
#       6
#     4   4   4   4   4   4
#     4  12  30  50  80 112 150 198 256 324 390 452
#     4  11  26  43  70 108 146 198 242 301 374 453
#     4  10  25  48  75 105 144 194 244 313 377 454
#     4  10  25  48  75 105 144 194 244 313 377 454
#     4  10  24  47  73  96 154 184 253 302 371 452
#     4  11  26  43  70 108 146 198 242 301 374 453
#
# _framework density 23.395530000000001
#
# number of rings (size 3 to 8) (size 9 to 14) (size 15 to 20)
#    0.000    1.333    0.000    2.000   18.667    8.000 
#    0.000    0.000    0.000    0.000    0.000    0.000 
#    0.000    0.000    0.000    0.000    0.000    0.000 
#
# Total GULP energy -148777.847509 kJ/mol
# GULP energy per Si atom -12398.153959 kJ/mol
# Density = 2.334228 g / cm^3
# Si number density = 23.395530 Si / 1000 Ang^3
#
#
#
# Elastic Constant Matrix: (Units=GPa)
#
#
# Indices 1 2 3 4 5 6 
#
# 1 80.2218 23.8836 31.8596 0.0000 -30.0325 -0.0003
# 2 23.8836 103.8647 33.5024 -0.0001 -21.6026 -0.0006
# 3 31.8596 33.5024 82.7869 0.0000 -26.4154 0.0001
# 4 0.0000 -0.0001 0.0000 34.9033 0.0000 5.2046
# 5 -30.0325 -21.6026 -26.4154 0.0000 42.9755 0.0000
# 6 -0.0003 -0.0006 0.0001 5.2046 0.0000 42.1335
#
#
#
# Elastic Compliance Matrix: (Units=1/GPa)
#
#
# Indices 1 2 3 4 5 6 
#
# 1 0.017768 -0.000965 -0.003284 0.000000 0.009913 0.000000
# 2 -0.000965 0.011565 -0.003320 0.000000 0.003099 0.000000
# 3 -0.003284 -0.003320 0.016697 0.000000 0.006298 0.000000
# 4 0.000000 0.000000 0.000000 0.029188 0.000000 -0.003606
# 5 0.009913 0.003099 0.006298 0.000000 0.035626 0.000000
# 6 0.000000 0.000000 0.000000 -0.003606 0.000000 0.024179
#
#
# Mechanical properties :
#
#
# Convention : Reuss Voigt Hill
#
# Bulk Modulus (GPa) = 32.37159 49.48494 40.92826
# Shear Modulus (GPa) = 31.16057 35.84431 33.50244
#
# Velocity S-wave (km/s) = 3.65348 3.91845 3.78829
# Velocity P-wave (km/s) = 5.62707 6.45521 6.05531
#
# Compressibility (1/GPa) = 0.03089129
#
# Stress axis : x y z
#
# Youngs Moduli (GPa) = 56.28028 86.46651 59.89248
#
# Poissons Ratio (x) = 0.08340 0.19672
# Poissons Ratio (y) = 0.05428 0.19886
# Poissons Ratio (z) = 0.18485 0.28710
#
# Static dielectric constant tensor:
#      x y z
#    x 4.351580 0.000000 -0.159940 
#    y 0.000000 4.613480 0.000000 
#    z -0.159940 0.000000 4.004670 
# 
# 
# High freq. dielectric constant tensor:
#      x y z
#    x 1.940830 0.000000 -0.006490 
#    y 0.000000 1.939770 0.000000 
#    z -0.006490 0.000000 1.911670 
# 
# From -- ./inp_files/65626.got.cif
#   From: 2010.03.12/outbox.cif.g09.slc.cpg/sg5_33_cif.got.tgz:65626.got - 2010.03.31 09:47:26.
