data_PCOD8051003
_publ_section_title
;
Structure prediction by ZEFSAII (Michael W. Deem and Ramdas Pophale) SiO2 
 PCOD8051003
Probable space group: C 2
;
_chemical_formula_sum "Si O2"
_cell_formula_units_Z 24
_cell_length_a 14.156942
_cell_length_b 6.449317
_cell_length_c 19.866205
_cell_angle_alpha 90.000000
_cell_angle_beta 37.050640
_cell_angle_gamma 90.000000
_cell_volume 1092.873827
_symmetry_space_group_name_H-M "C 2"
_symmetry_group_IT_number 5
_symmetry_cell_setting 'monoclinic'
loop_
_space_group_symop_operation_xyz
x,y,z
-x,y,-z
1/2+x,1/2+y,z
1/2-x,1/2+y,-z
loop_
_atom_site_type_symbol
_atom_site_label
_atom_site_fract_x
_atom_site_fract_y
_atom_site_fract_z
Si Si1 0.573250 0.626720 0.154710
Si Si2 0.772829 0.834216 0.824459
Si Si3 0.443250 0.422582 0.423312
Si Si4 0.500000 0.756127 0.500000
Si Si5 0.000000 0.613398 0.000000
Si Si6 0.754445 0.068363 0.400231
Si Si7 0.803985 0.956316 0.050112
O O1 0.646254 0.441842 0.157338
O O2 0.387274 0.634739 0.271574
O O3 0.631733 0.859392 0.137864
O O4 0.623312 0.591956 0.050037
O O5 0.710119 0.604585 0.877129
O O6 0.899546 0.812306 0.693314
O O7 0.623199 0.972623 0.888204
O O8 0.504637 0.620494 0.429580
O O9 0.354513 0.266071 0.523180
O O10 0.328300 0.488683 0.428234
O O11 0.655750 0.894155 0.417610
O O12 0.083878 0.758750 0.006139
#
# Coordination Sequence:
#
# PCOD8051003 Si02
#       7
#     4   4   4   2   2   4   4
#     4  10  23  40  70  99 131 177 227 279 353 413
#     4  10  23  43  67 100 136 179 224 290 346 410
#     4  11  25  47  72 103 141 184 240 295 354 418
#     4  12  26  48  72 106 138 190 238 286 364 420
#     4  10  24  40  62  98 132 180 218 274 352 400
#     4  11  25  46  72 103 141 186 235 300 351 415
#     4  11  21  43  66  98 134 174 225 282 343 419
#
# _framework density 21.960450999999999
#
# number of rings (size 3 to 8) (size 9 to 14) (size 15 to 20)
#    0.000    1.333    3.333    1.000    4.667    1.333 
#    9.000    0.000    0.000    0.000    0.000    0.000 
#    0.000    0.000    0.000    0.000    0.000    0.000 
#
# Total GULP energy -148808.290703 kJ/mol
# GULP energy per Si atom -12400.690892 kJ/mol
# Density = 2.191047 g / cm^3
# Si number density = 21.960451 Si / 1000 Ang^3
#
#
#
# Elastic Constant Matrix: (Units=GPa)
#
#
# Indices 1 2 3 4 5 6 
#
# 1 86.8207 45.4477 42.7189 0.0001 -17.4844 0.0000
# 2 45.4477 139.9854 74.3282 0.0007 -15.1459 -0.0002
# 3 42.7189 74.3282 169.0728 0.0007 -24.1083 -0.0002
# 4 0.0001 0.0007 0.0007 36.2686 -0.0003 -3.2342
# 5 -17.4844 -15.1459 -24.1083 -0.0003 24.8669 0.0002
# 6 0.0000 -0.0002 -0.0002 -3.2342 0.0002 35.8611
#
#
#
# Elastic Compliance Matrix: (Units=1/GPa)
#
#
# Indices 1 2 3 4 5 6 
#
# 1 0.015518 -0.003539 -0.001296 0.000000 0.007500 0.000000
# 2 -0.003539 0.010210 -0.003554 0.000000 0.000285 0.000000
# 3 -0.001296 -0.003554 0.008547 0.000000 0.005211 0.000000
# 4 0.000000 0.000000 0.000000 0.027796 0.000000 0.002507
# 5 0.007500 0.000285 0.005211 0.000000 0.050713 0.000000
# 6 0.000000 0.000000 0.000000 0.002507 0.000000 0.028111
#
#
# Mechanical properties :
#
#
# Convention : Reuss Voigt Hill
#
# Bulk Modulus (GPa) = 57.14565 80.09652 68.62109
# Shear Modulus (GPa) = 30.57988 34.95825 32.76906
#
# Velocity S-wave (km/s) = 3.73567 3.99416 3.86707
# Velocity P-wave (km/s) = 6.68472 7.60416 7.15922
#
# Compressibility (1/GPa) = 0.01749914
#
# Stress axis : x y z
#
# Youngs Moduli (GPa) = 64.44003 97.93968 116.99388
#
# Poissons Ratio (x) = 0.34658 0.15161
# Poissons Ratio (y) = 0.22803 0.41579
# Poissons Ratio (z) = 0.08351 0.34807
#
# Static dielectric constant tensor:
#      x y z
#    x 3.925910 0.000000 -0.289820 
#    y 0.000000 4.034950 0.000000 
#    z -0.289820 0.000000 4.072240 
# 
# 
# High freq. dielectric constant tensor:
#      x y z
#    x 1.858330 0.000000 -0.014740 
#    y 0.000000 1.873390 0.000000 
#    z -0.014740 0.000000 1.868340 
# 
# From -- ./inp_files/43725.got.cif
#   From: 2010.03.12/outbox.cif.g09.slc.cpg/sg5_22_cif.got.tgz:43725.got - 2010.03.31 09:47:26.
