data_PCOD8051491
_publ_section_title
;
Structure prediction by ZEFSAII (Michael W. Deem and Ramdas Pophale) SiO2 
 PCOD8051491
Probable space group: C 2
;
_chemical_formula_sum "Si O2"
_cell_formula_units_Z 14
_cell_length_a 11.990384
_cell_length_b 9.717373
_cell_length_c 4.893238
_cell_angle_alpha 90.000000
_cell_angle_beta 122.123281
_cell_angle_gamma 90.000000
_cell_volume 482.851381
_symmetry_space_group_name_H-M "C 2"
_symmetry_group_IT_number 5
_symmetry_cell_setting 'monoclinic'
loop_
_space_group_symop_operation_xyz
x,y,z
-x,y,-z
1/2+x,1/2+y,z
1/2-x,1/2+y,-z
loop_
_atom_site_type_symbol
_atom_site_label
_atom_site_fract_x
_atom_site_fract_y
_atom_site_fract_z
Si Si1 0.911488 0.417600 0.148378
Si Si2 0.000000 0.672310 0.500000
Si Si3 0.406788 0.634119 0.629326
Si Si4 0.701090 0.343445 0.496793
O O1 0.000000 0.332327 0.500000
O O2 0.885608 0.571289 0.232753
O O3 0.772113 0.349841 0.890135
O O4 0.000000 0.441841 0.000000
O O5 0.062663 0.766688 0.347274
O O6 0.500000 0.587831 0.500000
O O7 0.327014 0.499707 0.637458
O O8 0.299304 0.756874 0.425612
O O9 0.500000 0.690367 0.000000
#
# Coordination Sequence:
#
# PCOD8051491 Si02
#       4
#     4   2   4   4
#     4  10  25  51  74 116 156 214 268 332 409 481
#     4  10  26  50  80 120 164 220 272 338 426 484
#     4  12  32  55  84 129 166 223 284 340 423 501
#     4  12  27  55  85 120 174 214 278 353 408 503
#
# _framework density 28.994426000000001
#
# number of rings (size 3 to 8) (size 9 to 14) (size 15 to 20)
#    0.857    0.000    1.429    2.571    4.000   10.286 
#    7.714    0.000    0.000    0.000    0.000    0.000 
#    0.000    0.000    0.000    0.000    0.000    0.000 
#
# Total GULP energy -86724.339675 kJ/mol
# GULP energy per Si atom -12389.191382 kJ/mol
# Density = 2.892843 g / cm^3
# Si number density = 28.994426 Si / 1000 Ang^3
#
#
#
# Elastic Constant Matrix: (Units=GPa)
#
#
# Indices 1 2 3 4 5 6 
#
# 1 142.8840 22.0533 -13.8900 0.0000 10.8471 0.0000
# 2 22.0533 167.5485 -29.9551 0.0000 40.3544 0.0000
# 3 -13.8900 -29.9551 62.3507 0.0000 -8.4510 0.0000
# 4 0.0000 0.0000 0.0000 49.0119 0.0000 15.8631
# 5 10.8471 40.3544 -8.4510 0.0000 46.9472 0.0000
# 6 0.0000 0.0000 0.0000 15.8631 0.0000 13.8945
#
#
#
# Elastic Compliance Matrix: (Units=1/GPa)
#
#
# Indices 1 2 3 4 5 6 
#
# 1 0.007274 -0.000484 0.001247 0.000000 -0.001040 0.000000
# 2 -0.000484 0.008071 0.002916 0.000000 -0.006301 0.000000
# 3 0.001247 0.002916 0.017772 0.000000 0.000405 0.000000
# 4 0.000000 0.000000 0.000000 0.032361 0.000000 -0.036946
# 5 -0.001040 -0.006301 0.000405 0.000000 0.027030 0.000000
# 6 0.000000 0.000000 0.000000 -0.036946 0.000000 0.114151
#
#
# Mechanical properties :
#
#
# Convention : Reuss Voigt Hill
#
# Bulk Modulus (GPa) = 24.70745 36.57771 30.64258
# Shear Modulus (GPa) = 23.49707 48.27574 35.88640
#
# Velocity S-wave (km/s) = 2.84984 4.08487 3.52191
# Velocity P-wave (km/s) = 4.40099 5.90686 5.20863
#
# Compressibility (1/GPa) = 0.04047362
#
# Stress axis : x y z
#
# Youngs Moduli (GPa) = 137.48446 123.90060 56.26908
#
# Poissons Ratio (x) = 0.05996 -0.07016
# Poissons Ratio (y) = 0.06653 -0.16406
# Poissons Ratio (z) = -0.17143 -0.36126
#
# Static dielectric constant tensor:
#      x y z
#    x 5.057490 0.000000 0.065040 
#    y 0.000000 5.705610 0.000000 
#    z 0.065040 0.000000 5.552150 
# 
# 
# High freq. dielectric constant tensor:
#      x y z
#    x 2.178080 0.000000 0.005060 
#    y 0.000000 2.212480 0.000000 
#    z 0.005060 0.000000 2.155650 
# 
# From -- ./inp_files/4285.got.cif
#   From: 2010.03.12/outbox.cif.g09.slc.cpg/sg5_3_cif.got.tgz:4285.got - 2010.03.31 09:47:26.
