data_PCOD8051619
_publ_section_title
;
Structure prediction by ZEFSAII (Michael W. Deem and Ramdas Pophale) SiO2 
 PCOD8051619
Probable space group: C 2
;
_chemical_formula_sum "Si O2"
_cell_formula_units_Z 28
_cell_length_a 12.007494
_cell_length_b 13.280468
_cell_length_c 9.040948
_cell_angle_alpha 90.000000
_cell_angle_beta 101.183633
_cell_angle_gamma 90.000000
_cell_volume 1414.338714
_symmetry_space_group_name_H-M "C 2"
_symmetry_group_IT_number 5
_symmetry_cell_setting 'monoclinic'
loop_
_space_group_symop_operation_xyz
x,y,z
-x,y,-z
1/2+x,1/2+y,z
1/2-x,1/2+y,-z
loop_
_atom_site_type_symbol
_atom_site_label
_atom_site_fract_x
_atom_site_fract_y
_atom_site_fract_z
Si Si1 0.988083 0.296830 0.670990
Si Si2 0.164718 0.421281 0.895248
Si Si3 0.970194 0.897859 0.323733
Si Si4 0.395085 0.316781 0.878237
Si Si5 0.448222 0.597303 0.147960
Si Si6 0.790279 0.637266 0.020639
Si Si7 0.223234 0.315108 0.200272
O O1 0.856206 0.315005 0.676645
O O2 0.000000 0.302672 0.500000
O O3 0.067752 0.381245 0.762985
O O4 0.023804 0.188845 0.738183
O O5 0.288928 0.392095 0.863874
O O6 0.143107 0.541175 0.897966
O O7 0.153951 0.373473 0.054944
O O8 0.056712 0.813661 0.277710
O O9 0.000000 0.915277 0.500000
O O10 0.839995 0.867825 0.272901
O O11 0.996532 0.998680 0.239003
O O12 0.500000 0.362676 0.000000
O O13 0.366576 0.205038 0.929976
O O14 0.500000 0.614788 0.000000
O O15 0.312636 0.591928 0.100848
O O16 0.747717 0.702434 0.149052
#
# Coordination Sequence:
#
# PCOD8051619 Si02
#       7
#     4   4   4   4   4   4   4
#     4  12  26  43  64  99 137 171 210 274 336 383
#     4  11  22  43  68  94 130 172 224 267 315 389
#     4  12  26  42  65 100 138 169 207 276 338 382
#     4  11  21  40  67  97 124 171 220 268 315 386
#     4  12  21  43  71  98 123 171 231 268 311 384
#     4  11  21  38  72  97 119 164 236 265 309 373
#     4  11  23  44  64  95 125 178 220 262 320 394
#
# _framework density 19.797238
#
# number of rings (size 3 to 8) (size 9 to 14) (size 15 to 20)
#    0.000    0.571    8.571    2.143    2.000    1.143 
#    0.000    0.714    0.000    0.000    0.000    0.000 
#    0.000    0.000    0.000    0.000    0.000    0.000 
#
# Total GULP energy -173610.254870 kJ/mol
# GULP energy per Si atom -12400.732491 kJ/mol
# Density = 1.975218 g / cm^3
# Si number density = 19.797238 Si / 1000 Ang^3
#
#
#
# Elastic Constant Matrix: (Units=GPa)
#
#
# Indices 1 2 3 4 5 6 
#
# 1 105.1990 44.1340 46.4694 0.0000 -18.7806 0.0000
# 2 44.1340 145.2950 57.7820 0.0000 -5.0842 0.0000
# 3 46.4694 57.7820 135.4543 0.0000 -16.8477 0.0000
# 4 0.0000 0.0000 0.0000 24.9933 0.0000 3.5447
# 5 -18.7806 -5.0842 -16.8477 0.0000 30.5569 0.0000
# 6 0.0000 0.0000 0.0000 3.5447 0.0000 19.4891
#
#
#
# Elastic Compliance Matrix: (Units=1/GPa)
#
#
# Indices 1 2 3 4 5 6 
#
# 1 0.012818 -0.002688 -0.002498 0.000000 0.006053 0.000000
# 2 -0.002688 0.008863 -0.003093 0.000000 -0.001883 0.000000
# 3 -0.002498 -0.003093 0.009989 0.000000 0.003458 0.000000
# 4 0.000000 0.000000 0.000000 0.041070 0.000000 -0.007470
# 5 0.006053 -0.001883 0.003458 0.000000 0.038040 0.000000
# 6 0.000000 0.000000 0.000000 -0.007470 0.000000 0.052669
#
#
# Mechanical properties :
#
#
# Convention : Reuss Voigt Hill
#
# Bulk Modulus (GPa) = 66.17135 75.85766 71.01450
# Shear Modulus (GPa) = 27.02070 30.84539 28.93305
#
# Velocity S-wave (km/s) = 3.69843 3.95152 3.82706
# Velocity P-wave (km/s) = 7.19270 7.69544 7.44831
#
# Compressibility (1/GPa) = 0.01511228
#
# Stress axis : x y z
#
# Youngs Moduli (GPa) = 78.01807 112.82591 100.11260
#
# Poissons Ratio (x) = 0.30331 0.25003
# Poissons Ratio (y) = 0.20974 0.30963
# Poissons Ratio (z) = 0.19485 0.34894
#
# Static dielectric constant tensor:
#      x y z
#    x 3.831440 0.000000 -0.065870 
#    y 0.000000 3.646100 0.000000 
#    z -0.065870 0.000000 3.534720 
# 
# 
# High freq. dielectric constant tensor:
#      x y z
#    x 1.786390 0.000000 -0.001850 
#    y 0.000000 1.775150 0.000000 
#    z -0.001850 0.000000 1.751150 
# 
# From -- ./inp_files/20407.got.cif
#   From: 2010.03.12/outbox.cif.g09.slc.cpg/sg5_11_cif.got.tgz:20407.got - 2010.03.31 09:47:26.
