data_PCOD8051984
_publ_section_title
;
Structure prediction by ZEFSAII (Michael W. Deem and Ramdas Pophale) SiO2 
 PCOD8051984
Probable space group: C 2
;
_chemical_formula_sum "Si O2"
_cell_formula_units_Z 28
_cell_length_a 21.651563
_cell_length_b 9.213137
_cell_length_c 8.956572
_cell_angle_alpha 90.000000
_cell_angle_beta 44.844558
_cell_angle_gamma 90.000000
_cell_volume 1259.917690
_symmetry_space_group_name_H-M "C 2"
_symmetry_group_IT_number 5
_symmetry_cell_setting 'monoclinic'
loop_
_space_group_symop_operation_xyz
x,y,z
-x,y,-z
1/2+x,1/2+y,z
1/2-x,1/2+y,-z
loop_
_atom_site_type_symbol
_atom_site_label
_atom_site_fract_x
_atom_site_fract_y
_atom_site_fract_z
Si Si1 0.810876 0.216350 0.840431
Si Si2 0.143607 0.929386 0.698238
Si Si3 0.000000 0.308134 0.500000
Si Si4 0.718733 0.034237 0.747708
Si Si5 0.746341 0.009969 0.202925
Si Si6 0.885471 0.630674 0.338291
Si Si7 0.500000 0.656588 0.000000
Si Si8 0.533809 0.918560 0.137634
O O1 0.771872 0.125117 0.773985
O O2 0.779687 0.384087 0.872283
O O3 0.915412 0.205157 0.648680
O O4 0.785767 0.146287 0.043131
O O5 0.217898 0.920300 0.442461
O O6 0.186540 0.936916 0.791687
O O7 0.079885 0.066292 0.795389
O O8 0.082407 0.795753 0.743825
O O9 0.998371 0.418487 0.365202
O O10 0.687461 0.134740 0.666325
O O11 0.634665 0.964061 0.969617
O O12 0.660937 0.078933 0.429491
O O13 0.967143 0.524455 0.162337
O O14 0.466775 0.756402 0.923078
#
# Coordination Sequence:
#
# PCOD8051984 Si02
#       8
#     4   4   2   4   4   4   2   4
#     4  12  25  48  71 106 146 198 247 307 367 451
#     4  11  27  43  71 108 146 188 248 313 364 432
#     4  12  26  44  72 106 146 188 246 300 376 444
#     4  11  25  43  76 103 143 193 249 306 367 432
#     4  11  26  45  72 105 145 196 250 302 374 435
#     4  11  24  46  71 105 146 193 249 308 365 438
#     4  12  26  44  74 108 146 194 244 310 374 430
#     4  12  25  47  74 106 145 198 245 304 369 453
#
# _framework density 22.223672000000001
#
# number of rings (size 3 to 8) (size 9 to 14) (size 15 to 20)
#    0.000    0.571    4.286    2.571   10.000    0.000 
#    0.000    0.000    0.000    0.000    0.000    0.000 
#    0.000    0.000    0.000    0.000    0.000    0.000 
#
# Total GULP energy -173462.345664 kJ/mol
# GULP energy per Si atom -12390.167547 kJ/mol
# Density = 2.217309 g / cm^3
# Si number density = 22.223672 Si / 1000 Ang^3
#
#
#
# Elastic Constant Matrix: (Units=GPa)
#
#
# Indices 1 2 3 4 5 6 
#
# 1 100.0021 47.9073 43.8342 0.0000 -16.7173 0.0000
# 2 47.9073 143.6255 59.7235 0.0000 -5.5315 0.0000
# 3 43.8342 59.7235 152.2090 0.0000 -1.2442 0.0000
# 4 0.0000 0.0000 0.0000 41.2924 0.0000 2.8477
# 5 -16.7173 -5.5315 -1.2442 0.0000 38.0113 0.0000
# 6 0.0000 0.0000 0.0000 2.8477 0.0000 41.9874
#
#
#
# Elastic Compliance Matrix: (Units=1/GPa)
#
#
# Indices 1 2 3 4 5 6 
#
# 1 0.013601 -0.003247 -0.002598 0.000000 0.005424 0.000000
# 2 -0.003247 0.009142 -0.002653 0.000000 -0.000185 0.000000
# 3 -0.002598 -0.002653 0.008349 0.000000 -0.001256 0.000000
# 4 0.000000 0.000000 0.000000 0.024331 0.000000 -0.001650
# 5 0.005424 -0.000185 -0.001256 0.000000 0.028626 0.000000
# 6 0.000000 0.000000 0.000000 -0.001650 0.000000 0.023929
#
#
# Mechanical properties :
#
#
# Convention : Reuss Voigt Hill
#
# Bulk Modulus (GPa) = 70.95295 77.64075 74.29685
# Shear Modulus (GPa) = 38.55815 40.54965 39.55390
#
# Velocity S-wave (km/s) = 4.16986 4.27619 4.22336
# Velocity P-wave (km/s) = 7.42830 7.70668 7.56877
#
# Compressibility (1/GPa) = 0.01409385
#
# Stress axis : x y z
#
# Youngs Moduli (GPa) = 73.52271 109.38527 119.77311
#
# Poissons Ratio (x) = 0.35522 0.31122
# Poissons Ratio (y) = 0.23876 0.31781
# Poissons Ratio (z) = 0.19104 0.29025
#
# Static dielectric constant tensor:
#      x y z
#    x 4.080970 0.000000 0.038870 
#    y 0.000000 4.012940 0.000000 
#    z 0.038870 0.000000 4.117650 
# 
# 
# High freq. dielectric constant tensor:
#      x y z
#    x 1.881080 0.000000 0.002490 
#    y 0.000000 1.871960 0.000000 
#    z 0.002490 0.000000 1.890920 
# 
# From -- ./inp_files/29121.got.cif
#   From: 2010.03.12/outbox.cif.g09.slc.cpg/sg5_15_cif.got.tgz:29121.got - 2010.03.31 09:47:26.
