data_PCOD8051638
_publ_section_title
;
Structure prediction by ZEFSAII (Michael W. Deem and Ramdas Pophale) SiO2 
 PCOD8051638
Probable space group: C 2
;
_chemical_formula_sum "Si O2"
_cell_formula_units_Z 30
_cell_length_a 29.640067
_cell_length_b 8.578778
_cell_length_c 7.823689
_cell_angle_alpha 90.000000
_cell_angle_beta 42.191996
_cell_angle_gamma 90.000000
_cell_volume 1336.096822
_symmetry_space_group_name_H-M "C 2"
_symmetry_group_IT_number 5
_symmetry_cell_setting 'monoclinic'
loop_
_space_group_symop_operation_xyz
x,y,z
-x,y,-z
1/2+x,1/2+y,z
1/2-x,1/2+y,-z
loop_
_atom_site_type_symbol
_atom_site_label
_atom_site_fract_x
_atom_site_fract_y
_atom_site_fract_z
Si Si1 0.960289 0.745260 0.440250
Si Si2 0.038154 0.498529 0.058219
Si Si3 0.169466 0.557763 0.129384
Si Si4 0.680283 0.117893 0.708149
Si Si5 0.892013 0.053165 0.666946
Si Si6 0.788251 0.254551 0.814535
Si Si7 0.000000 0.294760 0.500000
Si Si8 0.210081 0.926667 0.762844
O O1 0.905399 0.609872 0.620074
O O2 0.000000 0.779689 0.500000
O O3 0.009595 0.674093 0.160901
O O4 0.931004 0.911743 0.465401
O O5 0.025984 0.399163 0.266490
O O6 0.117072 0.529797 0.795465
O O7 0.000000 0.422074 0.000000
O O8 0.181729 0.381006 0.143064
O O9 0.182953 0.560577 0.892833
O O10 0.221325 0.673203 0.082200
O O11 0.675635 0.308136 0.721888
O O12 0.751946 0.072859 0.425053
O O13 0.845937 0.122442 0.644224
O O14 0.939666 0.185443 0.609333
O O15 0.846593 0.983297 0.947157
O O16 0.769845 0.326932 0.684375
#
# Coordination Sequence:
#
# PCOD8051638 Si02
#       8
#     4   4   4   4   4   4   2   4
#     4  12  21  46  71  96 140 188 242 284 356 430
#     4  12  27  48  75 105 141 194 244 294 363 428
#     4  11  21  41  70  98 141 183 230 287 353 420
#     4  11  25  45  67  99 145 183 228 295 357 417
#     4  12  24  44  75 103 137 191 239 293 366 424
#     4  11  22  40  66 103 130 179 236 282 344 422
#     4  12  28  46  80 102 146 196 236 306 350 440
#     4  11  26  44  69 103 141 186 231 297 354 427
#
# _framework density 22.453462999999999
#
# number of rings (size 3 to 8) (size 9 to 14) (size 15 to 20)
#    0.000    0.533    6.667    1.600    7.467    0.000 
#    4.800    0.667    0.000    0.000    0.000    0.000 
#    0.000    0.000    0.000    0.000    0.000    0.000 
#
# Total GULP energy -185895.360171 kJ/mol
# GULP energy per Si atom -12393.024011 kJ/mol
# Density = 2.240236 g / cm^3
# Si number density = 22.453463 Si / 1000 Ang^3
#
#
#
# Elastic Constant Matrix: (Units=GPa)
#
#
# Indices 1 2 3 4 5 6 
#
# 1 68.0773 14.8653 9.9485 0.0000 -20.9037 0.0000
# 2 14.8653 98.0229 34.1396 0.0000 -13.0781 0.0000
# 3 9.9485 34.1396 57.3899 0.0000 -17.6066 0.0000
# 4 0.0000 0.0000 0.0000 37.1483 0.0000 -15.2675
# 5 -20.9037 -13.0781 -17.6066 0.0000 33.4986 0.0000
# 6 0.0000 0.0000 0.0000 -15.2675 0.0000 47.1719
#
#
#
# Elastic Compliance Matrix: (Units=1/GPa)
#
#
# Indices 1 2 3 4 5 6 
#
# 1 0.018408 -0.001733 0.001379 0.000000 0.011535 0.000000
# 2 -0.001733 0.013071 -0.007441 0.000000 0.000111 0.000000
# 3 0.001379 -0.007441 0.025019 0.000000 0.011105 0.000000
# 4 0.000000 0.000000 0.000000 0.031049 0.000000 0.010049
# 5 0.011535 0.000111 0.011105 0.000000 0.042930 0.000000
# 6 0.000000 0.000000 0.000000 0.010049 0.000000 0.024452
#
#
# Mechanical properties :
#
#
# Convention : Reuss Voigt Hill
#
# Bulk Modulus (GPa) = 24.44553 37.93301 31.18927
# Shear Modulus (GPa) = 27.15102 34.53289 30.84196
#
# Velocity S-wave (km/s) = 3.48115 3.92596 3.71022
# Velocity P-wave (km/s) = 5.20276 6.12222 5.68112
#
# Compressibility (1/GPa) = 0.04090727
#
# Stress axis : x y z
#
# Youngs Moduli (GPa) = 54.32420 76.50611 39.96946
#
# Poissons Ratio (x) = 0.13256 -0.05510
# Poissons Ratio (y) = 0.09413 0.29742
# Poissons Ratio (z) = -0.07489 0.56929
#
# Static dielectric constant tensor:
#      x y z
#    x 4.326530 0.000000 -0.452860 
#    y 0.000000 4.427820 0.000000 
#    z -0.452860 0.000000 4.047020 
# 
# 
# High freq. dielectric constant tensor:
#      x y z
#    x 1.886220 0.000000 -0.031130 
#    y 0.000000 1.897230 0.000000 
#    z -0.031130 0.000000 1.869300 
# 
# From -- ./inp_files/32503.got.cif
#   From: 2010.03.12/outbox.cif.g09.slc.cpg/sg5_17_cif.got.tgz:32503.got - 2010.03.31 09:47:26.
