data_PCOD8051413
_publ_section_title
;
Structure prediction by ZEFSAII (Michael W. Deem and Ramdas Pophale) SiO2 
 PCOD8051413
Probable space group: C 2
;
_chemical_formula_sum "Si O2"
_cell_formula_units_Z 20
_cell_length_a 11.932852
_cell_length_b 7.782998
_cell_length_c 11.979146
_cell_angle_alpha 90.000000
_cell_angle_beta 48.389542
_cell_angle_gamma 90.000000
_cell_volume 831.823127
_symmetry_space_group_name_H-M "C 2"
_symmetry_group_IT_number 5
_symmetry_cell_setting 'monoclinic'
loop_
_space_group_symop_operation_xyz
x,y,z
-x,y,-z
1/2+x,1/2+y,z
1/2-x,1/2+y,-z
loop_
_atom_site_type_symbol
_atom_site_label
_atom_site_fract_x
_atom_site_fract_y
_atom_site_fract_z
Si Si1 0.179645 0.886500 0.777647
Si Si2 0.429756 0.068813 0.737976
Si Si3 0.851637 0.568743 0.045136
Si Si4 0.476961 0.438810 0.730875
Si Si5 0.395787 0.766286 0.464324
O O1 0.161683 0.755581 0.890331
O O2 0.231660 0.794505 0.625365
O O3 0.018841 0.953396 0.836946
O O4 0.292147 0.035027 0.743329
O O5 0.504015 0.251452 0.656731
O O6 0.553339 0.916251 0.655579
O O7 0.367065 0.091828 0.903702
O O8 0.699346 0.469491 0.171454
O O9 0.000000 0.476309 0.000000
O O10 0.582950 0.577536 0.600025
O O11 0.500000 0.792360 0.500000
#
# Coordination Sequence:
#
# PCOD8051413 Si02
#       5
#     4   4   4   4   4
#     4  11  26  51  71 113 155 185 257 313 354 462
#     4  11  25  46  77 107 145 197 247 298 379 439
#     4  12  25  48  73 108 154 188 248 318 356 441
#     4  12  26  46  79 105 150 201 240 309 384 421
#     4  10  24  49  72 110 153 185 254 310 354 457
#
# _framework density 24.043572000000001
#
# number of rings (size 3 to 8) (size 9 to 14) (size 15 to 20)
#    0.000    0.800    6.000    1.200    2.800    4.000 
#    0.000    0.000    0.000    0.000    0.000    0.000 
#    0.000    0.000    0.000    0.000    0.000    0.000 
#
# Total GULP energy -123908.693826 kJ/mol
# GULP energy per Si atom -12390.869383 kJ/mol
# Density = 2.398885 g / cm^3
# Si number density = 24.043572 Si / 1000 Ang^3
#
#
#
# Elastic Constant Matrix: (Units=GPa)
#
#
# Indices 1 2 3 4 5 6 
#
# 1 150.4593 34.2470 18.0714 0.0000 -1.3199 0.0000
# 2 34.2470 157.9563 48.8720 0.0000 15.7684 0.0000
# 3 18.0714 48.8720 105.6280 0.0000 15.2673 0.0000
# 4 0.0000 0.0000 0.0000 35.5564 0.0000 10.3969
# 5 -1.3199 15.7684 15.2673 0.0000 24.6615 0.0000
# 6 0.0000 0.0000 0.0000 10.3969 0.0000 31.2857
#
#
#
# Elastic Compliance Matrix: (Units=1/GPa)
#
#
# Indices 1 2 3 4 5 6 
#
# 1 0.007093 -0.001473 -0.000794 0.000000 0.001813 0.000000
# 2 -0.001473 0.007883 -0.002916 0.000000 -0.003314 0.000000
# 3 -0.000794 -0.002916 0.011739 0.000000 -0.005445 0.000000
# 4 0.000000 0.000000 0.000000 0.031151 0.000000 -0.010352
# 5 0.001813 -0.003314 -0.005445 0.000000 0.046136 0.000000
# 6 0.000000 0.000000 0.000000 -0.010352 0.000000 0.035404
#
#
# Mechanical properties :
#
#
# Convention : Reuss Voigt Hill
#
# Bulk Modulus (GPa) = 61.16723 68.49160 64.82941
# Shear Modulus (GPa) = 32.21154 39.15760 35.68457
#
# Velocity S-wave (km/s) = 3.66418 4.03998 3.85666
# Velocity P-wave (km/s) = 6.58764 7.09297 6.84497
#
# Compressibility (1/GPa) = 0.01634862
#
# Stress axis : x y z
#
# Youngs Moduli (GPa) = 140.98603 126.84774 85.18265
#
# Poissons Ratio (x) = 0.18687 0.06763
# Poissons Ratio (y) = 0.20770 0.24843
# Poissons Ratio (z) = 0.11193 0.36995
#
# Static dielectric constant tensor:
#      x y z
#    x 5.160150 0.000000 -1.227890 
#    y 0.000000 4.494630 0.000000 
#    z -1.227890 0.000000 6.833590 
# 
# 
# High freq. dielectric constant tensor:
#      x y z
#    x 1.974030 0.000000 -0.008520 
#    y 0.000000 1.940580 0.000000 
#    z -0.008520 0.000000 1.952130 
# 
# From -- ./inp_files/38240.got.cif
#   From: 2010.03.12/outbox.cif.g09.slc.cpg/sg5_20_cif.got.tgz:38240.got - 2010.03.31 09:47:26.
