data_PCOD8051047
_publ_section_title
;
Structure prediction by ZEFSAII (Michael W. Deem and Ramdas Pophale) SiO2 
 PCOD8051047
Probable space group: C 2
;
_chemical_formula_sum "Si O2"
_cell_formula_units_Z 22
_cell_length_a 13.915968
_cell_length_b 13.352985
_cell_length_c 11.734128
_cell_angle_alpha 90.000000
_cell_angle_beta 32.535153
_cell_angle_gamma 90.000000
_cell_volume 1172.673458
_symmetry_space_group_name_H-M "C 2"
_symmetry_group_IT_number 5
_symmetry_cell_setting 'monoclinic'
loop_
_space_group_symop_operation_xyz
x,y,z
-x,y,-z
1/2+x,1/2+y,z
1/2-x,1/2+y,-z
loop_
_atom_site_type_symbol
_atom_site_label
_atom_site_fract_x
_atom_site_fract_y
_atom_site_fract_z
Si Si1 0.199527 0.575750 0.817462
Si Si2 0.202550 0.955688 0.069791
Si Si3 0.001765 0.107222 0.133981
Si Si4 0.488515 0.813363 0.279099
Si Si5 0.687703 0.468752 0.521854
Si Si6 0.000000 0.223861 0.500000
O O1 0.193599 0.492213 0.921340
O O2 0.279270 0.534015 0.621944
O O3 0.336143 0.662105 0.719149
O O4 0.000000 0.618478 0.000000
O O5 0.005093 0.913683 0.299712
O O6 0.178196 0.047638 0.003581
O O7 0.318931 0.866354 0.901597
O O8 0.001515 0.219888 0.181248
O O9 0.827093 0.046829 0.356425
O O10 0.000000 0.109681 0.000000
O O11 0.341960 0.888739 0.378223
O O12 0.423993 0.787241 0.470852
#
# Coordination Sequence:
#
# PCOD8051047 Si02
#       6
#     4   4   4   4   4   2
#     4  12  20  42  70  92 129 176 217 278 318 378
#     4  10  23  42  64  92 132 167 213 265 324 382
#     4  10  24  46  61  93 138 162 212 274 318 391
#     4  12  24  40  71  93 126 178 215 260 335 375
#     4  10  23  42  64  92 132 167 213 265 324 382
#     4  12  24  44  64 100 132 164 232 276 306 400
#
# _framework density 18.760551
#
# number of rings (size 3 to 8) (size 9 to 14) (size 15 to 20)
#    1.091    0.000    7.273    0.000    5.091    1.455 
#    3.273    0.000    0.000    0.000    0.000    0.000 
#    0.000    0.000    0.000    0.000    0.000    0.000 
#
# Total GULP energy -136345.076475 kJ/mol
# GULP energy per Si atom -12395.006952 kJ/mol
# Density = 1.871785 g / cm^3
# Si number density = 18.760551 Si / 1000 Ang^3
#
#
#
# Elastic Constant Matrix: (Units=GPa)
#
#
# Indices 1 2 3 4 5 6 
#
# 1 85.7823 27.8121 43.3273 -0.0007 17.0959 0.0005
# 2 27.8121 100.2918 42.4746 -0.0006 1.6730 0.0004
# 3 43.3273 42.4746 86.4430 -0.0016 -8.1561 0.0010
# 4 -0.0007 -0.0006 -0.0016 14.5422 0.0008 -2.5387
# 5 17.0959 1.6730 -8.1561 0.0008 53.9235 -0.0006
# 6 0.0005 0.0004 0.0010 -2.5387 -0.0006 20.2207
#
#
#
# Elastic Compliance Matrix: (Units=1/GPa)
#
#
# Indices 1 2 3 4 5 6 
#
# 1 0.018053 -0.000976 -0.009238 0.000000 -0.007090 0.000000
# 2 -0.000976 0.012741 -0.005863 0.000000 -0.000973 0.000000
# 3 -0.009238 -0.005863 0.019654 0.000001 0.006083 0.000000
# 4 0.000000 0.000000 0.000001 0.070306 -0.000001 0.008827
# 5 -0.007090 -0.000973 0.006083 -0.000001 0.021743 0.000000
# 6 0.000000 0.000000 0.000000 0.008827 0.000000 0.050563
#
#
# Mechanical properties :
#
#
# Convention : Reuss Voigt Hill
#
# Bulk Modulus (GPa) = 54.66412 55.52723 55.09568
# Shear Modulus (GPa) = 21.61598 28.33083 24.97341
#
# Velocity S-wave (km/s) = 3.39810 3.89025 3.65247
# Velocity P-wave (km/s) = 6.67811 7.05981 6.87161
#
# Compressibility (1/GPa) = 0.01829354
#
# Stress axis : x y z
#
# Youngs Moduli (GPa) = 55.39299 78.48836 50.88130
#
# Poissons Ratio (x) = 0.07657 0.47005
# Poissons Ratio (y) = 0.05404 0.29832
# Poissons Ratio (z) = 0.51173 0.46019
#
# Static dielectric constant tensor:
#      x y z
#    x 3.379280 0.000000 -0.002890 
#    y 0.000000 3.373650 0.000000 
#    z -0.002890 0.000000 3.406770 
# 
# 
# High freq. dielectric constant tensor:
#      x y z
#    x 1.732700 0.000000 0.004850 
#    y 0.000000 1.717950 0.000000 
#    z 0.004850 0.000000 1.729480 
# 
# From -- ./inp_files/42877.got.cif
#   From: 2010.03.12/outbox.cif.g09.slc.cpg/sg5_22_cif.got.tgz:42877.got - 2010.03.31 09:47:26.
