data_PCOD8051736
_publ_section_title
;
Structure prediction by ZEFSAII (Michael W. Deem and Ramdas Pophale) SiO2 
 PCOD8051736
Probable space group: C 2
;
_chemical_formula_sum "Si O2"
_cell_formula_units_Z 30
_cell_length_a 12.003749
_cell_length_b 7.259751
_cell_length_c 17.112829
_cell_angle_alpha 90.000000
_cell_angle_beta 62.264079
_cell_angle_gamma 90.000000
_cell_volume 1319.938740
_symmetry_space_group_name_H-M "C 2"
_symmetry_group_IT_number 5
_symmetry_cell_setting 'monoclinic'
loop_
_space_group_symop_operation_xyz
x,y,z
-x,y,-z
1/2+x,1/2+y,z
1/2-x,1/2+y,-z
loop_
_atom_site_type_symbol
_atom_site_label
_atom_site_fract_x
_atom_site_fract_y
_atom_site_fract_z
Si Si1 0.833899 0.044180 0.837228
Si Si2 0.282889 0.923741 0.789532
Si Si3 0.436877 0.960287 0.096422
Si Si4 0.455346 0.618773 0.342946
Si Si5 0.500000 0.710613 0.500000
Si Si6 0.543015 0.027734 0.732042
Si Si7 0.512006 0.553519 0.911485
Si Si8 0.241847 0.829438 0.632624
O O1 0.793276 0.261359 0.850878
O O2 0.933897 0.006619 0.736079
O O3 0.901404 0.975174 0.894137
O O4 0.710111 0.920490 0.871062
O O5 0.395446 0.073788 0.763460
O O6 0.298324 0.826558 0.701014
O O7 0.149221 0.021535 0.831896
O O8 0.443173 0.060842 0.178563
O O9 0.512348 0.770942 0.077809
O O10 0.500000 0.066754 0.000000
O O11 0.494222 0.598300 0.421070
O O12 0.439089 0.820467 0.308030
O O13 0.323202 0.518781 0.371167
O O14 0.367326 0.820080 0.538493
O O15 0.641953 0.160363 0.655675
O O16 0.500000 0.460383 0.000000
#
# Coordination Sequence:
#
# PCOD8051736 Si02
#       8
#     4   4   4   4   2   4   4   4
#     4  11  22  44  63  89 140 176 218 288 333 393
#     4  11  22  43  65  95 132 176 231 276 333 410
#     4  11  23  40  65  98 137 181 232 282 331 394
#     4  11  25  48  70 100 140 173 229 283 339 423
#     4  12  26  48  70 106 140 164 232 296 328 426
#     4  11  23  47  71  99 142 185 227 278 345 411
#     4  11  25  39  63 100 134 180 233 279 332 401
#     4  12  25  47  72 100 133 186 219 281 360 400
#
# _framework density 22.728328999999999
#
# number of rings (size 3 to 8) (size 9 to 14) (size 15 to 20)
#    0.000    0.800    8.000    0.000    5.600    0.533 
#    2.400    1.333    0.000    0.000    0.000    0.000 
#    0.000    0.000    0.000    0.000    0.000    0.000 
#
# Total GULP energy -185856.636797 kJ/mol
# GULP energy per Si atom -12390.442453 kJ/mol
# Density = 2.267660 g / cm^3
# Si number density = 22.728329 Si / 1000 Ang^3
#
#
#
# Elastic Constant Matrix: (Units=GPa)
#
#
# Indices 1 2 3 4 5 6 
#
# 1 163.0514 11.5337 41.9073 0.0000 1.9241 0.0000
# 2 11.5337 30.3231 6.8814 0.0000 2.8142 0.0000
# 3 41.9073 6.8814 102.7114 0.0000 14.2362 0.0000
# 4 0.0000 0.0000 0.0000 8.7458 0.0000 -3.8981
# 5 1.9241 2.8142 14.2362 0.0000 51.1014 0.0000
# 6 0.0000 0.0000 0.0000 -3.8981 0.0000 28.3026
#
#
#
# Elastic Compliance Matrix: (Units=1/GPa)
#
#
# Indices 1 2 3 4 5 6 
#
# 1 0.006993 -0.002083 -0.002801 0.000000 0.000632 0.000000
# 2 -0.002083 0.034187 -0.001238 0.000000 -0.001459 0.000000
# 3 -0.002801 -0.001238 0.011377 0.000000 -0.002996 0.000000
# 4 0.000000 0.000000 0.000000 0.121819 0.000000 0.016778
# 5 0.000632 -0.001459 -0.002996 0.000000 0.020460 0.000000
# 6 0.000000 0.000000 0.000000 0.016778 0.000000 0.037643
#
#
# Mechanical properties :
#
#
# Convention : Reuss Voigt Hill
#
# Bulk Modulus (GPa) = 24.80642 46.30343 35.55493
# Shear Modulus (GPa) = 19.36773 33.34750 26.35761
#
# Velocity S-wave (km/s) = 2.92231 3.83459 3.40910
# Velocity P-wave (km/s) = 4.72489 6.32631 5.58331
#
# Compressibility (1/GPa) = 0.04031214
#
# Stress axis : x y z
#
# Youngs Moduli (GPa) = 143.00288 29.25107 87.89553
#
# Poissons Ratio (x) = 0.06092 0.24621
# Poissons Ratio (y) = 0.29784 0.10885
# Poissons Ratio (z) = 0.40058 0.03622
#
# Static dielectric constant tensor:
#      x y z
#    x 4.317620 0.000000 -0.032340 
#    y 0.000000 3.631330 0.000000 
#    z -0.032340 0.000000 4.387720 
# 
# 
# High freq. dielectric constant tensor:
#      x y z
#    x 1.921280 0.000000 -0.005480 
#    y 0.000000 1.861830 0.000000 
#    z -0.005480 0.000000 1.897640 
# 
# From -- ./inp_files/60297.got.cif
#   From: 2010.03.12/outbox.cif.g09.slc.cpg/sg5_31_cif.got.tgz:60297.got - 2010.03.31 09:47:26.
