data_PCOD8051585
_publ_section_title
;
Structure prediction by ZEFSAII (Michael W. Deem and Ramdas Pophale) SiO2 
 PCOD8051585
Probable space group: C 2
;
_chemical_formula_sum "Si O2"
_cell_formula_units_Z 30
_cell_length_a 20.670486
_cell_length_b 6.425986
_cell_length_c 17.704294
_cell_angle_alpha 90.000000
_cell_angle_beta 141.097175
_cell_angle_gamma 90.000000
_cell_volume 1476.827285
_symmetry_space_group_name_H-M "C 2"
_symmetry_group_IT_number 5
_symmetry_cell_setting 'monoclinic'
loop_
_space_group_symop_operation_xyz
x,y,z
-x,y,-z
1/2+x,1/2+y,z
1/2-x,1/2+y,-z
loop_
_atom_site_type_symbol
_atom_site_label
_atom_site_fract_x
_atom_site_fract_y
_atom_site_fract_z
Si Si1 0.400107 0.410360 0.651410
Si Si2 0.703394 0.368065 0.226795
Si Si3 0.281408 0.503240 0.921532
Si Si4 0.862270 0.219917 0.742407
Si Si5 0.500000 0.195371 0.000000
Si Si6 0.109305 0.688894 0.863818
Si Si7 0.743199 0.607699 0.587630
Si Si8 0.929039 0.382868 0.042522
O O1 0.421086 0.567119 0.738500
O O2 0.505862 0.285183 0.733626
O O3 0.368456 0.548933 0.549194
O O4 0.305773 0.259437 0.588702
O O5 0.743900 0.369203 0.177072
O O6 0.717016 0.597835 0.275000
O O7 0.578425 0.331280 0.122067
O O8 0.766537 0.203866 0.336357
O O9 0.179405 0.617159 0.857862
O O10 0.330250 0.357298 0.030254
O O11 0.358887 0.683778 0.965513
O O12 0.800374 0.389558 0.640452
O O13 0.952969 0.329382 0.871300
O O14 0.412768 0.071080 0.968929
O O15 0.083775 0.477559 0.885603
#
# Coordination Sequence:
#
# PCOD8051585 Si02
#       8
#     4   4   4   4   2   4   4   4
#     4  11  22  39  65 100 126 163 223 263 325 396
#     4  11  24  37  58  98 135 166 213 262 340 398
#     4  12  25  41  61  95 134 173 217 265 324 402
#     4  11  20  37  61  95 128 160 200 273 330 374
#     4  12  20  36  60  94 134 158 198 272 328 404
#     4  12  24  41  64  96 127 175 223 264 319 394
#     4  11  22  38  64  99 130 165 210 280 333 382
#     4  12  21  36  62  93 131 165 205 261 332 380
#
# _framework density 20.313818999999999
#
# number of rings (size 3 to 8) (size 9 to 14) (size 15 to 20)
#    0.000    0.533    8.000    2.400    0.000    0.000 
#    0.000    0.000    0.000    0.800    6.933    0.000 
#    0.000    0.000    0.000    0.000    0.000    0.000 
#
# Total GULP energy -185926.838911 kJ/mol
# GULP energy per Si atom -12395.122594 kJ/mol
# Density = 2.026758 g / cm^3
# Si number density = 20.313819 Si / 1000 Ang^3
#
#
#
# Elastic Constant Matrix: (Units=GPa)
#
#
# Indices 1 2 3 4 5 6 
#
# 1 103.2890 29.3760 41.9513 0.0000 -8.7576 0.0000
# 2 29.3760 79.9180 27.1397 0.0000 -6.8011 0.0000
# 3 41.9513 27.1397 102.6665 0.0000 -14.4835 0.0000
# 4 0.0000 0.0000 0.0000 34.4074 0.0000 -0.8951
# 5 -8.7576 -6.8011 -14.4835 0.0000 24.2282 0.0000
# 6 0.0000 0.0000 0.0000 -0.8951 0.0000 35.3915
#
#
#
# Elastic Compliance Matrix: (Units=1/GPa)
#
#
# Indices 1 2 3 4 5 6 
#
# 1 0.012292 -0.003042 -0.004054 0.000000 0.001166 0.000000
# 2 -0.003042 0.014576 -0.002389 0.000000 0.001563 0.000000
# 3 -0.004054 -0.002389 0.012807 0.000000 0.005520 0.000000
# 4 0.000000 0.000000 0.000000 0.029083 0.000000 0.000736
# 5 0.001166 0.001563 0.005520 0.000000 0.045434 0.000000
# 6 0.000000 0.000000 0.000000 0.000736 0.000000 0.028274
#
#
# Mechanical properties :
#
#
# Convention : Reuss Voigt Hill
#
# Bulk Modulus (GPa) = 48.30126 53.64529 50.97327
# Shear Modulus (GPa) = 29.70201 31.29919 30.50060
#
# Velocity S-wave (km/s) = 3.82797 3.92954 3.87909
# Velocity P-wave (km/s) = 6.58536 6.85959 6.72387
#
# Compressibility (1/GPa) = 0.02070339
#
# Stress axis : x y z
#
# Youngs Moduli (GPa) = 81.35180 68.60792 78.08112
#
# Poissons Ratio (x) = 0.20873 0.31655
# Poissons Ratio (y) = 0.24751 0.18656
# Poissons Ratio (z) = 0.32981 0.16392
#
# Static dielectric constant tensor:
#      x y z
#    x 3.428590 0.000000 -0.144710 
#    y 0.000000 3.981080 0.000000 
#    z -0.144710 0.000000 3.572020 
# 
# 
# High freq. dielectric constant tensor:
#      x y z
#    x 1.762760 0.000000 -0.023570 
#    y 0.000000 1.820710 0.000000 
#    z -0.023570 0.000000 1.774560 
# 
# From -- ./inp_files/45662.got.cif
#   From: 2010.03.12/outbox.cif.g09.slc.cpg/sg5_23_cif.got.tgz:45662.got - 2010.03.31 09:47:26.
