data_PCOD8051600
_publ_section_title
;
Structure prediction by ZEFSAII (Michael W. Deem and Ramdas Pophale) SiO2 
 PCOD8051600
Probable space group: C 2
;
_chemical_formula_sum "Si O2"
_cell_formula_units_Z 18
_cell_length_a 17.121013
_cell_length_b 6.306730
_cell_length_c 8.457701
_cell_angle_alpha 90.000000
_cell_angle_beta 126.422308
_cell_angle_gamma 90.000000
_cell_volume 734.852013
_symmetry_space_group_name_H-M "C 2"
_symmetry_group_IT_number 5
_symmetry_cell_setting 'monoclinic'
loop_
_space_group_symop_operation_xyz
x,y,z
-x,y,-z
1/2+x,1/2+y,z
1/2-x,1/2+y,-z
loop_
_atom_site_type_symbol
_atom_site_label
_atom_site_fract_x
_atom_site_fract_y
_atom_site_fract_z
Si Si1 0.344860 0.010780 0.965110
Si Si2 0.612252 0.507204 0.413320
Si Si3 0.744125 0.851473 0.649014
Si Si4 0.164342 0.731367 0.738510
Si Si5 0.500000 0.695537 0.000000
O O1 0.389821 0.117549 0.179117
O O2 0.326435 0.201975 0.822997
O O3 0.241953 0.906656 0.892136
O O4 0.416482 0.842604 0.971199
O O5 0.638295 0.741446 0.509438
O O6 0.715020 0.414945 0.473677
O O7 0.585245 0.348165 0.526407
O O8 0.533294 0.535212 0.180228
O O9 0.731028 0.062963 0.730506
#
# Coordination Sequence:
#
# PCOD8051600 Si02
#       5
#     4   4   4   4   2
#     4  11  24  43  77 104 142 180 247 292 360 417
#     4  11  23  41  73 104 144 179 247 287 359 417
#     4  11  20  42  74 100 127 196 241 284 335 447
#     4  11  22  43  77 104 133 195 243 292 335 447
#     4  12  26  46  72 112 150 188 226 310 364 418
#
# _framework density 24.494730000000001
#
# number of rings (size 3 to 8) (size 9 to 14) (size 15 to 20)
#    0.000    0.889    6.667    1.333    0.000    0.889 
#    0.000    1.111    9.778    0.000    0.000    0.000 
#    0.000    0.000    0.000    0.000    0.000    0.000 
#
# Total GULP energy -111544.188344 kJ/mol
# GULP energy per Si atom -12393.798705 kJ/mol
# Density = 2.443898 g / cm^3
# Si number density = 24.494730 Si / 1000 Ang^3
#
#
#
# Elastic Constant Matrix: (Units=GPa)
#
#
# Indices 1 2 3 4 5 6 
#
# 1 48.6032 12.9927 21.7080 0.0000 -8.9040 0.0000
# 2 12.9927 106.7734 61.2123 0.0000 -5.0752 0.0000
# 3 21.7080 61.2123 171.2103 0.0000 -10.5082 0.0000
# 4 0.0000 0.0000 0.0000 51.8554 0.0000 -13.7771
# 5 -8.9040 -5.0752 -10.5082 0.0000 30.4954 0.0000
# 6 0.0000 0.0000 0.0000 -13.7771 0.0000 26.8430
#
#
#
# Elastic Compliance Matrix: (Units=1/GPa)
#
#
# Indices 1 2 3 4 5 6 
#
# 1 0.022911 -0.001323 -0.002079 0.000000 0.005753 0.000000
# 2 -0.001323 0.011865 -0.004063 0.000000 0.000188 0.000000
# 3 -0.002079 -0.004063 0.007640 0.000000 0.001349 0.000000
# 4 0.000000 0.000000 0.000000 0.022329 0.000000 0.011460
# 5 0.005753 0.000188 0.001349 0.000000 0.034968 0.000000
# 6 0.000000 0.000000 0.000000 0.011460 0.000000 0.043136
#
#
# Mechanical properties :
#
#
# Convention : Reuss Voigt Hill
#
# Bulk Modulus (GPa) = 36.38121 57.60141 46.99131
# Shear Modulus (GPa) = 29.95115 37.21703 33.58409
#
# Velocity S-wave (km/s) = 3.50059 3.90216 3.70682
# Velocity P-wave (km/s) = 5.58782 6.62340 6.12753
#
# Compressibility (1/GPa) = 0.02748671
#
# Stress axis : x y z
#
# Youngs Moduli (GPa) = 43.64756 84.28423 130.89544
#
# Poissons Ratio (x) = 0.11148 0.27212
# Poissons Ratio (y) = 0.05773 0.53178
# Poissons Ratio (z) = 0.09074 0.34242
#
# Static dielectric constant tensor:
#      x y z
#    x 3.914230 0.000000 -0.365260 
#    y 0.000000 4.681120 0.000000 
#    z -0.365260 0.000000 4.499900 
# 
# 
# High freq. dielectric constant tensor:
#      x y z
#    x 1.933190 0.000000 -0.027020 
#    y 0.000000 1.996790 0.000000 
#    z -0.027020 0.000000 1.979280 
# 
# From -- ./inp_files/25826.got.cif
#   From: 2010.03.12/outbox.cif.g09.slc.cpg/sg5_13_cif.got.tgz:25826.got - 2010.03.31 09:47:26.
