data_PCOD8051502
_publ_section_title
;
Structure prediction by ZEFSAII (Michael W. Deem and Ramdas Pophale) SiO2 
 PCOD8051502
Probable space group: C 2
;
_chemical_formula_sum "Si O2"
_cell_formula_units_Z 30
_cell_length_a 13.191573
_cell_length_b 17.623564
_cell_length_c 10.587339
_cell_angle_alpha 90.000000
_cell_angle_beta 146.193808
_cell_angle_gamma 90.000000
_cell_volume 1369.471136
_symmetry_space_group_name_H-M "C 2"
_symmetry_group_IT_number 5
_symmetry_cell_setting 'monoclinic'
loop_
_space_group_symop_operation_xyz
x,y,z
-x,y,-z
1/2+x,1/2+y,z
1/2-x,1/2+y,-z
loop_
_atom_site_type_symbol
_atom_site_label
_atom_site_fract_x
_atom_site_fract_y
_atom_site_fract_z
Si Si1 0.763456 0.993460 0.658037
Si Si2 0.500000 0.015918 0.000000
Si Si3 0.888013 0.923558 0.051919
Si Si4 0.721225 0.153868 0.495631
Si Si5 0.019678 0.423128 0.788030
Si Si6 0.375196 0.248834 0.088202
Si Si7 0.030776 0.262400 0.885184
Si Si8 0.716599 0.632002 0.726755
O O1 0.820512 0.966490 0.855485
O O2 0.573024 0.952420 0.435067
O O3 0.723163 0.083070 0.595319
O O4 0.919075 0.964358 0.718929
O O5 0.667346 0.060391 0.104262
O O6 0.572571 0.963512 0.187879
O O7 0.737908 0.937521 0.005050
O O8 0.917623 0.832205 0.073658
O O9 0.551215 0.210727 0.336200
O O10 0.706208 0.131868 0.334819
O O11 0.914371 0.192323 0.717503
O O12 0.968465 0.335225 0.742209
O O13 0.241362 0.248051 0.070231
O O14 0.278651 0.204579 0.871965
O O15 0.000000 0.276959 0.000000
O O16 0.500000 0.620938 0.500000
#
# Coordination Sequence:
#
# PCOD8051502 Si02
#       8
#     4   2   4   4   4   4   4   4
#     4  11  24  43  66 102 134 173 216 283 337 402
#     4  12  24  42  66  96 134 170 222 276 332 408
#     4  10  26  42  70  99 132 173 227 279 333 396
#     4  12  25  43  66 100 139 177 218 278 341 400
#     4  11  23  45  68  94 133 177 220 275 334 402
#     4  11  24  46  71  99 132 178 232 283 330 402
#     4  11  26  45  67  95 134 180 227 274 334 407
#     4  12  24  41  69 101 129 173 227 278 333 399
#
# _framework density 21.906267
#
# number of rings (size 3 to 8) (size 9 to 14) (size 15 to 20)
#    0.000    0.800    4.667    1.200    9.333    1.600 
#    2.400    0.000    0.000    0.000    0.000    0.000 
#    0.000    0.000    0.000    0.000    0.000    0.000 
#
# Total GULP energy -185858.285348 kJ/mol
# GULP energy per Si atom -12390.552357 kJ/mol
# Density = 2.185641 g / cm^3
# Si number density = 21.906267 Si / 1000 Ang^3
#
#
#
# Elastic Constant Matrix: (Units=GPa)
#
#
# Indices 1 2 3 4 5 6 
#
# 1 78.6475 37.6136 15.1160 0.0000 4.7271 0.0000
# 2 37.6136 144.1201 44.9845 0.0000 5.2913 0.0000
# 3 15.1160 44.9845 82.6294 0.0000 18.1365 0.0000
# 4 0.0000 0.0000 0.0000 34.6104 0.0000 -2.0405
# 5 4.7271 5.2913 18.1365 0.0000 30.2894 0.0000
# 6 0.0000 0.0000 0.0000 -2.0405 0.0000 21.6956
#
#
#
# Elastic Compliance Matrix: (Units=1/GPa)
#
#
# Indices 1 2 3 4 5 6 
#
# 1 0.014616 -0.003644 -0.000379 0.000000 -0.001418 0.000000
# 2 -0.003644 0.009324 -0.004809 0.000000 0.001819 0.000000
# 3 -0.000379 -0.004809 0.016800 0.000000 -0.009160 0.000000
# 4 0.000000 0.000000 0.000000 0.029054 0.000000 0.002733
# 5 -0.001418 0.001819 -0.009160 0.000000 0.038403 0.000000
# 6 0.000000 0.000000 0.000000 0.002733 0.000000 0.046349
#
#
# Mechanical properties :
#
#
# Convention : Reuss Voigt Hill
#
# Bulk Modulus (GPa) = 43.33403 55.64725 49.49064
# Shear Modulus (GPa) = 27.79294 31.16462 29.47878
#
# Velocity S-wave (km/s) = 3.56577 3.77588 3.67233
# Velocity P-wave (km/s) = 6.06445 6.66837 6.37357
#
# Compressibility (1/GPa) = 0.02307655
#
# Stress axis : x y z
#
# Youngs Moduli (GPa) = 68.41883 107.25080 59.52384
#
# Poissons Ratio (x) = 0.39086 0.02253
# Poissons Ratio (y) = 0.24934 0.28623
# Poissons Ratio (z) = 0.02590 0.51574
#
# Static dielectric constant tensor:
#      x y z
#    x 4.043330 0.000000 0.266900 
#    y 0.000000 4.115230 0.000000 
#    z 0.266900 0.000000 4.186780 
# 
# 
# High freq. dielectric constant tensor:
#      x y z
#    x 1.858420 0.000000 0.015670 
#    y 0.000000 1.872120 0.000000 
#    z 0.015670 0.000000 1.864750 
# 
# From -- ./inp_files/43325.got.cif
#   From: 2010.03.12/outbox.cif.g09.slc.cpg/sg5_22_cif.got.tgz:43325.got - 2010.03.31 09:47:26.
