data_PCOD8051287
_publ_section_title
;
Structure prediction by ZEFSAII (Michael W. Deem and Ramdas Pophale) SiO2 
 PCOD8051287
Probable space group: C 2
;
_chemical_formula_sum "Si O2"
_cell_formula_units_Z 32
_cell_length_a 11.492222
_cell_length_b 14.968693
_cell_length_c 17.248576
_cell_angle_alpha 90.000000
_cell_angle_beta 30.977227
_cell_angle_gamma 90.000000
_cell_volume 1527.189958
_symmetry_space_group_name_H-M "C 2"
_symmetry_group_IT_number 5
_symmetry_cell_setting 'monoclinic'
loop_
_space_group_symop_operation_xyz
x,y,z
-x,y,-z
1/2+x,1/2+y,z
1/2-x,1/2+y,-z
loop_
_atom_site_type_symbol
_atom_site_label
_atom_site_fract_x
_atom_site_fract_y
_atom_site_fract_z
Si Si1 0.947229 0.104540 0.796554
Si Si2 0.260737 0.638028 0.162944
Si Si3 0.526128 0.150638 0.136686
Si Si4 0.314608 0.000232 0.170437
Si Si5 0.799719 0.266867 0.397126
Si Si6 0.859910 0.296528 0.658130
Si Si7 0.797071 0.808073 0.712479
Si Si8 0.302917 0.000507 0.674893
O O1 0.157919 0.167678 0.657721
O O2 0.051815 0.027523 0.790209
O O3 0.876700 0.064232 0.754578
O O4 0.742508 0.157250 0.955860
O O5 0.095461 0.660654 0.186178
O O6 0.332438 0.729277 0.167799
O O7 0.136500 0.562815 0.285960
O O8 0.500000 0.596631 0.000000
O O9 0.350779 0.229007 0.214666
O O10 0.415189 0.052209 0.187551
O O11 0.209428 0.904537 0.245985
O O12 0.500000 0.983962 0.000000
O O13 0.552403 0.272841 0.573809
O O14 0.802661 0.325691 0.316581
O O15 0.984877 0.291929 0.354464
O O16 0.769659 0.396854 0.712672
O O17 0.000000 0.274792 0.500000
O O18 0.500000 0.014257 0.500000
#
# Coordination Sequence:
#
# PCOD8051287 Si02
#       8
#     4   4   4   4   4   4   4   4
#     4  11  22  46  69  95 136 179 223 276 346 401
#     4  12  23  43  67 103 137 173 227 280 334 403
#     4  11  24  46  69  99 136 173 227 283 337 399
#     4  10  24  43  69  98 133 177 224 277 342 404
#     4  11  23  45  65  95 137 175 231 268 340 405
#     4  11  26  46  68  99 132 181 223 281 342 405
#     4  11  24  42  67 100 135 180 221 281 336 404
#     4  11  25  44  70  99 136 181 224 275 343 405
#
# _framework density 20.953517000000002
#
# number of rings (size 3 to 8) (size 9 to 14) (size 15 to 20)
#    0.000    1.000    3.750    1.875    7.000    0.000 
#    6.750    0.000    0.000    0.000    0.000    0.000 
#    0.000    0.000    0.000    0.000    0.000    0.000 
#
# Total GULP energy -198351.311111 kJ/mol
# GULP energy per Si atom -12396.956944 kJ/mol
# Density = 2.090583 g / cm^3
# Si number density = 20.953517 Si / 1000 Ang^3
#
#
#
# Elastic Constant Matrix: (Units=GPa)
#
#
# Indices 1 2 3 4 5 6 
#
# 1 146.7151 40.7966 46.3283 0.0280 -4.7188 0.0142
# 2 40.7966 138.5971 67.3568 0.0039 1.1942 0.0033
# 3 46.3283 67.3568 87.7418 -0.0093 -8.3902 0.0097
# 4 0.0280 0.0039 -0.0093 27.1960 -0.0177 -6.8713
# 5 -4.7188 1.1942 -8.3902 -0.0177 33.2613 -0.0025
# 6 0.0142 0.0033 0.0097 -6.8713 -0.0025 26.7431
#
#
#
# Elastic Compliance Matrix: (Units=1/GPa)
#
#
# Indices 1 2 3 4 5 6 
#
# 1 0.008202 -0.000511 -0.003920 -0.000011 0.000193 -0.000006
# 2 -0.000511 0.011784 -0.009042 -0.000006 -0.002776 0.000000
# 3 -0.003920 -0.009042 0.020890 0.000016 0.005038 0.000000
# 4 -0.000011 -0.000006 0.000016 0.039323 0.000024 0.010103
# 5 0.000193 -0.002776 0.005038 0.000024 0.031463 0.000008
# 6 -0.000006 0.000000 0.000000 0.010103 0.000008 0.039989
#
#
# Mechanical properties :
#
#
# Convention : Reuss Voigt Hill
#
# Bulk Modulus (GPa) = 71.78709 75.77970 73.78340
# Shear Modulus (GPa) = 27.28684 32.01158 29.64921
#
# Velocity S-wave (km/s) = 3.61259 3.91288 3.76573
# Velocity P-wave (km/s) = 7.19275 7.52717 7.36186
#
# Compressibility (1/GPa) = 0.01393008
#
# Stress axis : x y z
#
# Youngs Moduli (GPa) = 121.92078 84.86355 47.87045
#
# Poissons Ratio (x) = 0.04335 0.18766
# Poissons Ratio (y) = 0.06228 0.43283
# Poissons Ratio (z) = 0.47794 0.76731
#
# Static dielectric constant tensor:
#      x y z
#    x 4.063810 0.000100 0.041830 
#    y 0.000100 3.784010 0.000010 
#    z 0.041830 0.000010 3.766140 
# 
# 
# High freq. dielectric constant tensor:
#      x y z
#    x 1.837170 0.000000 -0.000910 
#    y 0.000000 1.820120 0.000000 
#    z -0.000910 0.000000 1.818440 
# 
# From -- ./inp_files/60681.got.cif
#   From: 2010.03.12/outbox.cif.g09.slc.cpg/sg5_31_cif.got.tgz:60681.got - 2010.03.31 09:47:26.
