data_PCOD8051080
_publ_section_title
;
Structure prediction by ZEFSAII (Michael W. Deem and Ramdas Pophale) SiO2 
 PCOD8051080
Probable space group: C 2
;
_chemical_formula_sum "Si O2"
_cell_formula_units_Z 20
_cell_length_a 15.227671
_cell_length_b 10.059485
_cell_length_c 18.252151
_cell_angle_alpha 90.000000
_cell_angle_beta 158.672520
_cell_angle_gamma 90.000000
_cell_volume 1016.867226
_symmetry_space_group_name_H-M "C 2"
_symmetry_group_IT_number 5
_symmetry_cell_setting 'monoclinic'
loop_
_space_group_symop_operation_xyz
x,y,z
-x,y,-z
1/2+x,1/2+y,z
1/2-x,1/2+y,-z
loop_
_atom_site_type_symbol
_atom_site_label
_atom_site_fract_x
_atom_site_fract_y
_atom_site_fract_z
Si Si1 0.605227 0.473450 0.277275
Si Si2 0.579357 0.059165 0.347562
Si Si3 0.581527 0.955599 0.917168
Si Si4 0.750826 0.188960 0.348820
Si Si5 0.069318 0.178418 0.972217
O O1 0.829231 0.503770 0.504724
O O2 0.652190 0.338556 0.268844
O O3 0.588230 0.588306 0.204164
O O4 0.369983 0.468913 0.145940
O O5 0.779093 0.144865 0.456721
O O6 0.490380 0.937590 0.225402
O O7 0.354164 0.158084 0.183951
O O8 0.496885 0.830280 0.898641
O O9 0.447635 0.089450 0.842807
O O10 0.000000 0.174827 0.500000
O O11 0.000000 0.140543 0.000000
#
# Coordination Sequence:
#
# PCOD8051080 Si02
#       5
#     4   4   4   4   4
#     4  11  21  43  69  90 136 171 220 271 326 391
#     4   9  23  40  67  95 126 175 215 275 323 387
#     4   9  21  44  64  88 132 167 222 262 326 388
#     4  10  23  43  63 100 126 168 222 263 332 383
#     4  11  24  41  64  98 130 175 222 266 327 390
#
# _framework density 19.66825
#
# number of rings (size 3 to 8) (size 9 to 14) (size 15 to 20)
#    1.200    0.800    2.000    0.000    5.600    1.600 
#    3.600    1.000    0.000    0.000    0.000    0.000 
#    0.000    0.000    0.000    0.000    0.000    0.000 
#
# Total GULP energy -123920.339883 kJ/mol
# GULP energy per Si atom -12392.033988 kJ/mol
# Density = 1.962348 g / cm^3
# Si number density = 19.668250 Si / 1000 Ang^3
#
#
#
# Elastic Constant Matrix: (Units=GPa)
#
#
# Indices 1 2 3 4 5 6 
#
# 1 94.0553 23.4150 34.6366 -0.0015 15.5193 0.0033
# 2 23.4150 118.0542 40.5028 0.0101 3.3089 0.0007
# 3 34.6366 40.5028 98.1589 0.0016 0.8961 0.0078
# 4 -0.0015 0.0101 0.0016 18.7403 0.0021 3.1919
# 5 15.5193 3.3089 0.8961 0.0021 37.9792 0.0027
# 6 0.0033 0.0007 0.0078 3.1919 0.0027 23.8916
#
#
#
# Elastic Compliance Matrix: (Units=1/GPa)
#
#
# Indices 1 2 3 4 5 6 
#
# 1 0.013312 -0.001046 -0.004218 0.000003 -0.005249 0.000000
# 2 -0.001046 0.009972 -0.003742 -0.000005 -0.000353 0.000002
# 3 -0.004218 -0.003742 0.013204 0.000001 0.001738 -0.000004
# 4 0.000003 -0.000005 0.000001 0.054603 -0.000003 -0.007295
# 5 -0.005249 -0.000353 0.001738 -0.000003 0.028465 -0.000003
# 6 0.000000 0.000002 -0.000004 -0.007295 -0.000003 0.042830
#
#
# Mechanical properties :
#
#
# Convention : Reuss Voigt Hill
#
# Bulk Modulus (GPa) = 54.12525 56.37524 55.25024
# Shear Modulus (GPa) = 26.80144 30.23648 28.51896
#
# Velocity S-wave (km/s) = 3.69545 3.92513 3.81202
# Velocity P-wave (km/s) = 6.76663 7.01908 6.89401
#
# Compressibility (1/GPa) = 0.01847566
#
# Stress axis : x y z
#
# Youngs Moduli (GPa) = 75.12169 100.28060 75.73396
#
# Poissons Ratio (x) = 0.10491 0.31942
# Poissons Ratio (y) = 0.07859 0.28342
# Poissons Ratio (z) = 0.31684 0.37528
#
# Static dielectric constant tensor:
#      x y z
#    x 3.424120 0.000000 0.042810 
#    y 0.000000 3.517180 -0.000020 
#    z 0.042810 -0.000020 3.372500 
# 
# 
# High freq. dielectric constant tensor:
#      x y z
#    x 1.757250 0.000000 0.009000 
#    y 0.000000 1.767980 0.000000 
#    z 0.009000 0.000000 1.752340 
# 
# From -- ./inp_files/55876.got.cif
#   From: 2010.03.12/outbox.cif.g09.slc.cpg/sg5_28_cif.got.tgz:55876.got - 2010.03.31 09:47:26.
