data_PCOD8051862
_publ_section_title
;
Structure prediction by ZEFSAII (Michael W. Deem and Ramdas Pophale) SiO2 
 PCOD8051862
Probable space group: C 2
;
_chemical_formula_sum "Si O2"
_cell_formula_units_Z 18
_cell_length_a 10.667317
_cell_length_b 11.292506
_cell_length_c 9.228412
_cell_angle_alpha 90.000000
_cell_angle_beta 44.798460
_cell_angle_gamma 90.000000
_cell_volume 783.293415
_symmetry_space_group_name_H-M "C 2"
_symmetry_group_IT_number 5
_symmetry_cell_setting 'monoclinic'
loop_
_space_group_symop_operation_xyz
x,y,z
-x,y,-z
1/2+x,1/2+y,z
1/2-x,1/2+y,-z
loop_
_atom_site_type_symbol
_atom_site_label
_atom_site_fract_x
_atom_site_fract_y
_atom_site_fract_z
Si Si1 0.000000 0.306100 0.000000
Si Si2 0.903976 0.113285 0.290829
Si Si3 0.213689 0.200494 0.331805
Si Si4 0.249943 0.996554 0.102598
Si Si5 0.186423 0.456418 0.272090
O O1 0.003310 0.229455 0.146006
O O2 0.817920 0.385522 0.144028
O O3 0.752930 0.155779 0.530505
O O4 0.037195 0.014153 0.251909
O O5 0.813235 0.058909 0.224539
O O6 0.311916 0.114647 0.136914
O O7 0.279799 0.331611 0.237195
O O8 0.000000 0.195080 0.500000
O O9 0.345953 0.979320 0.870396
O O10 0.000000 0.465860 0.500000
#
# Coordination Sequence:
#
# PCOD8051862 Si02
#       5
#     2   4   4   4   4
#     4  12  24  44  74  96 144 180 232 292 328 416
#     4  11  24  48  67 103 140 181 231 287 339 412
#     4   9  22  42  68  95 135 172 227 280 339 405
#     4  11  23  44  72  96 134 185 226 281 352 391
#     4  11  23  44  70 100 141 180 227 287 343 408
#
# _framework density 22.979894999999999
#
# number of rings (size 3 to 8) (size 9 to 14) (size 15 to 20)
#    0.000    1.333    2.222    4.000    6.222    0.000 
#   12.000    0.000    0.000    0.000    0.000    0.000 
#    0.000    0.000    0.000    0.000    0.000    0.000 
#
# Total GULP energy -111515.336757 kJ/mol
# GULP energy per Si atom -12390.592973 kJ/mol
# Density = 2.292759 g / cm^3
# Si number density = 22.979895 Si / 1000 Ang^3
#
#
#
# Elastic Constant Matrix: (Units=GPa)
#
#
# Indices 1 2 3 4 5 6 
#
# 1 72.9664 41.7206 13.2528 0.0000 12.1725 0.0000
# 2 41.7206 145.9811 57.5622 0.0000 5.4912 0.0000
# 3 13.2528 57.5622 118.9655 0.0000 29.0054 0.0000
# 4 0.0000 0.0000 0.0000 28.1886 0.0000 -0.1596
# 5 12.1725 5.4912 29.0054 0.0000 27.9712 0.0000
# 6 0.0000 0.0000 0.0000 -0.1596 0.0000 35.6803
#
#
#
# Elastic Compliance Matrix: (Units=1/GPa)
#
#
# Indices 1 2 3 4 5 6 
#
# 1 0.018375 -0.006245 0.003514 0.000000 -0.010414 0.000000
# 2 -0.006245 0.010846 -0.006285 0.000000 0.007106 0.000000
# 3 0.003514 -0.006285 0.014892 0.000000 -0.015739 0.000000
# 4 0.000000 0.000000 0.000000 0.035476 0.000000 0.000159
# 5 -0.010414 0.007106 -0.015739 0.000000 0.055209 0.000000
# 6 0.000000 0.000000 0.000000 0.000159 0.000000 0.028027
#
#
# Mechanical properties :
#
#
# Convention : Reuss Voigt Hill
#
# Bulk Modulus (GPa) = 38.34125 62.55380 50.44752
# Shear Modulus (GPa) = 26.37811 33.39320 29.88566
#
# Velocity S-wave (km/s) = 3.39171 3.81615 3.61018
# Velocity P-wave (km/s) = 5.66208 6.83356 6.27522
#
# Compressibility (1/GPa) = 0.02608157
#
# Stress axis : x y z
#
# Youngs Moduli (GPa) = 54.42179 92.20088 67.14821
#
# Poissons Ratio (x) = 0.57583 -0.23596
# Poissons Ratio (y) = 0.33988 0.42200
# Poissons Ratio (z) = -0.19124 0.57944
#
# Static dielectric constant tensor:
#      x y z
#    x 4.083650 0.000000 0.333590 
#    y 0.000000 4.486000 0.000000 
#    z 0.333590 0.000000 4.374400 
# 
# 
# High freq. dielectric constant tensor:
#      x y z
#    x 1.894130 0.000000 0.029860 
#    y 0.000000 1.913790 0.000000 
#    z 0.029860 0.000000 1.903820 
# 
# From -- ./inp_files/18221.got.cif
#   From: 2010.03.12/outbox.cif.g09.slc.cpg/sg5_10_cif.got.tgz:18221.got - 2010.03.31 09:47:26.
