data_PCOD8051823
_publ_section_title
;
Structure prediction by ZEFSAII (Michael W. Deem and Ramdas Pophale) SiO2 
 PCOD8051823
Probable space group: C 2
;
_chemical_formula_sum "Si O2"
_cell_formula_units_Z 30
_cell_length_a 11.668030
_cell_length_b 14.815309
_cell_length_c 8.819875
_cell_angle_alpha 90.000000
_cell_angle_beta 69.025501
_cell_angle_gamma 90.000000
_cell_volume 1423.628154
_symmetry_space_group_name_H-M "C 2"
_symmetry_group_IT_number 5
_symmetry_cell_setting 'monoclinic'
loop_
_space_group_symop_operation_xyz
x,y,z
-x,y,-z
1/2+x,1/2+y,z
1/2-x,1/2+y,-z
loop_
_atom_site_type_symbol
_atom_site_label
_atom_site_fract_x
_atom_site_fract_y
_atom_site_fract_z
Si Si1 0.500000 0.264000 0.500000
Si Si2 0.332918 0.205986 0.323655
Si Si3 0.110441 0.903035 0.249315
Si Si4 0.520947 0.860927 0.166072
Si Si5 0.683195 0.001271 0.691816
Si Si6 0.085057 0.196143 0.598748
Si Si7 0.134689 0.004765 0.667933
Si Si8 0.804965 0.868285 0.112328
O O1 0.442752 0.204705 0.393323
O O2 0.609254 0.322042 0.371228
O O3 0.209938 0.232820 0.469060
O O4 0.348962 0.281212 0.186722
O O5 0.333029 0.105813 0.253954
O O6 0.233381 0.960793 0.213915
O O7 0.111280 0.866602 0.077218
O O8 0.987224 0.959032 0.340533
O O9 0.447760 0.950806 0.252733
O O10 0.473739 0.774827 0.277766
O O11 0.662873 0.869380 0.136907
O O12 0.500000 0.842865 0.000000
O O13 0.751908 0.989499 0.499618
O O14 0.109334 0.111265 0.698208
O O15 0.000000 0.163957 0.500000
O O16 0.169561 0.961505 0.811714
#
# Coordination Sequence:
#
# PCOD8051823 Si02
#       8
#     2   4   4   4   4   4   4   4
#     4  12  24  44  70  96 134 178 230 272 336 394
#     4  11  25  44  68 104 130 180 222 278 332 398
#     4  12  22  42  70  96 140 174 220 278 335 394
#     4  12  26  45  66  98 138 181 219 273 336 401
#     4  11  24  46  68  96 139 177 226 272 333 396
#     4  11  23  43  73  98 131 173 232 280 329 391
#     4  11  23  41  71 103 125 174 224 284 329 392
#     4  12  25  44  68 102 139 176 222 273 344 395
#
# _framework density 21.072918000000001
#
# number of rings (size 3 to 8) (size 9 to 14) (size 15 to 20)
#    0.000    0.533    5.333    3.600    0.000    3.200 
#    2.400    0.000    0.000    0.000    0.000    0.000 
#    0.000    0.000    0.000    0.000    0.000    0.000 
#
# Total GULP energy -186043.148855 kJ/mol
# GULP energy per Si atom -12402.876590 kJ/mol
# Density = 2.102495 g / cm^3
# Si number density = 21.072918 Si / 1000 Ang^3
#
#
#
# Elastic Constant Matrix: (Units=GPa)
#
#
# Indices 1 2 3 4 5 6 
#
# 1 82.7964 25.2268 15.6842 0.0000 20.3841 0.0000
# 2 25.2268 123.2777 56.2139 0.0000 7.7408 0.0000
# 3 15.6842 56.2139 102.4542 0.0000 8.9077 0.0000
# 4 0.0000 0.0000 0.0000 26.4995 0.0000 0.8177
# 5 20.3841 7.7408 8.9077 0.0000 32.7567 0.0000
# 6 0.0000 0.0000 0.0000 0.8177 0.0000 38.6506
#
#
#
# Elastic Compliance Matrix: (Units=1/GPa)
#
#
# Indices 1 2 3 4 5 6 
#
# 1 0.015000 -0.002429 -0.000207 0.000000 -0.008704 0.000000
# 2 -0.002429 0.011242 -0.005835 0.000000 0.000441 0.000000
# 3 -0.000207 -0.005835 0.013174 0.000000 -0.002075 0.000000
# 4 0.000000 0.000000 0.000000 0.037761 0.000000 -0.000799
# 5 -0.008704 0.000441 -0.002075 0.000000 0.036404 0.000000
# 6 0.000000 0.000000 0.000000 -0.000799 0.000000 0.025890
#
#
# Mechanical properties :
#
#
# Convention : Reuss Voigt Hill
#
# Bulk Modulus (GPa) = 44.49387 55.86424 50.17906
# Shear Modulus (GPa) = 30.50595 33.67491 32.09043
#
# Velocity S-wave (km/s) = 3.80891 4.00186 3.90658
# Velocity P-wave (km/s) = 6.36426 6.92248 6.64923
#
# Compressibility (1/GPa) = 0.02247501
#
# Stress axis : x y z
#
# Youngs Moduli (GPa) = 66.66729 88.95585 75.90828
#
# Poissons Ratio (x) = 0.21603 0.01571
# Poissons Ratio (y) = 0.16190 0.44289
# Poissons Ratio (z) = 0.01380 0.51902
#
# Static dielectric constant tensor:
#      x y z
#    x 3.972590 0.000000 -0.086950 
#    y 0.000000 3.821990 0.000000 
#    z -0.086950 0.000000 3.748370 
# 
# 
# High freq. dielectric constant tensor:
#      x y z
#    x 1.838900 0.000000 -0.002700 
#    y 0.000000 1.825770 0.000000 
#    z -0.002700 0.000000 1.826270 
# 
# From -- ./inp_files/20617.got.cif
#   From: 2010.03.12/outbox.cif.g09.slc.cpg/sg5_11_cif.got.tgz:20617.got - 2010.03.31 09:47:26.
