data_PCOD8051176
_publ_section_title
;
Structure prediction by ZEFSAII (Michael W. Deem and Ramdas Pophale) SiO2 
 PCOD8051176
Probable space group: C 2
;
_chemical_formula_sum "Si O2"
_cell_formula_units_Z 20
_cell_length_a 10.288036
_cell_length_b 10.663831
_cell_length_c 10.521479
_cell_angle_alpha 90.000000
_cell_angle_beta 136.540289
_cell_angle_gamma 90.000000
_cell_volume 793.985716
_symmetry_space_group_name_H-M "C 2"
_symmetry_group_IT_number 5
_symmetry_cell_setting 'monoclinic'
loop_
_space_group_symop_operation_xyz
x,y,z
-x,y,-z
1/2+x,1/2+y,z
1/2-x,1/2+y,-z
loop_
_atom_site_type_symbol
_atom_site_label
_atom_site_fract_x
_atom_site_fract_y
_atom_site_fract_z
Si Si1 0.317969 0.891270 0.303920
Si Si2 0.828133 0.185287 0.114746
Si Si3 0.303730 0.978805 0.797285
Si Si4 0.000000 0.078809 0.000000
Si Si5 0.577178 0.198274 0.285595
Si Si6 0.000000 0.781060 0.500000
O O1 0.500000 0.953627 0.500000
O O2 0.398562 0.800319 0.250690
O O3 0.204436 0.812462 0.327824
O O4 0.190369 0.998425 0.150347
O O5 0.818355 0.057786 0.188443
O O6 0.976297 0.166543 0.106184
O O7 0.623309 0.224089 0.920311
O O8 0.341811 0.064150 0.700258
O O9 0.180048 0.860999 0.670883
O O10 0.500000 0.933300 0.000000
O O11 0.564936 0.194441 0.429085
#
# Coordination Sequence:
#
# PCOD8051176 Si02
#       6
#     4   4   4   2   4   2
#     4  11  24  47  75 102 145 187 231 295 356 413
#     4  10  23  47  71 100 149 183 228 299 347 412
#     4   9  22  45  71  97 141 186 225 285 354 405
#     4  12  24  48  76 104 140 192 238 282 356 426
#     4  10  23  47  67 107 143 180 235 292 344 420
#     4  12  24  44  76 100 136 184 238 280 342 422
#
# _framework density 25.189371000000001
#
# number of rings (size 3 to 8) (size 9 to 14) (size 15 to 20)
#    0.000    1.600    2.000    2.400    5.600    4.800 
#   10.800    0.000    0.000    0.000    0.000    0.000 
#    0.000    0.000    0.000    0.000    0.000    0.000 
#
# Total GULP energy -124064.264640 kJ/mol
# GULP energy per Si atom -12406.426464 kJ/mol
# Density = 2.513204 g / cm^3
# Si number density = 25.189371 Si / 1000 Ang^3
#
#
#
# Elastic Constant Matrix: (Units=GPa)
#
#
# Indices 1 2 3 4 5 6 
#
# 1 163.6635 54.8856 48.3182 0.0000 -44.0492 0.0000
# 2 54.8856 46.6123 34.3822 0.0000 -2.8818 0.0000
# 3 48.3182 34.3822 128.0453 0.0000 -1.0448 0.0000
# 4 0.0000 0.0000 0.0000 96.4124 0.0000 52.8337
# 5 -44.0492 -2.8818 -1.0448 0.0000 47.7489 0.0000
# 6 0.0000 0.0000 0.0000 52.8337 0.0000 77.2353
#
#
#
# Elastic Compliance Matrix: (Units=1/GPa)
#
#
# Indices 1 2 3 4 5 6 
#
# 1 0.015737 -0.016707 -0.001342 0.000000 0.013480 0.000000
# 2 -0.016707 0.044590 -0.005774 0.000000 -0.012848 0.000000
# 3 -0.001342 -0.005774 0.009855 0.000000 -0.001371 0.000000
# 4 0.000000 0.000000 0.000000 0.016592 0.000000 -0.011350
# 5 0.013480 -0.012848 -0.001371 0.000000 0.032573 0.000000
# 6 0.000000 0.000000 0.000000 -0.011350 0.000000 0.020711
#
#
# Mechanical properties :
#
#
# Convention : Reuss Voigt Hill
#
# Bulk Modulus (GPa) = 44.37142 68.16591 56.26866
# Shear Modulus (GPa) = 25.61234 57.66166 41.63700
#
# Velocity S-wave (km/s) = 3.19218 4.78967 4.07007
# Velocity P-wave (km/s) = 5.58928 7.59658 6.66889
#
# Compressibility (1/GPa) = 0.02253703
#
# Stress axis : x y z
#
# Youngs Moduli (GPa) = 63.54288 22.42633 101.46679
#
# Poissons Ratio (x) = 0.37468 0.13621
# Poissons Ratio (y) = 1.06161 0.58583
# Poissons Ratio (z) = 0.08530 0.12948
#
# Static dielectric constant tensor:
#      x y z
#    x 1.539940 0.000000 2.070430 
#    y 0.000000 4.259860 0.000000 
#    z 2.070430 0.000000 3.040630 
# 
# 
# High freq. dielectric constant tensor:
#      x y z
#    x 2.014390 0.000000 -0.005380 
#    y 0.000000 1.996650 0.000000 
#    z -0.005380 0.000000 2.010090 
# 
# From -- ./inp_files/14358.got.cif
#   From: 2010.03.12/outbox.cif.g09.slc.cpg/sg5_8_cif.got.tgz:14358.got - 2010.03.31 09:47:26.
