data_PCOD8051835
_publ_section_title
;
Structure prediction by ZEFSAII (Michael W. Deem and Ramdas Pophale) SiO2 
 PCOD8051835
Probable space group: C 2
;
_chemical_formula_sum "Si O2"
_cell_formula_units_Z 28
_cell_length_a 29.932728
_cell_length_b 7.795746
_cell_length_c 6.603195
_cell_angle_alpha 90.000000
_cell_angle_beta 121.782585
_cell_angle_gamma 90.000000
_cell_volume 1309.797073
_symmetry_space_group_name_H-M "C 2"
_symmetry_group_IT_number 5
_symmetry_cell_setting 'monoclinic'
loop_
_space_group_symop_operation_xyz
x,y,z
-x,y,-z
1/2+x,1/2+y,z
1/2-x,1/2+y,-z
loop_
_atom_site_type_symbol
_atom_site_label
_atom_site_fract_x
_atom_site_fract_y
_atom_site_fract_z
Si Si1 0.197977 0.476350 0.980968
Si Si2 0.370715 0.497941 0.913299
Si Si3 0.058521 0.144276 0.560485
Si Si4 0.766432 0.826105 0.808768
Si Si5 0.056961 0.840947 0.232145
Si Si6 0.602650 0.994443 0.476357
Si Si7 0.831907 0.331347 0.690810
O O1 0.243246 0.374993 0.971566
O O2 0.153417 0.550266 0.726821
O O3 0.225287 0.623895 0.175149
O O4 0.169945 0.350950 0.072178
O O5 0.321980 0.414598 0.911223
O O6 0.402032 0.357714 0.855877
O O7 0.349021 0.634889 0.697726
O O8 0.406642 0.590194 0.165544
O O9 0.074543 0.329606 0.508111
O O10 0.000000 0.163775 0.500000
O O11 0.062747 0.998618 0.399725
O O12 0.725204 0.873780 0.536409
O O13 0.065143 0.660191 0.369392
O O14 0.000000 0.840310 0.000000
O O15 0.623220 0.949434 0.300756
#
# Coordination Sequence:
#
# PCOD8051835 Si02
#       7
#     4   4   4   4   4   4   4
#     4  11  23  43  63 101 141 179 231 283 352 426
#     4  12  24  45  72  98 146 186 229 298 352 419
#     4  12  26  48  74 102 139 190 236 294 361 420
#     4  11  25  38  67 101 137 184 229 283 348 425
#     4  12  27  47  72 104 137 182 244 295 355 424
#     4  11  26  45  71 103 140 181 232 292 357 418
#     4  11  23  42  70 100 137 185 228 282 356 423
#
# _framework density 21.377355000000001
#
# number of rings (size 3 to 8) (size 9 to 14) (size 15 to 20)
#    0.000    0.571    4.286    3.429    2.000    8.000 
#    2.571    0.000    0.000    0.000    0.000    0.000 
#    0.000    0.000    0.000    0.000    0.000    0.000 
#
# Total GULP energy -173616.795232 kJ/mol
# GULP energy per Si atom -12401.199659 kJ/mol
# Density = 2.132870 g / cm^3
# Si number density = 21.377355 Si / 1000 Ang^3
#
#
#
# Elastic Constant Matrix: (Units=GPa)
#
#
# Indices 1 2 3 4 5 6 
#
# 1 135.6381 40.4786 51.6845 0.0000 -2.2210 0.0000
# 2 40.4786 130.1851 36.0078 0.0000 -0.0356 0.0000
# 3 51.6845 36.0078 73.6916 0.0000 -6.7826 0.0000
# 4 0.0000 0.0000 0.0000 38.1171 0.0000 -1.3319
# 5 -2.2210 -0.0356 -6.7826 0.0000 34.4019 0.0000
# 6 0.0000 0.0000 0.0000 -1.3319 0.0000 31.7685
#
#
#
# Elastic Compliance Matrix: (Units=1/GPa)
#
#
# Indices 1 2 3 4 5 6 
#
# 1 0.010288 -0.001372 -0.006604 0.000000 -0.000639 0.000000
# 2 -0.001372 0.009090 -0.003551 0.000000 -0.000779 0.000000
# 3 -0.006604 -0.003551 0.020265 0.000000 0.003565 0.000000
# 4 0.000000 0.000000 0.000000 0.026273 0.000000 0.001102
# 5 -0.000639 -0.000779 0.003565 0.000000 0.029729 0.000000
# 6 0.000000 0.000000 0.000000 0.001102 0.000000 0.031524
#
#
# Mechanical properties :
#
#
# Convention : Reuss Voigt Hill
#
# Bulk Modulus (GPa) = 60.28162 66.20628 63.24395
# Shear Modulus (GPa) = 32.10207 34.94708 33.52458
#
# Velocity S-wave (km/s) = 3.87936 4.04762 3.96438
# Velocity P-wave (km/s) = 6.95169 7.27199 7.11364
#
# Compressibility (1/GPa) = 0.01658880
#
# Stress axis : x y z
#
# Youngs Moduli (GPa) = 97.20005 110.01091 49.34636
#
# Poissons Ratio (x) = 0.15099 0.32588
# Poissons Ratio (y) = 0.13341 0.17522
# Poissons Ratio (z) = 0.64189 0.39062
#
# Static dielectric constant tensor:
#      x y z
#    x 4.487220 0.000000 -0.322790 
#    y 0.000000 3.905090 0.000000 
#    z -0.322790 0.000000 3.962660 
# 
# 
# High freq. dielectric constant tensor:
#      x y z
#    x 1.852290 0.000000 -0.001810 
#    y 0.000000 1.845870 0.000000 
#    z -0.001810 0.000000 1.844660 
# 
# From -- ./inp_files/11276.got.cif
#   From: 2010.03.12/outbox.cif.g09.slc.cpg/sg5_6_cif.got.tgz:11276.got - 2010.03.31 09:47:26.
