data_PCOD8051393
_publ_section_title
;
Structure prediction by ZEFSAII (Michael W. Deem and Ramdas Pophale) SiO2 
 PCOD8051393
Probable space group: C 2
;
_chemical_formula_sum "Si O2"
_cell_formula_units_Z 22
_cell_length_a 13.806626
_cell_length_b 10.743539
_cell_length_c 16.707813
_cell_angle_alpha 90.000000
_cell_angle_beta 157.315972
_cell_angle_gamma 90.000000
_cell_volume 955.755002
_symmetry_space_group_name_H-M "C 2"
_symmetry_group_IT_number 5
_symmetry_cell_setting 'monoclinic'
loop_
_space_group_symop_operation_xyz
x,y,z
-x,y,-z
1/2+x,1/2+y,z
1/2-x,1/2+y,-z
loop_
_atom_site_type_symbol
_atom_site_label
_atom_site_fract_x
_atom_site_fract_y
_atom_site_fract_z
Si Si1 0.379105 0.951010 0.488063
Si Si2 0.751945 0.098683 0.857158
Si Si3 0.279324 0.547318 0.203124
Si Si4 0.968147 0.143596 0.190266
Si Si5 0.500000 0.714261 0.500000
Si Si6 0.939828 0.813776 0.544026
O O1 0.500000 0.013650 0.500000
O O2 0.350616 0.802346 0.450570
O O3 0.558115 0.982131 0.701305
O O4 0.110330 0.012030 0.294403
O O5 0.635805 0.212209 0.720835
O O6 0.790341 0.145467 0.976988
O O7 0.000000 0.055964 0.000000
O O8 0.298236 0.637743 0.140310
O O9 0.308723 0.629862 0.305150
O O10 0.497481 0.441725 0.360782
O O11 0.000000 0.488653 0.000000
O O12 0.154427 0.263585 0.337450
O O13 0.000000 0.849343 0.500000
#
# Coordination Sequence:
#
# PCOD8051393 Si02
#       6
#     4   4   4   4   2   4
#     4   9  20  39  71 101 127 180 229 284 339 400
#     4  11  17  38  71 105 136 167 237 292 337 403
#     4  12  29  47  66 104 147 187 229 286 353 413
#     4  11  24  43  73 104 134 183 235 283 344 416
#     4  10  24  48  68  90 152 186 222 288 358 398
#     4  11  23  44  72  98 136 186 231 285 349 411
#
# _framework density 23.018450000000001
#
# number of rings (size 3 to 8) (size 9 to 14) (size 15 to 20)
#    0.545    0.727    4.545    1.636    2.545    5.091 
#    3.273    0.000    0.000    0.000    0.000    0.000 
#    0.000    0.000    0.000    0.000    0.000    0.000 
#
# Total GULP energy -136317.960964 kJ/mol
# GULP energy per Si atom -12392.541906 kJ/mol
# Density = 2.296606 g / cm^3
# Si number density = 23.018450 Si / 1000 Ang^3
#
#
#
# Elastic Constant Matrix: (Units=GPa)
#
#
# Indices 1 2 3 4 5 6 
#
# 1 89.8866 1.9493 21.2109 0.0352 -12.3331 0.0601
# 2 1.9493 98.1022 19.7468 0.2149 -9.2674 0.0920
# 3 21.2109 19.7468 87.1596 0.2267 -23.1442 0.1882
# 4 0.0352 0.2149 0.2267 20.9555 0.0871 -1.8101
# 5 -12.3331 -9.2674 -23.1442 0.0871 32.7981 0.0286
# 6 0.0601 0.0920 0.1882 -1.8101 0.0286 24.1885
#
#
#
# Elastic Compliance Matrix: (Units=1/GPa)
#
#
# Indices 1 2 3 4 5 6 
#
# 1 0.012066 0.000502 -0.002224 -0.000016 0.003109 -0.000019
# 2 0.000502 0.010771 -0.002097 -0.000099 0.001753 -0.000035
# 3 -0.002224 -0.002097 0.014904 -0.000185 0.009089 -0.000127
# 4 -0.000016 -0.000099 -0.000185 0.048035 -0.000295 0.003597
# 5 0.003109 0.001753 0.009089 -0.000295 0.038569 -0.000153
# 6 -0.000019 -0.000035 -0.000127 0.003597 -0.000153 0.041613
#
#
# Mechanical properties :
#
#
# Convention : Reuss Voigt Hill
#
# Bulk Modulus (GPa) = 33.21980 40.10695 36.66337
# Shear Modulus (GPa) = 27.22876 31.07116 29.14996
#
# Velocity S-wave (km/s) = 3.44308 3.67800 3.56248
# Velocity P-wave (km/s) = 5.50177 5.95807 5.73446
#
# Compressibility (1/GPa) = 0.03010253
#
# Stress axis : x y z
#
# Youngs Moduli (GPa) = 82.87923 92.83882 67.09767
#
# Poissons Ratio (x) = -0.04658 0.14924
# Poissons Ratio (y) = -0.04158 0.14068
# Poissons Ratio (z) = 0.18434 0.19465
#
# Static dielectric constant tensor:
#      x y z
#    x 4.036290 0.000090 -0.404210 
#    y 0.000090 4.011380 -0.000120 
#    z -0.404210 -0.000120 4.227000 
# 
# 
# High freq. dielectric constant tensor:
#      x y z
#    x 1.903020 0.000000 -0.021620 
#    y 0.000000 1.898950 -0.000010 
#    z -0.021620 -0.000010 1.905070 
# 
# From -- ./inp_files/61670.got.cif
#   From: 2010.03.12/outbox.cif.g09.slc.cpg/sg5_31_cif.got.tgz:61670.got - 2010.03.31 09:47:26.
