data_PCOD8051150
_publ_section_title
;
Structure prediction by ZEFSAII (Michael W. Deem and Ramdas Pophale) SiO2 
 PCOD8051150
Probable space group: C 2
;
_chemical_formula_sum "Si O2"
_cell_formula_units_Z 32
_cell_length_a 11.502904
_cell_length_b 8.479081
_cell_length_c 28.983547
_cell_angle_alpha 90.000000
_cell_angle_beta 29.293065
_cell_angle_gamma 90.000000
_cell_volume 1383.128466
_symmetry_space_group_name_H-M "C 2"
_symmetry_group_IT_number 5
_symmetry_cell_setting 'monoclinic'
loop_
_space_group_symop_operation_xyz
x,y,z
-x,y,-z
1/2+x,1/2+y,z
1/2-x,1/2+y,-z
loop_
_atom_site_type_symbol
_atom_site_label
_atom_site_fract_x
_atom_site_fract_y
_atom_site_fract_z
Si Si1 0.282228 0.462070 0.410885
Si Si2 0.217909 0.383936 0.285795
Si Si3 0.974292 0.333435 0.897948
Si Si4 0.071023 0.029712 0.233662
Si Si5 0.771151 0.812812 0.105597
Si Si6 0.991802 0.103884 0.584069
Si Si7 0.332523 0.121554 0.381969
Si Si8 0.513795 0.461553 0.100633
O O1 0.437534 0.588131 0.327018
O O2 0.358332 0.474293 0.438684
O O3 0.395415 0.302557 0.348900
O O4 0.000000 0.484649 0.500000
O O5 0.365256 0.446325 0.276981
O O6 0.396964 0.351807 0.181159
O O7 0.073554 0.235504 0.355462
O O8 0.043777 0.518415 0.327288
O O9 0.912834 0.390547 0.867052
O O10 0.217410 0.407199 0.830378
O O11 0.977734 0.144830 0.890103
O O12 0.773562 0.387246 0.003537
O O13 0.159848 0.179307 0.175534
O O14 0.857343 0.954027 0.108465
O O15 0.000000 0.739296 0.000000
O O16 0.152400 0.163406 0.486350
O O17 0.766863 0.039781 0.631402
#
# Coordination Sequence:
#
# PCOD8051150 Si02
#       8
#     4   4   4   4   4   4   4   4
#     4  12  24  47  69 101 136 178 228 281 339 402
#     4  12  25  45  69 103 135 182 228 279 338 406
#     4  11  24  46  66 100 136 181 220 284 341 399
#     4  12  24  43  72  95 139 182 223 283 341 399
#     4  10  23  45  66  99 136 176 223 283 338 401
#     4  11  24  44  69  97 135 177 224 279 335 405
#     4  11  23  47  66  94 139 176 222 282 338 393
#     4  11  24  45  70  98 140 177 228 279 342 405
#
# _framework density 23.135957000000001
#
# number of rings (size 3 to 8) (size 9 to 14) (size 15 to 20)
#    0.000    0.750    3.750    4.500    0.000    1.000 
#   15.750    0.000    0.000    0.000    0.000    0.000 
#    0.000    0.000    0.000    0.000    0.000    0.000 
#
# Total GULP energy -198229.150745 kJ/mol
# GULP energy per Si atom -12389.321922 kJ/mol
# Density = 2.308330 g / cm^3
# Si number density = 23.135957 Si / 1000 Ang^3
#
#
#
# Elastic Constant Matrix: (Units=GPa)
#
#
# Indices 1 2 3 4 5 6 
#
# 1 188.4864 37.9488 54.9967 0.0099 -8.4007 -0.0062
# 2 37.9488 40.2422 27.4696 0.0233 -9.4435 -0.0009
# 3 54.9967 27.4696 123.7591 0.1114 6.6865 -0.0036
# 4 0.0099 0.0233 0.1114 22.3108 0.0014 -0.3694
# 5 -8.4007 -9.4435 6.6865 0.0014 40.5545 -0.0031
# 6 -0.0062 -0.0009 -0.0036 -0.3694 -0.0031 35.2109
#
#
#
# Elastic Compliance Matrix: (Units=1/GPa)
#
#
# Indices 1 2 3 4 5 6 
#
# 1 0.006927 -0.005033 -0.001993 0.000012 0.000592 0.000001
# 2 -0.005033 0.035734 -0.006143 -0.000005 0.008292 0.000000
# 3 -0.001993 -0.006143 0.010523 -0.000045 -0.003578 0.000000
# 4 0.000012 -0.000005 -0.000045 0.044829 0.000007 0.000470
# 5 0.000592 0.008292 -0.003578 0.000007 0.027301 0.000002
# 6 0.000001 0.000000 0.000000 0.000470 0.000002 0.028405
#
#
# Mechanical properties :
#
#
# Convention : Reuss Voigt Hill
#
# Bulk Modulus (GPa) = 37.24913 65.92421 51.58667
# Shear Modulus (GPa) = 26.45417 35.08673 30.77045
#
# Velocity S-wave (km/s) = 3.38512 3.89851 3.65085
# Velocity P-wave (km/s) = 5.60480 6.98718 6.33381
#
# Compressibility (1/GPa) = 0.02684626
#
# Stress axis : x y z
#
# Youngs Moduli (GPa) = 144.37245 27.98419 95.03181
#
# Poissons Ratio (x) = 0.14083 0.18940
# Poissons Ratio (y) = 0.72656 0.58380
# Poissons Ratio (z) = 0.28773 0.17191
#
# Static dielectric constant tensor:
#      x y z
#    x 4.690210 0.000070 0.075750 
#    y 0.000070 3.852390 0.000070 
#    z 0.075750 0.000070 4.561130 
# 
# 
# High freq. dielectric constant tensor:
#      x y z
#    x 1.944160 0.000000 0.006950 
#    y 0.000000 1.884980 -0.000010 
#    z 0.006950 -0.000010 1.933170 
# 
# From -- ./inp_files/71752.got.cif
#   From: 2010.03.12/outbox.cif.g09.slc.cpg/sg5_36_cif.got.tgz:71752.got - 2010.03.31 09:47:26.
