data_PCOD8051848
_publ_section_title
;
Structure prediction by ZEFSAII (Michael W. Deem and Ramdas Pophale) SiO2 
 PCOD8051848
Probable space group: C 2
;
_chemical_formula_sum "Si O2"
_cell_formula_units_Z 22
_cell_length_a 15.904578
_cell_length_b 9.887630
_cell_length_c 13.440989
_cell_angle_alpha 90.000000
_cell_angle_beta 152.099100
_cell_angle_gamma 90.000000
_cell_volume 989.097682
_symmetry_space_group_name_H-M "C 2"
_symmetry_group_IT_number 5
_symmetry_cell_setting 'monoclinic'
loop_
_space_group_symop_operation_xyz
x,y,z
-x,y,-z
1/2+x,1/2+y,z
1/2-x,1/2+y,-z
loop_
_atom_site_type_symbol
_atom_site_label
_atom_site_fract_x
_atom_site_fract_y
_atom_site_fract_z
Si Si1 0.914526 0.505630 0.107334
Si Si2 0.486880 0.524460 0.374111
Si Si3 0.686515 0.789043 0.587140
Si Si4 0.577541 0.091841 0.477330
Si Si5 0.000000 0.657257 0.000000
Si Si6 0.263862 0.823336 0.572617
O O1 0.943580 0.589086 0.241251
O O2 0.001374 0.571072 0.101059
O O3 0.025867 0.363845 0.225705
O O4 0.702407 0.482347 0.872531
O O5 0.500000 0.469765 0.500000
O O6 0.515649 0.687159 0.402619
O O7 0.646479 0.452251 0.481428
O O8 0.801653 0.781246 0.605813
O O9 0.636144 0.940598 0.562212
O O10 0.817951 0.743829 0.813395
O O11 0.500000 0.150297 0.500000
O O12 0.741189 0.194420 0.621729
#
# Coordination Sequence:
#
# PCOD8051848 Si02
#       6
#     4   4   4   4   2   4
#     4  11  24  43  75 104 134 190 240 277 347 421
#     4  12  23  42  74 101 137 188 240 285 334 428
#     4  11  23  43  72 102 142 182 233 291 342 421
#     4  11  25  43  67 108 150 177 225 301 361 406
#     4  12  20  44  74 104 126 190 242 280 338 422
#     4  11  23  46  65 103 143 184 226 291 350 412
#
# _framework density 22.242495000000002
#
# number of rings (size 3 to 8) (size 9 to 14) (size 15 to 20)
#    0.000    0.727    5.455    2.182    0.000    4.364 
#    0.000    6.364    0.000    0.000    0.000    0.000 
#    0.000    0.000    0.000    0.000    0.000    0.000 
#
# Total GULP energy -136314.931205 kJ/mol
# GULP energy per Si atom -12392.266473 kJ/mol
# Density = 2.219187 g / cm^3
# Si number density = 22.242495 Si / 1000 Ang^3
#
#
#
# Elastic Constant Matrix: (Units=GPa)
#
#
# Indices 1 2 3 4 5 6 
#
# 1 128.8215 17.3262 36.2110 -0.0001 -15.2359 0.0000
# 2 17.3262 110.8632 31.6541 -0.0001 14.9484 0.0000
# 3 36.2110 31.6541 130.5459 -0.0002 5.9507 -0.0001
# 4 -0.0001 -0.0001 -0.0002 7.2068 -0.0001 5.9297
# 5 -15.2359 14.9484 5.9507 -0.0001 44.5018 -0.0001
# 6 0.0000 0.0000 -0.0001 5.9297 -0.0001 23.8374
#
#
#
# Elastic Compliance Matrix: (Units=1/GPa)
#
#
# Indices 1 2 3 4 5 6 
#
# 1 0.009055 -0.001252 -0.002383 0.000000 0.003840 0.000000
# 2 -0.001252 0.010268 -0.001978 0.000000 -0.003613 0.000000
# 3 -0.002383 -0.001978 0.008862 0.000000 -0.001337 0.000000
# 4 0.000000 0.000000 0.000000 0.174468 0.000000 -0.043400
# 5 0.003840 -0.003613 -0.001337 0.000000 0.025178 0.000000
# 6 0.000000 0.000000 0.000000 -0.043400 0.000000 0.052747
#
#
# Mechanical properties :
#
#
# Convention : Reuss Voigt Hill
#
# Bulk Modulus (GPa) = 58.96819 60.06813 59.51816
# Shear Modulus (GPa) = 16.80921 34.11179 25.46050
#
# Velocity S-wave (km/s) = 2.75203 3.92041 3.38698
# Velocity P-wave (km/s) = 6.05535 6.89619 6.48940
#
# Compressibility (1/GPa) = 0.01695829
#
# Stress axis : x y z
#
# Youngs Moduli (GPa) = 110.43502 97.39266 112.84669
#
# Poissons Ratio (x) = 0.12198 0.26892
# Poissons Ratio (y) = 0.13832 0.22316
# Poissons Ratio (z) = 0.26317 0.19260
#
# Static dielectric constant tensor:
#      x y z
#    x 4.265190 0.000000 -0.247290 
#    y 0.000000 3.910890 0.000000 
#    z -0.247290 0.000000 4.273800 
# 
# 
# High freq. dielectric constant tensor:
#      x y z
#    x 1.897460 0.000000 -0.011190 
#    y 0.000000 1.875580 0.000000 
#    z -0.011190 0.000000 1.858010 
# 
# From -- ./inp_files/26422.got.cif
#   From: 2010.03.12/outbox.cif.g09.slc.cpg/sg5_14_cif.got.tgz:26422.got - 2010.03.31 09:47:26.
