data_PCOD8051245
_publ_section_title
;
Structure prediction by ZEFSAII (Michael W. Deem and Ramdas Pophale) SiO2 
 PCOD8051245
Probable space group: C 2
;
_chemical_formula_sum "Si O2"
_cell_formula_units_Z 30
_cell_length_a 8.267033
_cell_length_b 14.701741
_cell_length_c 11.711303
_cell_angle_alpha 90.000000
_cell_angle_beta 108.294994
_cell_angle_gamma 90.000000
_cell_volume 1351.440983
_symmetry_space_group_name_H-M "C 2"
_symmetry_group_IT_number 5
_symmetry_cell_setting 'monoclinic'
loop_
_space_group_symop_operation_xyz
x,y,z
-x,y,-z
1/2+x,1/2+y,z
1/2-x,1/2+y,-z
loop_
_atom_site_type_symbol
_atom_site_label
_atom_site_fract_x
_atom_site_fract_y
_atom_site_fract_z
Si Si1 0.436061 0.768210 0.229611
Si Si2 0.362609 0.033390 0.598253
Si Si3 0.201237 0.456807 0.727223
Si Si4 0.330176 0.698973 0.534857
Si Si5 0.214758 0.583694 0.931942
Si Si6 0.500000 0.725184 0.000000
Si Si7 0.675183 0.108329 0.173704
Si Si8 0.660423 0.382370 0.454743
O O1 0.404160 0.864712 0.278870
O O2 0.606233 0.722225 0.322685
O O3 0.464219 0.787402 0.101630
O O4 0.271189 0.704092 0.208242
O O5 0.284848 0.108439 0.494484
O O6 0.282929 0.047546 0.706831
O O7 0.569845 0.031687 0.643559
O O8 0.315564 0.932410 0.550176
O O9 0.263585 0.497282 0.862526
O O10 0.356714 0.431554 0.674720
O O11 0.500000 0.685751 0.500000
O O12 0.210367 0.777067 0.454124
O O13 0.027302 0.624836 0.871133
O O14 0.341874 0.663458 0.928430
O O15 0.234937 0.556814 0.070818
O O16 0.500000 0.397102 0.500000
#
# Coordination Sequence:
#
# PCOD8051245 Si02
#       8
#     4   4   4   4   4   2   4   4
#     4  11  22  43  67  92 137 169 220 270 332 382
#     4  11  22  39  69  95 132 177 214 267 338 386
#     4  11  23  44  65  94 133 175 215 280 323 394
#     4  12  22  44  68  98 133 178 214 275 334 398
#     4   9  21  40  66  94 127 168 229 259 329 389
#     4  10  24  42  64  94 126 174 218 276 320 396
#     4   9  19  39  66  95 125 173 217 266 320 394
#     4  12  26  41  61  98 136 171 225 268 329 403
#
# _framework density 22.198526999999999
#
# number of rings (size 3 to 8) (size 9 to 14) (size 15 to 20)
#    0.000    1.333    4.000    0.800    1.867    4.267 
#    4.800    2.667    0.000    0.000    0.000    0.000 
#    0.000    0.000    0.000    0.000    0.000    0.000 
#
# Total GULP energy -185895.771627 kJ/mol
# GULP energy per Si atom -12393.051442 kJ/mol
# Density = 2.214800 g / cm^3
# Si number density = 22.198527 Si / 1000 Ang^3
#
#
#
# Elastic Constant Matrix: (Units=GPa)
#
#
# Indices 1 2 3 4 5 6 
#
# 1 89.1216 29.6822 39.8685 0.0000 -30.0167 0.0000
# 2 29.6822 76.8722 40.0796 0.0000 -7.1452 0.0000
# 3 39.8685 40.0796 107.3390 0.0000 -8.9289 0.0000
# 4 0.0000 0.0000 0.0000 38.7654 0.0000 0.6061
# 5 -30.0167 -7.1452 -8.9289 0.0000 28.4604 0.0000
# 6 0.0000 0.0000 0.0000 0.6061 0.0000 19.0436
#
#
#
# Elastic Compliance Matrix: (Units=1/GPa)
#
#
# Indices 1 2 3 4 5 6 
#
# 1 0.021470 -0.003891 -0.004846 0.000000 0.020147 0.000000
# 2 -0.003891 0.016996 -0.005019 0.000000 -0.001411 0.000000
# 3 -0.004846 -0.005019 0.012794 0.000000 -0.002357 0.000000
# 4 0.000000 0.000000 0.000000 0.025809 0.000000 -0.000821
# 5 0.020147 -0.001411 -0.002357 0.000000 0.055291 0.000000
# 6 0.000000 0.000000 0.000000 -0.000821 0.000000 0.052537
#
#
# Mechanical properties :
#
#
# Convention : Reuss Voigt Hill
#
# Bulk Modulus (GPa) = 42.10557 54.73260 48.41909
# Shear Modulus (GPa) = 22.69379 28.16736 25.43057
#
# Velocity S-wave (km/s) = 3.20083 3.56600 3.38834
# Velocity P-wave (km/s) = 5.71571 6.45482 6.09647
#
# Compressibility (1/GPa) = 0.02374982
#
# Stress axis : x y z
#
# Youngs Moduli (GPa) = 46.57710 58.83608 78.16205
#
# Poissons Ratio (x) = 0.22893 0.37875
# Poissons Ratio (y) = 0.18123 0.39226
# Poissons Ratio (z) = 0.22570 0.29527
#
# Static dielectric constant tensor:
#      x y z
#    x 4.052600 0.000000 -0.181970 
#    y 0.000000 3.776570 0.000000 
#    z -0.181970 0.000000 4.451740 
# 
# 
# High freq. dielectric constant tensor:
#      x y z
#    x 1.868300 0.000000 -0.017180 
#    y 0.000000 1.855710 0.000000 
#    z -0.017180 0.000000 1.889090 
# 
# From -- ./inp_files/36438.got.cif
#   From: 2010.03.12/outbox.cif.g09.slc.cpg/sg5_19_cif.got.tgz:36438.got - 2010.03.31 09:47:26.
