data_PCOD8051326
_publ_section_title
;
Structure prediction by ZEFSAII (Michael W. Deem and Ramdas Pophale) SiO2 
 PCOD8051326
Probable space group: C 2
;
_chemical_formula_sum "Si O2"
_cell_formula_units_Z 30
_cell_length_a 12.134192
_cell_length_b 13.998254
_cell_length_c 8.641734
_cell_angle_alpha 90.000000
_cell_angle_beta 109.215884
_cell_angle_gamma 90.000000
_cell_volume 1386.081580
_symmetry_space_group_name_H-M "C 2"
_symmetry_group_IT_number 5
_symmetry_cell_setting 'monoclinic'
loop_
_space_group_symop_operation_xyz
x,y,z
-x,y,-z
1/2+x,1/2+y,z
1/2-x,1/2+y,-z
loop_
_atom_site_type_symbol
_atom_site_label
_atom_site_fract_x
_atom_site_fract_y
_atom_site_fract_z
Si Si1 0.623210 0.530290 0.134641
Si Si2 0.499307 0.228092 0.672699
Si Si3 0.785828 0.857521 0.621646
Si Si4 0.000000 0.622983 0.000000
Si Si5 0.078521 0.228288 0.179918
Si Si6 0.290740 0.366472 0.281123
Si Si7 0.594823 0.723648 0.657051
Si Si8 0.746541 0.561218 0.887724
O O1 0.672713 0.436255 0.238481
O O2 0.616635 0.620224 0.251869
O O3 0.500000 0.501776 0.000000
O O4 0.716898 0.570175 0.054135
O O5 0.500000 0.173523 0.500000
O O6 0.371750 0.268178 0.646804
O O7 0.587784 0.314672 0.690756
O O8 0.530384 0.175423 0.849512
O O9 0.773267 0.904517 0.447369
O O10 0.663231 0.811479 0.612672
O O11 0.115412 0.561472 0.084006
O O12 0.185583 0.295985 0.187276
O O13 0.988751 0.275917 0.257265
O O14 0.000000 0.202664 0.000000
O O15 0.299155 0.457570 0.177711
O O16 0.500000 0.673960 0.500000
O O17 0.682501 0.644893 0.764147
#
# Coordination Sequence:
#
# PCOD8051326 Si02
#       8
#     4   4   4   2   4   4   4   4
#     4  11  24  42  70 105 132 179 235 283 339 416
#     4  10  24  44  73  99 137 185 238 281 349 411
#     4  11  25  44  68 102 136 175 230 290 346 407
#     4  12  26  48  70 102 148 186 226 296 350 418
#     4  11  24  44  68  95 135 177 230 275 337 405
#     4  11  26  44  68 102 135 181 225 287 346 415
#     4  12  25  46  72  98 137 184 229 284 345 411
#     4  12  27  43  69 106 136 183 233 279 355 413
#
# _framework density 21.643749
#
# number of rings (size 3 to 8) (size 9 to 14) (size 15 to 20)
#    0.000    0.800    5.333    1.600    7.467    0.533 
#    2.400    0.000    0.000    0.000    0.000    0.000 
#    0.000    0.000    0.000    0.000    0.000    0.000 
#
# Total GULP energy -185822.551739 kJ/mol
# GULP energy per Si atom -12388.170116 kJ/mol
# Density = 2.159449 g / cm^3
# Si number density = 21.643749 Si / 1000 Ang^3
#
#
#
# Elastic Constant Matrix: (Units=GPa)
#
#
# Indices 1 2 3 4 5 6 
#
# 1 119.9334 18.1125 27.5635 0.0000 -9.0556 0.0000
# 2 18.1125 57.8300 24.8520 0.0000 -1.4175 0.0000
# 3 27.5635 24.8520 99.2628 0.0000 -11.2882 0.0000
# 4 0.0000 0.0000 0.0000 -15.9303 0.0000 -0.3295
# 5 -9.0556 -1.4175 -11.2882 0.0000 39.0563 0.0000
# 6 0.0000 0.0000 0.0000 -0.3295 0.0000 18.7417
#
#
#
# Elastic Compliance Matrix: (Units=1/GPa)
#
#
# Indices 1 2 3 4 5 6 
#
# 1 0.009190 -0.002038 -0.001869 0.000000 0.001517 0.000000
# 2 -0.002038 0.019848 -0.004524 0.000000 -0.001060 0.000000
# 3 -0.001869 -0.004524 0.012054 0.000000 0.002886 0.000000
# 4 0.000000 0.000000 0.000000 -0.062751 0.000000 -0.001103
# 5 0.001517 -0.001060 0.002886 0.000000 0.026751 0.000000
# 6 0.000000 0.000000 0.000000 -0.001103 0.000000 0.053338
#
#
# Mechanical properties :
#
#
# Convention : Reuss Voigt Hill
#
# Bulk Modulus (GPa) = 41.27037 46.45356 43.86197
# Shear Modulus (GPa) = 59.97380 22.14009 41.05694
#
# Velocity S-wave (km/s) = 5.26969 3.20180 4.36011
# Velocity P-wave (km/s) = 7.49237 5.93111 6.75699
#
# Compressibility (1/GPa) = 0.02423046
#
# Stress axis : x y z
#
# Youngs Moduli (GPa) = 108.81625 50.38170 82.95865
#
# Poissons Ratio (x) = 0.10267 0.15506
# Poissons Ratio (y) = 0.22175 0.37531
# Poissons Ratio (z) = 0.20340 0.22793
#
# Static dielectric constant tensor:
#      x y z
#    x 3.962110 0.000000 0.155500 
#    y 0.000000 3.532630 0.000000 
#    z 0.155500 0.000000 3.940070 
# 
# 
# High freq. dielectric constant tensor:
#      x y z
#    x 1.876940 0.000000 -0.006280 
#    y 0.000000 1.822470 0.000000 
#    z -0.006280 0.000000 1.860340 
# 
# From -- ./inp_files/20452.got.cif
#   From: 2010.03.12/outbox.cif.g09.slc.cpg/sg5_11_cif.got.tgz:20452.got - 2010.03.31 09:47:26.
