data_PCOD8051825
_publ_section_title
;
Structure prediction by ZEFSAII (Michael W. Deem and Ramdas Pophale) SiO2 
 PCOD8051825
Probable space group: C 2
;
_chemical_formula_sum "Si O2"
_cell_formula_units_Z 22
_cell_length_a 5.060091
_cell_length_b 19.319477
_cell_length_c 10.446156
_cell_angle_alpha 90.000000
_cell_angle_beta 105.698461
_cell_angle_gamma 90.000000
_cell_volume 983.106861
_symmetry_space_group_name_H-M "C 2"
_symmetry_group_IT_number 5
_symmetry_cell_setting 'monoclinic'
loop_
_space_group_symop_operation_xyz
x,y,z
-x,y,-z
1/2+x,1/2+y,z
1/2-x,1/2+y,-z
loop_
_atom_site_type_symbol
_atom_site_label
_atom_site_fract_x
_atom_site_fract_y
_atom_site_fract_z
Si Si1 0.894602 0.852120 0.630550
Si Si2 0.366955 0.062294 0.700307
Si Si3 0.000000 0.465793 0.500000
Si Si4 0.958333 0.035410 0.861480
Si Si5 0.708182 0.203914 0.416675
Si Si6 0.808631 0.884731 0.082544
O O1 0.685085 0.916867 0.616815
O O2 0.745390 0.778730 0.644956
O O3 0.000000 0.856565 0.500000
O O4 0.138777 0.857652 0.766192
O O5 0.098499 0.067319 0.754245
O O6 0.434564 0.142901 0.682334
O O7 0.632941 0.027996 0.800005
O O8 0.313023 0.015973 0.565629
O O9 0.120892 0.965004 0.907408
O O10 0.000000 0.078994 0.000000
O O11 0.500000 0.223215 0.500000
O O12 0.000000 0.174010 0.500000
O O13 0.500000 0.870047 0.000000
O O14 0.000000 0.847646 0.000000
#
# Coordination Sequence:
#
# PCOD8051825 Si02
#       6
#     4   4   2   4   4   4
#     4  11  25  43  71 103 141 185 236 294 347 423
#     4  12  24  40  67 101 138 170 230 291 346 412
#     4  12  24  40  72 110 134 172 242 298 348 412
#     4  11  23  42  65  95 131 183 229 283 343 408
#     4  11  24  43  65  99 144 182 220 285 366 411
#     4  11  24  42  66  98 138 179 227 287 350 406
#
# _framework density 22.378032999999999
#
# number of rings (size 3 to 8) (size 9 to 14) (size 15 to 20)
#    0.000    0.727    3.636    4.909    2.545    0.000 
#    0.000    2.727    0.000    0.000    0.000    0.000 
#    0.000    0.000    0.000    0.000    0.000    0.000 
#
# Total GULP energy -136305.522037 kJ/mol
# GULP energy per Si atom -12391.411094 kJ/mol
# Density = 2.232710 g / cm^3
# Si number density = 22.378033 Si / 1000 Ang^3
#
#
#
# Elastic Constant Matrix: (Units=GPa)
#
#
# Indices 1 2 3 4 5 6 
#
# 1 108.1324 9.8229 44.0754 0.0000 10.7710 0.0000
# 2 9.8229 117.6676 37.4723 0.0000 -7.5213 0.0000
# 3 44.0754 37.4723 147.7915 0.0000 5.5225 0.0000
# 4 0.0000 0.0000 0.0000 13.6824 0.0000 2.8434
# 5 10.7710 -7.5213 5.5225 0.0000 45.1604 0.0000
# 6 0.0000 0.0000 0.0000 2.8434 0.0000 21.2659
#
#
#
# Elastic Compliance Matrix: (Units=1/GPa)
#
#
# Indices 1 2 3 4 5 6 
#
# 1 0.010737 -0.000046 -0.003109 0.000000 -0.002188 0.000000
# 2 -0.000046 0.009399 -0.002439 0.000000 0.001875 0.000000
# 3 -0.003109 -0.002439 0.008337 0.000000 -0.000684 0.000000
# 4 0.000000 0.000000 0.000000 0.075176 0.000000 -0.010052
# 5 -0.002188 0.001875 -0.000684 0.000000 0.023061 0.000000
# 6 0.000000 0.000000 0.000000 -0.010052 0.000000 0.048368
#
#
# Mechanical properties :
#
#
# Convention : Reuss Voigt Hill
#
# Bulk Modulus (GPa) = 57.85301 61.81475 59.83388
# Shear Modulus (GPa) = 26.03783 34.83647 30.43715
#
# Velocity S-wave (km/s) = 3.41478 3.94982 3.69200
# Velocity P-wave (km/s) = 6.43866 6.96307 6.70599
#
# Compressibility (1/GPa) = 0.01728519
#
# Stress axis : x y z
#
# Youngs Moduli (GPa) = 93.13414 106.39379 119.94095
#
# Poissons Ratio (x) = 0.00492 0.37285
# Poissons Ratio (y) = 0.00431 0.29258
# Poissons Ratio (z) = 0.28952 0.25953
#
# Static dielectric constant tensor:
#      x y z
#    x 4.096320 0.000000 -0.407500 
#    y 0.000000 4.007820 0.000000 
#    z -0.407500 0.000000 4.682050 
# 
# 
# High freq. dielectric constant tensor:
#      x y z
#    x 1.884850 0.000000 -0.001670 
#    y 0.000000 1.864560 0.000000 
#    z -0.001670 0.000000 1.883550 
# 
# From -- ./inp_files/12578.got.cif
#   From: 2010.03.12/outbox.cif.g09.slc.cpg/sg5_7_cif.got.tgz:12578.got - 2010.03.31 09:47:26.
