data_PCOD8051764
_publ_section_title
;
Structure prediction by ZEFSAII (Michael W. Deem and Ramdas Pophale) SiO2 
 PCOD8051764
Probable space group: C 2
;
_chemical_formula_sum "Si O2"
_cell_formula_units_Z 20
_cell_length_a 25.514856
_cell_length_b 7.489487
_cell_length_c 9.063791
_cell_angle_alpha 90.000000
_cell_angle_beta 27.548121
_cell_angle_gamma 90.000000
_cell_volume 801.051868
_symmetry_space_group_name_H-M "C 2"
_symmetry_group_IT_number 5
_symmetry_cell_setting 'monoclinic'
loop_
_space_group_symop_operation_xyz
x,y,z
-x,y,-z
1/2+x,1/2+y,z
1/2-x,1/2+y,-z
loop_
_atom_site_type_symbol
_atom_site_label
_atom_site_fract_x
_atom_site_fract_y
_atom_site_fract_z
Si Si1 0.320170 0.291280 0.668868
Si Si2 0.839941 0.404203 0.699936
Si Si3 0.690119 0.388906 0.804257
Si Si4 0.375037 0.112300 0.248831
Si Si5 0.989282 0.105442 0.203695
O O1 0.307021 0.245627 0.529238
O O2 0.400938 0.460381 0.485401
O O3 0.372199 0.113397 0.618191
O O4 0.196868 0.338834 0.045724
O O5 0.726044 0.369816 0.884810
O O6 0.948205 0.298307 0.364606
O O7 0.630024 0.206910 0.898029
O O8 0.808194 0.424452 0.418213
O O9 0.608492 0.557919 0.981370
O O10 0.500000 0.084814 0.000000
O O11 0.000000 0.098855 0.000000
#
# Coordination Sequence:
#
# PCOD8051764 Si02
#       5
#     4   4   4   4   4
#     4  11  22  45  69 101 147 181 227 300 343 409
#     4  11  26  42  74 104 140 185 235 286 356 410
#     4  11  24  41  72 100 134 185 237 279 352 418
#     4  11  23  43  66 100 139 179 231 289 340 420
#     4  12  23  47  73 103 146 182 231 300 345 411
#
# _framework density 24.967172000000001
#
# number of rings (size 3 to 8) (size 9 to 14) (size 15 to 20)
#    0.000    0.800    6.000    1.200    0.000    8.000 
#    0.000    0.000    8.800    0.000    0.000    0.000 
#    0.000    0.000    0.000    0.000    0.000    0.000 
#
# Total GULP energy -123939.563078 kJ/mol
# GULP energy per Si atom -12393.956308 kJ/mol
# Density = 2.491035 g / cm^3
# Si number density = 24.967172 Si / 1000 Ang^3
#
#
#
# Elastic Constant Matrix: (Units=GPa)
#
#
# Indices 1 2 3 4 5 6 
#
# 1 56.7653 -25.9831 10.9023 0.0000 -17.0018 0.0000
# 2 -25.9831 99.6402 10.3468 0.0000 1.8042 0.0000
# 3 10.9023 10.3468 104.1440 0.0000 3.2273 0.0000
# 4 0.0000 0.0000 0.0000 48.7929 0.0000 8.2197
# 5 -17.0018 1.8042 3.2273 0.0000 38.9030 0.0000
# 6 0.0000 0.0000 0.0000 8.2197 0.0000 24.7132
#
#
#
# Elastic Compliance Matrix: (Units=1/GPa)
#
#
# Indices 1 2 3 4 5 6 
#
# 1 0.024509 0.006566 -0.003550 0.000000 0.010701 0.000000
# 2 0.006566 0.011906 -0.001947 0.000000 0.002479 0.000000
# 3 -0.003550 -0.001947 0.010239 0.000000 -0.002310 0.000000
# 4 0.000000 0.000000 0.000000 0.021711 0.000000 -0.007221
# 5 0.010701 0.002479 -0.002310 0.000000 0.030458 0.000000
# 6 0.000000 0.000000 0.000000 -0.007221 0.000000 0.042866
#
#
# Mechanical properties :
#
#
# Convention : Reuss Voigt Hill
#
# Bulk Modulus (GPa) = 20.49539 27.89797 24.19668
# Shear Modulus (GPa) = 32.08959 40.16739 36.12849
#
# Velocity S-wave (km/s) = 3.58896 4.01535 3.80812
# Velocity P-wave (km/s) = 5.03993 5.71799 5.38964
#
# Compressibility (1/GPa) = 0.04879146
#
# Stress axis : x y z
#
# Youngs Moduli (GPa) = 40.80203 83.99415 97.66857
#
# Poissons Ratio (x) = -0.55150 0.34669
# Poissons Ratio (y) = -0.26790 0.19016
# Poissons Ratio (z) = 0.14483 0.16354
#
# Static dielectric constant tensor:
#      x y z
#    x 4.133480 0.000000 0.060450 
#    y 0.000000 4.609380 0.000000 
#    z 0.060450 0.000000 4.750470 
# 
# 
# High freq. dielectric constant tensor:
#      x y z
#    x 1.963930 0.000000 0.001860 
#    y 0.000000 2.002960 0.000000 
#    z 0.001860 0.000000 1.999270 
# 
# From -- ./inp_files/31604.got.cif
#   From: 2010.03.12/outbox.cif.g09.slc.cpg/sg5_16_cif.got.tgz:31604.got - 2010.03.31 09:47:26.
