data_PCOD8051602
_publ_section_title
;
Structure prediction by ZEFSAII (Michael W. Deem and Ramdas Pophale) SiO2 
 PCOD8051602
Probable space group: C 2
;
_chemical_formula_sum "Si O2"
_cell_formula_units_Z 24
_cell_length_a 14.822308
_cell_length_b 15.940614
_cell_length_c 8.950930
_cell_angle_alpha 90.000000
_cell_angle_beta 32.422962
_cell_angle_gamma 90.000000
_cell_volume 1133.933545
_symmetry_space_group_name_H-M "C 2"
_symmetry_group_IT_number 5
_symmetry_cell_setting 'monoclinic'
loop_
_space_group_symop_operation_xyz
x,y,z
-x,y,-z
1/2+x,1/2+y,z
1/2-x,1/2+y,-z
loop_
_atom_site_type_symbol
_atom_site_label
_atom_site_fract_x
_atom_site_fract_y
_atom_site_fract_z
Si Si1 0.116300 0.570770 0.959674
Si Si2 0.817416 0.218893 0.826706
Si Si3 0.117871 0.141708 0.971322
Si Si4 0.883121 0.870772 0.032394
Si Si5 0.942586 0.999398 0.410811
Si Si6 0.379875 0.009838 0.530664
O O1 0.000318 0.509624 0.219835
O O2 0.213184 0.636894 0.926218
O O3 0.241865 0.510036 0.692148
O O4 0.000000 0.618005 0.000000
O O5 0.834276 0.218765 0.984537
O O6 0.000000 0.215663 0.500000
O O7 0.722205 0.300763 0.905060
O O8 0.019796 0.075053 0.208852
O O9 0.000000 0.173633 0.000000
O O10 0.288207 0.100273 0.669658
O O11 0.002142 0.912639 0.741407
O O12 0.760295 0.937567 0.283938
O O13 0.000000 0.832234 0.000000
O O14 0.000000 0.003554 0.500000
O O15 0.500000 0.990546 0.500000
#
# Coordination Sequence:
#
# PCOD8051602 Si02
#       6
#     4   4   4   4   4   4
#     4  12  21  37  69 104 128 164 218 274 320 392
#     4  12  24  44  64  97 134 177 217 273 335 382
#     4  11  21  41  68  96 128 176 224 270 321 388
#     4  11  25  45  66  96 135 181 215 266 333 397
#     4  11  20  43  69  96 132 169 218 268 323 388
#     4  11  21  39  69 100 130 166 222 266 323 394
#
# _framework density 21.165261999999998
#
# number of rings (size 3 to 8) (size 9 to 14) (size 15 to 20)
#    0.000    0.667    5.000    6.000    0.000    0.000 
#    3.000    0.000    0.000    2.000    0.000    0.000 
#    0.000    0.000    0.000    0.000    0.000    0.000 
#
# Total GULP energy -148792.792555 kJ/mol
# GULP energy per Si atom -12399.399380 kJ/mol
# Density = 2.111709 g / cm^3
# Si number density = 21.165262 Si / 1000 Ang^3
#
#
#
# Elastic Constant Matrix: (Units=GPa)
#
#
# Indices 1 2 3 4 5 6 
#
# 1 169.0354 36.5260 24.8511 -0.0007 -8.7699 0.0004
# 2 36.5260 77.9044 34.8047 -0.0002 0.6368 0.0001
# 3 24.8511 34.8047 134.7057 -0.0012 -4.7241 0.0011
# 4 -0.0007 -0.0002 -0.0012 12.8768 0.0008 1.7971
# 5 -8.7699 0.6368 -4.7241 0.0008 29.3119 -0.0008
# 6 0.0004 0.0001 0.0011 1.7971 -0.0008 21.1451
#
#
#
# Elastic Compliance Matrix: (Units=1/GPa)
#
#
# Indices 1 2 3 4 5 6 
#
# 1 0.006725 -0.002992 -0.000397 0.000000 0.002013 0.000000
# 2 -0.002992 0.015868 -0.003612 0.000000 -0.001822 0.000000
# 3 -0.000397 -0.003612 0.008476 0.000001 0.001326 0.000000
# 4 0.000000 0.000000 0.000001 0.078591 -0.000002 -0.006679
# 5 0.002013 -0.001822 0.001326 -0.000002 0.034971 0.000001
# 6 0.000000 0.000000 0.000000 -0.006679 0.000001 0.047860
#
#
# Mechanical properties :
#
#
# Convention : Reuss Voigt Hill
#
# Bulk Modulus (GPa) = 58.59077 63.77879 61.18478
# Shear Modulus (GPa) = 23.56452 31.69766 27.63109
#
# Velocity S-wave (km/s) = 3.34032 3.87412 3.61708
# Velocity P-wave (km/s) = 6.52837 7.08596 6.81287
#
# Compressibility (1/GPa) = 0.01706754
#
# Stress axis : x y z
#
# Youngs Moduli (GPa) = 148.69161 63.02119 117.97326
#
# Poissons Ratio (x) = 0.18858 0.04683
# Poissons Ratio (y) = 0.44493 0.42608
# Poissons Ratio (z) = 0.05903 0.22761
#
# Static dielectric constant tensor:
#      x y z
#    x 4.539910 0.000000 -0.297090 
#    y 0.000000 3.541410 0.000000 
#    z -0.297090 0.000000 5.090950 
# 
# 
# High freq. dielectric constant tensor:
#      x y z
#    x 1.856840 0.000000 -0.006730 
#    y 0.000000 1.785490 0.000000 
#    z -0.006730 0.000000 1.846380 
# 
# From -- ./inp_files/25136.got.cif
#   From: 2010.03.12/outbox.cif.g09.slc.cpg/sg5_13_cif.got.tgz:25136.got - 2010.03.31 09:47:26.
