data_PCOD8051807
_publ_section_title
;
Structure prediction by ZEFSAII (Michael W. Deem and Ramdas Pophale) SiO2 
 PCOD8051807
Probable space group: C 2
;
_chemical_formula_sum "Si O2"
_cell_formula_units_Z 30
_cell_length_a 4.993006
_cell_length_b 23.436818
_cell_length_c 12.241878
_cell_angle_alpha 90.000000
_cell_angle_beta 96.914125
_cell_angle_gamma 90.000000
_cell_volume 1422.128763
_symmetry_space_group_name_H-M "C 2"
_symmetry_group_IT_number 5
_symmetry_cell_setting 'monoclinic'
loop_
_space_group_symop_operation_xyz
x,y,z
-x,y,-z
1/2+x,1/2+y,z
1/2-x,1/2+y,-z
loop_
_atom_site_type_symbol
_atom_site_label
_atom_site_fract_x
_atom_site_fract_y
_atom_site_fract_z
Si Si1 0.612701 0.741660 0.884360
Si Si2 0.500000 0.161030 0.000000
Si Si3 0.275915 0.866919 0.077853
Si Si4 0.164415 0.067835 0.104655
Si Si5 0.915879 0.150305 0.730699
Si Si6 0.150336 0.990929 0.614838
Si Si7 0.174418 0.468144 0.755082
Si Si8 0.631920 0.117626 0.393585
O O1 0.666708 0.807336 0.857010
O O2 0.414969 0.713414 0.784428
O O3 0.500000 0.739358 0.000000
O O4 0.877023 0.702039 0.899687
O O5 0.294961 0.122334 0.054910
O O6 0.254889 0.912266 0.173466
O O7 0.500000 0.883947 0.000000
O O8 0.000000 0.861470 0.000000
O O9 0.968341 0.099070 0.184971
O O10 0.373619 0.021470 0.164683
O O11 0.000000 0.035345 0.000000
O O12 0.607828 0.128838 0.702935
O O13 0.099599 0.152352 0.629833
O O14 0.270577 0.052635 0.591430
O O15 0.000000 0.965570 0.500000
O O16 0.412844 0.955087 0.666999
O O17 0.933292 0.988838 0.699971
O O18 0.500000 0.139304 0.500000
#
# Coordination Sequence:
#
# PCOD8051807 Si02
#       8
#     4   2   4   4   4   4   4   4
#     4  11  23  39  64  94 130 182 224 261 308 396
#     4  12  20  36  58  86 142 164 218 250 308 384
#     4  11  25  45  67  94 136 182 227 272 320 397
#     4  12  24  34  58  97 139 172 205 261 330 400
#     4  12  22  39  63  93 129 170 216 268 325 392
#     4  12  24  44  67  93 127 170 223 277 332 409
#     4  12  26  42  65  97 133 171 220 272 343 390
#     4  12  24  41  62  94 130 169 216 274 337 400
#
# _framework density 21.095136
#
# number of rings (size 3 to 8) (size 9 to 14) (size 15 to 20)
#    0.000    0.267    6.000    4.400    2.800    0.000 
#    0.000    0.000    0.000    4.800    0.000    0.000 
#    0.000    0.000    0.000    0.000    0.000    0.000 
#
# Total GULP energy -185882.147286 kJ/mol
# GULP energy per Si atom -12392.143152 kJ/mol
# Density = 2.104712 g / cm^3
# Si number density = 21.095136 Si / 1000 Ang^3
#
#
#
# Elastic Constant Matrix: (Units=GPa)
#
#
# Indices 1 2 3 4 5 6 
#
# 1 105.4218 16.8382 27.1687 0.0000 0.1816 0.0000
# 2 16.8382 108.8213 48.4034 0.0000 3.6195 0.0000
# 3 27.1687 48.4034 88.6388 0.0000 5.9199 0.0000
# 4 0.0000 0.0000 0.0000 25.8763 0.0000 8.7007
# 5 0.1816 3.6195 5.9199 0.0000 35.1543 0.0000
# 6 0.0000 0.0000 0.0000 8.7007 0.0000 18.6575
#
#
#
# Elastic Compliance Matrix: (Units=1/GPa)
#
#
# Indices 1 2 3 4 5 6 
#
# 1 0.010313 -0.000253 -0.003055 0.000000 0.000487 0.000000
# 2 -0.000253 0.012144 -0.006544 0.000000 -0.000147 0.000000
# 3 -0.003055 -0.006544 0.015925 0.000000 -0.001992 0.000000
# 4 0.000000 0.000000 0.000000 0.045832 0.000000 -0.021373
# 5 0.000487 -0.000147 -0.001992 0.000000 0.028794 0.000000
# 6 0.000000 0.000000 0.000000 -0.021373 0.000000 0.063565
#
#
# Mechanical properties :
#
#
# Convention : Reuss Voigt Hill
#
# Bulk Modulus (GPa) = 53.54262 54.18915 53.86589
# Shear Modulus (GPa) = 24.69087 29.96906 27.32996
#
# Velocity S-wave (km/s) = 3.42490 3.77326 3.60329
# Velocity P-wave (km/s) = 6.40910 6.68783 6.54994
#
# Compressibility (1/GPa) = 0.01867671
#
# Stress axis : x y z
#
# Youngs Moduli (GPa) = 96.96809 82.34303 62.79426
#
# Poissons Ratio (x) = 0.02082 0.19186
# Poissons Ratio (y) = 0.02452 0.41095
# Poissons Ratio (z) = 0.29628 0.53888
#
# Static dielectric constant tensor:
#      x y z
#    x 4.018230 0.000000 0.117870 
#    y 0.000000 3.762560 0.000000 
#    z 0.117870 0.000000 4.248840 
# 
# 
# High freq. dielectric constant tensor:
#      x y z
#    x 1.839340 0.000000 0.001850 
#    y 0.000000 1.792450 0.000000 
#    z 0.001850 0.000000 1.829010 
# 
# From -- ./inp_files/34236.got.cif
#   From: 2010.03.12/outbox.cif.g09.slc.cpg/sg5_18_cif.got.tgz:34236.got - 2010.03.31 09:47:26.
