data_PCOD8051506
_publ_section_title
;
Structure prediction by ZEFSAII (Michael W. Deem and Ramdas Pophale) SiO2 
 PCOD8051506
Probable space group: C 2
;
_chemical_formula_sum "Si O2"
_cell_formula_units_Z 26
_cell_length_a 20.437728
_cell_length_b 11.353597
_cell_length_c 5.156691
_cell_angle_alpha 90.000000
_cell_angle_beta 75.941289
_cell_angle_gamma 90.000000
_cell_volume 1160.727083
_symmetry_space_group_name_H-M "C 2"
_symmetry_group_IT_number 5
_symmetry_cell_setting 'monoclinic'
loop_
_space_group_symop_operation_xyz
x,y,z
-x,y,-z
1/2+x,1/2+y,z
1/2-x,1/2+y,-z
loop_
_atom_site_type_symbol
_atom_site_label
_atom_site_fract_x
_atom_site_fract_y
_atom_site_fract_z
Si Si1 0.314230 0.767190 0.764695
Si Si2 0.910221 0.922227 0.977187
Si Si3 0.302345 0.995919 0.504967
Si Si4 0.873930 0.727572 0.384371
Si Si5 0.213343 0.872670 0.194973
Si Si6 0.669716 0.618935 0.759318
Si Si7 0.500000 0.332492 0.500000
O O1 0.341366 0.893206 0.629734
O O2 0.322311 0.671903 0.533653
O O3 0.236816 0.797259 0.919734
O O4 0.346107 0.717144 0.003770
O O5 0.853337 0.947773 0.808997
O O6 0.984579 0.917519 0.767156
O O7 0.896583 0.791492 0.099886
O O8 0.895354 0.029582 0.190164
O O9 0.272930 0.952118 0.256862
O O10 0.360303 0.089060 0.370127
O O11 0.239767 0.046234 0.742509
O O12 0.804088 0.781104 0.558819
O O13 0.934882 0.750692 0.528585
#
# Coordination Sequence:
#
# PCOD8051506 Si02
#       7
#     4   4   4   4   4   4   2
#     4  12  24  39  56 102 142 180 225 272 364 437
#     4  11  23  41  68  95 140 179 241 290 352 413
#     4  12  22  38  65 100 144 183 224 290 368 426
#     4  11  23  43  66 100 142 184 231 298 341 431
#     4  11  20  38  58 101 138 181 218 277 359 433
#     4  12  24  38  65  96 146 182 226 287 362 429
#     4  10  26  44  68 108 126 192 250 284 356 400
#
# _framework density 22.399751999999999
#
# number of rings (size 3 to 8) (size 9 to 14) (size 15 to 20)
#    0.000    0.615    6.154    2.308    2.154    2.462 
#    0.000    0.000    0.000    0.923    0.000    0.000 
#    0.000    0.000    0.000    0.000    0.000    0.000 
#
# Total GULP energy -161055.961196 kJ/mol
# GULP energy per Si atom -12388.920092 kJ/mol
# Density = 2.234877 g / cm^3
# Si number density = 22.399752 Si / 1000 Ang^3
#
#
#
# Elastic Constant Matrix: (Units=GPa)
#
#
# Indices 1 2 3 4 5 6 
#
# 1 44.1610 33.7020 22.6467 0.0000 -14.3827 0.0000
# 2 33.7020 127.0864 65.2684 0.0000 -17.8035 0.0000
# 3 22.6467 65.2684 150.7067 0.0000 -11.3453 0.0000
# 4 0.0000 0.0000 0.0000 45.1065 0.0000 -0.7554
# 5 -14.3827 -17.8035 -11.3453 0.0000 33.8966 0.0000
# 6 0.0000 0.0000 0.0000 -0.7554 0.0000 25.9348
#
#
#
# Elastic Compliance Matrix: (Units=1/GPa)
#
#
# Indices 1 2 3 4 5 6 
#
# 1 0.031186 -0.006300 -0.001242 0.000000 0.009508 0.000000
# 2 -0.006300 0.011935 -0.004053 0.000000 0.002238 0.000000
# 3 -0.001242 -0.004053 0.008594 0.000000 0.000220 0.000000
# 4 0.000000 0.000000 0.000000 0.022181 0.000000 0.000646
# 5 0.009508 0.002238 0.000220 0.000000 0.034785 0.000000
# 6 0.000000 0.000000 0.000000 0.000646 0.000000 0.038577
#
#
# Mechanical properties :
#
#
# Convention : Reuss Voigt Hill
#
# Bulk Modulus (GPa) = 35.05903 62.79867 48.92885
# Shear Modulus (GPa) = 27.78432 34.34339 31.06386
#
# Velocity S-wave (km/s) = 3.52573 3.91986 3.72801
# Velocity P-wave (km/s) = 5.67978 6.97018 6.35780
#
# Compressibility (1/GPa) = 0.02852333
#
# Stress axis : x y z
#
# Youngs Moduli (GPa) = 32.06546 83.78840 116.35860
#
# Poissons Ratio (x) = 0.52791 0.14452
# Poissons Ratio (y) = 0.20203 0.47166
# Poissons Ratio (z) = 0.03982 0.33963
#
# Static dielectric constant tensor:
#      x y z
#    x 3.709240 0.000000 -0.005890 
#    y 0.000000 4.239620 0.000000 
#    z -0.005890 0.000000 4.250780 
# 
# 
# High freq. dielectric constant tensor:
#      x y z
#    x 1.829670 0.000000 0.015770 
#    y 0.000000 1.875510 0.000000 
#    z 0.015770 0.000000 1.907560 
# 
# From -- ./inp_files/9432.got.cif
#   From: 2010.03.12/outbox.cif.g09.slc.cpg/sg5_5_cif.got.tgz:9432.got - 2010.03.31 09:47:26.
