data_PCOD8051742
_publ_section_title
;
Structure prediction by ZEFSAII (Michael W. Deem and Ramdas Pophale) SiO2 
 PCOD8051742
Probable space group: C 2
;
_chemical_formula_sum "Si O2"
_cell_formula_units_Z 28
_cell_length_a 16.084007
_cell_length_b 13.446349
_cell_length_c 8.687179
_cell_angle_alpha 90.000000
_cell_angle_beta 42.053084
_cell_angle_gamma 90.000000
_cell_volume 1258.446505
_symmetry_space_group_name_H-M "C 2"
_symmetry_group_IT_number 5
_symmetry_cell_setting 'monoclinic'
loop_
_space_group_symop_operation_xyz
x,y,z
-x,y,-z
1/2+x,1/2+y,z
1/2-x,1/2+y,-z
loop_
_atom_site_type_symbol
_atom_site_label
_atom_site_fract_x
_atom_site_fract_y
_atom_site_fract_z
Si Si1 0.979719 0.360050 0.846897
Si Si2 0.896366 0.159314 0.344644
Si Si3 0.614994 0.530600 0.133657
Si Si4 0.730424 0.157507 0.296741
Si Si5 0.219346 0.827610 0.078710
Si Si6 0.004236 0.558512 0.679107
Si Si7 0.742944 0.149976 0.838583
O O1 0.022096 0.254670 0.718347
O O2 0.051442 0.450343 0.667679
O O3 0.839530 0.380981 0.983575
O O4 0.000000 0.367744 0.000000
O O5 0.853232 0.181688 0.228254
O O6 0.770895 0.149330 0.618086
O O7 0.982165 0.060289 0.241131
O O8 0.619721 0.413005 0.169032
O O9 0.636569 0.592760 0.259753
O O10 0.730181 0.564380 0.866076
O O11 0.678591 0.249867 0.267548
O O12 0.619371 0.129613 0.564528
O O13 0.243117 0.764590 0.891892
O O14 0.000000 0.564113 0.500000
O O15 0.884662 0.595358 0.938446
#
# Coordination Sequence:
#
# PCOD8051742 Si02
#       7
#     4   4   4   4   4   4   4
#     4  12  24  41  73 104 136 182 243 291 344 428
#     4  12  25  44  71 106 144 179 237 302 352 414
#     4  11  22  43  71 104 135 181 241 294 345 417
#     4  11  24  46  72  98 146 190 228 296 363 413
#     4  11  22  44  70 100 136 185 240 280 355 425
#     4  12  25  46  69  99 139 187 234 290 349 426
#     4  11  25  42  66 103 137 185 234 286 352 423
#
# _framework density 22.249655000000001
#
# number of rings (size 3 to 8) (size 9 to 14) (size 15 to 20)
#    0.000    0.571    8.571    0.857    6.000    0.000 
#    5.143    0.000    3.143    0.000    0.000    0.000 
#    0.000    0.000    0.000    0.000    0.000    0.000 
#
# Total GULP energy -173488.914750 kJ/mol
# GULP energy per Si atom -12392.065339 kJ/mol
# Density = 2.219901 g / cm^3
# Si number density = 22.249655 Si / 1000 Ang^3
#
#
#
# Elastic Constant Matrix: (Units=GPa)
#
#
# Indices 1 2 3 4 5 6 
#
# 1 83.4701 49.3139 23.3773 0.0000 -3.5239 0.0000
# 2 49.3139 159.9101 43.2175 0.0000 -4.1208 0.0000
# 3 23.3773 43.2175 100.6253 0.0000 -3.8026 0.0000
# 4 0.0000 0.0000 0.0000 21.9695 0.0000 2.0042
# 5 -3.5239 -4.1208 -3.8026 0.0000 25.3905 0.0000
# 6 0.0000 0.0000 0.0000 2.0042 0.0000 28.4451
#
#
#
# Elastic Compliance Matrix: (Units=1/GPa)
#
#
# Indices 1 2 3 4 5 6 
#
# 1 0.014931 -0.004128 -0.001652 0.000000 0.001155 0.000000
# 2 -0.004128 0.008228 -0.002561 0.000000 0.000379 0.000000
# 3 -0.001652 -0.002561 0.011462 0.000000 0.001072 0.000000
# 4 0.000000 0.000000 0.000000 0.045812 0.000000 -0.003228
# 5 0.001155 0.000379 0.001072 0.000000 0.039767 0.000000
# 6 0.000000 0.000000 0.000000 -0.003228 0.000000 0.035383
#
#
# Mechanical properties :
#
#
# Convention : Reuss Voigt Hill
#
# Bulk Modulus (GPa) = 55.74349 63.98030 59.86189
# Shear Modulus (GPa) = 28.05135 30.36748 29.20941
#
# Velocity S-wave (km/s) = 3.55456 3.69840 3.62719
# Velocity P-wave (km/s) = 6.47724 6.85971 6.67121
#
# Compressibility (1/GPa) = 0.01793931
#
# Stress axis : x y z
#
# Youngs Moduli (GPa) = 66.97616 121.53062 87.24538
#
# Poissons Ratio (x) = 0.50170 0.14413
# Poissons Ratio (y) = 0.27649 0.22340
# Poissons Ratio (z) = 0.11065 0.31119
#
# Static dielectric constant tensor:
#      x y z
#    x 3.939210 0.000000 0.026010 
#    y 0.000000 4.035320 0.000000 
#    z 0.026010 0.000000 3.847540 
# 
# 
# High freq. dielectric constant tensor:
#      x y z
#    x 1.871630 0.000000 0.002710 
#    y 0.000000 1.874730 0.000000 
#    z 0.002710 0.000000 1.868170 
# 
# From -- ./inp_files/27669.got.cif
#   From: 2010.03.12/outbox.cif.g09.slc.cpg/sg5_14_cif.got.tgz:27669.got - 2010.03.31 09:47:26.
