data_PCOD8051646
_publ_section_title
;
Structure prediction by ZEFSAII (Michael W. Deem and Ramdas Pophale) SiO2 
 PCOD8051646
Probable space group: C 2
;
_chemical_formula_sum "Si O2"
_cell_formula_units_Z 24
_cell_length_a 14.921129
_cell_length_b 8.405799
_cell_length_c 14.718644
_cell_angle_alpha 90.000000
_cell_angle_beta 28.899948
_cell_angle_gamma 90.000000
_cell_volume 892.172305
_symmetry_space_group_name_H-M "C 2"
_symmetry_group_IT_number 5
_symmetry_cell_setting 'monoclinic'
loop_
_space_group_symop_operation_xyz
x,y,z
-x,y,-z
1/2+x,1/2+y,z
1/2-x,1/2+y,-z
loop_
_atom_site_type_symbol
_atom_site_label
_atom_site_fract_x
_atom_site_fract_y
_atom_site_fract_z
Si Si1 0.924276 0.591680 0.764247
Si Si2 0.786532 0.963824 0.213609
Si Si3 0.609418 0.666159 0.714922
Si Si4 0.294124 0.472505 0.521681
Si Si5 0.238263 0.393401 0.939790
Si Si6 0.783576 0.603503 0.211034
O O1 0.850994 0.564419 0.727595
O O2 0.916209 0.779964 0.794290
O O3 0.119188 0.519387 0.614610
O O4 0.772465 0.507955 0.964925
O O5 0.784976 0.043017 0.313377
O O6 0.709061 0.783665 0.276072
O O7 0.000000 0.970673 0.000000
O O8 0.544667 0.563106 0.681571
O O9 0.784382 0.781249 0.532572
O O10 0.446014 0.776197 0.903768
O O11 0.279346 0.536847 0.636477
O O12 0.293131 0.488569 0.799192
O O13 0.000000 0.602921 0.000000
#
# Coordination Sequence:
#
# PCOD8051646 Si02
#       6
#     4   4   4   4   4   4
#     4  11  23  37  65 101 127 176 229 289 322 405
#     4  11  23  39  68  98 130 177 228 276 343 398
#     4  11  23  43  65  98 137 185 217 278 347 405
#     4  11  25  41  68  96 139 178 228 279 339 405
#     4  11  23  41  68  99 136 172 237 280 334 401
#     4  11  21  42  66  98 128 181 226 274 333 415
#
# _framework density 26.900632999999999
#
# number of rings (size 3 to 8) (size 9 to 14) (size 15 to 20)
#    0.000    1.000    5.000    3.000    2.333    2.000 
#    0.000    0.000    0.000   11.000    0.000    0.000 
#    0.000    0.000    0.000    0.000    0.000    0.000 
#
# Total GULP energy -148704.480170 kJ/mol
# GULP energy per Si atom -12392.040014 kJ/mol
# Density = 2.683941 g / cm^3
# Si number density = 26.900633 Si / 1000 Ang^3
#
#
#
# Elastic Constant Matrix: (Units=GPa)
#
#
# Indices 1 2 3 4 5 6 
#
# 1 116.2556 27.6440 21.6008 -0.0002 40.2078 0.0001
# 2 27.6440 181.6903 10.8700 -0.0001 38.8002 0.0001
# 3 21.6008 10.8700 89.9799 -0.0003 29.3083 0.0002
# 4 -0.0002 -0.0001 -0.0003 32.6107 0.0002 20.7023
# 5 40.2078 38.8002 29.3083 0.0002 53.2976 -0.0002
# 6 0.0001 0.0001 0.0002 20.7023 -0.0002 52.2048
#
#
#
# Elastic Compliance Matrix: (Units=1/GPa)
#
#
# Indices 1 2 3 4 5 6 
#
# 1 0.011641 0.000130 0.000099 0.000000 -0.008931 0.000000
# 2 0.000130 0.006582 0.000934 0.000000 -0.005403 0.000000
# 3 0.000099 0.000934 0.013671 0.000000 -0.008272 0.000000
# 4 0.000000 0.000000 0.000000 0.040982 -0.000001 -0.016252
# 5 -0.008931 -0.005403 -0.008272 -0.000001 0.033983 0.000000
# 6 0.000000 0.000000 0.000000 -0.016252 0.000000 0.025600
#
#
# Mechanical properties :
#
#
# Convention : Reuss Voigt Hill
#
# Bulk Modulus (GPa) = 29.22272 56.46169 42.84220
# Shear Modulus (GPa) = 35.32537 49.47669 42.40103
#
# Velocity S-wave (km/s) = 3.62771 4.29329 3.97446
# Velocity P-wave (km/s) = 5.33234 6.75359 6.08460
#
# Compressibility (1/GPa) = 0.03421995
#
# Stress axis : x y z
#
# Youngs Moduli (GPa) = 85.90017 151.92745 73.14489
#
# Poissons Ratio (x) = -0.01978 -0.00722
# Poissons Ratio (y) = -0.01118 -0.06829
# Poissons Ratio (z) = -0.00848 -0.14183
#
# Static dielectric constant tensor:
#      x y z
#    x 4.776350 0.000000 0.275590 
#    y 0.000000 5.876680 0.000000 
#    z 0.275590 0.000000 5.592880 
# 
# 
# High freq. dielectric constant tensor:
#      x y z
#    x 2.074070 0.000000 -0.002450 
#    y 0.000000 2.112660 0.000000 
#    z -0.002450 0.000000 2.110740 
# 
# From -- ./inp_files/54090.got.cif
#   From: 2010.03.12/outbox.cif.g09.slc.cpg/sg5_28_cif.got.tgz:54090.got - 2010.03.31 09:47:26.
