data_PCOD8051143
_publ_section_title
;
Structure prediction by ZEFSAII (Michael W. Deem and Ramdas Pophale) SiO2 
 PCOD8051143
Probable space group: C 2
;
_chemical_formula_sum "Si O2"
_cell_formula_units_Z 16
_cell_length_a 8.061897
_cell_length_b 17.943617
_cell_length_c 5.422886
_cell_angle_alpha 90.000000
_cell_angle_beta 56.427352
_cell_angle_gamma 90.000000
_cell_volume 653.610955
_symmetry_space_group_name_H-M "C 2"
_symmetry_group_IT_number 5
_symmetry_cell_setting 'monoclinic'
loop_
_space_group_symop_operation_xyz
x,y,z
-x,y,-z
1/2+x,1/2+y,z
1/2-x,1/2+y,-z
loop_
_atom_site_type_symbol
_atom_site_label
_atom_site_fract_x
_atom_site_fract_y
_atom_site_fract_z
Si Si1 0.156687 0.427360 0.073957
Si Si2 0.000000 0.293939 0.500000
Si Si3 0.381827 0.206648 0.362241
Si Si4 0.208019 0.055223 0.694756
Si Si5 0.500000 0.459713 0.500000
O O1 0.104941 0.347281 0.220607
O O2 0.161154 0.497887 0.251933
O O3 0.381294 0.410109 0.793665
O O4 0.000000 0.451137 0.000000
O O5 0.168535 0.245223 0.495181
O O6 0.500000 0.244912 0.500000
O O7 0.336855 0.125414 0.509342
O O8 0.500000 0.204026 0.000000
O O9 0.166970 0.011776 0.478599
O O10 0.000000 0.078143 0.000000
#
# Coordination Sequence:
#
# PCOD8051143 Si02
#       5
#     4   2   4   4   2
#     4  11  26  47  81 114 163 205 268 334 413 470
#     4  12  31  56  76 118 167 218 270 342 407 494
#     4  12  33  53  85 119 168 222 275 331 417 488
#     4  10  25  49  80 121 156 208 271 339 401 486
#     4  10  23  44  76 122 151 202 268 338 399 482
#
# _framework density 24.479393999999999
#
# number of rings (size 3 to 8) (size 9 to 14) (size 15 to 20)
#    0.000    1.000    0.000    2.250   19.250    5.000 
#    2.250    0.000    0.000    0.000    0.000    0.000 
#    0.000    0.000    0.000    0.000    0.000    0.000 
#
# Total GULP energy -99114.005797 kJ/mol
# GULP energy per Si atom -12389.250725 kJ/mol
# Density = 2.442368 g / cm^3
# Si number density = 24.479394 Si / 1000 Ang^3
#
#
#
# Elastic Constant Matrix: (Units=GPa)
#
#
# Indices 1 2 3 4 5 6 
#
# 1 204.8028 75.2428 43.7249 0.0000 22.1247 0.0000
# 2 75.2428 139.2648 59.8072 0.0000 -2.9581 0.0000
# 3 43.7249 59.8072 158.0051 0.0000 -2.7512 0.0000
# 4 0.0000 0.0000 0.0000 108.5441 0.0000 21.0549
# 5 22.1247 -2.9581 -2.7512 0.0000 45.4948 0.0000
# 6 0.0000 0.0000 0.0000 21.0549 0.0000 49.7467
#
#
#
# Elastic Compliance Matrix: (Units=1/GPa)
#
#
# Indices 1 2 3 4 5 6 
#
# 1 0.006638 -0.003398 -0.000612 0.000000 -0.003486 0.000000
# 2 -0.003398 0.010320 -0.002928 0.000000 0.002146 0.000000
# 3 -0.000612 -0.002928 0.007616 0.000000 0.000568 0.000000
# 4 0.000000 0.000000 0.000000 0.010037 0.000000 -0.004248
# 5 -0.003486 0.002146 0.000568 0.000000 0.023850 0.000000
# 6 0.000000 0.000000 0.000000 -0.004248 0.000000 0.021900
#
#
# Mechanical properties :
#
#
# Convention : Reuss Voigt Hill
#
# Bulk Modulus (GPa) = 93.47105 95.51361 94.49233
# Shear Modulus (GPa) = 51.12317 62.31033 56.71675
#
# Velocity S-wave (km/s) = 4.57488 5.05069 4.81866
# Velocity P-wave (km/s) = 8.13465 8.55075 8.34529
#
# Compressibility (1/GPa) = 0.01069850
#
# Stress axis : x y z
#
# Youngs Moduli (GPa) = 150.64046 96.90235 131.29431
#
# Poissons Ratio (x) = 0.32928 0.08029
# Poissons Ratio (y) = 0.51188 0.38449
# Poissons Ratio (z) = 0.09212 0.28377
#
# Static dielectric constant tensor:
#      x y z
#    x 4.607230 0.000000 0.226980 
#    y 0.000000 4.150200 0.000000 
#    z 0.226980 0.000000 4.768410 
# 
# 
# High freq. dielectric constant tensor:
#      x y z
#    x 2.000530 0.000000 -0.008760 
#    y 0.000000 1.960460 0.000000 
#    z -0.008760 0.000000 1.998940 
# 
# From -- ./inp_files/2240.got.cif
#   From: 2010.03.12/outbox.cif.g09.slc.cpg/sg5_2_cif.got.tgz:2240.got - 2010.03.31 09:47:26.
