data_PCOD8051212
_publ_section_title
;
Structure prediction by ZEFSAII (Michael W. Deem and Ramdas Pophale) SiO2 
 PCOD8051212
Probable space group: C 2
;
_chemical_formula_sum "Si O2"
_cell_formula_units_Z 32
_cell_length_a 24.053971
_cell_length_b 8.824345
_cell_length_c 23.303684
_cell_angle_alpha 90.000000
_cell_angle_beta 161.622365
_cell_angle_gamma 90.000000
_cell_volume 1559.510754
_symmetry_space_group_name_H-M "C 2"
_symmetry_group_IT_number 5
_symmetry_cell_setting 'monoclinic'
loop_
_space_group_symop_operation_xyz
x,y,z
-x,y,-z
1/2+x,1/2+y,z
1/2-x,1/2+y,-z
loop_
_atom_site_type_symbol
_atom_site_label
_atom_site_fract_x
_atom_site_fract_y
_atom_site_fract_z
Si Si1 0.114182 0.532150 0.453214
Si Si2 0.231864 0.812069 0.615035
Si Si3 0.338241 0.470641 0.567677
Si Si4 0.745318 0.175927 0.915432
Si Si5 0.444379 0.717868 0.287430
Si Si6 0.415808 0.487327 0.358144
Si Si7 0.177322 0.875187 0.946788
Si Si8 0.430984 0.795014 0.991551
O O1 0.245563 0.625414 0.624592
O O2 0.182723 0.528995 0.455452
O O3 0.953277 0.649884 0.297983
O O4 0.061158 0.363749 0.420866
O O5 0.253150 0.876158 0.571903
O O6 0.046979 0.862335 0.461127
O O7 0.395862 0.876268 0.812290
O O8 0.445923 0.613740 0.648413
O O9 0.465708 0.361363 0.731259
O O10 0.762162 0.334973 0.967156
O O11 0.863770 0.176315 0.973936
O O12 0.793056 0.048762 0.008332
O O13 0.396189 0.632108 0.298251
O O14 0.260641 0.770148 0.078011
O O15 0.500000 0.544390 0.500000
O O16 0.221624 0.414656 0.173923
O O17 0.500000 0.715502 0.000000
#
# Coordination Sequence:
#
# PCOD8051212 Si02
#       8
#     4   4   4   4   4   4   4   4
#     4  11  22  39  61  99 135 177 209 277 343 413
#     4  11  23  40  69  96 130 173 229 276 333 408
#     4  11  21  38  59  98 138 175 220 262 340 422
#     4  11  23  38  64  96 137 173 219 272 352 394
#     4  10  24  39  64  97 137 181 216 282 344 406
#     4  11  23  49  68  96 126 173 234 288 341 392
#     4  11  21  39  62 100 136 176 209 279 339 421
#     4  12  25  44  71 101 126 180 240 288 325 408
#
# _framework density 20.519255000000001
#
# number of rings (size 3 to 8) (size 9 to 14) (size 15 to 20)
#    0.000    1.000    5.000    2.250    3.500    0.000 
#    2.250    3.125    0.000    3.000    0.000    0.000 
#    0.000    0.000    0.000    0.000    0.000    0.000 
#
# Total GULP energy -198239.266816 kJ/mol
# GULP energy per Si atom -12389.954176 kJ/mol
# Density = 2.047255 g / cm^3
# Si number density = 20.519255 Si / 1000 Ang^3
#
#
#
# Elastic Constant Matrix: (Units=GPa)
#
#
# Indices 1 2 3 4 5 6 
#
# 1 139.3086 55.1357 42.3706 0.0003 8.4343 -0.0001
# 2 55.1357 100.5430 35.7260 0.0020 -1.8849 -0.0006
# 3 42.3706 35.7260 120.9092 0.0057 -9.2687 0.0019
# 4 0.0003 0.0020 0.0057 24.0479 0.0027 -4.1228
# 5 8.4343 -1.8849 -9.2687 0.0027 31.2820 0.0003
# 6 -0.0001 -0.0006 0.0019 -4.1228 0.0003 18.7431
#
#
#
# Elastic Compliance Matrix: (Units=1/GPa)
#
#
# Indices 1 2 3 4 5 6 
#
# 1 0.009988 -0.004695 -0.002395 0.000001 -0.003686 0.000001
# 2 -0.004695 0.013323 -0.002182 -0.000001 0.001422 0.000000
# 3 -0.002395 -0.002182 0.010022 -0.000003 0.003484 -0.000002
# 4 0.000001 -0.000001 -0.000003 0.043213 -0.000005 0.009505
# 5 -0.003686 0.001422 0.003484 -0.000005 0.034079 -0.000002
# 6 0.000001 0.000000 -0.000002 0.009505 -0.000002 0.055444
#
#
# Mechanical properties :
#
#
# Convention : Reuss Voigt Hill
#
# Bulk Modulus (GPa) = 67.62565 69.69168 68.65867
# Shear Modulus (GPa) = 26.37904 29.98316 28.18110
#
# Velocity S-wave (km/s) = 3.58938 3.82674 3.70996
# Velocity P-wave (km/s) = 7.08568 7.31868 7.20312
#
# Compressibility (1/GPa) = 0.01478729
#
# Stress axis : x y z
#
# Youngs Moduli (GPa) = 100.11661 75.05881 99.78085
#
# Poissons Ratio (x) = 0.35243 0.23902
# Poissons Ratio (y) = 0.47008 0.21774
# Poissons Ratio (z) = 0.23982 0.16379
#
# Static dielectric constant tensor:
#      x y z
#    x 3.731470 0.000000 -0.109750 
#    y 0.000000 3.662280 0.000000 
#    z -0.109750 0.000000 4.049230 
# 
# 
# High freq. dielectric constant tensor:
#      x y z
#    x 1.791530 0.000000 -0.003540 
#    y 0.000000 1.786260 0.000000 
#    z -0.003540 0.000000 1.817970 
# 
# From -- ./inp_files/69668.got.cif
#   From: 2010.03.12/outbox.cif.g09.slc.cpg/sg5_35_cif.got.tgz:69668.got - 2010.03.31 09:47:26.
