data_PCOD8051270
_publ_section_title
;
Structure prediction by ZEFSAII (Michael W. Deem and Ramdas Pophale) SiO2 
 PCOD8051270
Probable space group: C 2
;
_chemical_formula_sum "Si O2"
_cell_formula_units_Z 18
_cell_length_a 10.886700
_cell_length_b 8.851487
_cell_length_c 9.396898
_cell_angle_alpha 90.000000
_cell_angle_beta 59.132382
_cell_angle_gamma 90.000000
_cell_volume 777.255760
_symmetry_space_group_name_H-M "C 2"
_symmetry_group_IT_number 5
_symmetry_cell_setting 'monoclinic'
loop_
_space_group_symop_operation_xyz
x,y,z
-x,y,-z
1/2+x,1/2+y,z
1/2-x,1/2+y,-z
loop_
_atom_site_type_symbol
_atom_site_label
_atom_site_fract_x
_atom_site_fract_y
_atom_site_fract_z
Si Si1 0.926270 0.091440 0.687724
Si Si2 0.000000 0.644753 0.500000
Si Si3 0.820682 0.400308 0.749241
Si Si4 0.136601 0.554981 0.990733
Si Si5 0.535695 0.317274 0.766103
O O1 0.946960 0.272858 0.688678
O O2 0.000000 0.032160 0.500000
O O3 0.754679 0.065433 0.796225
O O4 0.992031 0.993564 0.777585
O O5 0.867557 0.538839 0.622575
O O6 0.944004 0.745344 0.402608
O O7 0.793875 0.459242 0.924043
O O8 0.682409 0.318257 0.766172
O O9 0.083714 0.720272 0.078287
O O10 0.000000 0.471919 0.000000
#
# Coordination Sequence:
#
# PCOD8051270 Si02
#       5
#     4   2   4   4   4
#     4  12  25  45  73 105 140 187 238 290 351 417
#     4  10  24  42  72 112 144 184 234 296 362 406
#     4  11  25  45  74 105 142 190 236 291 356 420
#     4  11  25  49  71 101 149 188 233 293 353 419
#     4  11  25  47  73 104 145 187 236 295 350 425
#
# _framework density 23.1584
#
# number of rings (size 3 to 8) (size 9 to 14) (size 15 to 20)
#    0.000    0.889    4.444    1.333    3.111    0.000 
#   12.000    0.000    0.000    0.000    0.000    0.000 
#    0.000    0.000    0.000    0.000    0.000    0.000 
#
# Total GULP energy -111509.451187 kJ/mol
# GULP energy per Si atom -12389.939021 kJ/mol
# Density = 2.310569 g / cm^3
# Si number density = 23.158400 Si / 1000 Ang^3
#
#
#
# Elastic Constant Matrix: (Units=GPa)
#
#
# Indices 1 2 3 4 5 6 
#
# 1 123.2001 59.1101 69.3413 0.0000 15.2612 0.0000
# 2 59.1101 129.8209 37.2352 0.0000 12.6838 0.0000
# 3 69.3413 37.2352 165.3210 0.0000 -4.5182 0.0000
# 4 0.0000 0.0000 0.0000 20.1111 0.0000 0.5179
# 5 15.2612 12.6838 -4.5182 0.0000 34.9245 0.0000
# 6 0.0000 0.0000 0.0000 0.5179 0.0000 39.2049
#
#
#
# Elastic Compliance Matrix: (Units=1/GPa)
#
#
# Indices 1 2 3 4 5 6 
#
# 1 0.013509 -0.004277 -0.004839 0.000000 -0.004976 0.000000
# 2 -0.004277 0.009972 -0.000502 0.000000 -0.001818 0.000000
# 3 -0.004839 -0.000502 0.008283 0.000000 0.003368 0.000000
# 4 0.000000 0.000000 0.000000 0.049741 0.000000 -0.000657
# 5 -0.004976 -0.001818 0.003368 0.000000 0.031903 0.000000
# 6 0.000000 0.000000 0.000000 -0.000657 0.000000 0.025516
#
#
# Mechanical properties :
#
#
# Convention : Reuss Voigt Hill
#
# Bulk Modulus (GPa) = 79.81327 83.30169 81.55748
# Shear Modulus (GPa) = 30.80063 35.69178 33.24621
#
# Velocity S-wave (km/s) = 3.65087 3.93007 3.79304
# Velocity P-wave (km/s) = 7.23261 7.52612 7.38083
#
# Compressibility (1/GPa) = 0.01252925
#
# Stress axis : x y z
#
# Youngs Moduli (GPa) = 74.02720 100.28360 120.72307
#
# Poissons Ratio (x) = 0.42889 0.58414
# Poissons Ratio (y) = 0.31660 0.06058
# Poissons Ratio (z) = 0.35819 0.05032
#
# Static dielectric constant tensor:
#      x y z
#    x 3.934150 0.000000 0.080590 
#    y 0.000000 4.398490 0.000000 
#    z 0.080590 0.000000 4.340750 
# 
# 
# High freq. dielectric constant tensor:
#      x y z
#    x 1.890630 0.000000 -0.000280 
#    y 0.000000 1.928980 0.000000 
#    z -0.000280 0.000000 1.931250 
# 
# From -- ./inp_files/18211.got.cif
#   From: 2010.03.12/outbox.cif.g09.slc.cpg/sg5_10_cif.got.tgz:18211.got - 2010.03.31 09:47:26.
