data_PCOD8051972
_publ_section_title
;
Structure prediction by ZEFSAII (Michael W. Deem and Ramdas Pophale) SiO2 
 PCOD8051972
Probable space group: C 2
;
_chemical_formula_sum "Si O2"
_cell_formula_units_Z 32
_cell_length_a 13.348018
_cell_length_b 12.786613
_cell_length_c 19.464586
_cell_angle_alpha 90.000000
_cell_angle_beta 152.633240
_cell_angle_gamma 90.000000
_cell_volume 1527.135143
_symmetry_space_group_name_H-M "C 2"
_symmetry_group_IT_number 5
_symmetry_cell_setting 'monoclinic'
loop_
_space_group_symop_operation_xyz
x,y,z
-x,y,-z
1/2+x,1/2+y,z
1/2-x,1/2+y,-z
loop_
_atom_site_type_symbol
_atom_site_label
_atom_site_fract_x
_atom_site_fract_y
_atom_site_fract_z
Si Si1 0.972291 0.323380 0.830875
Si Si2 0.155357 0.276788 0.397439
Si Si3 0.396286 0.433657 0.640405
Si Si4 0.420821 0.603050 0.873993
Si Si5 0.821407 0.742627 0.833740
Si Si6 0.820831 0.506953 0.833388
Si Si7 0.054152 0.596082 0.457374
Si Si8 0.952984 0.895614 0.123091
O O1 0.846073 0.304953 0.683537
O O2 0.970429 0.218894 0.876130
O O3 0.849460 0.419474 0.792678
O O4 0.217069 0.352709 0.960094
O O5 0.305398 0.358521 0.527455
O O6 0.284725 0.169903 0.486460
O O7 0.916389 0.264816 0.282093
O O8 0.577726 0.506743 0.715908
O O9 0.187496 0.489598 0.546607
O O10 0.517941 0.378903 0.777940
O O11 0.532642 0.516859 0.892413
O O12 0.163276 0.581017 0.719200
O O13 0.500000 0.590637 0.000000
O O14 0.851732 0.624605 0.823232
O O15 0.859966 0.825294 0.797023
O O16 0.000000 0.765692 0.000000
O O17 0.000000 0.482270 0.000000
O O18 0.000000 0.640077 0.500000
#
# Coordination Sequence:
#
# PCOD8051972 Si02
#       8
#     4   4   4   4   4   4   4   4
#     4  12  26  45  72 106 141 182 236 290 349 417
#     4  12  26  45  71 102 141 187 230 288 354 413
#     4  12  26  45  71 102 141 187 230 288 354 413
#     4  12  28  46  75 104 139 183 243 292 347 422
#     4  11  24  45  71 101 141 183 230 283 352 418
#     4  11  24  45  71 101 141 183 230 283 352 418
#     4  12  24  48  70  98 139 188 233 288 349 411
#     4  12  26  45  72 106 141 182 236 290 349 417
#
# _framework density 20.954267999999999
#
# number of rings (size 3 to 8) (size 9 to 14) (size 15 to 20)
#    0.000    0.250    6.250    2.250    5.250    0.000 
#    2.250    1.250    0.000    0.000    0.000    0.000 
#    0.000    0.000    0.000    0.000    0.000    0.000 
#
# Total GULP energy -198428.084300 kJ/mol
# GULP energy per Si atom -12401.755269 kJ/mol
# Density = 2.090657 g / cm^3
# Si number density = 20.954268 Si / 1000 Ang^3
#
#
#
# Elastic Constant Matrix: (Units=GPa)
#
#
# Indices 1 2 3 4 5 6 
#
# 1 87.7521 28.3488 31.3493 0.0028 2.7541 -0.0069
# 2 28.3488 99.8828 19.2244 0.0076 2.1546 0.0007
# 3 31.3493 19.2244 122.7969 0.0298 3.1093 -0.0170
# 4 0.0028 0.0076 0.0298 28.9466 0.0044 5.9588
# 5 2.7541 2.1546 3.1093 0.0044 55.1404 0.0011
# 6 -0.0069 0.0007 -0.0170 5.9588 0.0011 15.8794
#
#
#
# Elastic Compliance Matrix: (Units=1/GPa)
#
#
# Indices 1 2 3 4 5 6 
#
# 1 0.013508 -0.003262 -0.002928 0.000002 -0.000382 0.000002
# 2 -0.003262 0.011116 -0.000902 -0.000001 -0.000221 -0.000002
# 3 -0.002928 -0.000902 0.009041 -0.000011 -0.000328 0.000013
# 4 0.000002 -0.000001 -0.000011 0.037438 -0.000002 -0.014049
# 5 -0.000382 -0.000221 -0.000328 -0.000002 0.018182 -0.000001
# 6 0.000002 -0.000002 0.000013 -0.014049 -0.000001 0.068246
#
#
# Mechanical properties :
#
#
# Convention : Reuss Voigt Hill
#
# Bulk Modulus (GPa) = 51.33410 52.03077 51.68243
# Shear Modulus (GPa) = 28.05714 35.42723 31.74219
#
# Velocity S-wave (km/s) = 3.66316 4.11626 3.89631
# Velocity P-wave (km/s) = 6.51483 6.89029 6.70519
#
# Compressibility (1/GPa) = 0.01948023
#
# Stress axis : x y z
#
# Youngs Moduli (GPa) = 74.03264 89.96140 110.61268
#
# Poissons Ratio (x) = 0.29345 0.32388
# Poissons Ratio (y) = 0.24149 0.09976
# Poissons Ratio (z) = 0.21677 0.08114
#
# Static dielectric constant tensor:
#      x y z
#    x 3.726300 0.000000 0.154220 
#    y 0.000000 3.870360 -0.000010 
#    z 0.154220 -0.000010 4.030650 
# 
# 
# High freq. dielectric constant tensor:
#      x y z
#    x 1.821850 0.000000 0.013100 
#    y 0.000000 1.828700 0.000000 
#    z 0.013100 0.000000 1.836090 
# 
# From -- ./inp_files/60729.got.cif
#   From: 2010.03.12/outbox.cif.g09.slc.cpg/sg5_31_cif.got.tgz:60729.got - 2010.03.31 09:47:26.
