data_PCOD8051012
_publ_section_title
;
Structure prediction by ZEFSAII (Michael W. Deem and Ramdas Pophale) SiO2 
 PCOD8051012
Probable space group: C 2
;
_chemical_formula_sum "Si O2"
_cell_formula_units_Z 22
_cell_length_a 10.761193
_cell_length_b 19.029206
_cell_length_c 5.148721
_cell_angle_alpha 90.000000
_cell_angle_beta 77.389745
_cell_angle_gamma 90.000000
_cell_volume 1028.906336
_symmetry_space_group_name_H-M "C 2"
_symmetry_group_IT_number 5
_symmetry_cell_setting 'monoclinic'
loop_
_space_group_symop_operation_xyz
x,y,z
-x,y,-z
1/2+x,1/2+y,z
1/2-x,1/2+y,-z
loop_
_atom_site_type_symbol
_atom_site_label
_atom_site_fract_x
_atom_site_fract_y
_atom_site_fract_z
Si Si1 0.500000 0.043020 0.000000
Si Si2 0.920183 0.004884 0.794170
Si Si3 0.651462 0.750691 0.915102
Si Si4 0.698958 0.979732 0.567025
Si Si5 0.244552 0.600485 0.148395
Si Si6 0.149652 0.333587 0.418950
O O1 0.609484 0.092716 0.065691
O O2 0.441555 0.992516 0.248945
O O3 0.000000 0.017975 0.500000
O O4 0.795876 0.960461 0.760689
O O5 0.864858 0.079356 0.915557
O O6 0.000000 0.969966 0.000000
O O7 0.731047 0.681418 0.802717
O O8 0.696135 0.803653 0.671590
O O9 0.500000 0.736490 0.000000
O O10 0.700307 0.785498 0.160809
O O11 0.697830 0.914192 0.369526
O O12 0.746152 0.050499 0.401234
O O13 0.000000 0.333053 0.500000
#
# Coordination Sequence:
#
# PCOD8051012 Si02
#       6
#     2   4   4   4   4   4
#     4  10  24  38  68 102 128 176 228 278 326 384
#     4  11  23  39  64  99 132 166 215 278 328 388
#     4  10  24  39  65  97 132 172 212 276 336 392
#     4  11  24  41  72  98 136 175 226 280 331 394
#     4  11  23  41  68  97 135 173 227 272 332 394
#     4  10  23  41  64  96 133 168 220 272 335 388
#
# _framework density 21.381927000000001
#
# number of rings (size 3 to 8) (size 9 to 14) (size 15 to 20)
#    0.000    1.455    1.818    2.182   14.000    0.727 
#    0.000    0.000    6.000    0.000    0.000    0.000 
#    0.000    0.000    0.000    0.000    0.000    0.000 
#
# Total GULP energy -136316.860063 kJ/mol
# GULP energy per Si atom -12392.441824 kJ/mol
# Density = 2.133326 g / cm^3
# Si number density = 21.381927 Si / 1000 Ang^3
#
#
#
# Elastic Constant Matrix: (Units=GPa)
#
#
# Indices 1 2 3 4 5 6 
#
# 1 65.2627 31.4157 41.5605 0.0000 5.0628 0.0000
# 2 31.4157 139.1375 57.6195 0.0000 1.9955 0.0000
# 3 41.5605 57.6195 150.6436 0.0000 5.7582 0.0000
# 4 0.0000 0.0000 0.0000 34.2976 0.0000 -2.4923
# 5 5.0628 1.9955 5.7582 0.0000 35.6656 0.0000
# 6 0.0000 0.0000 0.0000 -2.4923 0.0000 16.2613
#
#
#
# Elastic Compliance Matrix: (Units=1/GPa)
#
#
# Indices 1 2 3 4 5 6 
#
# 1 0.019458 -0.002582 -0.004307 0.000000 -0.001922 0.000000
# 2 -0.002582 0.008883 -0.002697 0.000000 0.000305 0.000000
# 3 -0.004307 -0.002697 0.008884 0.000000 -0.000672 0.000000
# 4 0.000000 0.000000 0.000000 0.029485 0.000000 0.004519
# 5 -0.001922 0.000305 -0.000672 0.000000 0.028403 0.000000
# 6 0.000000 0.000000 0.000000 0.004519 0.000000 0.062188
#
#
# Mechanical properties :
#
#
# Convention : Reuss Voigt Hill
#
# Bulk Modulus (GPa) = 55.39563 68.47059 61.93311
# Shear Modulus (GPa) = 27.39897 32.20807 29.80352
#
# Velocity S-wave (km/s) = 3.58356 3.88535 3.73750
# Velocity P-wave (km/s) = 6.56403 7.22635 6.90313
#
# Compressibility (1/GPa) = 0.01805197
#
# Stress axis : x y z
#
# Youngs Moduli (GPa) = 51.39398 112.58010 112.56714
#
# Poissons Ratio (x) = 0.29070 0.48482
# Poissons Ratio (y) = 0.13271 0.30357
# Poissons Ratio (z) = 0.22135 0.30360
#
# Static dielectric constant tensor:
#      x y z
#    x 4.172270 0.000000 0.322000 
#    y 0.000000 3.579240 0.000000 
#    z 0.322000 0.000000 4.208400 
# 
# 
# High freq. dielectric constant tensor:
#      x y z
#    x 1.838360 0.000000 0.013040 
#    y 0.000000 1.808750 0.000000 
#    z 0.013040 0.000000 1.852710 
# 
# From -- ./inp_files/5118.got.cif
#   From: 2010.03.12/outbox.cif.g09.slc.cpg/sg5_3_cif.got.tgz:5118.got - 2010.03.31 09:47:26.
