data_PCOD8051810
_publ_section_title
;
Structure prediction by ZEFSAII (Michael W. Deem and Ramdas Pophale) SiO2 
 PCOD8051810
Probable space group: C 2
;
_chemical_formula_sum "Si O2"
_cell_formula_units_Z 20
_cell_length_a 25.945460
_cell_length_b 4.890587
_cell_length_c 16.068818
_cell_angle_alpha 90.000000
_cell_angle_beta 25.392991
_cell_angle_gamma 90.000000
_cell_volume 874.351405
_symmetry_space_group_name_H-M "C 2"
_symmetry_group_IT_number 5
_symmetry_cell_setting 'monoclinic'
loop_
_space_group_symop_operation_xyz
x,y,z
-x,y,-z
1/2+x,1/2+y,z
1/2-x,1/2+y,-z
loop_
_atom_site_type_symbol
_atom_site_label
_atom_site_fract_x
_atom_site_fract_y
_atom_site_fract_z
Si Si1 0.644156 0.758790 0.964113
Si Si2 0.461138 0.243302 0.962706
Si Si3 0.584118 0.252286 0.451603
Si Si4 0.190007 0.477087 0.554185
Si Si5 0.052398 0.264162 0.608761
O O1 0.580128 0.548059 0.995517
O O2 0.569492 0.760880 0.158939
O O3 0.645331 0.044197 0.912003
O O4 0.783111 0.696312 0.779307
O O5 0.575429 0.156224 0.742914
O O6 0.500000 0.211743 0.000000
O O7 0.500000 0.357942 0.500000
O O8 0.581370 0.464885 0.531818
O O9 0.531604 0.967777 0.562370
O O10 0.203260 0.203064 0.592892
O O11 0.170503 0.366987 0.488635
#
# Coordination Sequence:
#
# PCOD8051810 Si02
#       5
#     4   4   4   4   4
#     4  11  25  46  65 100 141 176 227 284 338 406
#     4  11  24  41  64  98 138 182 221 271 339 402
#     4  12  27  46  75 102 129 186 237 284 352 392
#     4  11  23  39  66 101 135 185 226 265 344 408
#     4  11  25  46  67 100 144 174 228 290 335 410
#
# _framework density 22.874096000000002
#
# number of rings (size 3 to 8) (size 9 to 14) (size 15 to 20)
#    0.000    0.800    0.000    8.400    8.400    1.600 
#    0.000    0.000    0.000    0.000    0.000    0.000 
#    0.000    0.000    0.000    0.000    0.000    0.000 
#
# Total GULP energy -123997.566269 kJ/mol
# GULP energy per Si atom -12399.756627 kJ/mol
# Density = 2.282203 g / cm^3
# Si number density = 22.874096 Si / 1000 Ang^3
#
#
#
# Elastic Constant Matrix: (Units=GPa)
#
#
# Indices 1 2 3 4 5 6 
#
# 1 97.5188 13.7045 43.2867 -0.0085 -10.7668 0.0211
# 2 13.7045 90.7406 29.7650 -0.0918 4.7688 0.0950
# 3 43.2867 29.7650 115.5485 -0.0184 -9.2377 0.0024
# 4 -0.0085 -0.0918 -0.0184 24.7961 -0.0139 10.0938
# 5 -10.7668 4.7688 -9.2377 -0.0139 27.0467 -0.0093
# 6 0.0211 0.0950 0.0024 10.0938 -0.0093 55.0608
#
#
#
# Elastic Compliance Matrix: (Units=1/GPa)
#
#
# Indices 1 2 3 4 5 6 
#
# 1 0.012655 -0.000708 -0.004262 0.000002 0.003707 -0.000003
# 2 -0.000708 0.012365 -0.003204 0.000054 -0.003557 -0.000031
# 3 -0.004262 -0.003204 0.011294 -0.000007 0.002726 0.000008
# 4 0.000002 0.000054 -0.000007 0.043581 0.000009 -0.007989
# 5 0.003707 -0.003557 0.002726 0.000009 0.040007 0.000010
# 6 -0.000003 -0.000031 0.000008 -0.007989 0.000010 0.019626
#
#
# Mechanical properties :
#
#
# Convention : Reuss Voigt Hill
#
# Bulk Modulus (GPa) = 50.08541 53.03561 51.56051
# Shear Modulus (GPa) = 30.76281 35.85084 33.30682
#
# Velocity S-wave (km/s) = 3.67123 3.96322 3.82002
# Velocity P-wave (km/s) = 6.31777 6.64673 6.48434
#
# Compressibility (1/GPa) = 0.01996589
#
# Stress axis : x y z
#
# Youngs Moduli (GPa) = 79.01977 80.87035 88.53935
#
# Poissons Ratio (x) = 0.05726 0.37736
# Poissons Ratio (y) = 0.05595 0.28372
# Poissons Ratio (z) = 0.33679 0.25914
#
# Static dielectric constant tensor:
#      x y z
#    x 3.671120 -0.000470 -0.196770 
#    y -0.000470 4.604030 -0.000130 
#    z -0.196770 -0.000130 4.043650 
# 
# 
# High freq. dielectric constant tensor:
#      x y z
#    x 1.890670 0.000000 -0.002120 
#    y 0.000000 1.925960 0.000010 
#    z -0.002120 0.000010 1.900160 
# 
# From -- ./inp_files/57364.got.cif
#   From: 2010.03.12/outbox.cif.g09.slc.cpg/sg5_29_cif.got.tgz:57364.got - 2010.03.31 09:47:26.
