data_PCOD8051439
_publ_section_title
;
Structure prediction by ZEFSAII (Michael W. Deem and Ramdas Pophale) SiO2 
 PCOD8051439
Probable space group: C 2
;
_chemical_formula_sum "Si O2"
_cell_formula_units_Z 32
_cell_length_a 8.472708
_cell_length_b 10.933268
_cell_length_c 20.233048
_cell_angle_alpha 90.000000
_cell_angle_beta 129.383589
_cell_angle_gamma 90.000000
_cell_volume 1448.656684
_symmetry_space_group_name_H-M "C 2"
_symmetry_group_IT_number 5
_symmetry_cell_setting 'monoclinic'
loop_
_space_group_symop_operation_xyz
x,y,z
-x,y,-z
1/2+x,1/2+y,z
1/2-x,1/2+y,-z
loop_
_atom_site_type_symbol
_atom_site_label
_atom_site_fract_x
_atom_site_fract_y
_atom_site_fract_z
Si Si1 0.111965 0.043910 0.131934
Si Si2 0.680137 0.166876 0.155233
Si Si3 0.697302 0.355759 0.266321
Si Si4 0.496847 0.796319 0.848446
Si Si5 0.873435 0.949681 0.276652
Si Si6 0.093223 0.317052 0.452968
Si Si7 0.611257 0.546706 0.461757
Si Si8 0.689782 0.011122 0.956792
O O1 0.242949 0.021380 0.101671
O O2 0.124911 0.186074 0.151372
O O3 0.198033 0.971241 0.217268
O O4 0.873764 0.010251 0.057203
O O5 0.620602 0.236947 0.206519
O O6 0.805757 0.257921 0.141738
O O7 0.467490 0.120347 0.066006
O O8 0.822882 0.052155 0.208939
O O9 0.553208 0.370010 0.291872
O O10 0.925926 0.335237 0.351893
O O11 0.328667 0.870025 0.760413
O O12 0.575280 0.880726 0.929966
O O13 0.945854 0.010662 0.363184
O O14 0.233657 0.436259 0.487184
O O15 0.203711 0.183477 0.468986
O O16 0.000000 0.316807 0.500000
O O17 0.500000 0.567540 0.500000
#
# Coordination Sequence:
#
# PCOD8051439 Si02
#       8
#     4   4   4   4   4   4   4   4
#     4  11  24  42  66 103 129 182 229 276 348 404
#     4  11  23  43  69  95 134 175 225 279 336 407
#     4  12  23  43  72  96 135 181 226 282 346 402
#     4  11  24  43  65  97 132 176 226 277 338 408
#     4  11  24  44  66  98 132 173 228 277 338 411
#     4  11  25  46  69 101 138 182 228 284 347 410
#     4  11  26  44  68 102 135 179 225 283 347 413
#     4  10  25  43  64  95 140 176 223 284 338 405
#
# _framework density 22.08943
#
# number of rings (size 3 to 8) (size 9 to 14) (size 15 to 20)
#    0.000    1.000    5.000    0.750    3.500    2.000 
#    0.000    0.000    0.000    0.000    0.000    0.000 
#    0.000    0.000    0.000    0.000    0.000    0.000 
#
# Total GULP energy -198357.181818 kJ/mol
# GULP energy per Si atom -12397.323864 kJ/mol
# Density = 2.203915 g / cm^3
# Si number density = 22.089430 Si / 1000 Ang^3
#
#
#
# Elastic Constant Matrix: (Units=GPa)
#
#
# Indices 1 2 3 4 5 6 
#
# 1 63.1782 35.6370 7.4721 0.0000 4.8047 0.0000
# 2 35.6370 169.4902 51.2736 0.0000 18.7404 0.0000
# 3 7.4721 51.2736 87.7624 0.0000 4.3476 0.0000
# 4 0.0000 0.0000 0.0000 28.6532 0.0000 8.0178
# 5 4.8047 18.7404 4.3476 0.0000 31.8371 0.0000
# 6 0.0000 0.0000 0.0000 8.0178 0.0000 39.9025
#
#
#
# Elastic Compliance Matrix: (Units=1/GPa)
#
#
# Indices 1 2 3 4 5 6 
#
# 1 0.018014 -0.003981 0.000816 0.000000 -0.000487 0.000000
# 2 -0.003981 0.008500 -0.004439 0.000000 -0.003796 0.000000
# 3 0.000816 -0.004439 0.013889 0.000000 0.000593 0.000000
# 4 0.000000 0.000000 0.000000 0.036979 0.000000 -0.007430
# 5 -0.000487 -0.003796 0.000593 0.000000 0.033637 0.000000
# 6 0.000000 0.000000 0.000000 -0.007430 0.000000 0.026554
#
#
# Mechanical properties :
#
#
# Convention : Reuss Voigt Hill
#
# Bulk Modulus (GPa) = 39.68928 56.57738 48.13333
# Shear Modulus (GPa) = 31.02156 35.14845 33.08501
#
# Velocity S-wave (km/s) = 3.75155 3.99330 3.87431
# Velocity P-wave (km/s) = 6.06399 6.85058 6.46925
#
# Compressibility (1/GPa) = 0.02519572
#
# Stress axis : x y z
#
# Youngs Moduli (GPa) = 55.51191 117.65306 72.00046
#
# Poissons Ratio (x) = 0.46834 -0.05875
# Poissons Ratio (y) = 0.22098 0.31959
# Poissons Ratio (z) = -0.04530 0.52223
#
# Static dielectric constant tensor:
#      x y z
#    x 3.736950 0.000000 0.067360 
#    y 0.000000 4.635060 0.000000 
#    z 0.067360 0.000000 3.984520 
# 
# 
# High freq. dielectric constant tensor:
#      x y z
#    x 1.855610 0.000000 -0.000030 
#    y 0.000000 1.893190 0.000000 
#    z -0.000030 0.000000 1.870690 
# 
# From -- ./inp_files/64564.got.cif
#   From: 2010.03.12/outbox.cif.g09.slc.cpg/sg5_33_cif.got.tgz:64564.got - 2010.03.31 09:47:26.
