data_PCOD8051958
_publ_section_title
;
Structure prediction by ZEFSAII (Michael W. Deem and Ramdas Pophale) SiO2 
 PCOD8051958
Probable space group: C 2
;
_chemical_formula_sum "Si O2"
_cell_formula_units_Z 32
_cell_length_a 10.034634
_cell_length_b 10.045192
_cell_length_c 26.494937
_cell_angle_alpha 90.000000
_cell_angle_beta 146.787898
_cell_angle_gamma 90.000000
_cell_volume 1462.840885
_symmetry_space_group_name_H-M "C 2"
_symmetry_group_IT_number 5
_symmetry_cell_setting 'monoclinic'
loop_
_space_group_symop_operation_xyz
x,y,z
-x,y,-z
1/2+x,1/2+y,z
1/2-x,1/2+y,-z
loop_
_atom_site_type_symbol
_atom_site_label
_atom_site_fract_x
_atom_site_fract_y
_atom_site_fract_z
Si Si1 0.231797 0.608690 0.043838
Si Si2 0.053345 0.787974 0.651469
Si Si3 0.413382 0.007740 0.345911
Si Si4 0.282406 0.290559 0.464969
Si Si5 0.105207 0.348157 0.837411
Si Si6 0.942236 0.052369 0.672906
Si Si7 0.104084 0.877920 0.170146
Si Si8 0.995202 0.602390 0.136033
O O1 0.320012 0.752267 0.092534
O O2 0.449818 0.509618 0.121996
O O3 0.000000 0.555079 0.000000
O O4 0.164352 0.604224 0.964536
O O5 0.038300 0.641511 0.672794
O O6 0.336078 0.822028 0.730284
O O7 0.906725 0.741329 0.555403
O O8 0.926214 0.906747 0.641542
O O9 0.642125 0.924236 0.438103
O O10 0.321582 0.899097 0.277198
O O11 0.232356 0.046507 0.334161
O O12 0.500000 0.344299 0.500000
O O13 0.137709 0.167467 0.392178
O O14 0.300266 0.333615 0.854776
O O15 0.120582 0.498456 0.862242
O O16 0.215359 0.075341 0.780330
O O17 0.958288 0.751050 0.146236
#
# Coordination Sequence:
#
# PCOD8051958 Si02
#       8
#     4   4   4   4   4   4   4   4
#     4  12  24  44  71  98 136 182 226 277 340 404
#     4  11  24  44  71 100 134 182 224 277 345 399
#     4  12  24  45  71 100 136 183 222 279 344 401
#     4  12  24  44  71  98 136 182 226 277 340 404
#     4  11  25  48  68  99 145 173 225 292 329 404
#     4  11  25  48  68  99 145 173 225 292 329 404
#     4  12  24  45  71 100 136 183 222 279 344 401
#     4  11  24  44  71 100 134 182 224 277 345 399
#
# _framework density 21.875245
#
# number of rings (size 3 to 8) (size 9 to 14) (size 15 to 20)
#    0.000    0.500    5.000    3.750    0.000    1.000 
#    9.000    0.000    0.000    0.000    0.000    0.000 
#    0.000    0.000    0.000    0.000    0.000    0.000 
#
# Total GULP energy -198257.478571 kJ/mol
# GULP energy per Si atom -12391.092411 kJ/mol
# Density = 2.182546 g / cm^3
# Si number density = 21.875245 Si / 1000 Ang^3
#
#
#
# Elastic Constant Matrix: (Units=GPa)
#
#
# Indices 1 2 3 4 5 6 
#
# 1 50.3707 42.9587 16.8143 0.0000 -1.2459 0.0000
# 2 42.9587 153.7973 25.2640 -0.0001 -9.7615 -0.0001
# 3 16.8143 25.2640 86.3298 0.0003 -10.1016 0.0002
# 4 0.0000 -0.0001 0.0003 170.1752 0.0001 103.6412
# 5 -1.2459 -9.7615 -10.1016 0.0001 31.0726 0.0001
# 6 0.0000 -0.0001 0.0002 103.6412 0.0001 114.5301
#
#
#
# Elastic Compliance Matrix: (Units=1/GPa)
#
#
# Indices 1 2 3 4 5 6 
#
# 1 0.027025 -0.007127 -0.003444 0.000000 -0.002275 0.000000
# 2 -0.007127 0.008783 -0.000928 0.000000 0.002172 0.000000
# 3 -0.003444 -0.000928 0.012969 0.000000 0.003787 0.000000
# 4 0.000000 0.000000 0.000000 0.013091 0.000000 -0.011847
# 5 -0.002275 0.002172 0.003787 0.000000 0.034005 0.000000
# 6 0.000000 0.000000 0.000000 -0.011847 0.000000 0.019452
#
#
# Mechanical properties :
#
#
# Convention : Reuss Voigt Hill
#
# Bulk Modulus (GPa) = 38.79254 51.17465 44.98359
# Shear Modulus (GPa) = 34.03323 76.85297 55.44310
#
# Velocity S-wave (km/s) = 3.94863 5.93369 5.03986
# Velocity P-wave (km/s) = 6.20974 8.38985 7.38073
#
# Compressibility (1/GPa) = 0.02577815
#
# Stress axis : x y z
#
# Youngs Moduli (GPa) = 37.00331 113.85473 77.10734
#
# Poissons Ratio (x) = 0.81146 0.26556
# Poissons Ratio (y) = 0.26373 0.07156
# Poissons Ratio (z) = 0.12744 0.10567
#
# Static dielectric constant tensor:
#      x y z
#    x 2.553030 0.000000 -0.394760 
#    y 0.000000 4.285920 0.000000 
#    z -0.394760 0.000000 4.201830 
# 
# 
# High freq. dielectric constant tensor:
#      x y z
#    x 1.827250 0.000000 -0.002690 
#    y 0.000000 1.888220 0.000000 
#    z -0.002690 0.000000 1.885430 
# 
# From -- ./inp_files/71773.got.cif
#   From: 2010.03.12/outbox.cif.g09.slc.cpg/sg5_36_cif.got.tgz:71773.got - 2010.03.31 09:47:26.
