data_PCOD8051136
_publ_section_title
;
Structure prediction by ZEFSAII (Michael W. Deem and Ramdas Pophale) SiO2 
 PCOD8051136
Probable space group: C 2
;
_chemical_formula_sum "Si O2"
_cell_formula_units_Z 28
_cell_length_a 13.498443
_cell_length_b 9.412258
_cell_length_c 11.291631
_cell_angle_alpha 90.000000
_cell_angle_beta 62.054782
_cell_angle_gamma 90.000000
_cell_volume 1267.329771
_symmetry_space_group_name_H-M "C 2"
_symmetry_group_IT_number 5
_symmetry_cell_setting 'monoclinic'
loop_
_space_group_symop_operation_xyz
x,y,z
-x,y,-z
1/2+x,1/2+y,z
1/2-x,1/2+y,-z
loop_
_atom_site_type_symbol
_atom_site_label
_atom_site_fract_x
_atom_site_fract_y
_atom_site_fract_z
Si Si1 0.014011 0.283380 0.621396
Si Si2 0.626086 0.888142 0.918647
Si Si3 0.263747 0.872360 0.370604
Si Si4 0.837625 0.463516 0.845608
Si Si5 0.388221 0.554000 0.124902
Si Si6 0.075203 0.710249 0.353773
Si Si7 0.566960 0.484734 0.630901
O O1 0.137689 0.313289 0.602237
O O2 0.000000 0.355525 0.500000
O O3 0.915823 0.332283 0.764449
O O4 0.997358 0.114733 0.615415
O O5 0.681701 0.959487 0.770488
O O6 0.632671 0.717475 0.900612
O O7 0.500000 0.941790 0.000000
O O8 0.687162 0.949054 0.000691
O O9 0.194173 0.744670 0.347916
O O10 0.182857 0.969118 0.493979
O O11 0.716018 0.456623 0.854956
O O12 0.905242 0.604658 0.766855
O O13 0.402394 0.529864 0.254917
O O14 0.500000 0.495992 0.000000
O O15 0.000000 0.639606 0.500000
O O16 0.011781 0.847527 0.336880
#
# Coordination Sequence:
#
# PCOD8051136 Si02
#       7
#     4   4   4   4   4   4   4
#     4  12  23  41  70 109 137 181 241 284 349 417
#     4  11  22  46  68 100 139 189 225 285 352 414
#     4  11  22  44  70 100 146 185 228 287 354 406
#     4  12  24  43  72 101 135 187 234 286 352 419
#     4  11  24  45  72  97 141 183 232 289 356 409
#     4  10  23  44  71 102 140 184 232 292 351 413
#     4  11  24  46  72 103 141 186 232 293 353 411
#
# _framework density 22.093696000000001
#
# number of rings (size 3 to 8) (size 9 to 14) (size 15 to 20)
#    0.000    0.857    4.286    3.429    2.000    2.286 
#    2.571    3.571    0.000    0.000    0.000    0.000 
#    0.000    0.000    0.000    0.000    0.000    0.000 
#
# Total GULP energy -173552.436464 kJ/mol
# GULP energy per Si atom -12396.602605 kJ/mol
# Density = 2.204341 g / cm^3
# Si number density = 22.093696 Si / 1000 Ang^3
#
#
#
# Elastic Constant Matrix: (Units=GPa)
#
#
# Indices 1 2 3 4 5 6 
#
# 1 141.8068 41.9017 60.5323 0.0000 2.7506 0.0000
# 2 41.9017 98.3870 51.6686 0.0000 -3.5037 0.0000
# 3 60.5323 51.6686 180.9176 0.0000 6.1493 0.0000
# 4 0.0000 0.0000 0.0000 34.5801 0.0000 10.6139
# 5 2.7506 -3.5037 6.1493 0.0000 55.4444 0.0000
# 6 0.0000 0.0000 0.0000 10.6139 0.0000 18.7064
#
#
#
# Elastic Compliance Matrix: (Units=1/GPa)
#
#
# Indices 1 2 3 4 5 6 
#
# 1 0.008755 -0.002599 -0.002175 0.000000 -0.000357 0.000000
# 2 -0.002599 0.012801 -0.002829 0.000000 0.001252 0.000000
# 3 -0.002175 -0.002829 0.007092 0.000000 -0.000857 0.000000
# 4 0.000000 0.000000 0.000000 0.035017 0.000000 -0.019868
# 5 -0.000357 0.001252 -0.000857 0.000000 0.018228 0.000000
# 6 0.000000 0.000000 0.000000 -0.019868 0.000000 0.064731
#
#
# Mechanical properties :
#
#
# Convention : Reuss Voigt Hill
#
# Bulk Modulus (GPa) = 74.39086 81.03517 77.71301
# Shear Modulus (GPa) = 30.06422 39.54677 34.80549
#
# Velocity S-wave (km/s) = 3.69285 4.23538 3.97338
# Velocity P-wave (km/s) = 7.20601 7.78945 7.50340
#
# Compressibility (1/GPa) = 0.01344251
#
# Stress axis : x y z
#
# Youngs Moduli (GPa) = 114.21775 78.11863 141.00271
#
# Poissons Ratio (x) = 0.20305 0.30666
# Poissons Ratio (y) = 0.29689 0.39886
# Poissons Ratio (z) = 0.24841 0.22098
#
# Static dielectric constant tensor:
#      x y z
#    x 4.270850 0.000000 -0.093390 
#    y 0.000000 3.738150 0.000000 
#    z -0.093390 0.000000 4.530660 
# 
# 
# High freq. dielectric constant tensor:
#      x y z
#    x 1.882750 0.000000 -0.003120 
#    y 0.000000 1.839270 0.000000 
#    z -0.003120 0.000000 1.894940 
# 
# From -- ./inp_files/41863.got.cif
#   From: 2010.03.12/outbox.cif.g09.slc.cpg/sg5_21_cif.got.tgz:41863.got - 2010.03.31 09:47:26.
