data_PCOD8051383
_publ_section_title
;
Structure prediction by ZEFSAII (Michael W. Deem and Ramdas Pophale) SiO2 
 PCOD8051383
Probable space group: C 2
;
_chemical_formula_sum "Si O2"
_cell_formula_units_Z 24
_cell_length_a 12.209308
_cell_length_b 7.393624
_cell_length_c 24.165609
_cell_angle_alpha 90.000000
_cell_angle_beta 26.453389
_cell_angle_gamma 90.000000
_cell_volume 971.771704
_symmetry_space_group_name_H-M "C 2"
_symmetry_group_IT_number 5
_symmetry_cell_setting 'monoclinic'
loop_
_space_group_symop_operation_xyz
x,y,z
-x,y,-z
1/2+x,1/2+y,z
1/2-x,1/2+y,-z
loop_
_atom_site_type_symbol
_atom_site_label
_atom_site_fract_x
_atom_site_fract_y
_atom_site_fract_z
Si Si1 0.228248 0.554820 0.749686
Si Si2 0.058756 0.362065 0.207907
Si Si3 0.649528 0.581447 0.839659
Si Si4 0.113399 0.428927 0.364694
Si Si5 0.623825 0.523471 0.650043
Si Si6 0.290888 0.261589 0.994281
O O1 0.394355 0.729181 0.658175
O O2 0.394667 0.440264 0.718703
O O3 0.176943 0.442869 0.717255
O O4 0.963558 0.594808 0.897029
O O5 0.221356 0.525246 0.161395
O O6 0.951689 0.233145 0.304199
O O7 0.235768 0.254575 0.085309
O O8 0.844186 0.581629 0.701460
O O9 0.447093 0.436979 0.908989
O O10 0.475219 0.760656 0.918660
O O11 0.334336 0.425114 0.310269
O O12 0.865030 0.498131 0.504504
#
# Coordination Sequence:
#
# PCOD8051383 Si02
#       6
#     4   4   4   4   4   4
#     4  11  26  45  68 106 138 184 229 291 352 413
#     4  12  24  44  73 106 139 184 231 288 354 408
#     4  11  23  44  70 102 141 179 228 286 346 425
#     4  10  24  47  65  99 138 182 235 283 343 406
#     4  11  24  46  71  94 138 187 235 289 336 412
#     4  11  22  40  72 104 137 176 224 281 353 414
#
# _framework density 24.697158999999999
#
# number of rings (size 3 to 8) (size 9 to 14) (size 15 to 20)
#    0.000    1.000    6.667    0.500    0.000    4.000 
#    6.000    1.667    0.000    0.000    0.000    0.000 
#    0.000    0.000    0.000    0.000    0.000    0.000 
#
# Total GULP energy -148700.177129 kJ/mol
# GULP energy per Si atom -12391.681427 kJ/mol
# Density = 2.464095 g / cm^3
# Si number density = 24.697159 Si / 1000 Ang^3
#
#
#
# Elastic Constant Matrix: (Units=GPa)
#
#
# Indices 1 2 3 4 5 6 
#
# 1 187.8759 12.9835 37.3677 -0.0004 -18.4941 -0.0120
# 2 12.9835 12.8534 5.0322 -0.0039 9.1653 -0.0154
# 3 37.3677 5.0322 102.6469 -0.0018 13.2756 -0.0039
# 4 -0.0004 -0.0039 -0.0018 34.9219 0.0013 -4.9690
# 5 -18.4941 9.1653 13.2756 0.0013 38.7252 0.0012
# 6 -0.0120 -0.0154 -0.0039 -4.9690 0.0012 46.7434
#
#
#
# Elastic Compliance Matrix: (Units=1/GPa)
#
#
# Indices 1 2 3 4 5 6 
#
# 1 0.007466 -0.011582 -0.003103 -0.000002 0.007371 -0.000003
# 2 -0.011582 0.111884 0.003005 0.000019 -0.033042 0.000037
# 3 -0.003103 0.003005 0.011519 0.000001 -0.006142 0.000001
# 4 -0.000002 0.000019 0.000001 0.029075 -0.000007 0.003091
# 5 0.007371 -0.033042 -0.006142 -0.000007 0.039269 -0.000011
# 6 -0.000003 0.000037 0.000001 0.003091 -0.000011 0.021722
#
#
# Mechanical properties :
#
#
# Convention : Reuss Voigt Hill
#
# Bulk Modulus (GPa) = 9.30166 46.01589 27.65877
# Shear Modulus (GPa) = 17.84869 40.61095 29.22982
#
# Velocity S-wave (km/s) = 2.69123 4.05947 3.44398
# Velocity P-wave (km/s) = 3.66489 6.37533 5.19982
#
# Compressibility (1/GPa) = 0.10750769
#
# Stress axis : x y z
#
# Youngs Moduli (GPa) = 133.94323 8.93779 86.81352
#
# Poissons Ratio (x) = 0.10352 0.26941
# Poissons Ratio (y) = 1.55135 -0.26085
# Poissons Ratio (z) = 0.41567 -0.02686
#
# Static dielectric constant tensor:
#      x y z
#    x 4.616880 0.000010 -0.133510 
#    y 0.000010 4.513070 0.000000 
#    z -0.133510 0.000000 4.480570 
# 
# 
# High freq. dielectric constant tensor:
#      x y z
#    x 1.993050 0.000000 -0.004580 
#    y 0.000000 1.971040 0.000000 
#    z -0.004580 0.000000 1.985250 
# 
# From -- ./inp_files/47252.got.cif
#   From: 2010.03.12/outbox.cif.g09.slc.cpg/sg5_24_cif.got.tgz:47252.got - 2010.03.31 09:47:26.
