data_PCOD8051874
_publ_section_title
;
Structure prediction by ZEFSAII (Michael W. Deem and Ramdas Pophale) SiO2 
 PCOD8051874
Probable space group: C 2
;
_chemical_formula_sum "Si O2"
_cell_formula_units_Z 30
_cell_length_a 11.706885
_cell_length_b 8.518660
_cell_length_c 13.021242
_cell_angle_alpha 90.000000
_cell_angle_beta 90.511748
_cell_angle_gamma 90.000000
_cell_volume 1298.517253
_symmetry_space_group_name_H-M "C 2"
_symmetry_group_IT_number 5
_symmetry_cell_setting 'monoclinic'
loop_
_space_group_symop_operation_xyz
x,y,z
-x,y,-z
1/2+x,1/2+y,z
1/2-x,1/2+y,-z
loop_
_atom_site_type_symbol
_atom_site_label
_atom_site_fract_x
_atom_site_fract_y
_atom_site_fract_z
Si Si1 0.384012 0.048340 0.359261
Si Si2 0.000000 0.575469 0.000000
Si Si3 0.331910 0.435196 0.563043
Si Si4 0.632939 0.109210 0.345417
Si Si5 0.657171 0.268786 0.135859
Si Si6 0.542956 0.546043 0.235754
Si Si7 0.090072 0.338570 0.831884
Si Si8 0.158304 0.897978 0.661510
O O1 0.514673 0.054905 0.397098
O O2 0.340860 0.214439 0.315918
O O3 0.298822 0.999514 0.451538
O O4 0.367226 0.918663 0.271898
O O5 0.896711 0.689338 0.965090
O O6 0.043942 0.466901 0.909211
O O7 0.316823 0.251515 0.588289
O O8 0.393641 0.536906 0.652480
O O9 0.393373 0.442348 0.452355
O O10 0.606268 0.173834 0.231862
O O11 0.713681 0.960421 0.332390
O O12 0.614756 0.449895 0.150688
O O13 0.794585 0.256388 0.124413
O O14 0.515991 0.720278 0.192909
O O15 0.417179 0.474685 0.250755
#
# Coordination Sequence:
#
# PCOD8051874 Si02
#       8
#     4   2   4   4   4   4   4   4
#     4  12  24  43  71  97 139 190 227 293 352 409
#     4  12  28  46  74 104 132 176 234 298 348 440
#     4  11  24  42  66 105 140 183 246 285 326 419
#     4  11  23  45  66  96 140 185 229 287 354 410
#     4  11  24  49  71  99 140 178 231 290 358 425
#     4  11  23  44  74  96 144 187 221 289 355 403
#     4  12  26  48  71 106 139 176 239 288 361 433
#     4  12  23  40  72 100 141 192 234 282 344 402
#
# _framework density 23.103273000000002
#
# number of rings (size 3 to 8) (size 9 to 14) (size 15 to 20)
#    0.000    0.533    8.000    1.200    1.867    4.267 
#    2.400    0.000    2.933    0.000    0.000    0.000 
#    0.000    0.000    0.000    0.000    0.000    0.000 
#
# Total GULP energy -185970.691126 kJ/mol
# GULP energy per Si atom -12398.046075 kJ/mol
# Density = 2.305069 g / cm^3
# Si number density = 23.103273 Si / 1000 Ang^3
#
#
#
# Elastic Constant Matrix: (Units=GPa)
#
#
# Indices 1 2 3 4 5 6 
#
# 1 124.1457 45.2927 -4.7586 0.0000 10.9532 0.0000
# 2 45.2927 99.9275 22.0631 0.0000 17.4653 0.0000
# 3 -4.7586 22.0631 37.8723 0.0000 0.4022 0.0000
# 4 0.0000 0.0000 0.0000 32.5850 0.0000 -2.8072
# 5 10.9532 17.4653 0.4022 0.0000 26.8789 0.0000
# 6 0.0000 0.0000 0.0000 -2.8072 0.0000 47.5425
#
#
#
# Elastic Compliance Matrix: (Units=1/GPa)
#
#
# Indices 1 2 3 4 5 6 
#
# 1 0.010318 -0.005565 0.004546 0.000000 -0.000656 0.000000
# 2 -0.005565 0.016155 -0.010025 0.000000 -0.008079 0.000000
# 3 0.004546 -0.010025 0.032772 0.000000 0.004171 0.000000
# 4 0.000000 0.000000 0.000000 0.030846 0.000000 0.001821
# 5 -0.000656 -0.008079 0.004171 0.000000 0.042659 0.000000
# 6 0.000000 0.000000 0.000000 0.001821 0.000000 0.021141
#
#
# Mechanical properties :
#
#
# Convention : Reuss Voigt Hill
#
# Bulk Modulus (GPa) = 26.91439 43.01555 34.96497
# Shear Modulus (GPa) = 26.54412 34.69115 30.61764
#
# Velocity S-wave (km/s) = 3.39327 3.87921 3.64435
# Velocity P-wave (km/s) = 5.19877 6.22283 5.73371
#
# Compressibility (1/GPa) = 0.03715484
#
# Stress axis : x y z
#
# Youngs Moduli (GPa) = 96.92110 61.89871 30.51417
#
# Poissons Ratio (x) = 0.34450 -0.13871
# Poissons Ratio (y) = 0.53941 0.30591
# Poissons Ratio (z) = -0.44057 0.62054
#
# Static dielectric constant tensor:
#      x y z
#    x 4.233770 0.000000 -0.075870 
#    y 0.000000 4.211930 0.000000 
#    z -0.075870 0.000000 4.079870 
# 
# 
# High freq. dielectric constant tensor:
#      x y z
#    x 1.925480 0.000000 -0.004800 
#    y 0.000000 1.914310 0.000000 
#    z -0.004800 0.000000 1.892290 
# 
# From -- ./inp_files/52284.got.cif
#   From: 2010.03.12/outbox.cif.g09.slc.cpg/sg5_27_cif.got.tgz:52284.got - 2010.03.31 09:47:26.
