data_PCOD8051696
_publ_section_title
;
Structure prediction by ZEFSAII (Michael W. Deem and Ramdas Pophale) SiO2 
 PCOD8051696
Probable space group: C 2
;
_chemical_formula_sum "Si O2"
_cell_formula_units_Z 22
_cell_length_a 24.129274
_cell_length_b 8.064416
_cell_length_c 5.109796
_cell_angle_alpha 90.000000
_cell_angle_beta 93.559100
_cell_angle_gamma 90.000000
_cell_volume 992.389831
_symmetry_space_group_name_H-M "C 2"
_symmetry_group_IT_number 5
_symmetry_cell_setting 'monoclinic'
loop_
_space_group_symop_operation_xyz
x,y,z
-x,y,-z
1/2+x,1/2+y,z
1/2-x,1/2+y,-z
loop_
_atom_site_type_symbol
_atom_site_label
_atom_site_fract_x
_atom_site_fract_y
_atom_site_fract_z
Si Si1 0.618749 0.188450 0.497178
Si Si2 0.292882 0.687720 0.067190
Si Si3 0.000000 0.576679 0.500000
Si Si4 0.028323 0.255224 0.260933
Si Si5 0.650880 0.816329 0.400030
Si Si6 0.674889 0.319379 0.021404
O O1 0.553721 0.192445 0.556321
O O2 0.640491 0.001228 0.493598
O O3 0.652489 0.284863 0.726932
O O4 0.628008 0.280527 0.223876
O O5 0.324952 0.716438 0.347408
O O6 0.306824 0.509016 0.953839
O O7 0.309002 0.817305 0.840892
O O8 0.227592 0.703617 0.102005
O O9 0.987447 0.452695 0.741034
O O10 0.094146 0.228245 0.287431
O O11 0.000000 0.163926 0.500000
O O12 0.000000 0.173153 0.000000
#
# Coordination Sequence:
#
# PCOD8051696 Si02
#       6
#     4   4   2   4   4   4
#     4  11  23  41  69  97 126 171 218 262 316 369
#     4  12  25  44  64  95 133 167 215 262 327 382
#     4   8  22  34  68  90 134 158 226 248 312 374
#     4   9  18  33  60  97 125 160 208 262 298 367
#     4  11  22  39  70  95 128 166 214 266 310 377
#     4  12  26  43  66  93 132 172 211 266 324 385
#
# _framework density 22.168707000000001
#
# number of rings (size 3 to 8) (size 9 to 14) (size 15 to 20)
#    0.545    0.727    0.000    6.545    5.091    0.000 
#    0.000    0.000   20.000    0.000    0.000    0.000 
#    0.000    0.000    0.000    0.000    0.000    0.000 
#
# Total GULP energy -136403.895406 kJ/mol
# GULP energy per Si atom -12400.354128 kJ/mol
# Density = 2.211825 g / cm^3
# Si number density = 22.168707 Si / 1000 Ang^3
#
#
#
# Elastic Constant Matrix: (Units=GPa)
#
#
# Indices 1 2 3 4 5 6 
#
# 1 127.0240 25.6709 35.1184 0.0000 2.5362 0.0000
# 2 25.6709 50.5773 8.7053 0.0000 8.5423 0.0000
# 3 35.1184 8.7053 142.0237 0.0000 4.4238 0.0000
# 4 0.0000 0.0000 0.0000 26.9948 0.0000 0.8462
# 5 2.5362 8.5423 4.4238 0.0000 29.0728 0.0000
# 6 0.0000 0.0000 0.0000 0.8462 0.0000 25.2565
#
#
#
# Elastic Compliance Matrix: (Units=1/GPa)
#
#
# Indices 1 2 3 4 5 6 
#
# 1 0.009340 -0.004526 -0.002058 0.000000 0.000828 0.000000
# 2 -0.004526 0.023167 -0.000102 0.000000 -0.006397 0.000000
# 3 -0.002058 -0.000102 0.007586 0.000000 -0.000945 0.000000
# 4 0.000000 0.000000 0.000000 0.037083 0.000000 -0.001242
# 5 0.000828 -0.006397 -0.000945 0.000000 0.036347 0.000000
# 6 0.000000 0.000000 0.000000 -0.001242 0.000000 0.039635
#
#
# Mechanical properties :
#
#
# Convention : Reuss Voigt Hill
#
# Bulk Modulus (GPa) = 37.42367 50.95715 44.19041
# Shear Modulus (GPa) = 28.50045 32.94019 30.72032
#
# Velocity S-wave (km/s) = 3.58944 3.85890 3.72661
# Velocity P-wave (km/s) = 5.83924 6.54911 6.20433
#
# Compressibility (1/GPa) = 0.02672106
#
# Stress axis : x y z
#
# Youngs Moduli (GPa) = 107.07086 43.16518 131.82930
#
# Poissons Ratio (x) = 0.19537 0.27128
# Poissons Ratio (y) = 0.48461 0.01339
# Poissons Ratio (z) = 0.22033 0.00438
#
# Static dielectric constant tensor:
#      x y z
#    x 4.151790 0.000000 -0.070410 
#    y 0.000000 3.640100 0.000000 
#    z -0.070410 0.000000 3.867380 
# 
# 
# High freq. dielectric constant tensor:
#      x y z
#    x 1.883390 0.000000 -0.003700 
#    y 0.000000 1.845530 0.000000 
#    z -0.003700 0.000000 1.879030 
# 
# From -- ./inp_files/9287.got.cif
#   From: 2010.03.12/outbox.cif.g09.slc.cpg/sg5_5_cif.got.tgz:9287.got - 2010.03.31 09:47:26.
