data_PCOD8051009
_publ_section_title
;
Structure prediction by ZEFSAII (Michael W. Deem and Ramdas Pophale) SiO2 
 PCOD8051009
Probable space group: C 2
;
_chemical_formula_sum "Si O2"
_cell_formula_units_Z 16
_cell_length_a 9.062565
_cell_length_b 4.990150
_cell_length_c 15.739804
_cell_angle_alpha 90.000000
_cell_angle_beta 125.908702
_cell_angle_gamma 90.000000
_cell_volume 576.532302
_symmetry_space_group_name_H-M "C 2"
_symmetry_group_IT_number 5
_symmetry_cell_setting 'monoclinic'
loop_
_space_group_symop_operation_xyz
x,y,z
-x,y,-z
1/2+x,1/2+y,z
1/2-x,1/2+y,-z
loop_
_atom_site_type_symbol
_atom_site_label
_atom_site_fract_x
_atom_site_fract_y
_atom_site_fract_z
Si Si1 0.394324 0.547470 0.378332
Si Si2 0.489410 0.038687 0.300710
Si Si3 0.305047 0.662878 0.073648
Si Si4 0.349862 0.743124 0.877565
O O1 0.500000 0.484549 0.500000
O O2 0.403768 0.288946 0.322917
O O3 0.183719 0.614652 0.327439
O O4 0.499063 0.789166 0.367045
O O5 0.319460 0.022616 0.174690
O O6 0.524264 0.722765 0.165219
O O7 0.299274 0.396378 0.010357
O O8 0.780553 0.551331 0.866431
O O9 0.500000 0.675395 0.000000
#
# Coordination Sequence:
#
# PCOD8051009 Si02
#       4
#     4   4   4   4
#     4  12  26  49  73 102 136 176 229 293 346 402
#     4  12  26  44  73 105 136 181 229 276 346 412
#     4  10  23  41  64  92 133 188 230 271 326 386
#     4  10  24  42  66  99 142 181 224 274 330 404
#
# _framework density 27.752132
#
# number of rings (size 3 to 8) (size 9 to 14) (size 15 to 20)
#    0.000    1.000    0.000    5.250    0.000   25.000 
#    0.000    0.000    0.000    0.000    0.000    0.000 
#    0.000    0.000    0.000    0.000    0.000    0.000 
#
# Total GULP energy -99130.428403 kJ/mol
# GULP energy per Si atom -12391.303550 kJ/mol
# Density = 2.768897 g / cm^3
# Si number density = 27.752132 Si / 1000 Ang^3
#
#
#
# Elastic Constant Matrix: (Units=GPa)
#
#
# Indices 1 2 3 4 5 6 
#
# 1 132.3643 45.2953 16.6886 0.0000 54.3756 0.0000
# 2 45.2953 133.4340 8.8060 0.0000 14.0105 0.0001
# 3 16.6886 8.8060 117.3216 0.0000 29.9328 0.0000
# 4 0.0000 0.0000 0.0000 21.3900 0.0000 9.4487
# 5 54.3756 14.0105 29.9328 0.0000 56.6062 0.0000
# 6 0.0000 0.0001 0.0000 9.4487 0.0000 63.3844
#
#
#
# Elastic Compliance Matrix: (Units=1/GPa)
#
#
# Indices 1 2 3 4 5 6 
#
# 1 0.014121 -0.003478 0.001726 0.000000 -0.013617 0.000000
# 2 -0.003478 0.008552 -0.000531 0.000000 0.001505 0.000000
# 3 0.001726 -0.000531 0.010065 0.000000 -0.006849 0.000000
# 4 0.000000 0.000000 0.000000 0.050046 0.000000 -0.007460
# 5 -0.013617 0.001505 -0.006849 0.000000 0.033996 0.000000
# 6 0.000000 0.000000 0.000000 -0.007460 0.000000 0.016889
#
#
# Mechanical properties :
#
#
# Convention : Reuss Voigt Hill
#
# Bulk Modulus (GPa) = 35.49407 58.29997 46.89702
# Shear Modulus (GPa) = 33.86948 49.09811 41.48380
#
# Velocity S-wave (km/s) = 3.49725 4.21071 3.87045
# Velocity P-wave (km/s) = 5.39677 6.68529 6.07529
#
# Compressibility (1/GPa) = 0.02817372
#
# Stress axis : x y z
#
# Youngs Moduli (GPa) = 70.81565 116.93274 99.35035
#
# Poissons Ratio (x) = 0.40666 -0.17153
# Poissons Ratio (y) = 0.24628 0.05277
# Poissons Ratio (z) = -0.12226 0.06211
#
# Static dielectric constant tensor:
#      x y z
#    x 7.910170 0.000000 0.417750 
#    y 0.000000 5.816560 0.000000 
#    z 0.417750 0.000000 5.643430 
# 
# 
# High freq. dielectric constant tensor:
#      x y z
#    x 2.158310 0.000000 0.007760 
#    y 0.000000 2.146580 0.000000 
#    z 0.007760 0.000000 2.123580 
# 
# From -- ./inp_files/68174.got.cif
#   From: 2010.03.12/outbox.cif.g09.slc.cpg/sg5_35_cif.got.tgz:68174.got - 2010.03.31 09:47:26.
