data_PCOD8051455
_publ_section_title
;
Structure prediction by ZEFSAII (Michael W. Deem and Ramdas Pophale) SiO2 
 PCOD8051455
Probable space group: C 2
;
_chemical_formula_sum "Si O2"
_cell_formula_units_Z 28
_cell_length_a 10.228004
_cell_length_b 20.577940
_cell_length_c 10.773854
_cell_angle_alpha 90.000000
_cell_angle_beta 36.661639
_cell_angle_gamma 90.000000
_cell_volume 1353.949178
_symmetry_space_group_name_H-M "C 2"
_symmetry_group_IT_number 5
_symmetry_cell_setting 'monoclinic'
loop_
_space_group_symop_operation_xyz
x,y,z
-x,y,-z
1/2+x,1/2+y,z
1/2-x,1/2+y,-z
loop_
_atom_site_type_symbol
_atom_site_label
_atom_site_fract_x
_atom_site_fract_y
_atom_site_fract_z
Si Si1 0.445462 0.233980 0.185916
Si Si2 0.294169 0.809438 0.089932
Si Si3 0.500000 0.801753 0.500000
Si Si4 0.490817 0.084121 0.151515
Si Si5 0.231867 0.985159 0.489020
Si Si6 0.000000 0.883271 0.500000
Si Si7 0.410766 0.515687 0.942924
Si Si8 0.368236 0.897946 0.810059
O O1 0.629973 0.266660 0.131951
O O2 0.199059 0.258966 0.405966
O O3 0.452285 0.158644 0.214901
O O4 0.500000 0.246565 0.000000
O O5 0.173823 0.838205 0.300555
O O6 0.500000 0.771880 0.000000
O O7 0.397557 0.865619 0.923295
O O8 0.375204 0.843247 0.699395
O O9 0.282151 0.043372 0.355953
O O10 0.500000 0.072021 0.000000
O O11 0.712774 0.058754 0.043661
O O12 0.453175 0.951170 0.364347
O O13 0.092860 0.928245 0.536042
O O14 0.109584 0.017577 0.696172
O O15 0.500000 0.549054 0.000000
O O16 0.354229 0.439876 0.014783
#
# Coordination Sequence:
#
# PCOD8051455 Si02
#       8
#     4   4   2   4   4   2   4   4
#     4  11  26  47  69  96 137 185 237 280 330 403
#     4  12  25  42  65 101 141 179 219 279 344 410
#     4  12  24  41  72  99 136 176 230 278 342 400
#     4  10  25  45  66  97 130 177 231 275 332 405
#     4  11  22  39  66  96 132 171 218 276 345 399
#     4  12  22  37  66 101 134 174 214 276 352 408
#     4  11  24  41  69  98 135 174 218 287 340 398
#     4  11  23  38  63 101 133 168 218 277 340 406
#
# _framework density 20.680244999999999
#
# number of rings (size 3 to 8) (size 9 to 14) (size 15 to 20)
#    0.000    0.857    4.286    2.571    4.000    5.143 
#    0.000    1.429    0.000    0.000    0.000    0.000 
#    0.000    0.000    0.000    0.000    0.000    0.000 
#
# Total GULP energy -173543.206100 kJ/mol
# GULP energy per Si atom -12395.943293 kJ/mol
# Density = 2.063318 g / cm^3
# Si number density = 20.680245 Si / 1000 Ang^3
#
#
#
# Elastic Constant Matrix: (Units=GPa)
#
#
# Indices 1 2 3 4 5 6 
#
# 1 141.0098 48.9064 38.4049 -0.0003 -11.5760 0.0002
# 2 48.9064 110.2612 50.5572 -0.0002 -7.8881 0.0001
# 3 38.4049 50.5572 114.7558 -0.0008 -0.5841 0.0005
# 4 -0.0003 -0.0002 -0.0008 57.5371 0.0003 -10.2251
# 5 -11.5760 -7.8881 -0.5841 0.0003 33.8552 -0.0002
# 6 0.0002 0.0001 0.0005 -10.2251 -0.0002 36.1799
#
#
#
# Elastic Compliance Matrix: (Units=1/GPa)
#
#
# Indices 1 2 3 4 5 6 
#
# 1 0.008749 -0.002984 -0.001602 0.000000 0.002269 0.000000
# 2 -0.002984 0.012610 -0.004547 0.000000 0.001839 0.000000
# 3 -0.001602 -0.004547 0.011246 0.000000 -0.001413 0.000000
# 4 0.000000 0.000000 0.000000 0.018299 0.000000 0.005172
# 5 0.002269 0.001839 -0.001413 0.000000 0.030717 0.000000
# 6 0.000000 0.000000 0.000000 0.005172 0.000000 0.029101
#
#
# Mechanical properties :
#
#
# Convention : Reuss Voigt Hill
#
# Bulk Modulus (GPa) = 69.74043 71.30709 70.52376
# Shear Modulus (GPa) = 37.37793 40.72499 39.05146
#
# Velocity S-wave (km/s) = 4.25599 4.44246 4.35022
# Velocity P-wave (km/s) = 7.61234 7.80190 7.70770
#
# Compressibility (1/GPa) = 0.01433889
#
# Stress axis : x y z
#
# Youngs Moduli (GPa) = 114.29692 79.30527 88.91694
#
# Poissons Ratio (x) = 0.23664 0.14244
# Poissons Ratio (y) = 0.34105 0.40433
# Poissons Ratio (z) = 0.18309 0.36063
#
# Static dielectric constant tensor:
#      x y z
#    x 3.781790 0.000000 -0.066500 
#    y 0.000000 3.719240 0.000000 
#    z -0.066500 0.000000 3.804330 
# 
# 
# High freq. dielectric constant tensor:
#      x y z
#    x 1.817130 0.000000 -0.002670 
#    y 0.000000 1.793290 0.000000 
#    z -0.002670 0.000000 1.826430 
# 
# From -- ./inp_files/40673.got.cif
#   From: 2010.03.12/outbox.cif.g09.slc.cpg/sg5_21_cif.got.tgz:40673.got - 2010.03.31 09:47:26.
