data_PCOD8051836
_publ_section_title
;
Structure prediction by ZEFSAII (Michael W. Deem and Ramdas Pophale) SiO2 
 PCOD8051836
Probable space group: C 2
;
_chemical_formula_sum "Si O2"
_cell_formula_units_Z 26
_cell_length_a 8.923269
_cell_length_b 19.275926
_cell_length_c 8.237804
_cell_angle_alpha 90.000000
_cell_angle_beta 126.301903
_cell_angle_gamma 90.000000
_cell_volume 1141.922134
_symmetry_space_group_name_H-M "C 2"
_symmetry_group_IT_number 5
_symmetry_cell_setting 'monoclinic'
loop_
_space_group_symop_operation_xyz
x,y,z
-x,y,-z
1/2+x,1/2+y,z
1/2-x,1/2+y,-z
loop_
_atom_site_type_symbol
_atom_site_label
_atom_site_fract_x
_atom_site_fract_y
_atom_site_fract_z
Si Si1 0.841585 0.956590 0.521593
Si Si2 0.177061 0.853967 0.215085
Si Si3 0.500000 0.152835 0.000000
Si Si4 0.861112 0.096582 0.679265
Si Si5 0.290760 0.717120 0.411434
Si Si6 0.762990 0.563066 0.059876
Si Si7 0.941990 0.419048 0.138685
O O1 0.877845 0.924129 0.723948
O O2 0.632832 0.940066 0.342209
O O3 0.000000 0.928243 0.500000
O O4 0.850739 0.039938 0.529985
O O5 0.238806 0.798650 0.395959
O O6 0.344904 0.862654 0.192975
O O7 0.000000 0.827946 0.000000
O O8 0.331244 0.197125 0.822590
O O9 0.562696 0.106000 0.890385
O O10 0.771683 0.170011 0.561599
O O11 0.734102 0.069549 0.744737
O O12 0.076722 0.098277 0.870022
O O13 0.500000 0.704368 0.500000
O O14 0.795920 0.483204 0.026052
O O15 0.000000 0.388001 0.000000
#
# Coordination Sequence:
#
# PCOD8051836 Si02
#       7
#     4   4   2   4   4   4   4
#     4  12  25  43  71 106 142 186 238 296 360 428
#     4  12  26  49  73 103 145 191 240 298 362 434
#     4  12  24  44  70 102 138 184 236 298 352 426
#     4  11  24  43  71 105 145 185 237 295 357 429
#     4  12  25  47  71 102 145 192 235 292 358 431
#     4  11  23  42  71 109 140 182 238 304 359 417
#     4  12  24  43  73 109 143 183 238 300 365 426
#
# _framework density 22.768626999999999
#
# number of rings (size 3 to 8) (size 9 to 14) (size 15 to 20)
#    0.000    0.308    4.615    5.538    0.000    1.846 
#    2.769    1.538    0.000    0.000    0.000    0.000 
#    0.000    0.000    0.000    0.000    0.000    0.000 
#
# Total GULP energy -161156.443209 kJ/mol
# GULP energy per Si atom -12396.649478 kJ/mol
# Density = 2.271680 g / cm^3
# Si number density = 22.768627 Si / 1000 Ang^3
#
#
#
# Elastic Constant Matrix: (Units=GPa)
#
#
# Indices 1 2 3 4 5 6 
#
# 1 148.4782 34.6168 36.6406 0.0000 -7.1191 0.0000
# 2 34.6168 104.5087 32.9015 0.0000 -3.9330 0.0000
# 3 36.6406 32.9015 108.3006 0.0000 10.3477 0.0000
# 4 0.0000 0.0000 0.0000 45.9908 0.0000 -0.9290
# 5 -7.1191 -3.9330 10.3477 0.0000 38.9770 0.0000
# 6 0.0000 0.0000 0.0000 -0.9290 0.0000 24.4511
#
#
#
# Elastic Compliance Matrix: (Units=1/GPa)
#
#
# Indices 1 2 3 4 5 6 
#
# 1 0.007803 -0.001801 -0.002269 0.000000 0.001846 0.000000
# 2 -0.001801 0.011146 -0.002927 0.000000 0.001573 0.000000
# 3 -0.002269 -0.002927 0.011244 0.000000 -0.003695 0.000000
# 4 0.000000 0.000000 0.000000 0.021760 0.000000 0.000827
# 5 0.001846 0.001573 -0.003695 0.000000 0.027133 0.000000
# 6 0.000000 0.000000 0.000000 0.000827 0.000000 0.040929
#
#
# Mechanical properties :
#
#
# Convention : Reuss Voigt Hill
#
# Bulk Modulus (GPa) = 61.73516 63.28947 62.51231
# Shear Modulus (GPa) = 35.86564 39.02568 37.44566
#
# Velocity S-wave (km/s) = 3.97321 4.14455 4.05979
# Velocity P-wave (km/s) = 6.94417 7.12462 7.03498
#
# Compressibility (1/GPa) = 0.01619823
#
# Stress axis : x y z
#
# Youngs Moduli (GPa) = 128.14958 89.72009 88.93949
#
# Poissons Ratio (x) = 0.16157 0.20184
# Poissons Ratio (y) = 0.23078 0.26033
# Poissons Ratio (z) = 0.29082 0.26262
#
# Static dielectric constant tensor:
#      x y z
#    x 4.244090 0.000000 0.001230 
#    y 0.000000 4.105850 0.000000 
#    z 0.001230 0.000000 4.214830 
# 
# 
# High freq. dielectric constant tensor:
#      x y z
#    x 1.904150 0.000000 0.012450 
#    y 0.000000 1.882630 0.000000 
#    z 0.012450 0.000000 1.908650 
# 
# From -- ./inp_files/17072.got.cif
#   From: 2010.03.12/outbox.cif.g09.slc.cpg/sg5_9_cif.got.tgz:17072.got - 2010.03.31 09:47:26.
