data_PCOD8051133
_publ_section_title
;
Structure prediction by ZEFSAII (Michael W. Deem and Ramdas Pophale) SiO2 
 PCOD8051133
Probable space group: C 2
;
_chemical_formula_sum "Si O2"
_cell_formula_units_Z 26
_cell_length_a 10.748087
_cell_length_b 9.323230
_cell_length_c 14.531822
_cell_angle_alpha 90.000000
_cell_angle_beta 60.043404
_cell_angle_gamma 90.000000
_cell_volume 1261.647562
_symmetry_space_group_name_H-M "C 2"
_symmetry_group_IT_number 5
_symmetry_cell_setting 'monoclinic'
loop_
_space_group_symop_operation_xyz
x,y,z
-x,y,-z
1/2+x,1/2+y,z
1/2-x,1/2+y,-z
loop_
_atom_site_type_symbol
_atom_site_label
_atom_site_fract_x
_atom_site_fract_y
_atom_site_fract_z
Si Si1 0.000000 0.806960 0.500000
Si Si2 0.587691 0.420792 0.647196
Si Si3 0.625436 0.038040 0.389757
Si Si4 0.400688 0.930088 0.805673
Si Si5 0.067023 0.698618 0.811886
Si Si6 0.139674 0.125501 0.191919
Si Si7 0.116379 0.943440 0.024704
O O1 0.096888 0.897747 0.534065
O O2 0.100835 0.709503 0.396712
O O3 0.721788 0.518436 0.620540
O O4 0.598411 0.273767 0.702151
O O5 0.440572 0.506223 0.718482
O O6 0.500000 0.965477 0.500000
O O7 0.630190 0.979555 0.285883
O O8 0.462293 0.767344 0.779571
O O9 0.503872 0.040067 0.819240
O O10 0.253600 0.905874 0.914486
O O11 0.212155 0.673861 0.815036
O O12 0.953685 0.797192 0.908891
O O13 0.165582 0.057457 0.082430
O O14 0.000000 0.017507 0.000000
#
# Coordination Sequence:
#
# PCOD8051133 Si02
#       7
#     2   4   4   4   4   4   4
#     4  10  24  44  66 102 136 180 224 292 332 406
#     4  11  23  45  71  98 136 177 232 281 344 405
#     4  10  23  44  68  95 133 180 227 283 340 388
#     4  12  22  43  70  96 135 182 223 280 342 402
#     4  11  23  45  69  97 140 179 224 287 334 412
#     4  11  25  43  68 105 131 183 224 279 346 412
#     4  11  23  44  68  96 144 174 225 283 336 400
#
# _framework density 20.607976000000001
#
# number of rings (size 3 to 8) (size 9 to 14) (size 15 to 20)
#    0.462    0.615    4.615    1.846    0.000    4.923 
#    9.692    0.000    0.000    0.000    0.000    0.000 
#    0.000    0.000    0.000    0.000    0.000    0.000 
#
# Total GULP energy -161128.510899 kJ/mol
# GULP energy per Si atom -12394.500838 kJ/mol
# Density = 2.056107 g / cm^3
# Si number density = 20.607976 Si / 1000 Ang^3
#
#
#
# Elastic Constant Matrix: (Units=GPa)
#
#
# Indices 1 2 3 4 5 6 
#
# 1 108.4317 51.9380 39.5017 0.0000 16.7961 0.0000
# 2 51.9380 118.8951 27.6738 0.0000 14.1054 0.0000
# 3 39.5017 27.6738 95.3960 0.0000 24.5390 0.0000
# 4 0.0000 0.0000 0.0000 17.0714 0.0000 3.9215
# 5 16.7961 14.1054 24.5390 0.0000 35.7793 0.0000
# 6 0.0000 0.0000 0.0000 3.9215 0.0000 28.9338
#
#
#
# Elastic Compliance Matrix: (Units=1/GPa)
#
#
# Indices 1 2 3 4 5 6 
#
# 1 0.013034 -0.004643 -0.003578 0.000000 -0.001834 0.000000
# 2 -0.004643 0.010811 -0.000823 0.000000 -0.001518 0.000000
# 3 -0.003578 -0.000823 0.014191 0.000000 -0.007729 0.000000
# 4 0.000000 0.000000 0.000000 0.060460 0.000000 -0.008194
# 5 -0.001834 -0.001518 -0.007729 0.000000 0.034709 0.000000
# 6 0.000000 0.000000 0.000000 -0.008194 0.000000 0.035672
#
#
# Mechanical properties :
#
#
# Convention : Reuss Voigt Hill
#
# Bulk Modulus (GPa) = 50.13401 62.32775 56.23088
# Shear Modulus (GPa) = 25.82435 29.93087 27.87761
#
# Velocity S-wave (km/s) = 3.54379 3.81516 3.68198
# Velocity P-wave (km/s) = 6.41287 7.05106 6.73952
#
# Compressibility (1/GPa) = 0.01994654
#
# Stress axis : x y z
#
# Youngs Moduli (GPa) = 76.72092 92.50003 70.46624
#
# Poissons Ratio (x) = 0.42951 0.25216
# Poissons Ratio (y) = 0.35624 0.05799
# Poissons Ratio (z) = 0.27454 0.07613
#
# Static dielectric constant tensor:
#      x y z
#    x 3.700190 0.000000 0.146430 
#    y 0.000000 3.885940 0.000000 
#    z 0.146430 0.000000 3.840780 
# 
# 
# High freq. dielectric constant tensor:
#      x y z
#    x 1.805690 0.000000 0.011910 
#    y 0.000000 1.808250 0.000000 
#    z 0.011910 0.000000 1.812720 
# 
# From -- ./inp_files/52192.got.cif
#   From: 2010.03.12/outbox.cif.g09.slc.cpg/sg5_27_cif.got.tgz:52192.got - 2010.03.31 09:47:26.
