data_PCOD8051312
_publ_section_title
;
Structure prediction by ZEFSAII (Michael W. Deem and Ramdas Pophale) SiO2 
 PCOD8051312
Probable space group: C 2
;
_chemical_formula_sum "Si O2"
_cell_formula_units_Z 16
_cell_length_a 7.594063
_cell_length_b 11.755966
_cell_length_c 9.581148
_cell_angle_alpha 90.000000
_cell_angle_beta 57.108954
_cell_angle_gamma 90.000000
_cell_volume 718.251713
_symmetry_space_group_name_H-M "C 2"
_symmetry_group_IT_number 5
_symmetry_cell_setting 'monoclinic'
loop_
_space_group_symop_operation_xyz
x,y,z
-x,y,-z
1/2+x,1/2+y,z
1/2-x,1/2+y,-z
loop_
_atom_site_type_symbol
_atom_site_label
_atom_site_fract_x
_atom_site_fract_y
_atom_site_fract_z
Si Si1 0.500000 0.383730 0.500000
Si Si2 0.076529 0.494792 0.623732
Si Si3 0.358300 0.208857 0.790377
Si Si4 0.000000 0.061869 0.000000
Si Si5 0.822501 0.391429 0.960379
O O1 0.319788 0.464143 0.516986
O O2 0.403036 0.306982 0.661890
O O3 0.000000 0.509621 0.500000
O O4 0.046552 0.616590 0.717546
O O5 0.936996 0.397019 0.760128
O O6 0.148474 0.139229 0.836823
O O7 0.299185 0.271329 0.962737
O O8 0.856455 0.988329 0.956630
O O9 0.000000 0.414631 0.000000
#
# Coordination Sequence:
#
# PCOD8051312 Si02
#       5
#     2   4   4   2   4
#     4  12  24  46  70  98 152 172 228 292 344 398
#     4  11  26  46  71 105 137 182 233 282 343 412
#     4  11  23  46  70 102 140 185 221 291 345 400
#     4  10  24  44  70 100 140 174 238 278 334 416
#     4  11  23  46  70 100 138 186 226 281 341 414
#
# _framework density 22.276313999999999
#
# number of rings (size 3 to 8) (size 9 to 14) (size 15 to 20)
#    0.000    1.000    5.000    0.000    7.000    0.000 
#   11.250    5.000    0.000    0.000    0.000    0.000 
#    0.000    0.000    0.000    0.000    0.000    0.000 
#
# Total GULP energy -99135.339250 kJ/mol
# GULP energy per Si atom -12391.917406 kJ/mol
# Density = 2.222561 g / cm^3
# Si number density = 22.276314 Si / 1000 Ang^3
#
#
#
# Elastic Constant Matrix: (Units=GPa)
#
#
# Indices 1 2 3 4 5 6 
#
# 1 130.1520 82.8763 42.2661 0.0000 -29.8957 0.0000
# 2 82.8763 145.8841 65.0917 0.0000 -17.2242 0.0000
# 3 42.2661 65.0917 98.7390 0.0000 -10.9995 0.0000
# 4 0.0000 0.0000 0.0000 47.6166 0.0000 -20.9223
# 5 -29.8957 -17.2242 -10.9995 0.0000 30.5498 0.0000
# 6 0.0000 0.0000 0.0000 -20.9223 0.0000 35.1508
#
#
#
# Elastic Compliance Matrix: (Units=1/GPa)
#
#
# Indices 1 2 3 4 5 6 
#
# 1 0.014543 -0.006783 -0.000619 0.000000 0.010184 0.000000
# 2 -0.006783 0.013206 -0.005951 0.000000 -0.001335 0.000000
# 3 -0.000619 -0.005951 0.014454 0.000000 0.001243 0.000000
# 4 0.000000 0.000000 0.000000 0.028439 0.000000 0.016927
# 5 0.010184 -0.001335 0.001243 0.000000 0.042395 0.000000
# 6 0.000000 0.000000 0.000000 0.016927 0.000000 0.038524
#
#
# Mechanical properties :
#
#
# Convention : Reuss Voigt Hill
#
# Bulk Modulus (GPa) = 64.52902 83.91593 74.22247
# Shear Modulus (GPa) = 27.25804 34.96616 31.11210
#
# Velocity S-wave (km/s) = 3.50184 3.96619 3.74123
# Velocity P-wave (km/s) = 6.73654 7.66332 7.21483
#
# Compressibility (1/GPa) = 0.01549690
#
# Stress axis : x y z
#
# Youngs Moduli (GPa) = 68.76189 75.72431 69.18428
#
# Poissons Ratio (x) = 0.51365 0.04283
# Poissons Ratio (y) = 0.46642 0.41170
# Poissons Ratio (z) = 0.04257 0.45062
#
# Static dielectric constant tensor:
#      x y z
#    x 3.975280 0.000000 -0.469580 
#    y 0.000000 4.360270 0.000000 
#    z -0.469580 0.000000 4.321310 
# 
# 
# High freq. dielectric constant tensor:
#      x y z
#    x 1.860200 0.000000 -0.036860 
#    y 0.000000 1.884740 0.000000 
#    z -0.036860 0.000000 1.881980 
# 
# From -- ./inp_files/13667.got.cif
#   From: 2010.03.12/outbox.cif.g09.slc.cpg/sg5_7_cif.got.tgz:13667.got - 2010.03.31 09:47:26.
