data_PCOD8051404
_publ_section_title
;
Structure prediction by ZEFSAII (Michael W. Deem and Ramdas Pophale) SiO2 
 PCOD8051404
Probable space group: C 2
;
_chemical_formula_sum "Si O2"
_cell_formula_units_Z 18
_cell_length_a 13.787743
_cell_length_b 4.951530
_cell_length_c 20.436579
_cell_angle_alpha 90.000000
_cell_angle_beta 151.540416
_cell_angle_gamma 90.000000
_cell_volume 664.873459
_symmetry_space_group_name_H-M "C 2"
_symmetry_group_IT_number 5
_symmetry_cell_setting 'monoclinic'
loop_
_space_group_symop_operation_xyz
x,y,z
-x,y,-z
1/2+x,1/2+y,z
1/2-x,1/2+y,-z
loop_
_atom_site_type_symbol
_atom_site_label
_atom_site_fract_x
_atom_site_fract_y
_atom_site_fract_z
Si Si1 0.000000 0.084080 0.000000
Si Si2 0.136107 0.305933 0.947559
Si Si3 0.298361 0.585233 0.455099
Si Si4 0.089465 0.446535 0.697057
Si Si5 0.245539 0.095178 0.338962
O O1 0.798597 0.903003 0.863586
O O2 0.053011 0.281585 0.971483
O O3 0.988482 0.177609 0.805607
O O4 0.162938 0.620813 0.944961
O O5 0.345429 0.294738 0.451662
O O6 0.085377 0.609238 0.367938
O O7 0.487182 0.659864 0.615406
O O8 0.279002 0.793602 0.383808
O O9 0.148306 0.619980 0.668331
#
# Coordination Sequence:
#
# PCOD8051404 Si02
#       5
#     2   4   4   4   4
#     4  10  24  48  74 110 148 188 242 296 362 434
#     4  11  23  44  73 106 147 192 237 296 363 428
#     4  12  26  47  74 106 147 192 244 298 358 429
#     4  11  26  46  76 109 146 192 240 299 362 428
#     4  11  26  46  72 106 146 192 243 297 356 428
#
# _framework density 27.072818999999999
#
# number of rings (size 3 to 8) (size 9 to 14) (size 15 to 20)
#    0.000    0.889    0.000    6.000    0.000    9.778 
#    0.000   11.111    0.000    0.000    0.000    0.000 
#    0.000    0.000    0.000    0.000    0.000    0.000 
#
# Total GULP energy -111571.528814 kJ/mol
# GULP energy per Si atom -12396.836535 kJ/mol
# Density = 2.701120 g / cm^3
# Si number density = 27.072819 Si / 1000 Ang^3
#
#
#
# Elastic Constant Matrix: (Units=GPa)
#
#
# Indices 1 2 3 4 5 6 
#
# 1 124.6773 18.9214 57.4249 -0.0001 1.3899 -0.0005
# 2 18.9214 70.4286 1.0769 -0.0007 -5.0045 0.0015
# 3 57.4249 1.0769 127.8543 0.0011 18.9361 0.0003
# 4 -0.0001 -0.0007 0.0011 31.8324 0.0001 1.2970
# 5 1.3899 -5.0045 18.9361 0.0001 38.8882 0.0000
# 6 -0.0005 0.0015 0.0003 1.2970 0.0000 18.6925
#
#
#
# Elastic Compliance Matrix: (Units=1/GPa)
#
#
# Indices 1 2 3 4 5 6 
#
# 1 0.010738 -0.002684 -0.005057 0.000000 0.001733 0.000001
# 2 -0.002684 0.015022 0.000839 0.000000 0.001621 -0.000001
# 3 -0.005057 0.000839 0.010823 0.000000 -0.004982 0.000000
# 4 0.000000 0.000000 0.000000 0.031504 0.000000 -0.002186
# 5 0.001733 0.001621 -0.004982 0.000000 0.028287 0.000000
# 6 0.000001 -0.000001 0.000000 -0.002186 0.000000 0.053649
#
#
# Mechanical properties :
#
#
# Convention : Reuss Voigt Hill
#
# Bulk Modulus (GPa) = 43.89963 53.08964 48.49464
# Shear Modulus (GPa) = 29.16798 34.25178 31.70988
#
# Velocity S-wave (km/s) = 3.28592 3.56078 3.42611
# Velocity P-wave (km/s) = 5.53597 6.04633 5.79677
#
# Compressibility (1/GPa) = 0.02277923
#
# Stress axis : x y z
#
# Youngs Moduli (GPa) = 93.12753 66.56779 92.39197
#
# Poissons Ratio (x) = 0.17869 0.46722
# Poissons Ratio (y) = 0.24999 -0.07753
# Poissons Ratio (z) = 0.47094 -0.05586
#
# Static dielectric constant tensor:
#      x y z
#    x 5.148850 0.000000 0.062690 
#    y 0.000000 4.376430 0.000000 
#    z 0.062690 0.000000 5.597680 
# 
# 
# High freq. dielectric constant tensor:
#      x y z
#    x 2.110440 0.000000 0.004270 
#    y 0.000000 2.062250 0.000000 
#    z 0.004270 0.000000 2.111640 
# 
# From -- ./inp_files/65589.got.cif
#   From: 2010.03.12/outbox.cif.g09.slc.cpg/sg5_33_cif.got.tgz:65589.got - 2010.03.31 09:47:26.
