data_PCOD8051023
_publ_section_title
;
Structure prediction by ZEFSAII (Michael W. Deem and Ramdas Pophale) SiO2 
 PCOD8051023
Probable space group: C 2
;
_chemical_formula_sum "Si O2"
_cell_formula_units_Z 24
_cell_length_a 8.551852
_cell_length_b 15.064014
_cell_length_c 8.556964
_cell_angle_alpha 90.000000
_cell_angle_beta 82.098477
_cell_angle_gamma 90.000000
_cell_volume 1091.886808
_symmetry_space_group_name_H-M "C 2"
_symmetry_group_IT_number 5
_symmetry_cell_setting 'monoclinic'
loop_
_space_group_symop_operation_xyz
x,y,z
-x,y,-z
1/2+x,1/2+y,z
1/2-x,1/2+y,-z
loop_
_atom_site_type_symbol
_atom_site_label
_atom_site_fract_x
_atom_site_fract_y
_atom_site_fract_z
Si Si1 0.000000 0.807341 0.000000
Si Si2 0.176233 0.667060 0.515438
Si Si3 0.500000 0.581451 0.000000
Si Si4 0.969710 0.948161 0.255390
Si Si5 0.417761 0.795100 0.351517
Si Si6 0.200436 0.214316 0.159140
Si Si7 0.755965 0.968495 0.555210
O O1 0.974257 0.861906 0.844614
O O2 0.161974 0.753641 0.966841
O O3 0.279027 0.720205 0.370072
O O4 0.225170 0.690215 0.684799
O O5 0.184013 0.560119 0.501067
O O6 0.000000 0.697977 0.500000
O O7 0.590560 0.521200 0.859480
O O8 0.360154 0.631847 0.932261
O O9 0.829997 0.919802 0.392560
O O10 0.112571 0.990946 0.334165
O O11 0.500000 0.773345 0.500000
O O12 0.546789 0.778983 0.197221
O O13 0.365527 0.898340 0.352147
#
# Coordination Sequence:
#
# PCOD8051023 Si02
#       7
#     2   4   2   4   4   4   4
#     4  11  26  44  64  99 136 178 224 275 336 409
#     4  11  24  41  71 105 134 170 231 284 331 392
#     4  11  22  44  66  95 144 180 214 267 346 413
#     4  10  23  41  69  97 133 180 223 271 340 400
#     4  10  23  41  68 100 133 174 223 283 336 387
#     4  11  25  43  67  98 136 181 219 274 342 402
#     4  11  22  42  71 101 132 175 230 284 329 389
#
# _framework density 21.980301000000001
#
# number of rings (size 3 to 8) (size 9 to 14) (size 15 to 20)
#    0.000    1.333    1.667    3.500   11.667    1.333 
#    0.000    1.667    0.000    0.000    0.000    0.000 
#    0.000    0.000    0.000    0.000    0.000    0.000 
#
# Total GULP energy -148733.810504 kJ/mol
# GULP energy per Si atom -12394.484209 kJ/mol
# Density = 2.193027 g / cm^3
# Si number density = 21.980301 Si / 1000 Ang^3
#
#
#
# Elastic Constant Matrix: (Units=GPa)
#
#
# Indices 1 2 3 4 5 6 
#
# 1 125.1560 43.8083 40.1142 0.0000 -16.5431 0.0000
# 2 43.8083 119.7150 30.1899 0.0000 -19.0386 0.0000
# 3 40.1142 30.1899 101.0457 0.0000 -7.7050 0.0000
# 4 0.0000 0.0000 0.0000 28.2735 0.0000 3.0378
# 5 -16.5431 -19.0386 -7.7050 0.0000 38.1290 0.0000
# 6 0.0000 0.0000 0.0000 3.0378 0.0000 33.2729
#
#
#
# Elastic Compliance Matrix: (Units=1/GPa)
#
#
# Indices 1 2 3 4 5 6 
#
# 1 0.010211 -0.002553 -0.003098 0.000000 0.002529 0.000000
# 2 -0.002553 0.010325 -0.001790 0.000000 0.003686 0.000000
# 3 -0.003098 -0.001790 0.011670 0.000000 0.000120 0.000000
# 4 0.000000 0.000000 0.000000 0.035719 0.000000 -0.003261
# 5 0.002529 0.003686 0.000120 0.000000 0.029189 0.000000
# 6 0.000000 0.000000 0.000000 -0.003261 0.000000 0.030352
#
#
# Mechanical properties :
#
#
# Convention : Reuss Voigt Hill
#
# Bulk Modulus (GPa) = 57.72382 63.79350 60.75866
# Shear Modulus (GPa) = 33.75542 35.38868 34.57205
#
# Velocity S-wave (km/s) = 3.92307 4.01686 3.97024
# Velocity P-wave (km/s) = 6.84392 7.11334 6.97993
#
# Compressibility (1/GPa) = 0.01732387
#
# Stress axis : x y z
#
# Youngs Moduli (GPa) = 97.93390 96.85126 85.68653
#
# Poissons Ratio (x) = 0.24727 0.26546
# Poissons Ratio (y) = 0.25003 0.15340
# Poissons Ratio (z) = 0.30340 0.17339
#
# Static dielectric constant tensor:
#      x y z
#    x 4.077440 0.000000 -0.172110 
#    y 0.000000 3.943640 0.000000 
#    z -0.172110 0.000000 4.091640 
# 
# 
# High freq. dielectric constant tensor:
#      x y z
#    x 1.860180 0.000000 0.002770 
#    y 0.000000 1.866770 0.000000 
#    z 0.002770 0.000000 1.865550 
# 
# From -- ./inp_files/14976.got.cif
#   From: 2010.03.12/outbox.cif.g09.slc.cpg/sg5_8_cif.got.tgz:14976.got - 2010.03.31 09:47:26.
