data_PCOD8051324
_publ_section_title
;
Structure prediction by ZEFSAII (Michael W. Deem and Ramdas Pophale) SiO2 
 PCOD8051324
Probable space group: C 2
;
_chemical_formula_sum "Si O2"
_cell_formula_units_Z 30
_cell_length_a 20.090450
_cell_length_b 9.538124
_cell_length_c 14.631918
_cell_angle_alpha 90.000000
_cell_angle_beta 28.314321
_cell_angle_gamma 90.000000
_cell_volume 1329.886516
_symmetry_space_group_name_H-M "C 2"
_symmetry_group_IT_number 5
_symmetry_cell_setting 'monoclinic'
loop_
_space_group_symop_operation_xyz
x,y,z
-x,y,-z
1/2+x,1/2+y,z
1/2-x,1/2+y,-z
loop_
_atom_site_type_symbol
_atom_site_label
_atom_site_fract_x
_atom_site_fract_y
_atom_site_fract_z
Si Si1 0.175228 0.279790 0.421513
Si Si2 0.373444 0.464560 0.096373
Si Si3 0.360104 0.097751 0.841489
Si Si4 0.500000 0.966501 0.500000
Si Si5 0.960768 0.416831 0.248295
Si Si6 0.897299 0.902238 0.863623
Si Si7 0.860654 0.269435 0.109376
Si Si8 0.794599 0.968419 0.578349
O O1 0.322590 0.359652 0.238333
O O2 0.105594 0.359024 0.419842
O O3 0.098669 0.300628 0.610168
O O4 0.196479 0.115834 0.379439
O O5 0.295280 0.613889 0.169813
O O6 0.500000 0.530132 0.000000
O O7 0.395134 0.381434 0.975804
O O8 0.417255 0.062645 0.671616
O O9 0.343567 0.263427 0.876778
O O10 0.477699 0.048857 0.771954
O O11 0.208537 0.025338 0.040159
O O12 0.833163 0.471808 0.339772
O O13 0.092945 0.341959 0.040980
O O14 0.057012 0.938424 0.647159
O O15 0.733917 0.352383 0.310454
O O16 0.000000 0.278948 0.000000
#
# Coordination Sequence:
#
# PCOD8051324 Si02
#       8
#     4   4   4   2   4   4   4   4
#     4  11  24  42  73  99 140 180 231 296 343 418
#     4  11  24  42  72 102 140 183 234 289 356 418
#     4  11  28  47  72 100 143 192 234 290 355 428
#     4  10  24  50  68  94 134 190 234 278 364 422
#     4  10  24  44  73 100 149 187 232 289 359 418
#     4  12  28  48  70 106 144 189 238 289 354 427
#     4   9  22  44  66 100 144 186 225 286 352 417
#     4  11  26  43  73 111 141 181 245 295 352 416
#
# _framework density 22.558316999999999
#
# number of rings (size 3 to 8) (size 9 to 14) (size 15 to 20)
#    0.000    1.333    1.333    1.600   14.933    1.600 
#    0.000    0.000    0.000    0.000    0.000    0.000 
#    0.000    0.000    0.000    0.000    0.000    0.000 
#
# Total GULP energy -185887.149639 kJ/mol
# GULP energy per Si atom -12392.476643 kJ/mol
# Density = 2.250697 g / cm^3
# Si number density = 22.558317 Si / 1000 Ang^3
#
#
#
# Elastic Constant Matrix: (Units=GPa)
#
#
# Indices 1 2 3 4 5 6 
#
# 1 98.0263 41.1448 40.0004 0.0000 11.6513 0.0000
# 2 41.1448 134.2522 44.6376 0.0000 11.0731 0.0000
# 3 40.0004 44.6376 140.9041 0.0000 12.5384 0.0000
# 4 0.0000 0.0000 0.0000 26.4764 0.0000 0.0891
# 5 11.6513 11.0731 12.5384 0.0000 35.4357 0.0000
# 6 0.0000 0.0000 0.0000 0.0891 0.0000 25.5054
#
#
#
# Elastic Compliance Matrix: (Units=1/GPa)
#
#
# Indices 1 2 3 4 5 6 
#
# 1 0.012705 -0.002870 -0.002484 0.000000 -0.002402 0.000000
# 2 -0.002870 0.009077 -0.001954 0.000000 -0.001201 0.000000
# 3 -0.002484 -0.001954 0.008564 0.000000 -0.001603 0.000000
# 4 0.000000 0.000000 0.000000 0.037770 0.000000 -0.000132
# 5 -0.002402 -0.001201 -0.001603 0.000000 0.029952 0.000000
# 6 0.000000 0.000000 0.000000 -0.000132 0.000000 0.039208
#
#
# Mechanical properties :
#
#
# Convention : Reuss Voigt Hill
#
# Bulk Modulus (GPa) = 63.57078 69.41646 66.49362
# Shear Modulus (GPa) = 31.81988 33.97682 32.89835
#
# Velocity S-wave (km/s) = 3.75982 3.88516 3.82300
# Velocity P-wave (km/s) = 6.86222 7.13896 7.00196
#
# Compressibility (1/GPa) = 0.01573050
#
# Stress axis : x y z
#
# Youngs Moduli (GPa) = 78.70967 110.16940 116.77084
#
# Poissons Ratio (x) = 0.31616 0.29004
# Poissons Ratio (y) = 0.22588 0.22816
# Poissons Ratio (z) = 0.19550 0.21526
#
# Static dielectric constant tensor:
#      x y z
#    x 4.115020 0.000000 0.107100 
#    y 0.000000 3.981710 0.000000 
#    z 0.107100 0.000000 4.278970 
# 
# 
# High freq. dielectric constant tensor:
#      x y z
#    x 1.898050 0.000000 -0.003960 
#    y 0.000000 1.891800 0.000000 
#    z -0.003960 0.000000 1.898220 
# 
# From -- ./inp_files/56912.got.cif
#   From: 2010.03.12/outbox.cif.g09.slc.cpg/sg5_29_cif.got.tgz:56912.got - 2010.03.31 09:47:26.
