data_PCOD8051899
_publ_section_title
;
Structure prediction by ZEFSAII (Michael W. Deem and Ramdas Pophale) SiO2 
 PCOD8051899
Probable space group: C 2
;
_chemical_formula_sum "Si O2"
_cell_formula_units_Z 26
_cell_length_a 15.414737
_cell_length_b 8.296920
_cell_length_c 14.045092
_cell_angle_alpha 90.000000
_cell_angle_beta 39.369863
_cell_angle_gamma 90.000000
_cell_volume 1139.432852
_symmetry_space_group_name_H-M "C 2"
_symmetry_group_IT_number 5
_symmetry_cell_setting 'monoclinic'
loop_
_space_group_symop_operation_xyz
x,y,z
-x,y,-z
1/2+x,1/2+y,z
1/2-x,1/2+y,-z
loop_
_atom_site_type_symbol
_atom_site_label
_atom_site_fract_x
_atom_site_fract_y
_atom_site_fract_z
Si Si1 0.764940 0.275190 0.099074
Si Si2 0.158948 0.993632 0.345937
Si Si3 0.500000 0.585883 0.000000
Si Si4 0.351524 0.844941 0.663697
Si Si5 0.097188 0.477577 0.179923
Si Si6 0.698389 0.859708 0.593283
Si Si7 0.663313 0.508347 0.690568
O O1 0.672576 0.399347 0.235558
O O2 0.661661 0.157095 0.129117
O O3 0.856412 0.378972 0.950676
O O4 0.867329 0.190398 0.086987
O O5 0.239076 0.902941 0.359614
O O6 0.000000 0.000809 0.500000
O O7 0.224804 0.172989 0.283457
O O8 0.534152 0.483399 0.873497
O O9 0.500000 0.815636 0.500000
O O10 0.342643 0.886654 0.780788
O O11 0.291733 0.992074 0.652706
O O12 0.931130 0.474712 0.322536
O O13 0.650592 0.674874 0.643362
O O14 0.813404 0.873907 0.411784
#
# Coordination Sequence:
#
# PCOD8051899 Si02
#       7
#     4   4   2   4   4   4   4
#     4  12  25  47  71 106 148 198 244 307 379 436
#     4  11  26  46  71 108 145 192 244 305 368 445
#     4  12  24  48  72  98 160 192 244 308 372 430
#     4  11  23  46  70 102 145 183 241 309 366 435
#     4  12  25  45  72 106 144 193 244 307 363 447
#     4  12  26  44  75 108 143 195 247 301 366 448
#     4  12  25  47  75 106 148 194 246 306 374 432
#
# _framework density 22.818372
#
# number of rings (size 3 to 8) (size 9 to 14) (size 15 to 20)
#    0.000    0.308    6.154    1.846    4.308    2.462 
#    2.769    0.769    0.000    0.000    0.000    0.000 
#    0.000    0.000    0.000    0.000    0.000    0.000 
#
# Total GULP energy -161111.814601 kJ/mol
# GULP energy per Si atom -12393.216508 kJ/mol
# Density = 2.276644 g / cm^3
# Si number density = 22.818372 Si / 1000 Ang^3
#
#
#
# Elastic Constant Matrix: (Units=GPa)
#
#
# Indices 1 2 3 4 5 6 
#
# 1 70.6281 20.5116 10.8682 0.0000 8.7377 0.0000
# 2 20.5116 78.9235 49.6083 0.0000 2.0203 0.0000
# 3 10.8682 49.6083 128.3664 0.0000 34.1216 0.0000
# 4 0.0000 0.0000 0.0000 37.6584 0.0000 11.2056
# 5 8.7377 2.0203 34.1216 0.0000 47.6887 0.0000
# 6 0.0000 0.0000 0.0000 11.2056 0.0000 37.2329
#
#
#
# Elastic Compliance Matrix: (Units=1/GPa)
#
#
# Indices 1 2 3 4 5 6 
#
# 1 0.015851 -0.005048 0.001635 0.000000 -0.003860 0.000000
# 2 -0.005048 0.019300 -0.008718 0.000000 0.006345 0.000000
# 3 0.001635 -0.008718 0.013586 0.000000 -0.009651 0.000000
# 4 0.000000 0.000000 0.000000 0.029166 0.000000 -0.008778
# 5 -0.003860 0.006345 -0.009651 0.000000 0.028313 0.000000
# 6 0.000000 0.000000 0.000000 -0.008778 0.000000 0.029500
#
#
# Mechanical properties :
#
#
# Convention : Reuss Voigt Hill
#
# Bulk Modulus (GPa) = 40.85847 48.87714 44.86780
# Shear Modulus (GPa) = 29.73772 37.64467 33.69119
#
# Velocity S-wave (km/s) = 3.61395 4.06612 3.84669
# Velocity P-wave (km/s) = 5.94635 6.59629 6.27973
#
# Compressibility (1/GPa) = 0.02447473
#
# Stress axis : x y z
#
# Youngs Moduli (GPa) = 63.08834 51.81423 73.60388
#
# Poissons Ratio (x) = 0.26158 -0.12035
# Poissons Ratio (y) = 0.31850 0.64165
# Poissons Ratio (z) = -0.10316 0.45170
#
# Static dielectric constant tensor:
#      x y z
#    x 4.106720 0.000000 0.161440 
#    y 0.000000 4.406240 0.000000 
#    z 0.161440 0.000000 4.363150 
# 
# 
# High freq. dielectric constant tensor:
#      x y z
#    x 1.903770 0.000000 0.019050 
#    y 0.000000 1.894700 0.000000 
#    z 0.019050 0.000000 1.912210 
# 
# From -- ./inp_files/54297.got.cif
#   From: 2010.03.12/outbox.cif.g09.slc.cpg/sg5_28_cif.got.tgz:54297.got - 2010.03.31 09:47:26.
