data_PCOD8051626
_publ_section_title
;
Structure prediction by ZEFSAII (Michael W. Deem and Ramdas Pophale) SiO2 
 PCOD8051626
Probable space group: C 2
;
_chemical_formula_sum "Si O2"
_cell_formula_units_Z 26
_cell_length_a 10.648621
_cell_length_b 8.495934
_cell_length_c 16.229375
_cell_angle_alpha 90.000000
_cell_angle_beta 114.559079
_cell_angle_gamma 90.000000
_cell_volume 1335.441431
_symmetry_space_group_name_H-M "C 2"
_symmetry_group_IT_number 5
_symmetry_cell_setting 'monoclinic'
loop_
_space_group_symop_operation_xyz
x,y,z
-x,y,-z
1/2+x,1/2+y,z
1/2-x,1/2+y,-z
loop_
_atom_site_type_symbol
_atom_site_label
_atom_site_fract_x
_atom_site_fract_y
_atom_site_fract_z
Si Si1 0.652339 0.566480 0.553387
Si Si2 0.101646 0.989945 0.885497
Si Si3 0.911515 0.746483 0.549337
Si Si4 0.000000 0.416609 0.000000
Si Si5 0.164551 0.180186 0.151643
Si Si6 0.827823 0.646377 0.049843
Si Si7 0.146217 0.894042 0.712831
O O1 0.500000 0.649253 0.500000
O O2 0.780051 0.656430 0.548694
O O3 0.650951 0.399918 0.509033
O O4 0.679272 0.534021 0.657605
O O5 0.116872 0.826016 0.939053
O O6 0.127215 0.973630 0.795868
O O7 0.946701 0.053023 0.853182
O O8 0.202251 0.122603 0.950634
O O9 0.000000 0.657534 0.500000
O O10 0.010351 0.794591 0.651601
O O11 0.948507 0.526322 0.059968
O O12 0.119085 0.309588 0.070741
O O13 0.285741 0.096550 0.131858
O O14 0.226233 0.269407 0.248257
#
# Coordination Sequence:
#
# PCOD8051626 Si02
#       7
#     4   4   4   2   4   4   4
#     4   9  20  40  66  91 122 158 194 243 299 369
#     4  11  21  40  59  81 120 158 208 255 305 349
#     4   9  20  40  64  92 124 158 192 243 302 367
#     4  12  22  36  60  78 112 154 212 254 306 344
#     4  11  22  40  56  82 119 159 203 258 298 352
#     4  11  22  37  57  82 107 158 206 256 301 351
#     4   9  21  37  58  91 124 153 197 250 305 351
#
# _framework density 19.469217
#
# number of rings (size 3 to 8) (size 9 to 14) (size 15 to 20)
#    0.000    2.154    4.615    0.000    2.154    8.000 
#    0.000    0.000    0.000    0.000    0.000    0.000 
#    0.000    0.000    0.000    0.000    0.000    0.000 
#
# Total GULP energy -161097.975646 kJ/mol
# GULP energy per Si atom -12392.151973 kJ/mol
# Density = 1.942490 g / cm^3
# Si number density = 19.469217 Si / 1000 Ang^3
#
#
#
# Elastic Constant Matrix: (Units=GPa)
#
#
# Indices 1 2 3 4 5 6 
#
# 1 130.6100 43.5246 23.0199 0.0000 -6.8062 0.0000
# 2 43.5246 71.0091 24.4463 0.0000 -4.7297 0.0000
# 3 23.0199 24.4463 98.6021 0.0000 -7.2220 0.0000
# 4 0.0000 0.0000 0.0000 19.8724 0.0000 -0.4969
# 5 -6.8062 -4.7297 -7.2220 0.0000 19.5426 0.0000
# 6 0.0000 0.0000 0.0000 -0.4969 0.0000 37.1091
#
#
#
# Elastic Compliance Matrix: (Units=1/GPa)
#
#
# Indices 1 2 3 4 5 6 
#
# 1 0.009747 -0.005595 -0.000759 0.000000 0.001760 0.000000
# 2 -0.005595 0.018718 -0.003233 0.000000 0.001387 0.000000
# 3 -0.000759 -0.003233 0.011351 0.000000 0.003148 0.000000
# 4 0.000000 0.000000 0.000000 0.050338 0.000000 0.000674
# 5 0.001760 0.001387 0.003148 0.000000 0.053282 0.000000
# 6 0.000000 0.000000 0.000000 0.000674 0.000000 0.026957
#
#
# Mechanical properties :
#
#
# Convention : Reuss Voigt Hill
#
# Bulk Modulus (GPa) = 48.44891 53.57809 51.01350
# Shear Modulus (GPa) = 25.45214 29.25350 27.35282
#
# Velocity S-wave (km/s) = 3.61958 3.88048 3.75230
# Velocity P-wave (km/s) = 6.51210 6.90338 6.71059
#
# Compressibility (1/GPa) = 0.02064030
#
# Stress axis : x y z
#
# Youngs Moduli (GPa) = 102.60044 53.42530 88.09715
#
# Poissons Ratio (x) = 0.29894 0.06689
# Poissons Ratio (y) = 0.57410 0.28480
# Poissons Ratio (z) = 0.07790 0.17271
#
# Static dielectric constant tensor:
#      x y z
#    x 3.818970 0.000000 0.012350 
#    y 0.000000 3.402030 0.000000 
#    z 0.012350 0.000000 3.736440 
# 
# 
# High freq. dielectric constant tensor:
#      x y z
#    x 1.772480 0.000000 0.000530 
#    y 0.000000 1.737580 0.000000 
#    z 0.000530 0.000000 1.757750 
# 
# From -- ./inp_files/52082.got.cif
#   From: 2010.03.12/outbox.cif.g09.slc.cpg/sg5_27_cif.got.tgz:52082.got - 2010.03.31 09:47:26.
