data_PCOD8051193
_publ_section_title
;
Structure prediction by ZEFSAII (Michael W. Deem and Ramdas Pophale) SiO2 
 PCOD8051193
Probable space group: C 2
;
_chemical_formula_sum "Si O2"
_cell_formula_units_Z 32
_cell_length_a 15.154852
_cell_length_b 22.991317
_cell_length_c 8.586635
_cell_angle_alpha 90.000000
_cell_angle_beta 149.608752
_cell_angle_gamma 90.000000
_cell_volume 1513.578516
_symmetry_space_group_name_H-M "C 2"
_symmetry_group_IT_number 5
_symmetry_cell_setting 'monoclinic'
loop_
_space_group_symop_operation_xyz
x,y,z
-x,y,-z
1/2+x,1/2+y,z
1/2-x,1/2+y,-z
loop_
_atom_site_type_symbol
_atom_site_label
_atom_site_fract_x
_atom_site_fract_y
_atom_site_fract_z
Si Si1 0.507801 0.731120 0.691367
Si Si2 0.812664 0.927693 0.774182
Si Si3 0.354950 0.545617 0.672005
Si Si4 0.814686 0.648311 0.771037
Si Si5 0.180654 0.646193 0.856917
Si Si6 0.001298 0.355268 0.821462
Si Si7 0.891793 0.042665 0.202622
Si Si8 0.180258 0.921513 0.846661
O O1 0.500000 0.750462 0.500000
O O2 0.341852 0.693362 0.492789
O O3 0.513193 0.787040 0.807595
O O4 0.686949 0.696552 0.990138
O O5 0.677741 0.880263 0.512451
O O6 0.765353 0.992881 0.634904
O O7 0.807977 0.920560 0.950762
O O8 0.000000 0.907752 0.000000
O O9 0.219764 0.590685 0.388023
O O10 0.472477 0.515536 0.715410
O O11 0.500000 0.578795 0.000000
O O12 0.837678 0.635004 0.987644
O O13 0.000000 0.675284 0.000000
O O14 0.000000 0.661207 0.500000
O O15 0.255375 0.584653 0.907187
O O16 0.163032 0.386823 0.988670
O O17 0.000000 0.367586 0.000000
O O18 0.000000 0.080138 0.500000
O O19 0.802467 0.990520 0.164654
O O20 0.000000 0.896285 0.500000
#
# Coordination Sequence:
#
# PCOD8051193 Si02
#       8
#     4   4   4   4   4   4   4   4
#     4  10  23  50  69  89 135 178 225 281 335 393
#     4  11  23  44  66  99 136 178 223 273 334 397
#     4  11  22  40  66 100 140 179 214 275 338 398
#     4  11  25  41  67 102 132 173 223 278 335 395
#     4  11  24  41  69 100 130 179 226 270 335 405
#     4  12  28  44  70 102 131 179 230 279 335 402
#     4  11  20  41  67  96 140 179 215 272 338 396
#     4  11  24  43  69  97 136 179 221 277 334 397
#
# _framework density 21.141950000000001
#
# number of rings (size 3 to 8) (size 9 to 14) (size 15 to 20)
#    0.000    1.000    5.000    2.250    3.500    5.000 
#    0.000    2.500    0.000    0.000    0.000    0.000 
#    0.000    0.000    0.000    0.000    0.000    0.000 
#
# Total GULP energy -198289.317524 kJ/mol
# GULP energy per Si atom -12393.082345 kJ/mol
# Density = 2.109383 g / cm^3
# Si number density = 21.141950 Si / 1000 Ang^3
#
#
#
# Elastic Constant Matrix: (Units=GPa)
#
#
# Indices 1 2 3 4 5 6 
#
# 1 132.8692 55.1383 63.6115 0.0000 1.2414 0.0000
# 2 55.1383 105.0941 63.6310 0.0000 9.2981 0.0000
# 3 63.6115 63.6310 159.7291 0.0000 7.9063 0.0000
# 4 0.0000 0.0000 0.0000 27.2994 0.0000 5.9581
# 5 1.2414 9.2981 7.9063 0.0000 42.1925 0.0000
# 6 0.0000 0.0000 0.0000 5.9581 0.0000 68.1394
#
#
#
# Elastic Compliance Matrix: (Units=1/GPa)
#
#
# Indices 1 2 3 4 5 6 
#
# 1 0.010419 -0.003975 -0.002618 0.000000 0.001060 0.000000
# 2 -0.003975 0.014200 -0.003962 0.000000 -0.002270 0.000000
# 3 -0.002618 -0.003962 0.008917 0.000000 -0.000721 0.000000
# 4 0.000000 0.000000 0.000000 0.037343 0.000000 -0.003265
# 5 0.001060 -0.002270 -0.000721 0.000000 0.024305 0.000000
# 6 0.000000 0.000000 0.000000 -0.003265 0.000000 0.014961
#
#
# Mechanical properties :
#
#
# Convention : Reuss Voigt Hill
#
# Bulk Modulus (GPa) = 80.47068 84.71712 82.59390
# Shear Modulus (GPa) = 36.92789 41.88037 39.40413
#
# Velocity S-wave (km/s) = 4.18385 4.45557 4.32185
# Velocity P-wave (km/s) = 7.84118 8.16254 8.00348
#
# Compressibility (1/GPa) = 0.01242689
#
# Stress axis : x y z
#
# Youngs Moduli (GPa) = 95.97433 70.42149 112.14260
#
# Poissons Ratio (x) = 0.27993 0.29364
# Poissons Ratio (y) = 0.38150 0.44425
# Poissons Ratio (z) = 0.25130 0.27898
#
# Static dielectric constant tensor:
#      x y z
#    x 4.007470 0.000000 -0.133390 
#    y 0.000000 3.690330 0.000000 
#    z -0.133390 0.000000 4.032970 
# 
# 
# High freq. dielectric constant tensor:
#      x y z
#    x 1.843460 0.000000 -0.010470 
#    y 0.000000 1.810820 0.000000 
#    z -0.010470 0.000000 1.837350 
# 
# From -- ./inp_files/25684.got.cif
#   From: 2010.03.12/outbox.cif.g09.slc.cpg/sg5_13_cif.got.tgz:25684.got - 2010.03.31 09:47:26.
