data_PCOD8051701
_publ_section_title
;
Structure prediction by ZEFSAII (Michael W. Deem and Ramdas Pophale) SiO2 
 PCOD8051701
Probable space group: C 2
;
_chemical_formula_sum "Si O2"
_cell_formula_units_Z 30
_cell_length_a 13.385330
_cell_length_b 18.280843
_cell_length_c 11.097262
_cell_angle_alpha 90.000000
_cell_angle_beta 33.996059
_cell_angle_gamma 90.000000
_cell_volume 1518.303180
_symmetry_space_group_name_H-M "C 2"
_symmetry_group_IT_number 5
_symmetry_cell_setting 'monoclinic'
loop_
_space_group_symop_operation_xyz
x,y,z
-x,y,-z
1/2+x,1/2+y,z
1/2-x,1/2+y,-z
loop_
_atom_site_type_symbol
_atom_site_label
_atom_site_fract_x
_atom_site_fract_y
_atom_site_fract_z
Si Si1 0.500000 0.437160 0.000000
Si Si2 0.295330 0.816063 0.704707
Si Si3 0.499980 0.524258 0.244459
Si Si4 0.000050 0.179149 0.861972
Si Si5 0.203592 0.778007 0.539665
Si Si6 0.294911 0.933415 0.064905
Si Si7 0.794754 0.433423 0.345266
Si Si8 0.796273 0.777974 0.947010
O O1 0.323404 0.388423 0.176343
O O2 0.499555 0.487836 0.115486
O O3 0.500000 0.841684 0.500000
O O4 0.252907 0.766468 0.630527
O O5 0.253083 0.766357 0.863469
O O6 0.499980 0.611280 0.228970
O O7 0.676844 0.502122 0.141532
O O8 0.323403 0.502143 0.495306
O O9 0.175107 0.227767 0.665427
O O10 0.000000 0.152735 0.000000
O O11 0.824991 0.227768 0.015587
O O12 0.232859 0.862864 0.480763
O O13 0.999940 0.755591 0.719190
O O14 0.264040 0.917350 0.235874
O O15 0.233141 0.862841 0.053076
O O16 0.500101 0.952188 0.831294
#
# Coordination Sequence:
#
# PCOD8051701 Si02
#       8
#     2   4   4   4   4   4   4   4
#     4  12  22  40  66 102 128 162 226 272 320 400
#     4  12  20  38  70 102 126 166 221 278 318 384
#     4  12  25  44  67  92 139 174 211 274 332 396
#     4  12  28  46  64  97 137 175 218 272 340 394
#     4  12  23  41  68 100 131 172 222 273 325 388
#     4  11  22  40  69 100 127 166 222 273 320 389
#     4  11  22  40  69 100 127 166 222 273 320 389
#     4  12  23  41  68 100 131 172 222 273 325 388
#
# _framework density 19.758900000000001
#
# number of rings (size 3 to 8) (size 9 to 14) (size 15 to 20)
#    0.000    0.267    8.667    1.200    0.000    2.667 
#    4.800    0.000    0.000    0.000    0.000    0.000 
#    0.000    0.000    0.000    0.000    0.000    0.000 
#
# Total GULP energy -186099.826191 kJ/mol
# GULP energy per Si atom -12406.655079 kJ/mol
# Density = 1.971393 g / cm^3
# Si number density = 19.758900 Si / 1000 Ang^3
#
#
#
# Elastic Constant Matrix: (Units=GPa)
#
#
# Indices 1 2 3 4 5 6 
#
# 1 107.7763 20.8235 56.7460 -0.0294 -12.9572 0.0112
# 2 20.8235 84.5720 33.0835 -0.0579 -14.6334 0.0405
# 3 56.7460 33.0835 142.5958 -0.0718 -28.4862 0.0559
# 4 -0.0294 -0.0579 -0.0718 19.3134 0.0524 4.7891
# 5 -12.9572 -14.6334 -28.4862 0.0524 49.4855 -0.0300
# 6 0.0112 0.0405 0.0559 4.7891 -0.0300 23.3835
#
#
#
# Elastic Compliance Matrix: (Units=1/GPa)
#
#
# Indices 1 2 3 4 5 6 
#
# 1 0.011846 -0.001156 -0.004401 -0.000004 0.000227 0.000008
# 2 -0.001156 0.013371 -0.002161 0.000029 0.002407 -0.000020
# 3 -0.004401 -0.002161 0.010065 0.000018 0.004003 -0.000017
# 4 -0.000004 0.000029 0.000018 0.054548 -0.000047 -0.011172
# 5 0.000227 0.002407 0.004003 -0.000047 0.023283 0.000026
# 6 0.000008 -0.000020 -0.000017 -0.011172 0.000026 0.045053
#
#
# Mechanical properties :
#
#
# Convention : Reuss Voigt Hill
#
# Bulk Modulus (GPa) = 50.38758 61.80556 56.09657
# Shear Modulus (GPa) = 27.74419 33.38923 30.56671
#
# Velocity S-wave (km/s) = 3.75125 4.11522 3.93744
# Velocity P-wave (km/s) = 6.65725 7.34355 7.00881
#
# Compressibility (1/GPa) = 0.01984616
#
# Stress axis : x y z
#
# Youngs Moduli (GPa) = 84.41591 74.78949 99.35322
#
# Poissons Ratio (x) = 0.08646 0.43722
# Poissons Ratio (y) = 0.09759 0.21472
# Poissons Ratio (z) = 0.37149 0.16164
#
# Static dielectric constant tensor:
#      x y z
#    x 4.269140 0.000150 -0.628000 
#    y 0.000150 3.291620 -0.000220 
#    z -0.628000 -0.000220 4.793450 
# 
# 
# High freq. dielectric constant tensor:
#      x y z
#    x 1.791430 0.000000 0.001110 
#    y 0.000000 1.738280 0.000000 
#    z 0.001110 0.000000 1.790480 
# 
# From -- ./inp_files/43292.got.cif
#   From: 2010.03.12/outbox.cif.g09.slc.cpg/sg5_22_cif.got.tgz:43292.got - 2010.03.31 09:47:26.
