data_PCOD8051937
_publ_section_title
;
Structure prediction by ZEFSAII (Michael W. Deem and Ramdas Pophale) SiO2 
 PCOD8051937
Probable space group: C 2
;
_chemical_formula_sum "Si O2"
_cell_formula_units_Z 24
_cell_length_a 9.233941
_cell_length_b 9.541172
_cell_length_c 13.291338
_cell_angle_alpha 90.000000
_cell_angle_beta 98.266933
_cell_angle_gamma 90.000000
_cell_volume 1158.833739
_symmetry_space_group_name_H-M "C 2"
_symmetry_group_IT_number 5
_symmetry_cell_setting 'monoclinic'
loop_
_space_group_symop_operation_xyz
x,y,z
-x,y,-z
1/2+x,1/2+y,z
1/2-x,1/2+y,-z
loop_
_atom_site_type_symbol
_atom_site_label
_atom_site_fract_x
_atom_site_fract_y
_atom_site_fract_z
Si Si1 0.393190 0.176620 0.897036
Si Si2 0.440251 0.670283 0.105911
Si Si3 0.132948 0.947101 0.227803
Si Si4 0.374744 0.989965 0.565985
Si Si5 0.134188 0.803998 0.438347
Si Si6 0.535661 0.952989 0.776394
O O1 0.229999 0.126265 0.910006
O O2 0.392532 0.337313 0.864179
O O3 0.455856 0.087481 0.812326
O O4 0.500000 0.155406 0.000000
O O5 0.527648 0.577260 0.195091
O O6 0.461973 0.830077 0.141635
O O7 0.500000 0.649692 0.000000
O O8 0.090904 0.883426 0.331474
O O9 0.301838 0.995522 0.243490
O O10 0.500000 0.019075 0.500000
O O11 0.311016 0.146133 0.583755
O O12 0.259697 0.885427 0.508185
O O13 0.440327 0.911294 0.669897
O O14 0.000000 0.803544 0.500000
#
# Coordination Sequence:
#
# PCOD8051937 Si02
#       6
#     4   4   4   4   4   4
#     4  11  24  44  68  92 129 172 219 272 327 391
#     4  11  26  43  65 101 129 171 220 271 328 383
#     4  11  24  44  66  98 133 170 217 272 324 384
#     4  11  24  45  66  97 135 173 214 268 324 389
#     4  11  26  41  66 100 131 174 219 263 329 383
#     4  11  24  42  69  96 131 173 219 264 328 387
#
# _framework density 20.710477000000001
#
# number of rings (size 3 to 8) (size 9 to 14) (size 15 to 20)
#    0.000    1.000    3.333    2.000    4.667    6.000 
#    0.000    0.000    0.000    0.000    0.000    0.000 
#    0.000    0.000    0.000    0.000    0.000    0.000 
#
# Total GULP energy -148835.318974 kJ/mol
# GULP energy per Si atom -12402.943248 kJ/mol
# Density = 2.066334 g / cm^3
# Si number density = 20.710477 Si / 1000 Ang^3
#
#
#
# Elastic Constant Matrix: (Units=GPa)
#
#
# Indices 1 2 3 4 5 6 
#
# 1 118.0178 53.7762 41.3517 0.0000 9.8931 0.0000
# 2 53.7762 75.1421 20.0157 0.0000 12.1667 0.0000
# 3 41.3517 20.0157 117.8474 0.0000 14.4864 0.0000
# 4 0.0000 0.0000 0.0000 39.4910 0.0000 3.4996
# 5 9.8931 12.1667 14.4864 0.0000 44.0266 0.0000
# 6 0.0000 0.0000 0.0000 3.4996 0.0000 25.3788
#
#
#
# Elastic Compliance Matrix: (Units=1/GPa)
#
#
# Indices 1 2 3 4 5 6 
#
# 1 0.013702 -0.008998 -0.003342 0.000000 0.000507 0.000000
# 2 -0.008998 0.020295 0.000158 0.000000 -0.003638 0.000000
# 3 -0.003342 0.000158 0.009947 0.000000 -0.002565 0.000000
# 4 0.000000 0.000000 0.000000 0.025635 0.000000 -0.003535
# 5 0.000507 -0.003638 -0.002565 0.000000 0.024449 0.000000
# 6 0.000000 0.000000 0.000000 -0.003535 0.000000 0.039890
#
#
# Mechanical properties :
#
#
# Convention : Reuss Voigt Hill
#
# Bulk Modulus (GPa) = 51.07551 60.14384 55.60967
# Shear Modulus (GPa) = 30.33827 34.83688 32.58757
#
# Velocity S-wave (km/s) = 3.83152 4.10578 3.97102
# Velocity P-wave (km/s) = 6.65502 7.18191 6.92348
#
# Compressibility (1/GPa) = 0.01957886
#
# Stress axis : x y z
#
# Youngs Moduli (GPa) = 72.98403 49.27436 100.53470
#
# Poissons Ratio (x) = 0.44335 0.33598
# Poissons Ratio (y) = 0.65668 -0.01584
# Poissons Ratio (z) = 0.24391 -0.00776
#
# Static dielectric constant tensor:
#      x y z
#    x 3.759170 0.000000 0.009030 
#    y 0.000000 3.797960 0.000000 
#    z 0.009030 0.000000 3.908610 
# 
# 
# High freq. dielectric constant tensor:
#      x y z
#    x 1.814660 0.000000 0.002460 
#    y 0.000000 1.813850 0.000000 
#    z 0.002460 0.000000 1.829700 
# 
# From -- ./inp_files/35352.got.cif
#   From: 2010.03.12/outbox.cif.g09.slc.cpg/sg5_18_cif.got.tgz:35352.got - 2010.03.31 09:47:26.
