data_PCOD8051358
_publ_section_title
;
Structure prediction by ZEFSAII (Michael W. Deem and Ramdas Pophale) SiO2 
 PCOD8051358
Probable space group: C 2
;
_chemical_formula_sum "Si O2"
_cell_formula_units_Z 22
_cell_length_a 7.900967
_cell_length_b 11.560051
_cell_length_c 14.388234
_cell_angle_alpha 90.000000
_cell_angle_beta 131.290967
_cell_angle_gamma 90.000000
_cell_volume 987.416290
_symmetry_space_group_name_H-M "C 2"
_symmetry_group_IT_number 5
_symmetry_cell_setting 'monoclinic'
loop_
_space_group_symop_operation_xyz
x,y,z
-x,y,-z
1/2+x,1/2+y,z
1/2-x,1/2+y,-z
loop_
_atom_site_type_symbol
_atom_site_label
_atom_site_fract_x
_atom_site_fract_y
_atom_site_fract_z
Si Si1 0.959301 0.087270 0.678489
Si Si2 0.663831 0.825877 0.280502
Si Si3 0.000000 0.991908 0.500000
Si Si4 0.933032 0.867275 0.195624
Si Si5 0.549266 0.161000 0.122002
Si Si6 0.748672 0.952524 0.947358
O O1 0.226907 0.085446 0.793871
O O2 0.834555 0.199243 0.672097
O O3 0.912605 0.073849 0.551843
O O4 0.892769 0.969599 0.710012
O O5 0.798406 0.815468 0.233673
O O6 0.407154 0.867486 0.171158
O O7 0.788540 0.913567 0.394500
O O8 0.084910 0.767888 0.204473
O O9 0.749201 0.908184 0.053424
O O10 0.346228 0.082452 0.086320
O O11 0.500000 0.207709 0.000000
O O12 0.000000 0.956438 0.000000
#
# Coordination Sequence:
#
# PCOD8051358 Si02
#       6
#     4   4   2   4   4   4
#     4  11  24  46  71  96 138 181 227 285 336 396
#     4  11  24  48  70 100 140 180 225 283 338 400
#     4  10  24  46  70  98 136 180 236 278 334 394
#     4  11  24  41  69 105 139 179 220 276 344 414
#     4  12  23  44  67 102 146 179 220 279 342 406
#     4  12  24  41  70 106 140 182 222 273 347 410
#
# _framework density 22.280369
#
# number of rings (size 3 to 8) (size 9 to 14) (size 15 to 20)
#    0.000    0.727    5.455    3.273    2.545    2.909 
#    0.000    0.000    0.000    0.000    0.000    0.000 
#    0.000    0.000    0.000    0.000    0.000    0.000 
#
# Total GULP energy -136434.637327 kJ/mol
# GULP energy per Si atom -12403.148848 kJ/mol
# Density = 2.222966 g / cm^3
# Si number density = 22.280369 Si / 1000 Ang^3
#
#
#
# Elastic Constant Matrix: (Units=GPa)
#
#
# Indices 1 2 3 4 5 6 
#
# 1 95.7998 50.5970 39.0249 0.0000 -21.9123 0.0000
# 2 50.5970 141.1615 34.9264 0.0000 -38.1151 0.0000
# 3 39.0249 34.9264 119.2448 0.0000 -34.6147 0.0000
# 4 0.0000 0.0000 0.0000 40.2349 0.0000 -14.8944
# 5 -21.9123 -38.1151 -34.6147 0.0000 36.8507 0.0000
# 6 0.0000 0.0000 0.0000 -14.8944 0.0000 35.8973
#
#
#
# Elastic Compliance Matrix: (Units=1/GPa)
#
#
# Indices 1 2 3 4 5 6 
#
# 1 0.014069 -0.003889 -0.003031 0.000000 0.001497 0.000000
# 2 -0.003889 0.010905 0.000937 0.000000 0.009847 0.000000
# 3 -0.003031 0.000937 0.012184 0.000000 0.010612 0.000000
# 4 0.000000 0.000000 0.000000 0.029364 0.000000 0.012184
# 5 0.001497 0.009847 0.010612 0.000000 0.048179 0.000000
# 6 0.000000 0.000000 0.000000 0.012184 0.000000 0.032912
#
#
# Mechanical properties :
#
#
# Convention : Reuss Voigt Hill
#
# Bulk Modulus (GPa) = 39.69424 67.25586 53.47505
# Shear Modulus (GPa) = 29.76600 38.04045 33.90322
#
# Velocity S-wave (km/s) = 3.65906 4.13650 3.90508
# Velocity P-wave (km/s) = 5.97546 7.28463 6.66228
#
# Compressibility (1/GPa) = 0.02519257
#
# Stress axis : x y z
#
# Youngs Moduli (GPa) = 71.07628 91.70187 82.07530
#
# Poissons Ratio (x) = 0.35662 0.24877
# Poissons Ratio (y) = 0.27641 -0.07691
# Poissons Ratio (z) = 0.21543 -0.08593
#
# Static dielectric constant tensor:
#      x y z
#    x 3.792670 0.000000 -0.264550 
#    y 0.000000 4.140250 0.000000 
#    z -0.264550 0.000000 4.176070 
# 
# 
# High freq. dielectric constant tensor:
#      x y z
#    x 1.865400 0.000000 -0.020040 
#    y 0.000000 1.896320 0.000000 
#    z -0.020040 0.000000 1.873070 
# 
# From -- ./inp_files/50050.got.cif
#   From: 2010.03.12/outbox.cif.g09.slc.cpg/sg5_26_cif.got.tgz:50050.got - 2010.03.31 09:47:26.
