data_PCOD8051567
_publ_section_title
;
Structure prediction by ZEFSAII (Michael W. Deem and Ramdas Pophale) SiO2 
 PCOD8051567
Probable space group: C 2
;
_chemical_formula_sum "Si O2"
_cell_formula_units_Z 24
_cell_length_a 9.899047
_cell_length_b 14.570639
_cell_length_c 13.749179
_cell_angle_alpha 90.000000
_cell_angle_beta 139.216511
_cell_angle_gamma 90.000000
_cell_volume 1295.378081
_symmetry_space_group_name_H-M "C 2"
_symmetry_group_IT_number 5
_symmetry_cell_setting 'monoclinic'
loop_
_space_group_symop_operation_xyz
x,y,z
-x,y,-z
1/2+x,1/2+y,z
1/2-x,1/2+y,-z
loop_
_atom_site_type_symbol
_atom_site_label
_atom_site_fract_x
_atom_site_fract_y
_atom_site_fract_z
Si Si1 0.167643 0.815080 0.674476
Si Si2 0.315685 0.183968 0.822697
Si Si3 0.120599 0.999056 0.965328
Si Si4 0.932240 0.489071 0.851520
Si Si5 0.561371 0.702746 0.859338
Si Si6 0.431154 0.310659 0.162185
O O1 0.285806 0.910809 0.731053
O O2 0.328928 0.732728 0.750719
O O3 0.053341 0.803230 0.714247
O O4 0.000000 0.808035 0.500000
O O5 0.111475 0.212410 0.771365
O O6 0.366700 0.258640 0.768571
O O7 0.300214 0.082490 0.768972
O O8 0.500000 0.180475 0.000000
O O9 0.051020 0.916991 0.856884
O O10 0.069705 0.096380 0.891040
O O11 0.369134 0.993897 0.111545
O O12 0.000000 0.986111 0.000000
O O13 0.000000 0.468187 0.000000
O O14 0.717808 0.764851 0.008269
#
# Coordination Sequence:
#
# PCOD8051567 Si02
#       6
#     4   4   4   4   4   4
#     4  12  25  39  56  84 122 163 194 232 288 350
#     4   9  18  34  62  93 113 139 191 253 293 334
#     4  12  21  32  64  97 116 141 191 256 295 330
#     4  11  18  39  63  88 114 149 197 242 289 344
#     4  11  20  37  63  88 117 148 194 244 290 343
#     4  11  20  37  60  88 115 149 199 244 288 338
#
# _framework density 18.527408999999999
#
# number of rings (size 3 to 8) (size 9 to 14) (size 15 to 20)
#    0.000    1.000    8.333    3.000    0.000    0.000 
#    0.000    4.167    0.000    0.000    0.000    0.000 
#    0.000    0.000    0.000    0.000    0.000    0.000 
#
# Total GULP energy -148795.805883 kJ/mol
# GULP energy per Si atom -12399.650490 kJ/mol
# Density = 1.848524 g / cm^3
# Si number density = 18.527409 Si / 1000 Ang^3
#
#
#
# Elastic Constant Matrix: (Units=GPa)
#
#
# Indices 1 2 3 4 5 6 
#
# 1 171.3094 51.0289 45.1981 0.0000 -8.4059 0.0000
# 2 51.0289 139.0399 36.0309 0.0000 -8.1306 0.0000
# 3 45.1981 36.0309 62.9416 0.0001 -13.7544 0.0000
# 4 0.0000 0.0000 0.0001 13.8473 0.0000 5.7853
# 5 -8.4059 -8.1306 -13.7544 0.0000 11.2335 0.0000
# 6 0.0000 0.0000 0.0000 5.7853 0.0000 33.5065
#
#
#
# Elastic Compliance Matrix: (Units=1/GPa)
#
#
# Indices 1 2 3 4 5 6 
#
# 1 0.007506 -0.001598 -0.004780 0.000000 -0.001392 0.000000
# 2 -0.001598 0.008786 -0.003760 0.000000 0.000560 0.000000
# 3 -0.004780 -0.003760 0.027437 0.000000 0.027297 0.000000
# 4 0.000000 0.000000 0.000000 0.077831 0.000000 -0.013438
# 5 -0.001392 0.000560 0.027297 0.000000 0.121806 0.000000
# 6 0.000000 0.000000 0.000000 -0.013438 0.000000 0.032165
#
#
# Mechanical properties :
#
#
# Convention : Reuss Voigt Hill
#
# Bulk Modulus (GPa) = 42.63480 70.86739 56.75110
# Shear Modulus (GPa) = 16.46777 27.78632 22.12704
#
# Velocity S-wave (km/s) = 2.98456 3.87685 3.45959
# Velocity P-wave (km/s) = 5.91088 7.64022 6.83050
#
# Compressibility (1/GPa) = 0.02345502
#
# Stress axis : x y z
#
# Youngs Moduli (GPa) = 133.22605 113.82336 36.44663
#
# Poissons Ratio (x) = 0.18184 0.17420
# Poissons Ratio (y) = 0.21284 0.13703
# Poissons Ratio (z) = 0.63678 0.42794
#
# Static dielectric constant tensor:
#      x y z
#    x 4.124660 0.000000 0.234370 
#    y 0.000000 3.721030 0.000000 
#    z 0.234370 0.000000 2.836330 
# 
# 
# High freq. dielectric constant tensor:
#      x y z
#    x 1.744140 0.000000 0.011980 
#    y 0.000000 1.743640 0.000000 
#    z 0.011980 0.000000 1.646960 
# 
# From -- ./inp_files/50814.got.cif
#   From: 2010.03.12/outbox.cif.g09.slc.cpg/sg5_26_cif.got.tgz:50814.got - 2010.03.31 09:47:26.
