data_PCOD8051318
_publ_section_title
;
Structure prediction by ZEFSAII (Michael W. Deem and Ramdas Pophale) SiO2 
 PCOD8051318
Probable space group: C 2
;
_chemical_formula_sum "Si O2"
_cell_formula_units_Z 24
_cell_length_a 22.576211
_cell_length_b 7.551026
_cell_length_c 17.884445
_cell_angle_alpha 90.000000
_cell_angle_beta 20.671711
_cell_angle_gamma 90.000000
_cell_volume 1076.274650
_symmetry_space_group_name_H-M "C 2"
_symmetry_group_IT_number 5
_symmetry_cell_setting 'monoclinic'
loop_
_space_group_symop_operation_xyz
x,y,z
-x,y,-z
1/2+x,1/2+y,z
1/2-x,1/2+y,-z
loop_
_atom_site_type_symbol
_atom_site_label
_atom_site_fract_x
_atom_site_fract_y
_atom_site_fract_z
Si Si1 0.500000 0.949510 0.500000
Si Si2 0.019997 0.345039 0.317106
Si Si3 0.031649 0.925975 0.754657
Si Si4 0.799899 0.179606 0.123601
Si Si5 0.295069 0.144933 0.360071
Si Si6 0.500000 0.928428 0.000000
Si Si7 0.670709 0.223670 0.121987
O O1 0.546536 0.827672 0.374755
O O2 0.662994 0.065760 0.331193
O O3 0.064733 0.543875 0.237822
O O4 0.831492 0.297318 0.517949
O O5 0.142341 0.202523 0.133611
O O6 0.059970 0.742464 0.765003
O O7 0.917969 0.883996 0.816669
O O8 0.207433 0.004196 0.518360
O O9 0.940065 0.057857 0.919433
O O10 0.889140 0.312303 0.074569
O O11 0.694923 0.276036 0.180886
O O12 0.372656 0.048349 0.196923
#
# Coordination Sequence:
#
# PCOD8051318 Si02
#       7
#     2   4   4   4   4   2   4
#     4  10  24  44  72 104 142 186 224 294 362 400
#     4  11  23  45  72 107 142 183 240 284 360 417
#     4  12  25  47  75 100 143 185 245 286 356 428
#     4  11  26  48  71 102 143 192 229 298 355 422
#     4  12  28  46  68 108 138 195 233 299 351 427
#     4  12  32  46  68 104 150 186 242 294 362 414
#     4  11  22  46  78 106 135 186 237 289 346 428
#
# _framework density 22.299139
#
# number of rings (size 3 to 8) (size 9 to 14) (size 15 to 20)
#    0.000    0.667    5.000    2.000   11.667    0.000 
#    3.000    0.000    0.000    0.000    0.000    0.000 
#    0.000    0.000    0.000    0.000    0.000    0.000 
#
# Total GULP energy -148817.850997 kJ/mol
# GULP energy per Si atom -12401.487583 kJ/mol
# Density = 2.224839 g / cm^3
# Si number density = 22.299139 Si / 1000 Ang^3
#
#
#
# Elastic Constant Matrix: (Units=GPa)
#
#
# Indices 1 2 3 4 5 6 
#
# 1 131.6143 62.7364 35.7572 0.0001 -2.3015 0.0000
# 2 62.7364 93.6503 41.7231 0.0005 5.7049 -0.0001
# 3 35.7572 41.7231 118.0994 0.0004 13.2526 -0.0001
# 4 0.0001 0.0005 0.0004 45.3808 0.0000 -2.1358
# 5 -2.3015 5.7049 13.2526 0.0000 39.9015 0.0000
# 6 0.0000 -0.0001 -0.0001 -2.1358 0.0000 39.9482
#
#
#
# Elastic Compliance Matrix: (Units=1/GPa)
#
#
# Indices 1 2 3 4 5 6 
#
# 1 0.011401 -0.007266 -0.001117 0.000000 0.002067 0.000000
# 2 -0.007266 0.017308 -0.003729 0.000000 -0.001655 0.000000
# 3 -0.001117 -0.003729 0.010460 0.000000 -0.003005 0.000000
# 4 0.000000 0.000000 0.000000 0.022091 0.000000 0.001181
# 5 0.002067 -0.001655 -0.003005 0.000000 0.026416 0.000000
# 6 0.000000 0.000000 0.000000 0.001181 0.000000 0.025096
#
#
# Mechanical properties :
#
#
# Convention : Reuss Voigt Hill
#
# Bulk Modulus (GPa) = 66.91044 69.31085 68.11065
# Shear Modulus (GPa) = 35.21703 38.58924 36.90314
#
# Velocity S-wave (km/s) = 3.97835 4.16447 4.07248
# Velocity P-wave (km/s) = 7.15360 7.36706 7.26111
#
# Compressibility (1/GPa) = 0.01494535
#
# Stress axis : x y z
#
# Youngs Moduli (GPa) = 87.71185 57.77823 95.59980
#
# Poissons Ratio (x) = 0.41981 0.10678
# Poissons Ratio (y) = 0.63730 0.35648
# Poissons Ratio (z) = 0.09797 0.21545
#
# Static dielectric constant tensor:
#      x y z
#    x 4.049620 0.000000 0.043160 
#    y 0.000000 3.824680 0.000000 
#    z 0.043160 0.000000 4.214920 
# 
# 
# High freq. dielectric constant tensor:
#      x y z
#    x 1.885790 0.000000 0.000650 
#    y 0.000000 1.871980 0.000000 
#    z 0.000650 0.000000 1.892000 
# 
# From -- ./inp_files/22871.got.cif
#   From: 2010.03.12/outbox.cif.g09.slc.cpg/sg5_12_cif.got.tgz:22871.got - 2010.03.31 09:47:26.
