data_PCOD8051713
_publ_section_title
;
Structure prediction by ZEFSAII (Michael W. Deem and Ramdas Pophale) SiO2 
 PCOD8051713
Probable space group: C 2
;
_chemical_formula_sum "Si O2"
_cell_formula_units_Z 30
_cell_length_a 12.254984
_cell_length_b 17.207438
_cell_length_c 15.153152
_cell_angle_alpha 90.000000
_cell_angle_beta 28.196682
_cell_angle_gamma 90.000000
_cell_volume 1509.848960
_symmetry_space_group_name_H-M "C 2"
_symmetry_group_IT_number 5
_symmetry_cell_setting 'monoclinic'
loop_
_space_group_symop_operation_xyz
x,y,z
-x,y,-z
1/2+x,1/2+y,z
1/2-x,1/2+y,-z
loop_
_atom_site_type_symbol
_atom_site_label
_atom_site_fract_x
_atom_site_fract_y
_atom_site_fract_z
Si Si1 0.877221 0.866110 0.996438
Si Si2 0.500000 0.126769 0.000000
Si Si3 0.703783 0.226447 0.554408
Si Si4 0.698099 0.882571 0.423272
Si Si5 0.756163 0.586072 0.343778
Si Si6 0.148307 0.207794 0.134328
Si Si7 0.527977 0.998545 0.291915
Si Si8 0.735013 0.657159 0.880267
O O1 0.067951 0.899921 0.794919
O O2 0.743077 0.794139 0.047966
O O3 0.693947 0.933071 0.137769
O O4 0.000000 0.841479 0.000000
O O5 0.584666 0.077005 0.856268
O O6 0.716996 0.177809 0.875779
O O7 0.759353 0.315687 0.535319
O O8 0.729719 0.172495 0.623548
O O9 0.439863 0.217365 0.708496
O O10 0.877751 0.202427 0.351908
O O11 0.500000 0.850391 0.500000
O O12 0.616482 0.963991 0.523453
O O13 0.500000 0.563689 0.500000
O O14 0.842098 0.522409 0.351512
O O15 0.193627 0.156055 0.015344
O O16 0.684255 0.071921 0.209362
O O17 0.500000 0.682835 0.000000
#
# Coordination Sequence:
#
# PCOD8051713 Si02
#       8
#     4   2   4   4   4   4   4   4
#     4  12  22  39  66  97 132 166 218 281 334 385
#     4  12  20  38  70  98 124 158 210 272 336 376
#     4  11  22  41  69 102 125 165 224 278 326 390
#     4  12  23  39  68  99 130 169 217 283 337 379
#     4  11  23  40  64  95 129 163 213 271 329 396
#     4  12  22  39  73 101 125 169 218 279 331 381
#     4  11  25  41  61  96 135 168 216 271 336 396
#     4  11  26  46  64  97 140 180 221 263 326 414
#
# _framework density 19.869537000000001
#
# number of rings (size 3 to 8) (size 9 to 14) (size 15 to 20)
#    0.000    0.533    8.667    0.800    0.000    3.733 
#    0.000    1.333    1.467    0.000    0.000    0.000 
#    0.000    0.000    0.000    0.000    0.000    0.000 
#
# Total GULP energy -186020.573566 kJ/mol
# GULP energy per Si atom -12401.371571 kJ/mol
# Density = 1.982431 g / cm^3
# Si number density = 19.869537 Si / 1000 Ang^3
#
#
#
# Elastic Constant Matrix: (Units=GPa)
#
#
# Indices 1 2 3 4 5 6 
#
# 1 87.4992 37.1894 52.2007 0.3128 -23.8003 0.1153
# 2 37.1894 81.8144 27.7633 -0.7269 2.5574 -0.4066
# 3 52.2007 27.7633 160.6292 -0.6341 3.6934 -0.3832
# 4 0.3128 -0.7269 -0.6341 -39.5677 0.0893 -49.2165
# 5 -23.8003 2.5574 3.6934 0.0893 45.2352 0.0919
# 6 0.1153 -0.4066 -0.3832 -49.2165 0.0919 -8.4755
#
#
#
# Elastic Compliance Matrix: (Units=1/GPa)
#
#
# Indices 1 2 3 4 5 6 
#
# 1 0.021931 -0.008330 -0.005974 0.000148 0.012497 0.000243
# 2 -0.008330 0.016161 0.000035 -0.000129 -0.005299 -0.000198
# 3 -0.005974 0.000035 0.008248 -0.000069 -0.003818 -0.000096
# 4 0.000148 -0.000129 -0.000069 0.004063 0.000131 -0.023581
# 5 0.012497 -0.005299 -0.003818 0.000131 0.029293 0.000155
# 6 0.000243 -0.000198 -0.000096 -0.023581 0.000155 0.018964
#
#
# Mechanical properties :
#
#
# Convention : Reuss Voigt Hill
#
# Bulk Modulus (GPa) = 56.17210 62.69441 59.43325
# Shear Modulus (GPa) = 37.55670 13.62435 25.59053
#
# Velocity S-wave (km/s) = 4.35232 2.62141 3.59266
# Velocity P-wave (km/s) = 7.32043 6.38623 6.86923
#
# Compressibility (1/GPa) = 0.01780243
#
# Stress axis : x y z
#
# Youngs Moduli (GPa) = 45.59699 61.87728 121.24037
#
# Poissons Ratio (x) = 0.51544 0.72424
# Poissons Ratio (y) = 0.37983 -0.00420
# Poissons Ratio (z) = 0.27238 -0.00214
#
# Static dielectric constant tensor:
#      x y z
#    x 3.540030 -0.000380 -0.036440 
#    y -0.000380 3.497380 0.000030 
#    z -0.036440 0.000030 4.123960 
# 
# 
# High freq. dielectric constant tensor:
#      x y z
#    x 1.756870 0.000000 -0.005030 
#    y 0.000000 1.755490 0.000010 
#    z -0.005030 0.000010 1.804240 
# 
# From -- ./inp_files/53389.got.cif
#   From: 2010.03.12/outbox.cif.g09.slc.cpg/sg5_27_cif.got.tgz:53389.got - 2010.03.31 09:47:26.
