data_PCOD8051032
_publ_section_title
;
Structure prediction by ZEFSAII (Michael W. Deem and Ramdas Pophale) SiO2 
 PCOD8051032
Probable space group: C 2
;
_chemical_formula_sum "Si O2"
_cell_formula_units_Z 24
_cell_length_a 22.858934
_cell_length_b 11.954489
_cell_length_c 11.017771
_cell_angle_alpha 90.000000
_cell_angle_beta 158.563267
_cell_angle_gamma 90.000000
_cell_volume 1100.364997
_symmetry_space_group_name_H-M "C 2"
_symmetry_group_IT_number 5
_symmetry_cell_setting 'monoclinic'
loop_
_space_group_symop_operation_xyz
x,y,z
-x,y,-z
1/2+x,1/2+y,z
1/2-x,1/2+y,-z
loop_
_atom_site_type_symbol
_atom_site_label
_atom_site_fract_x
_atom_site_fract_y
_atom_site_fract_z
Si Si1 0.435367 0.157720 0.742764
Si Si2 0.027634 0.277794 0.419414
Si Si3 0.861388 0.465346 0.954370
Si Si4 0.183342 0.315008 0.340188
Si Si5 0.973845 0.022424 0.587323
Si Si6 0.658969 0.343970 0.095807
O O1 0.254576 0.201555 0.415127
O O2 0.500000 0.133849 0.000000
O O3 0.513007 0.259613 0.820596
O O4 0.480953 0.046693 0.752423
O O5 0.000000 0.324010 0.500000
O O6 0.213674 0.291945 0.749881
O O7 0.970170 0.150354 0.295855
O O8 0.917646 0.349895 0.119922
O O9 0.794480 0.428816 0.693971
O O10 0.715449 0.518874 0.747046
O O11 0.264447 0.353669 0.622591
O O12 0.000000 0.282067 0.000000
O O13 0.000000 0.977358 0.500000
O O14 0.086621 0.958220 0.901263
#
# Coordination Sequence:
#
# PCOD8051032 Si02
#       6
#     4   4   4   4   4   4
#     4  10  23  41  69  97 139 177 221 289 340 415
#     4  11  25  45  67  98 137 182 240 286 332 410
#     4  12  23  45  70  99 139 183 224 288 342 410
#     4  11  23  44  70 103 140 181 229 283 354 411
#     4  11  25  46  71  99 141 186 229 288 340 398
#     4  11  22  46  68 101 135 180 233 282 345 415
#
# _framework density 21.810946999999999
#
# number of rings (size 3 to 8) (size 9 to 14) (size 15 to 20)
#    0.000    1.000    5.000    1.500    0.000    1.333 
#    3.000    2.500    0.000    0.000    0.000    0.000 
#    0.000    0.000    0.000    0.000    0.000    0.000 
#
# Total GULP energy -148715.238509 kJ/mol
# GULP energy per Si atom -12392.936542 kJ/mol
# Density = 2.176130 g / cm^3
# Si number density = 21.810947 Si / 1000 Ang^3
#
#
#
# Elastic Constant Matrix: (Units=GPa)
#
#
# Indices 1 2 3 4 5 6 
#
# 1 143.3595 52.6860 53.2918 0.0000 17.4774 0.0000
# 2 52.6860 117.5841 45.4383 0.0000 -13.1071 0.0000
# 3 53.2918 45.4383 102.5525 0.0000 7.8570 0.0000
# 4 0.0000 0.0000 0.0000 43.7551 0.0000 3.7135
# 5 17.4774 -13.1071 7.8570 0.0000 31.0132 0.0000
# 6 0.0000 0.0000 0.0000 3.7135 0.0000 34.5424
#
#
#
# Elastic Compliance Matrix: (Units=1/GPa)
#
#
# Indices 1 2 3 4 5 6 
#
# 1 0.010549 -0.004341 -0.003021 0.000000 -0.007014 0.000000
# 2 -0.004341 0.013098 -0.004241 0.000000 0.009057 0.000000
# 3 -0.003021 -0.004241 0.013469 0.000000 -0.003502 0.000000
# 4 0.000000 0.000000 0.000000 0.023065 0.000000 -0.002480
# 5 -0.007014 0.009057 -0.003502 0.000000 0.040912 0.000000
# 6 0.000000 0.000000 0.000000 -0.002480 0.000000 0.029217
#
#
# Mechanical properties :
#
#
# Convention : Reuss Voigt Hill
#
# Bulk Modulus (GPa) = 71.89783 74.03647 72.96715
# Shear Modulus (GPa) = 31.61496 36.00079 33.80788
#
# Velocity S-wave (km/s) = 3.81136 4.06715 3.94133
# Velocity P-wave (km/s) = 7.23908 7.48825 7.36472
#
# Compressibility (1/GPa) = 0.01390863
#
# Stress axis : x y z
#
# Youngs Moduli (GPa) = 94.79541 76.34585 74.24684
#
# Poissons Ratio (x) = 0.33143 0.22430
# Poissons Ratio (y) = 0.41152 0.31492
# Poissons Ratio (z) = 0.28638 0.32382
#
# Static dielectric constant tensor:
#      x y z
#    x 4.240860 0.000000 0.278630 
#    y 0.000000 3.909490 0.000000 
#    z 0.278630 0.000000 3.830300 
# 
# 
# High freq. dielectric constant tensor:
#      x y z
#    x 1.875650 0.000000 0.019030 
#    y 0.000000 1.859090 0.000000 
#    z 0.019030 0.000000 1.844550 
# 
# From -- ./inp_files/47532.got.cif
#   From: 2010.03.12/outbox.cif.g09.slc.cpg/sg5_24_cif.got.tgz:47532.got - 2010.03.31 09:47:26.
