data_PCOD8051130
_publ_section_title
;
Structure prediction by ZEFSAII (Michael W. Deem and Ramdas Pophale) SiO2 
 PCOD8051130
Probable space group: C 2
;
_chemical_formula_sum "Si O2"
_cell_formula_units_Z 28
_cell_length_a 10.581695
_cell_length_b 9.797934
_cell_length_c 14.362569
_cell_angle_alpha 90.000000
_cell_angle_beta 121.720808
_cell_angle_gamma 90.000000
_cell_volume 1266.652775
_symmetry_space_group_name_H-M "C 2"
_symmetry_group_IT_number 5
_symmetry_cell_setting 'monoclinic'
loop_
_space_group_symop_operation_xyz
x,y,z
-x,y,-z
1/2+x,1/2+y,z
1/2-x,1/2+y,-z
loop_
_atom_site_type_symbol
_atom_site_label
_atom_site_fract_x
_atom_site_fract_y
_atom_site_fract_z
Si Si1 0.347539 0.126180 0.584953
Si Si2 0.607523 0.209308 0.796660
Si Si3 0.585113 0.500923 0.820009
Si Si4 0.406062 0.617907 0.378245
Si Si5 0.085109 0.258360 0.178247
Si Si6 0.103182 0.502202 0.960801
Si Si7 0.142284 0.320930 0.403662
O O1 0.519469 0.161815 0.670175
O O2 0.257535 0.150674 0.646785
O O3 0.281456 0.223603 0.480209
O O4 0.333466 0.970552 0.543468
O O5 0.527848 0.345422 0.806674
O O6 0.777930 0.246056 0.839440
O O7 0.596167 0.087672 0.864565
O O8 0.610143 0.525113 0.719317
O O9 0.467795 0.605834 0.817422
O O10 0.732278 0.508828 0.937365
O O11 0.500000 0.546618 0.500000
O O12 0.489204 0.758663 0.383935
O O13 0.137224 0.337202 0.290685
O O14 0.953012 0.347078 0.080911
O O15 0.000000 0.569716 0.000000
#
# Coordination Sequence:
#
# PCOD8051130 Si02
#       7
#     4   4   4   4   4   4   4
#     4  11  23  42  70 102 139 183 235 279 349 406
#     4  12  26  45  69 104 135 182 232 285 346 415
#     4  11  24  42  73 101 131 189 225 279 351 402
#     4   9  21  43  70  94 143 179 222 284 341 397
#     4  11  25  49  67 101 147 175 230 294 338 408
#     4  12  24  48  71  95 141 177 231 286 344 405
#     4  10  23  44  68 101 141 184 226 292 340 409
#
# _framework density 22.105505999999998
#
# number of rings (size 3 to 8) (size 9 to 14) (size 15 to 20)
#    0.000    1.143    2.857    2.571    6.000    1.714 
#   10.286    0.000    0.000    0.000    0.000    0.000 
#    0.000    0.000    0.000    0.000    0.000    0.000 
#
# Total GULP energy -173594.135907 kJ/mol
# GULP energy per Si atom -12399.581136 kJ/mol
# Density = 2.205519 g / cm^3
# Si number density = 22.105506 Si / 1000 Ang^3
#
#
#
# Elastic Constant Matrix: (Units=GPa)
#
#
# Indices 1 2 3 4 5 6 
#
# 1 63.7633 25.4370 14.4860 0.0000 -2.3355 0.0000
# 2 25.4370 144.9052 34.8012 0.0000 12.0078 0.0000
# 3 14.4860 34.8012 111.0320 0.0000 14.5990 0.0000
# 4 0.0000 0.0000 0.0000 11.8034 0.0000 -16.3739
# 5 -2.3355 12.0078 14.5990 0.0000 31.1507 0.0000
# 6 0.0000 0.0000 0.0000 -16.3739 0.0000 13.1984
#
#
#
# Elastic Compliance Matrix: (Units=1/GPa)
#
#
# Indices 1 2 3 4 5 6 
#
# 1 0.017360 -0.002888 -0.001787 0.000000 0.003252 0.000000
# 2 -0.002888 0.008050 -0.001822 0.000000 -0.002466 0.000000
# 3 -0.001787 -0.001822 0.010375 0.000000 -0.004294 0.000000
# 4 0.000000 0.000000 0.000000 -0.117508 0.000000 -0.145780
# 5 0.003252 -0.002466 -0.004294 0.000000 0.035309 0.000000
# 6 0.000000 0.000000 0.000000 -0.145780 0.000000 -0.105088
#
#
# Mechanical properties :
#
#
# Convention : Reuss Voigt Hill
#
# Bulk Modulus (GPa) = 43.87739 52.12768 48.00253
# Shear Modulus (GPa) = -38.19432 27.56224 -5.31604
#
# Velocity S-wave (km/s) = -4.16121 3.53491 -1.55244
# Velocity P-wave (km/s) = 1.78758 6.34770 4.30684
#
# Compressibility (1/GPa) = 0.02279078
#
# Stress axis : x y z
#
# Youngs Moduli (GPa) = 57.60306 124.22499 96.38212
#
# Poissons Ratio (x) = 0.35872 0.17228
# Poissons Ratio (y) = 0.16634 0.17563
# Poissons Ratio (z) = 0.10296 0.22636
#
# Static dielectric constant tensor:
#      x y z
#    x 3.926650 0.000000 -0.004290 
#    y 0.000000 4.037270 0.000000 
#    z -0.004290 0.000000 4.269170 
# 
# 
# High freq. dielectric constant tensor:
#      x y z
#    x 1.855810 0.000000 0.007610 
#    y 0.000000 1.871640 0.000000 
#    z 0.007610 0.000000 1.886370 
# 
# From -- ./inp_files/52313.got.cif
#   From: 2010.03.12/outbox.cif.g09.slc.cpg/sg5_27_cif.got.tgz:52313.got - 2010.03.31 09:47:26.
