data_PCOD8051372
_publ_section_title
;
Structure prediction by ZEFSAII (Michael W. Deem and Ramdas Pophale) SiO2 
 PCOD8051372
Probable space group: C 2
;
_chemical_formula_sum "Si O2"
_cell_formula_units_Z 28
_cell_length_a 13.860998
_cell_length_b 5.353562
_cell_length_c 17.917662
_cell_angle_alpha 90.000000
_cell_angle_beta 120.359268
_cell_angle_gamma 90.000000
_cell_volume 1147.270046
_symmetry_space_group_name_H-M "C 2"
_symmetry_group_IT_number 5
_symmetry_cell_setting 'monoclinic'
loop_
_space_group_symop_operation_xyz
x,y,z
-x,y,-z
1/2+x,1/2+y,z
1/2-x,1/2+y,-z
loop_
_atom_site_type_symbol
_atom_site_label
_atom_site_fract_x
_atom_site_fract_y
_atom_site_fract_z
Si Si1 0.068558 0.722950 0.286558
Si Si2 0.500000 0.756095 0.000000
Si Si3 0.749100 0.854291 0.752281
Si Si4 0.500000 0.118280 0.500000
Si Si5 0.820266 0.461459 0.540539
Si Si6 0.421565 0.040242 0.096585
Si Si7 0.188046 0.888632 0.061750
Si Si8 0.113487 0.855594 0.676618
O O1 0.155882 0.889859 0.273832
O O2 0.133241 0.504796 0.357294
O O3 0.976915 0.612894 0.195271
O O4 0.999088 0.891602 0.317872
O O5 0.376050 0.644706 0.951625
O O6 0.488690 0.887042 0.915507
O O7 0.801949 0.768052 0.852047
O O8 0.672703 0.622342 0.697982
O O9 0.684860 0.118307 0.735792
O O10 0.424519 0.944047 0.523975
O O11 0.580940 0.296513 0.579166
O O12 0.755927 0.199450 0.512480
O O13 0.308916 0.894131 0.071929
O O14 0.394328 0.258328 0.028196
#
# Coordination Sequence:
#
# PCOD8051372 Si02
#       8
#     4   2   4   2   4   4   4   4
#     4  11  26  45  75 106 145 194 246 300 365 437
#     4  12  26  48  76  98 144 194 240 296 370 414
#     4  12  27  46  73 105 146 190 244 297 362 434
#     4  10  24  46  74 104 148 186 242 304 372 426
#     4  11  25  48  74 108 146 190 242 304 368 436
#     4  12  26  48  71 107 143 192 245 299 358 433
#     4  12  27  46  74 103 146 192 241 303 355 435
#     4  11  27  46  72 109 142 192 243 304 362 437
#
# _framework density 24.405761999999999
#
# number of rings (size 3 to 8) (size 9 to 14) (size 15 to 20)
#    0.000    0.571    2.857    3.857    6.000    8.000 
#    2.571    0.000    0.000    0.000    0.000    0.000 
#    0.000    0.000    0.000    0.000    0.000    0.000 
#
# Total GULP energy -173507.467639 kJ/mol
# GULP energy per Si atom -12393.390546 kJ/mol
# Density = 2.435021 g / cm^3
# Si number density = 24.405762 Si / 1000 Ang^3
#
#
#
# Elastic Constant Matrix: (Units=GPa)
#
#
# Indices 1 2 3 4 5 6 
#
# 1 137.3024 21.6445 10.5205 0.0000 -19.1295 0.0000
# 2 21.6445 60.0151 -5.6087 0.0000 3.2809 0.0000
# 3 10.5205 -5.6087 149.6971 0.0000 -1.0773 0.0000
# 4 0.0000 0.0000 0.0000 29.6516 0.0000 -16.4358
# 5 -19.1295 3.2809 -1.0773 0.0000 42.3368 0.0000
# 6 0.0000 0.0000 0.0000 -16.4358 0.0000 32.4113
#
#
#
# Elastic Compliance Matrix: (Units=1/GPa)
#
#
# Indices 1 2 3 4 5 6 
#
# 1 0.008423 -0.003323 -0.000687 0.000000 0.004046 0.000000
# 2 -0.003323 0.018102 0.000891 0.000000 -0.002882 0.000000
# 3 -0.000687 0.000891 0.006760 0.000000 -0.000208 0.000000
# 4 0.000000 0.000000 0.000000 0.046911 0.000000 0.023789
# 5 0.004046 -0.002882 -0.000208 0.000000 0.025666 0.000000
# 6 0.000000 0.000000 0.000000 0.023789 0.000000 0.042917
#
#
# Mechanical properties :
#
#
# Convention : Reuss Voigt Hill
#
# Bulk Modulus (GPa) = 36.97368 44.45859 40.71613
# Shear Modulus (GPa) = 30.48137 42.24384 36.36260
#
# Velocity S-wave (km/s) = 3.53787 4.16492 3.86413
# Velocity P-wave (km/s) = 5.64545 6.43309 6.05210
#
# Compressibility (1/GPa) = 0.02704627
#
# Stress axis : x y z
#
# Youngs Moduli (GPa) = 118.71565 55.24290 147.92124
#
# Poissons Ratio (x) = 0.18359 0.10168
# Poissons Ratio (y) = 0.39454 -0.13180
# Poissons Ratio (z) = 0.08160 -0.04922
#
# Static dielectric constant tensor:
#      x y z
#    x 4.516010 0.000000 0.184500 
#    y 0.000000 4.011860 0.000000 
#    z 0.184500 0.000000 4.591500 
# 
# 
# High freq. dielectric constant tensor:
#      x y z
#    x 2.001060 0.000000 -0.007320 
#    y 0.000000 1.939890 0.000000 
#    z -0.007320 0.000000 1.992960 
# 
# From -- ./inp_files/61094.got.cif
#   From: 2010.03.12/outbox.cif.g09.slc.cpg/sg5_31_cif.got.tgz:61094.got - 2010.03.31 09:47:26.
