data_PCOD8051427
_publ_section_title
;
Structure prediction by ZEFSAII (Michael W. Deem and Ramdas Pophale) SiO2 
 PCOD8051427
Probable space group: C 2
;
_chemical_formula_sum "Si O2"
_cell_formula_units_Z 18
_cell_length_a 7.859394
_cell_length_b 21.589581
_cell_length_c 6.413707
_cell_angle_alpha 90.000000
_cell_angle_beta 138.136848
_cell_angle_gamma 90.000000
_cell_volume 726.270639
_symmetry_space_group_name_H-M "C 2"
_symmetry_group_IT_number 5
_symmetry_cell_setting 'monoclinic'
loop_
_space_group_symop_operation_xyz
x,y,z
-x,y,-z
1/2+x,1/2+y,z
1/2-x,1/2+y,-z
loop_
_atom_site_type_symbol
_atom_site_label
_atom_site_fract_x
_atom_site_fract_y
_atom_site_fract_z
Si Si1 0.802511 0.870290 0.559500
Si Si2 0.301047 0.922600 0.091059
Si Si3 0.500000 0.035633 0.500000
Si Si4 0.756155 0.613377 0.628439
Si Si5 0.744137 0.731236 0.373377
O O1 0.567244 0.903220 0.224121
O O2 0.750941 0.878615 0.757413
O O3 0.816223 0.798196 0.525319
O O4 0.063552 0.905789 0.723717
O O5 0.319723 0.993674 0.184931
O O6 0.309347 0.076350 0.464087
O O7 0.500000 0.585301 0.500000
O O8 0.689397 0.684613 0.513169
O O9 0.000000 0.607978 0.000000
O O10 0.000000 0.704642 0.500000
O O11 0.500000 0.733537 0.000000
#
# Coordination Sequence:
#
# PCOD8051427 Si02
#       5
#     4   4   2   4   4
#     4   9  19  36  63  98 124 181 243 272 370 430
#     4   9  20  39  68  97 136 199 222 306 368 430
#     4  10  24  52  74 108 158 192 264 296 380 444
#     4  12  29  46  75 114 149 205 254 310 373 445
#     4  12  25  44  69 107 156 193 243 313 375 449
#
# _framework density 24.784151000000001
#
# number of rings (size 3 to 8) (size 9 to 14) (size 15 to 20)
#    0.000    1.778    1.111    2.667    6.222    7.111 
#    0.000   13.333    0.000    0.000    0.000    0.000 
#    0.000    0.000    0.000    0.000    0.000    0.000 
#
# Total GULP energy -111559.047966 kJ/mol
# GULP energy per Si atom -12395.449774 kJ/mol
# Density = 2.472774 g / cm^3
# Si number density = 24.784151 Si / 1000 Ang^3
#
#
#
# Elastic Constant Matrix: (Units=GPa)
#
#
# Indices 1 2 3 4 5 6 
#
# 1 104.3286 48.6533 63.4493 0.0000 37.7114 0.0000
# 2 48.6533 145.6564 53.4539 0.0000 8.0553 0.0000
# 3 63.4493 53.4539 199.6067 0.0000 43.4874 0.0000
# 4 0.0000 0.0000 0.0000 17.5025 0.0000 4.2972
# 5 37.7114 8.0553 43.4874 0.0000 54.9697 0.0000
# 6 0.0000 0.0000 0.0000 4.2972 0.0000 32.4345
#
#
#
# Elastic Compliance Matrix: (Units=1/GPa)
#
#
# Indices 1 2 3 4 5 6 
#
# 1 0.015865 -0.004061 -0.002071 0.000000 -0.008651 0.000000
# 2 -0.004061 0.008670 -0.001644 0.000000 0.002817 0.000000
# 3 -0.002071 -0.001644 0.006943 0.000000 -0.003831 0.000000
# 4 0.000000 0.000000 0.000000 0.059056 0.000000 -0.007824
# 5 -0.008651 0.002817 -0.003831 0.000000 0.026745 0.000000
# 6 0.000000 0.000000 0.000000 -0.007824 0.000000 0.031868
#
#
# Mechanical properties :
#
#
# Convention : Reuss Voigt Hill
#
# Bulk Modulus (GPa) = 62.79241 86.74498 74.76870
# Shear Modulus (GPa) = 29.41037 39.91702 34.66369
#
# Velocity S-wave (km/s) = 3.44853 4.01757 3.74387
# Velocity P-wave (km/s) = 6.42240 7.52312 6.99444
#
# Compressibility (1/GPa) = 0.01592549
#
# Stress axis : x y z
#
# Youngs Moduli (GPa) = 63.03003 115.34408 144.02604
#
# Poissons Ratio (x) = 0.46842 0.29826
# Poissons Ratio (y) = 0.25597 0.23684
# Poissons Ratio (z) = 0.13053 0.18968
#
# Static dielectric constant tensor:
#      x y z
#    x 5.127880 0.000000 1.898460 
#    y 0.000000 4.288050 0.000000 
#    z 1.898460 0.000000 8.701440 
# 
# 
# High freq. dielectric constant tensor:
#      x y z
#    x 2.003470 0.000000 0.011250 
#    y 0.000000 1.976730 0.000000 
#    z 0.011250 0.000000 2.008410 
# 
# From -- ./inp_files/16964.got.cif
#   From: 2010.03.12/outbox.cif.g09.slc.cpg/sg5_9_cif.got.tgz:16964.got - 2010.03.31 09:47:26.
