data_PCOD8051555
_publ_section_title
;
Structure prediction by ZEFSAII (Michael W. Deem and Ramdas Pophale) SiO2 
 PCOD8051555
Probable space group: C 2
;
_chemical_formula_sum "Si O2"
_cell_formula_units_Z 20
_cell_length_a 8.260797
_cell_length_b 11.034145
_cell_length_c 11.055454
_cell_angle_alpha 90.000000
_cell_angle_beta 117.530816
_cell_angle_gamma 90.000000
_cell_volume 893.602691
_symmetry_space_group_name_H-M "C 2"
_symmetry_group_IT_number 5
_symmetry_cell_setting 'monoclinic'
loop_
_space_group_symop_operation_xyz
x,y,z
-x,y,-z
1/2+x,1/2+y,z
1/2-x,1/2+y,-z
loop_
_atom_site_type_symbol
_atom_site_label
_atom_site_fract_x
_atom_site_fract_y
_atom_site_fract_z
Si Si1 0.500000 0.926440 0.000000
Si Si2 0.000000 0.721740 0.500000
Si Si3 0.820777 0.073336 0.733952
Si Si4 0.622320 0.309220 0.295765
Si Si5 0.755356 0.727739 0.061467
Si Si6 0.234066 0.104749 0.811011
O O1 0.622751 0.832611 0.965398
O O2 0.626228 0.990640 0.147275
O O3 0.838238 0.638210 0.394544
O O4 0.906575 0.806792 0.569240
O O5 0.831239 0.133626 0.870368
O O6 0.019287 0.078262 0.739030
O O7 0.775023 0.929737 0.716607
O O8 0.424665 0.301947 0.169402
O O9 0.737615 0.192408 0.293120
O O10 0.812384 0.652279 0.965431
#
# Coordination Sequence:
#
# PCOD8051555 Si02
#       6
#     2   2   4   4   4   4
#     4  12  22  38  64 102 144 156 200 260 322 404
#     4  10  28  48  60  94 124 178 226 272 316 358
#     4  11  25  44  67  92 132 171 218 269 317 379
#     4  11  25  44  68  93 130 170 223 265 318 382
#     4  11  23  40  64 103 135 166 201 262 333 389
#     4  12  24  38  69 103 127 171 209 256 333 389
#
# _framework density 22.381311
#
# number of rings (size 3 to 8) (size 9 to 14) (size 15 to 20)
#    0.000    0.800    6.000    0.000    2.800    5.600 
#    0.000    0.000    0.000    0.000    0.000    0.000 
#    0.000    0.000    0.000    0.000    0.000    0.000 
#
# Total GULP energy -123912.646392 kJ/mol
# GULP energy per Si atom -12391.264639 kJ/mol
# Density = 2.233037 g / cm^3
# Si number density = 22.381311 Si / 1000 Ang^3
#
#
#
# Elastic Constant Matrix: (Units=GPa)
#
#
# Indices 1 2 3 4 5 6 
#
# 1 86.6994 25.3143 29.1841 0.0000 5.8664 0.0000
# 2 25.3143 121.5022 32.7171 0.0000 -2.6268 0.0000
# 3 29.1841 32.7171 87.6471 0.0000 -7.8702 0.0000
# 4 0.0000 0.0000 0.0000 21.1022 0.0000 6.9473
# 5 5.8664 -2.6268 -7.8702 0.0000 39.5135 0.0000
# 6 0.0000 0.0000 0.0000 6.9473 0.0000 20.2926
#
#
#
# Elastic Compliance Matrix: (Units=1/GPa)
#
#
# Indices 1 2 3 4 5 6 
#
# 1 0.013654 -0.001793 -0.004144 0.000000 -0.002972 0.000000
# 2 -0.001793 0.009386 -0.002878 0.000000 0.000317 0.000000
# 3 -0.004144 -0.002878 0.014155 0.000000 0.003243 0.000000
# 4 0.000000 0.000000 0.000000 0.053408 0.000000 -0.018285
# 5 -0.002972 0.000317 0.003243 0.000000 0.026416 0.000000
# 6 0.000000 0.000000 0.000000 -0.018285 0.000000 0.055539
#
#
# Mechanical properties :
#
#
# Convention : Reuss Voigt Hill
#
# Bulk Modulus (GPa) = 51.11373 52.25329 51.68351
# Shear Modulus (GPa) = 25.41838 30.09055 27.75447
#
# Velocity S-wave (km/s) = 3.37367 3.67065 3.52529
# Velocity P-wave (km/s) = 6.16950 6.43136 6.30179
#
# Compressibility (1/GPa) = 0.01956421
#
# Stress axis : x y z
#
# Youngs Moduli (GPa) = 73.24098 106.54511 70.64800
#
# Poissons Ratio (x) = 0.19104 0.29275
# Poissons Ratio (y) = 0.13133 0.20333
# Poissons Ratio (z) = 0.30349 0.30664
#
# Static dielectric constant tensor:
#      x y z
#    x 4.204330 0.000000 0.065500 
#    y 0.000000 4.172400 0.000000 
#    z 0.065500 0.000000 3.801890 
# 
# 
# High freq. dielectric constant tensor:
#      x y z
#    x 1.893860 0.000000 0.016870 
#    y 0.000000 1.892570 0.000000 
#    z 0.016870 0.000000 1.857930 
# 
# From -- ./inp_files/34962.got.cif
#   From: 2010.03.12/outbox.cif.g09.slc.cpg/sg5_18_cif.got.tgz:34962.got - 2010.03.31 09:47:26.
