data_PCOD8051153
_publ_section_title
;
Structure prediction by ZEFSAII (Michael W. Deem and Ramdas Pophale) SiO2 
 PCOD8051153
Probable space group: C 2
;
_chemical_formula_sum "Si O2"
_cell_formula_units_Z 20
_cell_length_a 17.870023
_cell_length_b 8.984929
_cell_length_c 10.864622
_cell_angle_alpha 90.000000
_cell_angle_beta 149.004776
_cell_angle_gamma 90.000000
_cell_volume 898.324953
_symmetry_space_group_name_H-M "C 2"
_symmetry_group_IT_number 5
_symmetry_cell_setting 'monoclinic'
loop_
_space_group_symop_operation_xyz
x,y,z
-x,y,-z
1/2+x,1/2+y,z
1/2-x,1/2+y,-z
loop_
_atom_site_type_symbol
_atom_site_label
_atom_site_fract_x
_atom_site_fract_y
_atom_site_fract_z
Si Si1 0.618983 0.075080 0.564733
Si Si2 0.545568 0.569784 0.928437
Si Si3 0.917339 0.902472 0.513246
Si Si4 0.328771 0.063283 0.746385
Si Si5 0.147148 0.332721 0.418695
O O1 0.500000 0.078169 0.500000
O O2 0.605360 0.232258 0.473866
O O3 0.576709 0.929372 0.428009
O O4 0.782230 0.069509 0.844553
O O5 0.496030 0.478516 0.739453
O O6 0.478063 0.736294 0.823855
O O7 0.500000 0.505995 0.000000
O O8 0.000000 0.915012 0.500000
O O9 0.763068 0.989347 0.270995
O O10 0.278557 0.231479 0.653648
O O11 0.279712 0.956795 0.564868
O O12 0.500000 0.057743 0.000000
#
# Coordination Sequence:
#
# PCOD8051153 Si02
#       5
#     4   4   4   4   4
#     4  11  25  43  66  99 136 176 222 273 331 395
#     4  11  24  44  69  97 135 176 220 276 330 393
#     4  10  23  45  69  99 138 175 217 273 336 397
#     4  11  23  40  66  93 124 169 219 267 322 386
#     4  11  24  40  64  98 131 170 221 273 325 389
#
# _framework density 22.263659000000001
#
# number of rings (size 3 to 8) (size 9 to 14) (size 15 to 20)
#    0.000    1.200    0.000    6.600    0.000   13.600 
#    0.000    1.000    0.000    0.000    0.000    0.000 
#    0.000    0.000    0.000    0.000    0.000    0.000 
#
# Total GULP energy -123912.960911 kJ/mol
# GULP energy per Si atom -12391.296091 kJ/mol
# Density = 2.221299 g / cm^3
# Si number density = 22.263659 Si / 1000 Ang^3
#
#
#
# Elastic Constant Matrix: (Units=GPa)
#
#
# Indices 1 2 3 4 5 6 
#
# 1 100.1698 63.6888 80.0202 0.0000 8.6818 0.0000
# 2 63.6888 155.1786 35.5934 0.0000 -4.6224 0.0000
# 3 80.0202 35.5934 109.4300 0.0000 20.3196 0.0000
# 4 0.0000 0.0000 0.0000 16.2726 0.0000 6.5713
# 5 8.6818 -4.6224 20.3196 0.0000 44.0772 0.0000
# 6 0.0000 0.0000 0.0000 6.5713 0.0000 50.9915
#
#
#
# Elastic Compliance Matrix: (Units=1/GPa)
#
#
# Indices 1 2 3 4 5 6 
#
# 1 0.031732 -0.008119 -0.021046 0.000000 0.002601 0.000000
# 2 -0.008119 0.009196 0.002701 0.000000 0.001318 0.000000
# 3 -0.021046 0.002701 0.024965 0.000000 -0.007080 0.000000
# 4 0.000000 0.000000 0.000000 0.064827 0.000000 -0.008354
# 5 0.002601 0.001318 -0.007080 0.000000 0.025577 0.000000
# 6 0.000000 0.000000 0.000000 -0.008354 0.000000 0.020688
#
#
# Mechanical properties :
#
#
# Convention : Reuss Voigt Hill
#
# Bulk Modulus (GPa) = 77.13418 80.37590 78.75504
# Shear Modulus (GPa) = 21.34608 34.63333 27.98971
#
# Velocity S-wave (km/s) = 3.09979 3.94839 3.54954
# Velocity P-wave (km/s) = 6.89439 7.54762 7.22839
#
# Compressibility (1/GPa) = 0.01296442
#
# Stress axis : x y z
#
# Youngs Moduli (GPa) = 31.51344 108.74169 40.05687
#
# Poissons Ratio (x) = 0.88286 0.84305
# Poissons Ratio (y) = 0.25585 -0.10819
# Poissons Ratio (z) = 0.66324 -0.29370
#
# Static dielectric constant tensor:
#      x y z
#    x 4.124260 0.000000 0.287080 
#    y 0.000000 4.671040 0.000000 
#    z 0.287080 0.000000 3.759920 
# 
# 
# High freq. dielectric constant tensor:
#      x y z
#    x 1.878180 0.000000 0.019140 
#    y 0.000000 1.899250 0.000000 
#    z 0.019140 0.000000 1.875700 
# 
# From -- ./inp_files/38222.got.cif
#   From: 2010.03.12/outbox.cif.g09.slc.cpg/sg5_20_cif.got.tgz:38222.got - 2010.03.31 09:47:26.
