data_PCOD8051220
_publ_section_title
;
Structure prediction by ZEFSAII (Michael W. Deem and Ramdas Pophale) SiO2 
 PCOD8051220
Probable space group: C 2
;
_chemical_formula_sum "Si O2"
_cell_formula_units_Z 22
_cell_length_a 8.878146
_cell_length_b 15.096463
_cell_length_c 7.829959
_cell_angle_alpha 90.000000
_cell_angle_beta 96.566783
_cell_angle_gamma 90.000000
_cell_volume 1042.553342
_symmetry_space_group_name_H-M "C 2"
_symmetry_group_IT_number 5
_symmetry_cell_setting 'monoclinic'
loop_
_space_group_symop_operation_xyz
x,y,z
-x,y,-z
1/2+x,1/2+y,z
1/2-x,1/2+y,-z
loop_
_atom_site_type_symbol
_atom_site_label
_atom_site_fract_x
_atom_site_fract_y
_atom_site_fract_z
Si Si1 0.500000 0.851600 0.500000
Si Si2 0.451501 0.720862 0.749780
Si Si3 0.598588 0.020602 0.666117
Si Si4 0.946151 0.026044 0.676128
Si Si5 0.247179 0.750835 0.033134
Si Si6 0.500000 0.399685 0.000000
Si Si7 0.000000 0.609640 0.000000
O O1 0.390447 0.783442 0.588502
O O2 0.590657 0.913662 0.645398
O O3 0.514634 0.623693 0.710585
O O4 0.311309 0.718530 0.859704
O O5 0.606901 0.768249 0.831425
O O6 0.500000 0.065735 0.500000
O O7 0.769532 0.047506 0.657873
O O8 0.541301 0.047616 0.845717
O O9 0.000000 0.987046 0.500000
O O10 0.000004 0.960362 0.831526
O O11 0.152164 0.841625 0.010142
O O12 0.138569 0.671267 0.080678
#
# Coordination Sequence:
#
# PCOD8051220 Si02
#       7
#     2   4   4   4   4   2   2
#     4  10  24  40  66 100 132 180 222 284 332 404
#     4  11  22  45  68  96 141 178 230 277 344 410
#     4  10  26  43  68 105 136 183 234 273 347 400
#     4  12  26  44  72 102 137 184 230 286 342 406
#     4  10  24  43  68 100 133 184 227 279 346 401
#     4  11  26  46  69 102 138 176 235 286 340 405
#     4  11  22  46  71  98 138 180 229 288 338 409
#
# _framework density 21.102038
#
# number of rings (size 3 to 8) (size 9 to 14) (size 15 to 20)
#    0.545    0.727    2.727    2.182    5.091    2.909 
#    0.000    1.818    0.000    0.000    0.000    0.000 
#    0.000    0.000    0.000    0.000    0.000    0.000 
#
# Total GULP energy -136299.750746 kJ/mol
# GULP energy per Si atom -12390.886431 kJ/mol
# Density = 2.105401 g / cm^3
# Si number density = 21.102038 Si / 1000 Ang^3
#
#
#
# Elastic Constant Matrix: (Units=GPa)
#
#
# Indices 1 2 3 4 5 6 
#
# 1 116.2385 33.3385 47.8683 0.0000 -8.5140 0.0000
# 2 33.3385 131.5264 62.9061 0.0000 -5.2173 0.0000
# 3 47.8683 62.9061 143.7573 0.0000 -26.0956 0.0000
# 4 0.0000 0.0000 0.0000 34.6595 0.0000 -5.3845
# 5 -8.5140 -5.2173 -26.0956 0.0000 33.0769 0.0000
# 6 0.0000 0.0000 0.0000 -5.3845 0.0000 18.3340
#
#
#
# Elastic Compliance Matrix: (Units=1/GPa)
#
#
# Indices 1 2 3 4 5 6 
#
# 1 0.010120 -0.001218 -0.002800 0.000000 0.000204 0.000000
# 2 -0.001218 0.009889 -0.004313 0.000000 -0.002157 0.000000
# 3 -0.002800 -0.004313 0.011113 0.000000 0.007367 0.000000
# 4 0.000000 0.000000 0.000000 0.030231 0.000000 0.008879
# 5 0.000204 -0.002157 0.007367 0.000000 0.035757 0.000000
# 6 0.000000 0.000000 0.000000 0.008879 0.000000 0.057151
#
#
# Mechanical properties :
#
#
# Convention : Reuss Voigt Hill
#
# Bulk Modulus (GPa) = 69.15488 75.52756 72.34122
# Shear Modulus (GPa) = 28.45051 33.70804 31.07928
#
# Velocity S-wave (km/s) = 3.67582 4.00106 3.84188
# Velocity P-wave (km/s) = 7.13150 7.56399 7.35093
#
# Compressibility (1/GPa) = 0.01446030
#
# Stress axis : x y z
#
# Youngs Moduli (GPa) = 98.81141 101.12089 89.98405
#
# Poissons Ratio (x) = 0.12317 0.25194
# Poissons Ratio (y) = 0.12036 0.38812
# Poissons Ratio (z) = 0.27666 0.43616
#
# Static dielectric constant tensor:
#      x y z
#    x 3.717070 0.000000 -0.094690 
#    y 0.000000 3.797280 0.000000 
#    z -0.094690 0.000000 3.863370 
# 
# 
# High freq. dielectric constant tensor:
#      x y z
#    x 1.821610 0.000000 -0.007020 
#    y 0.000000 1.837300 0.000000 
#    z -0.007020 0.000000 1.831000 
# 
# From -- ./inp_files/14793.got.cif
#   From: 2010.03.12/outbox.cif.g09.slc.cpg/sg5_8_cif.got.tgz:14793.got - 2010.03.31 09:47:26.
