data_PCOD8051351
_publ_section_title
;
Structure prediction by ZEFSAII (Michael W. Deem and Ramdas Pophale) SiO2 
 PCOD8051351
Probable space group: C 2
;
_chemical_formula_sum "Si O2"
_cell_formula_units_Z 24
_cell_length_a 14.431411
_cell_length_b 10.888363
_cell_length_c 14.215235
_cell_angle_alpha 90.000000
_cell_angle_beta 152.308967
_cell_angle_gamma 90.000000
_cell_volume 1038.009547
_symmetry_space_group_name_H-M "C 2"
_symmetry_group_IT_number 5
_symmetry_cell_setting 'monoclinic'
loop_
_space_group_symop_operation_xyz
x,y,z
-x,y,-z
1/2+x,1/2+y,z
1/2-x,1/2+y,-z
loop_
_atom_site_type_symbol
_atom_site_label
_atom_site_fract_x
_atom_site_fract_y
_atom_site_fract_z
Si Si1 0.500000 0.453871 0.000000
Si Si2 0.430059 0.020594 0.342110
Si Si3 0.653028 0.265378 0.494190
Si Si4 0.427580 0.847492 0.171758
Si Si5 0.852781 0.512348 0.937802
Si Si6 0.473371 0.258820 0.128033
Si Si7 0.500000 0.462701 0.500000
O O1 0.688010 0.536344 0.133654
O O2 0.562037 0.365651 0.142095
O O3 0.500000 0.951230 0.500000
O O4 0.547759 0.149147 0.447045
O O5 0.501813 0.946377 0.315432
O O6 0.582466 0.274248 0.324081
O O7 0.607975 0.382290 0.517595
O O8 0.894504 0.260974 0.706026
O O9 0.265908 0.761575 0.075078
O O10 0.307742 0.920420 0.982615
O O11 0.653196 0.546219 0.698597
O O12 0.991842 0.626143 0.096544
O O13 0.000000 0.438766 0.000000
#
# Coordination Sequence:
#
# PCOD8051351 Si02
#       7
#     2   4   4   4   4   4   2
#     4  10  24  46  68  94 142 184 232 296 342 424
#     4  11  24  44  67 100 136 186 237 286 353 424
#     4  12  24  42  69 102 139 184 230 285 359 423
#     4  11  25  43  69 102 143 182 233 296 351 425
#     4  12  24  45  71 102 141 184 236 291 355 419
#     4  11  24  45  70 102 137 184 234 290 357 417
#     4  12  26  44  70 106 144 184 236 292 354 424
#
# _framework density 23.121174
#
# number of rings (size 3 to 8) (size 9 to 14) (size 15 to 20)
#    0.000    0.667    6.667    1.000    0.000    4.000 
#    7.500    0.000    0.000    0.000    0.000    0.000 
#    0.000    0.000    0.000    0.000    0.000    0.000 
#
# Total GULP energy -148707.507122 kJ/mol
# GULP energy per Si atom -12392.292260 kJ/mol
# Density = 2.306855 g / cm^3
# Si number density = 23.121174 Si / 1000 Ang^3
#
#
#
# Elastic Constant Matrix: (Units=GPa)
#
#
# Indices 1 2 3 4 5 6 
#
# 1 115.8904 19.3444 42.9761 0.0043 -7.4868 -0.0023
# 2 19.3444 56.5433 23.8571 0.0028 3.5365 -0.0025
# 3 42.9761 23.8571 114.4899 0.0034 -16.6485 -0.0025
# 4 0.0043 0.0028 0.0034 30.6315 0.0012 4.1428
# 5 -7.4868 3.5365 -16.6485 0.0012 63.1766 -0.0006
# 6 -0.0023 -0.0025 -0.0025 4.1428 -0.0006 14.0099
#
#
#
# Elastic Compliance Matrix: (Units=1/GPa)
#
#
# Indices 1 2 3 4 5 6 
#
# 1 0.010251 -0.002127 -0.003339 -0.000001 0.000454 0.000001
# 2 -0.002127 0.020140 -0.003742 -0.000001 -0.002366 0.000003
# 3 -0.003339 -0.003742 0.011168 -0.000001 0.002757 0.000001
# 4 -0.000001 -0.000001 -0.000001 0.034006 -0.000001 -0.010056
# 5 0.000454 -0.002366 0.002757 -0.000001 0.016741 0.000001
# 6 0.000001 0.000003 0.000001 -0.010056 0.000001 0.074352
#
#
# Mechanical properties :
#
#
# Convention : Reuss Voigt Hill
#
# Bulk Modulus (GPa) = 43.20808 51.03096 47.11952
# Shear Modulus (GPa) = 25.93497 34.94668 30.44082
#
# Velocity S-wave (km/s) = 3.35281 3.89196 3.63240
# Velocity P-wave (km/s) = 5.80661 6.50504 6.16572
#
# Compressibility (1/GPa) = 0.02314382
#
# Stress axis : x y z
#
# Youngs Moduli (GPa) = 97.54833 49.65201 89.53807
#
# Poissons Ratio (x) = 0.10560 0.29895
# Poissons Ratio (y) = 0.20747 0.33509
# Poissons Ratio (z) = 0.32570 0.18582
#
# Static dielectric constant tensor:
#      x y z
#    x 4.576060 -0.000020 -0.122650 
#    y -0.000020 3.683290 0.000000 
#    z -0.122650 0.000000 4.175020 
# 
# 
# High freq. dielectric constant tensor:
#      x y z
#    x 1.948390 0.000000 -0.010330 
#    y 0.000000 1.877080 0.000000 
#    z -0.010330 0.000000 1.917550 
# 
# From -- ./inp_files/54518.got.cif
#   From: 2010.03.12/outbox.cif.g09.slc.cpg/sg5_28_cif.got.tgz:54518.got - 2010.03.31 09:47:26.
