data_PCOD8051204
_publ_section_title
;
Structure prediction by ZEFSAII (Michael W. Deem and Ramdas Pophale) SiO2 
 PCOD8051204
Probable space group: C 2
;
_chemical_formula_sum "Si O2"
_cell_formula_units_Z 14
_cell_length_a 5.258256
_cell_length_b 8.772936
_cell_length_c 16.947708
_cell_angle_alpha 90.000000
_cell_angle_beta 127.680625
_cell_angle_gamma 90.000000
_cell_volume 618.743034
_symmetry_space_group_name_H-M "C 2"
_symmetry_group_IT_number 5
_symmetry_cell_setting 'monoclinic'
loop_
_space_group_symop_operation_xyz
x,y,z
-x,y,-z
1/2+x,1/2+y,z
1/2-x,1/2+y,-z
loop_
_atom_site_type_symbol
_atom_site_label
_atom_site_fract_x
_atom_site_fract_y
_atom_site_fract_z
Si Si1 0.727258 0.393580 0.115391
Si Si2 0.125500 0.728954 0.810837
Si Si3 0.166702 0.701694 0.409228
Si Si4 0.000000 0.489065 0.500000
O O1 0.766204 0.575284 0.125300
O O2 0.564456 0.336419 0.164879
O O3 0.070183 0.315972 0.167593
O O4 0.500000 0.348461 0.000000
O O5 0.888027 0.688676 0.694235
O O6 0.500000 0.621544 0.500000
O O7 0.184581 0.878024 0.442482
O O8 0.914601 0.597664 0.409027
#
# Coordination Sequence:
#
# PCOD8051204 Si02
#       4
#     4   4   4   2
#     4  12  26  47  71 103 137 179 233 289 340 404
#     4  12  27  44  76 101 139 182 229 278 353 404
#     4  10  26  41  68  98 139 173 224 271 335 406
#     4  10  24  38  66  90 144 172 218 272 324 396
#
# _framework density 22.626515999999999
#
# number of rings (size 3 to 8) (size 9 to 14) (size 15 to 20)
#    0.857    0.000    0.000    6.000   10.000    0.000 
#    0.000    0.000    0.000    0.000    0.000    0.000 
#    0.000    0.000    0.000    0.000    0.000    0.000 
#
# Total GULP energy -86744.367962 kJ/mol
# GULP energy per Si atom -12392.052566 kJ/mol
# Density = 2.257502 g / cm^3
# Si number density = 22.626516 Si / 1000 Ang^3
#
#
#
# Elastic Constant Matrix: (Units=GPa)
#
#
# Indices 1 2 3 4 5 6 
#
# 1 94.7437 37.2891 29.0440 0.0000 1.2015 0.0000
# 2 37.2891 136.3224 7.2130 0.0000 -9.8871 0.0000
# 3 29.0440 7.2130 128.8861 0.0001 -11.0534 0.0001
# 4 0.0000 0.0000 0.0001 31.7678 0.0000 -12.6753
# 5 1.2015 -9.8871 -11.0534 0.0000 31.6754 0.0000
# 6 0.0000 0.0000 0.0001 -12.6753 0.0000 32.1865
#
#
#
# Elastic Compliance Matrix: (Units=1/GPa)
#
#
# Indices 1 2 3 4 5 6 
#
# 1 0.012887 -0.003560 -0.002930 0.000000 -0.002623 0.000000
# 2 -0.003560 0.008495 0.000583 0.000000 0.002990 0.000000
# 3 -0.002930 0.000583 0.008671 0.000000 0.003319 0.000000
# 4 0.000000 0.000000 0.000000 0.037347 0.000000 0.014707
# 5 -0.002623 0.002990 0.003319 0.000000 0.033761 0.000000
# 6 0.000000 0.000000 0.000000 0.014707 0.000000 0.036861
#
#
# Mechanical properties :
#
#
# Convention : Reuss Voigt Hill
#
# Bulk Modulus (GPa) = 54.82382 56.33829 55.58105
# Shear Modulus (GPa) = 32.06843 38.21966 35.14405
#
# Velocity S-wave (km/s) = 3.76878 4.11439 3.94537
# Velocity P-wave (km/s) = 6.57425 6.89378 6.73591
#
# Compressibility (1/GPa) = 0.01824025
#
# Stress axis : x y z
#
# Youngs Moduli (GPa) = 77.59463 117.70990 115.32684
#
# Poissons Ratio (x) = 0.41909 0.33789
# Poissons Ratio (y) = 0.27627 -0.06727
# Poissons Ratio (z) = 0.22734 -0.06866
#
# Static dielectric constant tensor:
#      x y z
#    x 4.075010 0.000000 -0.040280 
#    y 0.000000 4.143470 0.000000 
#    z -0.040280 0.000000 4.075550 
# 
# 
# High freq. dielectric constant tensor:
#      x y z
#    x 1.879200 0.000000 -0.006610 
#    y 0.000000 1.913070 0.000000 
#    z -0.006610 0.000000 1.900370 
# 
# From -- ./inp_files/32734.got.cif
#   From: 2010.03.12/outbox.cif.g09.slc.cpg/sg5_17_cif.got.tgz:32734.got - 2010.03.31 09:47:26.
