data_PCOD8051495
_publ_section_title
;
Structure prediction by ZEFSAII (Michael W. Deem and Ramdas Pophale) SiO2 
 PCOD8051495
Probable space group: C 2
;
_chemical_formula_sum "Si O2"
_cell_formula_units_Z 18
_cell_length_a 7.338987
_cell_length_b 7.271930
_cell_length_c 17.647020
_cell_angle_alpha 90.000000
_cell_angle_beta 121.046775
_cell_angle_gamma 90.000000
_cell_volume 806.881113
_symmetry_space_group_name_H-M "C 2"
_symmetry_group_IT_number 5
_symmetry_cell_setting 'monoclinic'
loop_
_space_group_symop_operation_xyz
x,y,z
-x,y,-z
1/2+x,1/2+y,z
1/2-x,1/2+y,-z
loop_
_atom_site_type_symbol
_atom_site_label
_atom_site_fract_x
_atom_site_fract_y
_atom_site_fract_z
Si Si1 0.743108 0.628450 0.338743
Si Si2 0.500000 0.581327 0.000000
Si Si3 0.023677 0.262209 0.592281
Si Si4 0.047937 0.431985 0.928252
Si Si5 0.194556 0.989524 0.736493
O O1 0.924913 0.476421 0.385371
O O2 0.699006 0.720200 0.412157
O O3 0.522074 0.532675 0.263151
O O4 0.817150 0.780683 0.295184
O O5 0.291457 0.455509 0.954847
O O6 0.500858 0.713164 0.925634
O O7 0.207922 0.132599 0.668696
O O8 0.000000 0.209743 0.500000
O O9 0.897766 0.523055 0.833087
O O10 0.000000 0.526532 0.000000
#
# Coordination Sequence:
#
# PCOD8051495 Si02
#       5
#     4   2   4   4   4
#     4  10  26  39  69  93 133 172 224 272 328 393
#     4  10  26  38  72  94 140 170 232 266 346 384
#     4  10  26  41  69  97 136 173 222 272 332 393
#     4  10  26  44  68 101 135 181 220 282 331 408
#     4  10  26  44  69  98 135 175 226 268 339 392
#
# _framework density 22.308119000000001
#
# number of rings (size 3 to 8) (size 9 to 14) (size 15 to 20)
#    2.000    0.000    0.000    0.000   14.000    0.889 
#    0.000    0.000    0.000    0.000    0.000    0.000 
#    0.000    0.000    0.000    0.000    0.000    0.000 
#
# Total GULP energy -111513.121999 kJ/mol
# GULP energy per Si atom -12390.346889 kJ/mol
# Density = 2.225735 g / cm^3
# Si number density = 22.308119 Si / 1000 Ang^3
#
#
#
# Elastic Constant Matrix: (Units=GPa)
#
#
# Indices 1 2 3 4 5 6 
#
# 1 79.6010 53.7480 8.4816 0.0000 -0.5515 0.0000
# 2 53.7480 129.9547 45.1661 0.0000 -7.2170 0.0000
# 3 8.4816 45.1661 132.3745 0.0000 -5.6569 0.0000
# 4 0.0000 0.0000 0.0000 19.2721 0.0000 2.8448
# 5 -0.5515 -7.2170 -5.6569 0.0000 15.2524 0.0000
# 6 0.0000 0.0000 0.0000 2.8448 0.0000 45.2144
#
#
#
# Elastic Compliance Matrix: (Units=1/GPa)
#
#
# Indices 1 2 3 4 5 6 
#
# 1 0.017805 -0.008025 0.001486 0.000000 -0.002602 0.000000
# 2 -0.008025 0.012491 -0.003564 0.000000 0.004298 0.000000
# 3 0.001486 -0.003564 0.008744 0.000000 0.001610 0.000000
# 4 0.000000 0.000000 0.000000 0.052375 0.000000 -0.003295
# 5 -0.002602 0.004298 0.001610 0.000000 0.068101 0.000000
# 6 0.000000 0.000000 0.000000 -0.003295 0.000000 0.022324
#
#
# Mechanical properties :
#
#
# Convention : Reuss Voigt Hill
#
# Bulk Modulus (GPa) = 53.09468 61.85795 57.47632
# Shear Modulus (GPa) = 24.00104 31.58340 27.79222
#
# Velocity S-wave (km/s) = 3.28363 3.76677 3.53347
# Velocity P-wave (km/s) = 6.18293 6.83426 6.51674
#
# Compressibility (1/GPa) = 0.01883428
#
# Stress axis : x y z
#
# Youngs Moduli (GPa) = 56.16442 80.05448 114.36376
#
# Poissons Ratio (x) = 0.64243 -0.16995
# Poissons Ratio (y) = 0.45072 0.40762
# Poissons Ratio (z) = -0.08347 0.28533
#
# Static dielectric constant tensor:
#      x y z
#    x 3.750900 0.000000 -0.041260 
#    y 0.000000 3.804720 0.000000 
#    z -0.041260 0.000000 3.782910 
# 
# 
# High freq. dielectric constant tensor:
#      x y z
#    x 1.870780 0.000000 -0.000830 
#    y 0.000000 1.877470 0.000000 
#    z -0.000830 0.000000 1.858890 
# 
# From -- ./inp_files/59181.got.cif
#   From: 2010.03.12/outbox.cif.g09.slc.cpg/sg5_30_cif.got.tgz:59181.got - 2010.03.31 09:47:26.
