data_PCOD8051321
_publ_section_title
;
Structure prediction by ZEFSAII (Michael W. Deem and Ramdas Pophale) SiO2 
 PCOD8051321
Probable space group: C 2
;
_chemical_formula_sum "Si O2"
_cell_formula_units_Z 32
_cell_length_a 23.874878
_cell_length_b 8.616180
_cell_length_c 14.092688
_cell_angle_alpha 90.000000
_cell_angle_beta 30.530620
_cell_angle_gamma 90.000000
_cell_volume 1472.693654
_symmetry_space_group_name_H-M "C 2"
_symmetry_group_IT_number 5
_symmetry_cell_setting 'monoclinic'
loop_
_space_group_symop_operation_xyz
x,y,z
-x,y,-z
1/2+x,1/2+y,z
1/2-x,1/2+y,-z
loop_
_atom_site_type_symbol
_atom_site_label
_atom_site_fract_x
_atom_site_fract_y
_atom_site_fract_z
Si Si1 0.326382 0.573710 0.975037
Si Si2 0.862111 0.891821 0.282468
Si Si3 0.403212 0.347437 0.011288
Si Si4 0.413336 0.071975 0.704116
Si Si5 0.169041 0.178441 0.545376
Si Si6 0.212203 0.542734 0.811829
Si Si7 0.054870 0.371048 0.157462
Si Si8 0.885423 0.927177 0.703005
O O1 0.406267 0.479470 0.927590
O O2 0.345164 0.755524 0.963003
O O3 0.351316 0.550563 0.829632
O O4 0.201941 0.515279 0.171669
O O5 0.754275 0.796482 0.470301
O O6 0.969898 0.793703 0.157873
O O7 0.868177 0.060493 0.319923
O O8 0.858678 0.919263 0.174629
O O9 0.322303 0.210132 0.095573
O O10 0.500000 0.015441 0.500000
O O11 0.403255 0.258494 0.724164
O O12 0.445213 0.004335 0.760840
O O13 0.234502 0.077387 0.369181
O O14 0.062240 0.280383 0.670252
O O15 0.299860 0.442240 0.741883
O O16 0.095114 0.445804 0.996632
O O17 0.000000 0.992122 0.500000
#
# Coordination Sequence:
#
# PCOD8051321 Si02
#       8
#     4   4   4   4   4   4   4   4
#     4  12  22  43  67 101 141 183 232 286 348 433
#     4  10  24  49  68 102 136 178 241 305 360 417
#     4  10  24  44  72  93 138 185 229 301 361 414
#     4  11  25  41  64 100 141 184 230 281 348 432
#     4  11  26  47  73 107 137 186 242 303 361 428
#     4  11  24  45  68 103 141 188 233 291 364 431
#     4  12  25  44  71 105 141 189 236 288 362 430
#     4  11  24  43  64  98 144 185 228 285 349 431
#
# _framework density 21.728891999999998
#
# number of rings (size 3 to 8) (size 9 to 14) (size 15 to 20)
#    0.000    1.000    3.750    1.500    7.000    1.500 
#    0.000    0.000    0.000    0.000    0.000    0.000 
#    0.000    0.000    0.000    0.000    0.000    0.000 
#
# Total GULP energy -198211.668049 kJ/mol
# GULP energy per Si atom -12388.229253 kJ/mol
# Density = 2.167944 g / cm^3
# Si number density = 21.728892 Si / 1000 Ang^3
#
#
#
# Elastic Constant Matrix: (Units=GPa)
#
#
# Indices 1 2 3 4 5 6 
#
# 1 67.6621 28.0759 40.0801 -0.0001 -16.4822 0.0000
# 2 28.0759 80.2364 35.5045 -0.0005 -6.4653 0.0002
# 3 40.0801 35.5045 137.1530 -0.0001 -17.6634 0.0001
# 4 -0.0001 -0.0005 -0.0001 43.5274 0.0001 1.0619
# 5 -16.4822 -6.4653 -17.6634 0.0001 27.7775 -0.0001
# 6 0.0000 0.0002 0.0001 1.0619 -0.0001 44.9577
#
#
#
# Elastic Compliance Matrix: (Units=1/GPa)
#
#
# Indices 1 2 3 4 5 6 
#
# 1 0.021315 -0.005068 -0.003747 0.000000 0.009085 0.000000
# 2 -0.005068 0.015309 -0.002625 0.000000 -0.001114 0.000000
# 3 -0.003747 -0.002625 0.009477 0.000000 0.003192 0.000000
# 4 0.000000 0.000000 0.000000 0.022987 0.000000 -0.000543
# 5 0.009085 -0.001114 0.003192 0.000000 0.043162 0.000000
# 6 0.000000 0.000000 0.000000 -0.000543 0.000000 0.022256
#
#
# Mechanical properties :
#
#
# Convention : Reuss Voigt Hill
#
# Bulk Modulus (GPa) = 43.06711 54.70805 48.88758
# Shear Modulus (GPa) = 30.27996 35.34527 32.81262
#
# Velocity S-wave (km/s) = 3.73706 4.03755 3.89021
# Velocity P-wave (km/s) = 6.20355 6.85332 6.53651
#
# Compressibility (1/GPa) = 0.02321957
#
# Stress axis : x y z
#
# Youngs Moduli (GPa) = 46.91539 65.32280 105.52206
#
# Poissons Ratio (x) = 0.33108 0.39536
# Poissons Ratio (y) = 0.23779 0.27702
# Poissons Ratio (z) = 0.17578 0.17148
#
# Static dielectric constant tensor:
#      x y z
#    x 3.641950 0.000000 -0.127200 
#    y 0.000000 3.850640 0.000000 
#    z -0.127200 0.000000 4.290200 
# 
# 
# High freq. dielectric constant tensor:
#      x y z
#    x 1.837990 0.000000 -0.010670 
#    y 0.000000 1.853450 0.000000 
#    z -0.010670 0.000000 1.877030 
# 
# From -- ./inp_files/58099.got.cif
#   From: 2010.03.12/outbox.cif.g09.slc.cpg/sg5_30_cif.got.tgz:58099.got - 2010.03.31 09:47:26.
