data_PCOD8051582
_publ_section_title
;
Structure prediction by ZEFSAII (Michael W. Deem and Ramdas Pophale) SiO2 
 PCOD8051582
Probable space group: C 2
;
_chemical_formula_sum "Si O2"
_cell_formula_units_Z 24
_cell_length_a 11.877033
_cell_length_b 18.626487
_cell_length_c 13.853955
_cell_angle_alpha 90.000000
_cell_angle_beta 159.478336
_cell_angle_gamma 90.000000
_cell_volume 1074.427046
_symmetry_space_group_name_H-M "C 2"
_symmetry_group_IT_number 5
_symmetry_cell_setting 'monoclinic'
loop_
_space_group_symop_operation_xyz
x,y,z
-x,y,-z
1/2+x,1/2+y,z
1/2-x,1/2+y,-z
loop_
_atom_site_type_symbol
_atom_site_label
_atom_site_fract_x
_atom_site_fract_y
_atom_site_fract_z
Si Si1 0.881319 0.295930 0.301882
Si Si2 0.638766 0.653485 0.015022
Si Si3 0.839870 0.431353 0.558635
Si Si4 0.512915 0.492144 0.902764
Si Si5 0.871777 0.018365 0.292718
Si Si6 0.396023 0.659200 0.620223
O O1 0.000000 0.321974 0.500000
O O2 0.045274 0.348636 0.354222
O O3 0.007150 0.215682 0.383886
O O4 0.500000 0.298660 0.000000
O O5 0.458797 0.576850 0.865787
O O6 0.018663 0.648255 0.324883
O O7 0.500000 0.692974 0.000000
O O8 0.534046 0.691883 0.831626
O O9 0.535883 0.444975 0.384617
O O10 0.123851 0.475978 0.839476
O O11 0.757208 0.459794 0.384347
O O12 0.500000 0.456059 0.000000
O O13 0.000000 0.041225 0.500000
O O14 0.941440 0.082578 0.273018
O O15 0.500000 0.001796 0.000000
#
# Coordination Sequence:
#
# PCOD8051582 Si02
#       6
#     4   4   4   4   4   4
#     4  12  26  45  68 100 134 176 218 272 338 399
#     4  11  22  39  66 101 133 168 221 271 330 382
#     4  12  23  41  63  96 129 169 217 273 325 390
#     4  11  20  36  63  96 129 162 208 272 329 379
#     4  12  24  41  64  93 126 173 223 267 324 386
#     4  12  23  44  66  98 137 174 219 273 328 394
#
# _framework density 22.337486999999999
#
# number of rings (size 3 to 8) (size 9 to 14) (size 15 to 20)
#    0.000    0.333    3.333    7.500    0.000    2.667 
#    0.000    2.500    0.000    0.000    0.000    0.000 
#    0.000    0.000    0.000    0.000    0.000    0.000 
#
# Total GULP energy -148816.663488 kJ/mol
# GULP energy per Si atom -12401.388624 kJ/mol
# Density = 2.228665 g / cm^3
# Si number density = 22.337487 Si / 1000 Ang^3
#
#
#
# Elastic Constant Matrix: (Units=GPa)
#
#
# Indices 1 2 3 4 5 6 
#
# 1 98.9096 19.0976 19.1221 -0.0066 9.3078 -0.0186
# 2 19.0976 75.7296 28.8537 -0.0045 23.2802 -0.0102
# 3 19.1221 28.8537 109.0433 -0.0143 18.2547 0.1720
# 4 -0.0066 -0.0045 -0.0143 21.7928 0.0042 -0.4969
# 5 9.3078 23.2802 18.2547 0.0042 48.2982 -0.0106
# 6 -0.0186 -0.0102 0.1720 -0.4969 -0.0106 36.9250
#
#
#
# Elastic Compliance Matrix: (Units=1/GPa)
#
#
# Indices 1 2 3 4 5 6 
#
# 1 0.010807 -0.002060 -0.001246 0.000002 -0.000618 0.000011
# 2 -0.002060 0.016902 -0.003004 0.000003 -0.006615 0.000016
# 3 -0.001246 -0.003004 0.010570 0.000005 -0.002307 -0.000051
# 4 0.000002 0.000003 0.000005 0.045901 -0.000008 0.000618
# 5 -0.000618 -0.006615 -0.002307 -0.000008 0.024884 0.000016
# 6 0.000011 0.000016 -0.000051 0.000618 0.000016 0.027090
#
#
# Mechanical properties :
#
#
# Convention : Reuss Voigt Hill
#
# Bulk Modulus (GPa) = 38.97317 46.42549 42.69933
# Shear Modulus (GPa) = 31.78038 35.84382 33.81210
#
# Velocity S-wave (km/s) = 3.77601 4.01015 3.89484
# Velocity P-wave (km/s) = 6.04122 6.50158 6.27562
#
# Compressibility (1/GPa) = 0.02565868
#
# Stress axis : x y z
#
# Youngs Moduli (GPa) = 92.53056 59.16317 94.60378
#
# Poissons Ratio (x) = 0.12190 0.11792
# Poissons Ratio (y) = 0.19064 0.28418
# Poissons Ratio (z) = 0.11534 0.17772
#
# Static dielectric constant tensor:
#      x y z
#    x 3.997180 0.000050 0.076980 
#    y 0.000050 3.707450 -0.000120 
#    z 0.076980 -0.000120 4.012630 
# 
# 
# High freq. dielectric constant tensor:
#      x y z
#    x 1.886550 0.000000 -0.003400 
#    y 0.000000 1.844620 0.000000 
#    z -0.003400 0.000000 1.901430 
# 
# From -- ./inp_files/43469.got.cif
#   From: 2010.03.12/outbox.cif.g09.slc.cpg/sg5_22_cif.got.tgz:43469.got - 2010.03.31 09:47:26.
