data_PCOD8051429
_publ_section_title
;
Structure prediction by ZEFSAII (Michael W. Deem and Ramdas Pophale) SiO2 
 PCOD8051429
Probable space group: C 2
;
_chemical_formula_sum "Si O2"
_cell_formula_units_Z 28
_cell_length_a 5.257694
_cell_length_b 8.743133
_cell_length_c 28.756315
_cell_angle_alpha 90.000000
_cell_angle_beta 68.100126
_cell_angle_gamma 90.000000
_cell_volume 1226.499415
_symmetry_space_group_name_H-M "C 2"
_symmetry_group_IT_number 5
_symmetry_cell_setting 'monoclinic'
loop_
_space_group_symop_operation_xyz
x,y,z
-x,y,-z
1/2+x,1/2+y,z
1/2-x,1/2+y,-z
loop_
_atom_site_type_symbol
_atom_site_label
_atom_site_fract_x
_atom_site_fract_y
_atom_site_fract_z
Si Si1 0.512916 0.619160 0.253511
Si Si2 0.297304 0.449602 0.594535
Si Si3 0.361870 0.064509 0.142500
Si Si4 0.257027 0.564868 0.949110
Si Si5 0.304260 0.776275 0.095893
Si Si6 0.127280 0.285058 0.442316
Si Si7 0.561469 0.954184 0.709714
O O1 0.615892 0.569629 0.195725
O O2 0.500640 0.802669 0.256360
O O3 0.213797 0.548725 0.281364
O O4 0.721606 0.559394 0.278259
O O5 0.595726 0.377983 0.566912
O O6 0.313267 0.632969 0.591120
O O7 0.087256 0.391313 0.570017
O O8 0.188066 0.401283 0.652336
O O9 0.615891 0.168274 0.141701
O O10 0.289695 0.145070 0.098126
O O11 0.446278 0.888718 0.124629
O O12 0.510146 0.666180 0.949712
O O13 0.336366 0.387078 0.933699
O O14 0.000000 0.580600 0.000000
O O15 0.000000 0.235191 0.500000
#
# Coordination Sequence:
#
# PCOD8051429 Si02
#       7
#     4   4   4   4   4   4   4
#     4  12  26  43  72  98 138 174 240 278 353 404
#     4  12  25  45  69  99 145 179 236 282 340 404
#     4  10  26  40  66  92 128 166 213 280 326 403
#     4  10  26  40  66  90 128 164 213 260 337 399
#     4  10  25  39  64  87 126 158 212 254 341 381
#     4  12  24  42  69 101 138 182 228 282 340 404
#     4  12  26  46  70 102 135 188 226 289 340 404
#
# _framework density 22.8292
#
# number of rings (size 3 to 8) (size 9 to 14) (size 15 to 20)
#    0.857    0.000    0.000    6.429    8.000    0.000 
#    0.000    0.000    0.000    0.000    0.000    0.000 
#    0.000    0.000    0.000    0.000    0.000    0.000 
#
# Total GULP energy -173488.921535 kJ/mol
# GULP energy per Si atom -12392.065824 kJ/mol
# Density = 2.277724 g / cm^3
# Si number density = 22.829200 Si / 1000 Ang^3
#
#
#
# Elastic Constant Matrix: (Units=GPa)
#
#
# Indices 1 2 3 4 5 6 
#
# 1 104.2742 49.5116 20.0743 0.0000 -19.9731 -0.0001
# 2 49.5116 140.9593 -0.8303 0.0000 -18.6942 0.0000
# 3 20.0743 -0.8303 115.0793 0.0000 -6.6858 0.0000
# 4 0.0000 0.0000 0.0000 25.4929 0.0000 -12.2799
# 5 -19.9731 -18.6942 -6.6858 0.0000 33.2695 0.0000
# 6 -0.0001 0.0000 0.0000 -12.2799 0.0000 30.0532
#
#
#
# Elastic Compliance Matrix: (Units=1/GPa)
#
#
# Indices 1 2 3 4 5 6 
#
# 1 0.012759 -0.003813 -0.001955 0.000000 0.005124 0.000000
# 2 -0.003813 0.008816 0.000894 0.000000 0.002844 0.000000
# 3 -0.001955 0.000894 0.009104 0.000000 0.001158 0.000000
# 4 0.000000 0.000000 0.000000 0.048839 0.000000 0.019956
# 5 0.005124 0.002844 0.001158 0.000000 0.034965 0.000000
# 6 0.000000 0.000000 0.000000 0.019956 0.000000 0.041428
#
#
# Mechanical properties :
#
#
# Convention : Reuss Voigt Hill
#
# Bulk Modulus (GPa) = 47.77899 55.31378 51.54638
# Shear Modulus (GPa) = 28.96236 37.20026 33.08131
#
# Velocity S-wave (km/s) = 3.56568 4.04109 3.81081
# Velocity P-wave (km/s) = 6.15844 6.78645 6.48006
#
# Compressibility (1/GPa) = 0.02092970
#
# Stress axis : x y z
#
# Youngs Moduli (GPa) = 78.37789 113.42798 109.83582
#
# Poissons Ratio (x) = 0.43255 0.21478
# Poissons Ratio (y) = 0.29889 -0.09820
# Poissons Ratio (z) = 0.15326 -0.10141
#
# Static dielectric constant tensor:
#      x y z
#    x 4.164290 0.000000 -0.088860 
#    y 0.000000 4.140680 0.000000 
#    z -0.088860 0.000000 4.071120 
# 
# 
# High freq. dielectric constant tensor:
#      x y z
#    x 1.892680 0.000000 -0.009100 
#    y 0.000000 1.920270 0.000000 
#    z -0.009100 0.000000 1.907580 
# 
# From -- ./inp_files/71487.got.cif
#   From: 2010.03.12/outbox.cif.g09.slc.cpg/sg5_36_cif.got.tgz:71487.got - 2010.03.31 09:47:26.
