data_PCOD8051172
_publ_section_title
;
Structure prediction by ZEFSAII (Michael W. Deem and Ramdas Pophale) SiO2 
 PCOD8051172
Probable space group: C 2
;
_chemical_formula_sum "Si O2"
_cell_formula_units_Z 20
_cell_length_a 15.161324
_cell_length_b 10.320231
_cell_length_c 5.319405
_cell_angle_alpha 90.000000
_cell_angle_beta 74.344112
_cell_angle_gamma 90.000000
_cell_volume 801.439418
_symmetry_space_group_name_H-M "C 2"
_symmetry_group_IT_number 5
_symmetry_cell_setting 'monoclinic'
loop_
_space_group_symop_operation_xyz
x,y,z
-x,y,-z
1/2+x,1/2+y,z
1/2-x,1/2+y,-z
loop_
_atom_site_type_symbol
_atom_site_label
_atom_site_fract_x
_atom_site_fract_y
_atom_site_fract_z
Si Si1 0.500000 0.125000 0.000000
Si Si2 0.690084 0.789793 0.486464
Si Si3 0.168426 0.449419 0.004690
Si Si4 0.000000 0.032965 0.000000
Si Si5 0.637525 0.547365 0.269956
Si Si6 0.103132 0.828361 0.641822
O O1 0.531195 0.212071 0.736018
O O2 0.582774 0.043809 0.049027
O O3 0.663353 0.850640 0.773841
O O4 0.646556 0.645717 0.499822
O O5 0.798031 0.768953 0.383997
O O6 0.656851 0.876177 0.277425
O O7 0.262580 0.532707 0.934926
O O8 0.944634 0.113958 0.831925
O O9 0.084777 0.942694 0.851923
O O10 0.600300 0.402993 0.374102
#
# Coordination Sequence:
#
# PCOD8051172 Si02
#       6
#     2   4   4   2   4   4
#     4  11  24  53  74 110 147 202 247 320 362 479
#     4  11  25  48  76 106 157 197 243 321 372 456
#     4  11  26  48  74 111 152 199 251 303 396 437
#     4  11  22  43  70 106 147 188 261 296 372 445
#     4  11  24  46  74 114 149 199 255 314 379 448
#     4  10  23  46  73 107 140 198 253 304 370 438
#
# _framework density 24.955102
#
# number of rings (size 3 to 8) (size 9 to 14) (size 15 to 20)
#    0.000    1.200    4.000    0.600    2.800    1.600 
#   18.000    0.000    0.000    0.000    0.000    0.000 
#    0.000    0.000    0.000    0.000    0.000    0.000 
#
# Total GULP energy -123912.400247 kJ/mol
# GULP energy per Si atom -12391.240025 kJ/mol
# Density = 2.489830 g / cm^3
# Si number density = 24.955102 Si / 1000 Ang^3
#
#
#
# Elastic Constant Matrix: (Units=GPa)
#
#
# Indices 1 2 3 4 5 6 
#
# 1 176.4394 66.4651 43.7919 0.0000 12.2092 0.0000
# 2 66.4651 95.6402 16.7113 0.0000 2.3331 0.0000
# 3 43.7919 16.7113 75.3005 0.0000 13.1850 0.0000
# 4 0.0000 0.0000 0.0000 42.4050 0.0000 -8.1307
# 5 12.2092 2.3331 13.1850 0.0000 42.9966 0.0000
# 6 0.0000 0.0000 0.0000 -8.1307 0.0000 33.3204
#
#
#
# Elastic Compliance Matrix: (Units=1/GPa)
#
#
# Indices 1 2 3 4 5 6 
#
# 1 0.008669 -0.005358 -0.003669 0.000000 -0.001046 0.000000
# 2 -0.005358 0.014190 -0.000174 0.000000 0.000805 0.000000
# 3 -0.003669 -0.000174 0.016135 0.000000 -0.003896 0.000000
# 4 0.000000 0.000000 0.000000 0.024740 0.000000 0.006037
# 5 -0.001046 0.000805 -0.003896 0.000000 0.024706 0.000000
# 6 0.000000 0.000000 0.000000 0.006037 0.000000 0.031485
#
#
# Mechanical properties :
#
#
# Convention : Reuss Voigt Hill
#
# Bulk Modulus (GPa) = 48.56436 66.81296 57.68866
# Shear Modulus (GPa) = 34.43736 38.43853 36.43795
#
# Velocity S-wave (km/s) = 3.71883 3.92893 3.82532
# Velocity P-wave (km/s) = 6.15975 6.88574 6.53284
#
# Compressibility (1/GPa) = 0.02059123
#
# Stress axis : x y z
#
# Youngs Moduli (GPa) = 115.35195 70.47149 61.97694
#
# Poissons Ratio (x) = 0.37758 0.22742
# Poissons Ratio (y) = 0.61805 0.01079
# Poissons Ratio (z) = 0.42328 0.01227
#
# Static dielectric constant tensor:
#      x y z
#    x 4.646280 0.000000 -0.025330 
#    y 0.000000 4.368720 0.000000 
#    z -0.025330 0.000000 4.761740 
# 
# 
# High freq. dielectric constant tensor:
#      x y z
#    x 2.014920 0.000000 -0.001190 
#    y 0.000000 1.981330 0.000000 
#    z -0.001190 0.000000 1.991540 
# 
# From -- ./inp_files/6507.got.cif
#   From: 2010.03.12/outbox.cif.g09.slc.cpg/sg5_4_cif.got.tgz:6507.got - 2010.03.31 09:47:26.
