data_PCOD8051519
_publ_section_title
;
Structure prediction by ZEFSAII (Michael W. Deem and Ramdas Pophale) SiO2 
 PCOD8051519
Probable space group: C 2
;
_chemical_formula_sum "Si O2"
_cell_formula_units_Z 14
_cell_length_a 21.019641
_cell_length_b 4.561253
_cell_length_c 5.496788
_cell_angle_alpha 90.000000
_cell_angle_beta 90.509028
_cell_angle_gamma 90.000000
_cell_volume 526.988702
_symmetry_space_group_name_H-M "C 2"
_symmetry_group_IT_number 5
_symmetry_cell_setting 'monoclinic'
loop_
_space_group_symop_operation_xyz
x,y,z
-x,y,-z
1/2+x,1/2+y,z
1/2-x,1/2+y,-z
loop_
_atom_site_type_symbol
_atom_site_label
_atom_site_fract_x
_atom_site_fract_y
_atom_site_fract_z
Si Si1 0.000000 0.561590 0.500000
Si Si2 0.604446 0.760077 0.817313
Si Si3 0.099992 0.739550 0.159212
Si Si4 0.707033 0.068174 0.510365
O O1 0.950724 0.339436 0.372239
O O2 0.963796 0.787237 0.682559
O O3 0.670963 0.879610 0.714627
O O4 0.604892 0.418494 0.901778
O O5 0.592829 0.902534 0.079863
O O6 0.162281 0.760102 0.329113
O O7 0.748903 0.822510 0.368279
#
# Coordination Sequence:
#
# PCOD8051519 Si02
#       4
#     2   4   4   4
#     4  10  26  46  72 108 148 184 238 296 352 430
#     4  11  25  45  72 106 143 188 237 292 358 424
#     4  11  25  45  72 106 143 188 237 292 358 424
#     4  11  24  45  72 105 146 187 238 298 352 423
#
# _framework density 26.566030000000001
#
# number of rings (size 3 to 8) (size 9 to 14) (size 15 to 20)
#    0.000    1.143    0.000    4.286    0.000   18.286 
#    0.000    0.000    0.000    0.000    0.000    0.000 
#    0.000    0.000    0.000    0.000    0.000    0.000 
#
# Total GULP energy -86739.626421 kJ/mol
# GULP energy per Si atom -12391.375203 kJ/mol
# Density = 2.650557 g / cm^3
# Si number density = 26.566030 Si / 1000 Ang^3
#
#
#
# Elastic Constant Matrix: (Units=GPa)
#
#
# Indices 1 2 3 4 5 6 
#
# 1 152.1423 55.5562 37.6374 0.0000 -17.0046 0.0000
# 2 55.5562 98.8508 22.1668 0.0000 -7.3831 0.0000
# 3 37.6374 22.1668 96.4086 0.0000 -14.6943 0.0000
# 4 0.0000 0.0000 0.0000 59.1428 0.0000 -5.2593
# 5 -17.0046 -7.3831 -14.6943 0.0000 16.1234 0.0000
# 6 0.0000 0.0000 0.0000 -5.2593 0.0000 27.3475
#
#
#
# Elastic Compliance Matrix: (Units=1/GPa)
#
#
# Indices 1 2 3 4 5 6 
#
# 1 0.009283 -0.004376 -0.001662 0.000000 0.006272 0.000000
# 2 -0.004376 0.012862 -0.001225 0.000000 0.000158 0.000000
# 3 -0.001662 -0.001225 0.012717 0.000000 0.009276 0.000000
# 4 0.000000 0.000000 0.000000 0.017202 0.000000 0.003308
# 5 0.006272 0.000158 0.009276 0.000000 0.077162 0.000000
# 6 0.000000 0.000000 0.000000 0.003308 0.000000 0.037203
#
#
# Mechanical properties :
#
#
# Convention : Reuss Voigt Hill
#
# Bulk Modulus (GPa) = 49.17335 64.23584 56.70459
# Shear Modulus (GPa) = 26.63349 35.99216 31.31282
#
# Velocity S-wave (km/s) = 3.16973 3.68478 3.43691
# Velocity P-wave (km/s) = 5.65210 6.50658 6.09434
#
# Compressibility (1/GPa) = 0.02033622
#
# Stress axis : x y z
#
# Youngs Moduli (GPa) = 107.72545 77.74735 78.63643
#
# Poissons Ratio (x) = 0.34023 0.13069
# Poissons Ratio (y) = 0.47141 0.09632
# Poissons Ratio (z) = 0.17903 0.09523
#
# Static dielectric constant tensor:
#      x y z
#    x 5.064800 0.000000 -0.135920 
#    y 0.000000 4.640360 0.000000 
#    z -0.135920 0.000000 4.453590 
# 
# 
# High freq. dielectric constant tensor:
#      x y z
#    x 2.082130 0.000000 -0.005610 
#    y 0.000000 2.078350 0.000000 
#    z -0.005610 0.000000 2.051240 
# 
# From -- ./inp_files/9004.got.cif
#   From: 2010.03.12/outbox.cif.g09.slc.cpg/sg5_5_cif.got.tgz:9004.got - 2010.03.31 09:47:26.
