data_PCOD8051579
_publ_section_title
;
Structure prediction by ZEFSAII (Michael W. Deem and Ramdas Pophale) SiO2 
 PCOD8051579
Probable space group: C 2
;
_chemical_formula_sum "Si O2"
_cell_formula_units_Z 20
_cell_length_a 14.440160
_cell_length_b 10.733994
_cell_length_c 5.360756
_cell_angle_alpha 90.000000
_cell_angle_beta 77.529317
_cell_angle_gamma 90.000000
_cell_volume 811.316133
_symmetry_space_group_name_H-M "C 2"
_symmetry_group_IT_number 5
_symmetry_cell_setting 'monoclinic'
loop_
_space_group_symop_operation_xyz
x,y,z
-x,y,-z
1/2+x,1/2+y,z
1/2-x,1/2+y,-z
loop_
_atom_site_type_symbol
_atom_site_label
_atom_site_fract_x
_atom_site_fract_y
_atom_site_fract_z
Si Si1 0.580745 0.688060 0.639701
Si Si2 0.733584 0.865286 0.412304
Si Si3 0.500000 0.903086 0.000000
Si Si4 0.846920 0.837221 0.836639
Si Si5 0.500000 0.486282 0.000000
Si Si6 0.098571 0.564567 0.311034
O O1 0.500000 0.640787 0.500000
O O2 0.682076 0.727914 0.463862
O O3 0.548366 0.819818 0.764741
O O4 0.584091 0.576124 0.839877
O O5 0.803394 0.891282 0.605354
O O6 0.662634 0.982731 0.458995
O O7 0.786184 0.865161 0.117614
O O8 0.582425 0.986225 0.069840
O O9 0.850764 0.690072 0.800161
O O10 0.950407 0.899524 0.819883
O O11 0.000000 0.598491 0.500000
#
# Coordination Sequence:
#
# PCOD8051579 Si02
#       6
#     4   4   2   4   2   4
#     4  11  24  46  85 110 156 205 264 315 386 470
#     4  12  28  53  76 125 150 206 264 328 382 458
#     4  11  19  46  78 116 143 211 262 306 372 475
#     4  12  33  51  78 117 165 200 261 326 402 450
#     4  11  31  54  74 112 161 217 252 316 406 473
#     4  12  27  50  84 108 163 208 263 316 389 476
#
# _framework density 24.651302000000001
#
# number of rings (size 3 to 8) (size 9 to 14) (size 15 to 20)
#    0.000    0.400    4.000    1.800   14.000    0.000 
#    0.000    0.000    0.000    0.000    0.000    0.000 
#    0.000    0.000    0.000    0.000    0.000    0.000 
#
# Total GULP energy -123986.892748 kJ/mol
# GULP energy per Si atom -12398.689275 kJ/mol
# Density = 2.459519 g / cm^3
# Si number density = 24.651302 Si / 1000 Ang^3
#
#
#
# Elastic Constant Matrix: (Units=GPa)
#
#
# Indices 1 2 3 4 5 6 
#
# 1 115.2899 40.8303 35.5172 0.0000 35.5574 0.0000
# 2 40.8303 133.5617 29.9562 0.0000 19.7722 0.0000
# 3 35.5172 29.9562 120.3721 0.0000 15.8261 0.0000
# 4 0.0000 0.0000 0.0000 35.2394 0.0000 12.1355
# 5 35.5574 19.7722 15.8261 0.0000 56.7449 0.0000
# 6 0.0000 0.0000 0.0000 12.1355 0.0000 19.7336
#
#
#
# Elastic Compliance Matrix: (Units=1/GPa)
#
#
# Indices 1 2 3 4 5 6 
#
# 1 0.012050 -0.002285 -0.002179 0.000000 -0.006147 0.000000
# 2 -0.002285 0.008662 -0.001321 0.000000 -0.001218 0.000000
# 3 -0.002179 -0.001321 0.009383 0.000000 -0.000791 0.000000
# 4 0.000000 0.000000 0.000000 0.036002 0.000000 -0.022140
# 5 -0.006147 -0.001218 -0.000791 0.000000 0.022120 0.000000
# 6 0.000000 0.000000 0.000000 -0.022140 0.000000 0.064290
#
#
# Mechanical properties :
#
#
# Convention : Reuss Voigt Hill
#
# Bulk Modulus (GPa) = 53.97972 64.64790 59.31381
# Shear Modulus (GPa) = 29.36810 39.87159 34.61984
#
# Velocity S-wave (km/s) = 3.45532 4.02608 3.75157
# Velocity P-wave (km/s) = 6.15336 6.92057 6.54821
#
# Compressibility (1/GPa) = 0.01852548
#
# Stress axis : x y z
#
# Youngs Moduli (GPa) = 82.98706 115.44124 106.57226
#
# Poissons Ratio (x) = 0.26380 0.23218
# Poissons Ratio (y) = 0.18964 0.14082
# Poissons Ratio (z) = 0.18080 0.15254
#
# Static dielectric constant tensor:
#      x y z
#    x 4.346450 0.000000 -0.029500 
#    y 0.000000 4.382540 0.000000 
#    z -0.029500 0.000000 4.311410 
# 
# 
# High freq. dielectric constant tensor:
#      x y z
#    x 1.977190 0.000000 0.005480 
#    y 0.000000 1.990640 0.000000 
#    z 0.005480 0.000000 1.987270 
# 
# From -- ./inp_files/6502.got.cif
#   From: 2010.03.12/outbox.cif.g09.slc.cpg/sg5_4_cif.got.tgz:6502.got - 2010.03.31 09:47:26.
