data_PCOD8051257
_publ_section_title
;
Structure prediction by ZEFSAII (Michael W. Deem and Ramdas Pophale) SiO2 
 PCOD8051257
Probable space group: C 2
;
_chemical_formula_sum "Si O2"
_cell_formula_units_Z 32
_cell_length_a 14.040192
_cell_length_b 17.022286
_cell_length_c 11.796185
_cell_angle_alpha 90.000000
_cell_angle_beta 147.299519
_cell_angle_gamma 90.000000
_cell_volume 1523.088638
_symmetry_space_group_name_H-M "C 2"
_symmetry_group_IT_number 5
_symmetry_cell_setting 'monoclinic'
loop_
_space_group_symop_operation_xyz
x,y,z
-x,y,-z
1/2+x,1/2+y,z
1/2-x,1/2+y,-z
loop_
_atom_site_type_symbol
_atom_site_label
_atom_site_fract_x
_atom_site_fract_y
_atom_site_fract_z
Si Si1 0.680817 0.409810 0.411196
Si Si2 0.990956 0.646748 0.117140
Si Si3 0.722451 0.402835 0.009854
Si Si4 0.705884 0.501275 0.211858
Si Si5 0.700559 0.180786 0.703104
Si Si6 0.191017 0.228546 0.941798
Si Si7 0.788553 0.232993 0.547269
Si Si8 0.517537 0.963466 0.140637
O O1 0.754289 0.454368 0.373991
O O2 0.718542 0.317620 0.439309
O O3 0.786078 0.444186 0.622098
O O4 0.474661 0.427026 0.224775
O O5 0.991175 0.554760 0.107860
O O6 0.159022 0.670857 0.359789
O O7 0.806173 0.663721 0.993319
O O8 0.000000 0.684747 0.000000
O O9 0.772144 0.446030 0.176341
O O10 0.729335 0.309266 0.026881
O O11 0.866582 0.424772 0.063165
O O12 0.797412 0.585969 0.298100
O O13 0.500000 0.517354 0.000000
O O14 0.500000 0.209140 0.500000
O O15 0.793698 0.219133 0.687412
O O16 0.792020 0.216627 0.906083
O O17 0.987190 0.220334 0.701658
O O18 0.500000 0.924691 0.000000
#
# Coordination Sequence:
#
# PCOD8051257 Si02
#       8
#     4   4   4   4   4   4   4   4
#     4  11  24  43  69 101 136 175 223 283 337 401
#     4  11  26  47  69  97 141 179 227 277 338 410
#     4  11  24  43  69 101 136 175 223 283 337 401
#     4  10  24  42  68 102 136 172 225 283 339 406
#     4  12  24  42  70 101 139 177 225 286 344 404
#     4  12  25  43  70 102 137 179 226 282 340 405
#     4  12  25  43  70 102 137 179 226 282 340 405
#     4  11  26  45  67  97 135 183 223 273 338 408
#
# _framework density 21.00994
#
# number of rings (size 3 to 8) (size 9 to 14) (size 15 to 20)
#    0.000    0.750    3.750    2.625    5.250    4.000 
#    0.000    2.500    0.000    0.000    0.000    0.000 
#    0.000    0.000    0.000    0.000    0.000    0.000 
#
# Total GULP energy -198444.432732 kJ/mol
# GULP energy per Si atom -12402.777046 kJ/mol
# Density = 2.096212 g / cm^3
# Si number density = 21.009940 Si / 1000 Ang^3
#
#
#
# Elastic Constant Matrix: (Units=GPa)
#
#
# Indices 1 2 3 4 5 6 
#
# 1 64.6497 -10.4363 10.7978 0.0000 0.8470 0.0000
# 2 -10.4363 64.3921 -6.5176 0.0000 -2.0386 0.0000
# 3 10.7978 -6.5176 68.9951 0.0000 3.9583 0.0000
# 4 0.0000 0.0000 0.0000 45.9588 0.0000 14.4806
# 5 0.8470 -2.0386 3.9583 0.0000 39.2363 0.0000
# 6 0.0000 0.0000 0.0000 14.4806 0.0000 62.2886
#
#
#
# Elastic Compliance Matrix: (Units=1/GPa)
#
#
# Indices 1 2 3 4 5 6 
#
# 1 0.016242 0.002398 -0.002316 0.000000 0.000008 0.000000
# 2 0.002398 0.016051 0.001102 0.000000 0.000671 0.000000
# 3 -0.002316 0.001102 0.015041 0.000000 -0.001410 0.000000
# 4 0.000000 0.000000 0.000000 0.023478 0.000000 -0.005458
# 5 0.000008 0.000671 -0.001410 0.000000 0.025664 0.000000
# 6 0.000000 0.000000 0.000000 -0.005458 0.000000 0.017323
#
#
# Mechanical properties :
#
#
# Convention : Reuss Voigt Hill
#
# Bulk Modulus (GPa) = 20.11899 20.63609 20.37754
# Shear Modulus (GPa) = 39.06316 43.10958 41.08637
#
# Velocity S-wave (km/s) = 4.31660 4.53467 4.42698
# Velocity P-wave (km/s) = 5.86863 6.10418 5.98756
#
# Compressibility (1/GPa) = 0.04970429
#
# Stress axis : x y z
#
# Youngs Moduli (GPa) = 61.56951 62.29992 66.48385
#
# Poissons Ratio (x) = -0.14941 0.15396
# Poissons Ratio (y) = -0.14766 -0.07330
# Poissons Ratio (z) = 0.14258 -0.06868
#
# Static dielectric constant tensor:
#      x y z
#    x 3.538940 0.000000 -0.324340 
#    y 0.000000 3.896000 0.000000 
#    z -0.324340 0.000000 4.008280 
# 
# 
# High freq. dielectric constant tensor:
#      x y z
#    x 1.830270 0.000000 0.005100 
#    y 0.000000 1.831390 0.000000 
#    z 0.005100 0.000000 1.835290 
# 
# From -- ./inp_files/43350.got.cif
#   From: 2010.03.12/outbox.cif.g09.slc.cpg/sg5_22_cif.got.tgz:43350.got - 2010.03.31 09:47:26.
