data_PCOD8051657
_publ_section_title
;
Structure prediction by ZEFSAII (Michael W. Deem and Ramdas Pophale) SiO2 
 PCOD8051657
Probable space group: C 2
;
_chemical_formula_sum "Si O2"
_cell_formula_units_Z 24
_cell_length_a 19.188399
_cell_length_b 13.273736
_cell_length_c 11.312078
_cell_angle_alpha 90.000000
_cell_angle_beta 156.215355
_cell_angle_gamma 90.000000
_cell_volume 1161.990593
_symmetry_space_group_name_H-M "C 2"
_symmetry_group_IT_number 5
_symmetry_cell_setting 'monoclinic'
loop_
_space_group_symop_operation_xyz
x,y,z
-x,y,-z
1/2+x,1/2+y,z
1/2-x,1/2+y,-z
loop_
_atom_site_type_symbol
_atom_site_label
_atom_site_fract_x
_atom_site_fract_y
_atom_site_fract_z
Si Si1 0.078236 0.224660 0.744239
Si Si2 0.057982 0.713990 0.267661
Si Si3 0.593356 0.415922 0.452199
Si Si4 0.268911 0.636378 0.386132
Si Si5 0.583178 0.107886 0.746666
Si Si6 0.252144 0.415533 0.063563
O O1 0.000000 0.183595 0.500000
O O2 0.950905 0.191415 0.650507
O O3 0.270416 0.185886 0.065234
O O4 0.101959 0.344623 0.778826
O O5 0.089327 0.834220 0.338313
O O6 0.209735 0.664485 0.426461
O O7 0.062974 0.665160 0.405097
O O8 0.871525 0.686063 0.921047
O O9 0.697785 0.515978 0.572445
O O10 0.397339 0.438581 0.189027
O O11 0.682284 0.372255 0.709136
O O12 0.500000 0.061374 0.500000
O O13 0.663943 0.021930 0.954011
#
# Coordination Sequence:
#
# PCOD8051657 Si02
#       6
#     4   4   4   4   4   4
#     4  12  21  40  66  98 133 181 234 284 344 415
#     4  11  24  43  68 102 142 185 227 292 349 416
#     4  11  21  43  69  99 134 184 228 283 354 407
#     4  11  24  44  70  98 143 186 228 283 355 418
#     4  12  23  40  65 101 139 174 234 290 340 412
#     4  11  22  37  71 101 131 177 235 291 346 405
#
# _framework density 20.654212000000001
#
# number of rings (size 3 to 8) (size 9 to 14) (size 15 to 20)
#    0.000    0.667    6.667    1.500    0.000    1.333 
#    0.000    4.167    0.000    0.000    0.000    0.000 
#    0.000    0.000    0.000    0.000    0.000    0.000 
#
# Total GULP energy -148744.359792 kJ/mol
# GULP energy per Si atom -12395.363316 kJ/mol
# Density = 2.060720 g / cm^3
# Si number density = 20.654212 Si / 1000 Ang^3
#
#
#
# Elastic Constant Matrix: (Units=GPa)
#
#
# Indices 1 2 3 4 5 6 
#
# 1 139.4598 56.6103 56.8145 0.0000 20.7203 0.0000
# 2 56.6103 138.2739 38.7361 0.0000 4.7339 0.0000
# 3 56.8145 38.7361 54.6163 0.0000 -1.5766 0.0000
# 4 0.0000 0.0000 0.0000 41.4991 0.0000 0.6921
# 5 20.7203 4.7339 -1.5766 0.0000 28.6786 0.0000
# 6 0.0000 0.0000 0.0000 0.6921 0.0000 37.9741
#
#
#
# Elastic Compliance Matrix: (Units=1/GPa)
#
#
# Indices 1 2 3 4 5 6 
#
# 1 0.016224 -0.001739 -0.015999 0.000000 -0.012314 0.000000
# 2 -0.001739 0.009310 -0.004810 0.000000 -0.000545 0.000000
# 3 -0.015999 -0.004810 0.038782 0.000000 0.014485 0.000000
# 4 0.000000 0.000000 0.000000 0.024104 0.000000 -0.000439
# 5 -0.012314 -0.000545 0.014485 0.000000 0.044652 0.000000
# 6 0.000000 0.000000 0.000000 -0.000439 0.000000 0.026342
#
#
# Mechanical properties :
#
#
# Convention : Reuss Voigt Hill
#
# Bulk Modulus (GPa) = 52.02841 70.74132 61.38486
# Shear Modulus (GPa) = 23.70602 33.64296 28.67449
#
# Velocity S-wave (km/s) = 3.39153 4.04030 3.73005
# Velocity P-wave (km/s) = 6.37037 7.48933 6.95240
#
# Compressibility (1/GPa) = 0.01922027
#
# Stress axis : x y z
#
# Youngs Moduli (GPa) = 61.63840 107.41138 25.78495
#
# Poissons Ratio (x) = 0.18674 0.41253
# Poissons Ratio (y) = 0.10716 0.12403
# Poissons Ratio (z) = 0.98616 0.51668
#
# Static dielectric constant tensor:
#      x y z
#    x 3.736480 0.000000 0.117460 
#    y 0.000000 3.753740 0.000000 
#    z 0.117460 0.000000 3.547410 
# 
# 
# High freq. dielectric constant tensor:
#      x y z
#    x 1.799420 0.000000 0.003630 
#    y 0.000000 1.817160 0.000000 
#    z 0.003630 0.000000 1.799220 
# 
# From -- ./inp_files/46582.got.cif
#   From: 2010.03.12/outbox.cif.g09.slc.cpg/sg5_24_cif.got.tgz:46582.got - 2010.03.31 09:47:26.
