data_PCOD8051876
_publ_section_title
;
Structure prediction by ZEFSAII (Michael W. Deem and Ramdas Pophale) SiO2 
 PCOD8051876
Probable space group: C 2
;
_chemical_formula_sum "Si O2"
_cell_formula_units_Z 24
_cell_length_a 18.508535
_cell_length_b 12.862939
_cell_length_c 9.118493
_cell_angle_alpha 90.000000
_cell_angle_beta 30.039955
_cell_angle_gamma 90.000000
_cell_volume 1086.749537
_symmetry_space_group_name_H-M "C 2"
_symmetry_group_IT_number 5
_symmetry_cell_setting 'monoclinic'
loop_
_space_group_symop_operation_xyz
x,y,z
-x,y,-z
1/2+x,1/2+y,z
1/2-x,1/2+y,-z
loop_
_atom_site_type_symbol
_atom_site_label
_atom_site_fract_x
_atom_site_fract_y
_atom_site_fract_z
Si Si1 0.226034 0.151790 0.499833
Si Si2 0.894250 0.453470 0.303557
Si Si3 0.906765 0.175455 0.958041
Si Si4 0.627290 0.335988 0.880610
Si Si5 0.087419 0.395538 0.204010
Si Si6 0.127302 0.972041 0.160731
O O1 0.347966 0.213079 0.188848
O O2 0.074290 0.142192 0.682277
O O3 0.307604 0.044181 0.378403
O O4 0.187276 0.192191 0.730198
O O5 0.782828 0.368224 0.549581
O O6 0.995144 0.477305 0.267436
O O7 0.000000 0.399434 0.000000
O O8 0.886635 0.284057 0.914257
O O9 0.841252 0.078462 0.982301
O O10 0.500000 0.379273 0.000000
O O11 0.599772 0.376337 0.094192
O O12 0.000000 0.367660 0.500000
O O13 0.236422 0.450278 0.977781
O O14 0.000000 0.983195 0.500000
#
# Coordination Sequence:
#
# PCOD8051876 Si02
#       6
#     4   4   4   4   4   4
#     4  11  23  44  75 107 141 185 252 310 356 428
#     4  12  25  45  73 107 141 190 242 304 363 429
#     4  11  23  46  75 105 141 197 242 299 375 428
#     4  12  25  47  73 110 144 186 249 307 361 431
#     4  12  24  48  71 102 148 190 241 297 367 444
#     4  12  28  47  72 107 149 195 239 303 372 445
#
# _framework density 22.084205999999998
#
# number of rings (size 3 to 8) (size 9 to 14) (size 15 to 20)
#    0.000    0.333    5.000    3.000    7.000    0.000 
#    3.000    0.833    0.000    0.000    0.000    0.000 
#    0.000    0.000    0.000    0.000    0.000    0.000 
#
# Total GULP energy -148704.424670 kJ/mol
# GULP energy per Si atom -12392.035389 kJ/mol
# Density = 2.203394 g / cm^3
# Si number density = 22.084206 Si / 1000 Ang^3
#
#
#
# Elastic Constant Matrix: (Units=GPa)
#
#
# Indices 1 2 3 4 5 6 
#
# 1 127.5863 27.9028 27.2482 0.0000 -26.6205 0.0000
# 2 27.9028 83.6224 -0.5353 0.0000 -4.9647 0.0000
# 3 27.2482 -0.5353 78.0644 0.0000 3.0782 0.0000
# 4 0.0000 0.0000 0.0000 27.3852 0.0000 -3.3703
# 5 -26.6205 -4.9647 3.0782 0.0000 49.3738 0.0000
# 6 0.0000 0.0000 0.0000 -3.3703 0.0000 47.4500
#
#
#
# Elastic Compliance Matrix: (Units=1/GPa)
#
#
# Indices 1 2 3 4 5 6 
#
# 1 0.010549 -0.003212 -0.003925 0.000000 0.005609 0.000000
# 2 -0.003212 0.013008 0.001230 0.000000 -0.000500 0.000000
# 3 -0.003925 0.001230 0.014302 0.000000 -0.002884 0.000000
# 4 0.000000 0.000000 0.000000 0.036838 0.000000 0.002617
# 5 0.005609 -0.000500 -0.002884 0.000000 0.023407 0.000000
# 6 0.000000 0.000000 0.000000 0.002617 0.000000 0.021261
#
#
# Mechanical properties :
#
#
# Convention : Reuss Voigt Hill
#
# Bulk Modulus (GPa) = 38.39489 44.27829 41.33659
# Shear Modulus (GPa) = 35.74948 40.48564 38.11756
#
# Velocity S-wave (km/s) = 4.02777 4.28628 4.15903
# Velocity P-wave (km/s) = 6.24932 6.67754 6.46698
#
# Compressibility (1/GPa) = 0.02604513
#
# Stress axis : x y z
#
# Youngs Moduli (GPa) = 94.79576 76.87307 69.91922
#
# Poissons Ratio (x) = 0.24692 0.27445
# Poissons Ratio (y) = 0.30449 -0.08601
# Poissons Ratio (z) = 0.37210 -0.09456
#
# Static dielectric constant tensor:
#      x y z
#    x 4.200460 0.000000 -0.013160 
#    y 0.000000 3.911900 0.000000 
#    z -0.013160 0.000000 4.284230 
# 
# 
# High freq. dielectric constant tensor:
#      x y z
#    x 1.880680 0.000000 -0.002970 
#    y 0.000000 1.863120 0.000000 
#    z -0.002970 0.000000 1.885380 
# 
# From -- ./inp_files/27659.got.cif
#   From: 2010.03.12/outbox.cif.g09.slc.cpg/sg5_14_cif.got.tgz:27659.got - 2010.03.31 09:47:26.
