data_PCOD8051261
_publ_section_title
;
Structure prediction by ZEFSAII (Michael W. Deem and Ramdas Pophale) SiO2 
 PCOD8051261
Probable space group: C 2
;
_chemical_formula_sum "Si O2"
_cell_formula_units_Z 18
_cell_length_a 7.376698
_cell_length_b 7.228276
_cell_length_c 17.492554
_cell_angle_alpha 90.000000
_cell_angle_beta 120.508028
_cell_angle_gamma 90.000000
_cell_volume 803.589943
_symmetry_space_group_name_H-M "C 2"
_symmetry_group_IT_number 5
_symmetry_cell_setting 'monoclinic'
loop_
_space_group_symop_operation_xyz
x,y,z
-x,y,-z
1/2+x,1/2+y,z
1/2-x,1/2+y,-z
loop_
_atom_site_type_symbol
_atom_site_label
_atom_site_fract_x
_atom_site_fract_y
_atom_site_fract_z
Si Si1 0.949159 0.793960 0.571456
Si Si2 0.790949 0.162174 0.759094
Si Si3 0.775282 0.299130 0.168514
Si Si4 0.500000 0.647117 0.500000
Si Si5 0.032881 0.434928 0.095008
O O1 0.705340 0.774865 0.542558
O O2 0.000000 0.698635 0.500000
O O3 0.085525 0.696305 0.665242
O O4 0.002555 0.013286 0.575787
O O5 0.787411 0.297271 0.832719
O O6 0.004456 0.204227 0.756873
O O7 0.795673 0.948279 0.784480
O O8 0.594602 0.147633 0.120990
O O9 0.815056 0.396780 0.094277
O O10 0.000000 0.387686 0.000000
#
# Coordination Sequence:
#
# PCOD8051261 Si02
#       5
#     4   4   4   2   4
#     4  10  24  46  66 103 133 183 218 284 329 410
#     4  10  24  46  67 100 133 177 224 270 337 394
#     4  10  25  40  68  95 131 174 221 274 325 397
#     4  10  24  42  68  98 136 174 226 270 342 390
#     4  10  26  42  68  97 136 173 222 272 333 392
#
# _framework density 22.399481999999999
#
# number of rings (size 3 to 8) (size 9 to 14) (size 15 to 20)
#    2.000    0.000    0.000    1.333    7.778    2.667 
#    0.000    0.000    0.000    0.000    0.000    0.000 
#    0.000    0.000    0.000    0.000    0.000    0.000 
#
# Total GULP energy -111524.240881 kJ/mol
# GULP energy per Si atom -12391.582320 kJ/mol
# Density = 2.234850 g / cm^3
# Si number density = 22.399482 Si / 1000 Ang^3
#
#
#
# Elastic Constant Matrix: (Units=GPa)
#
#
# Indices 1 2 3 4 5 6 
#
# 1 85.4440 63.2495 21.0873 0.0000 4.7467 0.0000
# 2 63.2495 115.1552 36.3014 0.0000 1.7054 0.0000
# 3 21.0873 36.3014 128.7876 0.0000 -0.2148 0.0000
# 4 0.0000 0.0000 0.0000 18.2957 0.0000 5.3112
# 5 4.7467 1.7054 -0.2148 0.0000 14.3854 0.0000
# 6 0.0000 0.0000 0.0000 5.3112 0.0000 42.6885
#
#
#
# Elastic Compliance Matrix: (Units=1/GPa)
#
#
# Indices 1 2 3 4 5 6 
#
# 1 0.020130 -0.010904 -0.000231 0.000000 -0.005353 0.000000
# 2 -0.010904 0.015457 -0.002569 0.000000 0.001727 0.000000
# 3 -0.000231 -0.002569 0.008527 0.000000 0.000508 0.000000
# 4 0.000000 0.000000 0.000000 0.056706 0.000000 -0.007055
# 5 -0.005353 0.001727 0.000508 0.000000 0.071084 0.000000
# 6 0.000000 0.000000 0.000000 -0.007055 0.000000 0.024303
#
#
# Mechanical properties :
#
#
# Convention : Reuss Voigt Hill
#
# Bulk Modulus (GPa) = 59.85806 63.40701 61.63254
# Shear Modulus (GPa) = 21.81645 28.99048 25.40347
#
# Velocity S-wave (km/s) = 3.12424 3.60147 3.37131
# Velocity P-wave (km/s) = 6.30836 6.75743 6.53676
#
# Compressibility (1/GPa) = 0.01670619
#
# Stress axis : x y z
#
# Youngs Moduli (GPa) = 49.67759 64.69456 117.26794
#
# Poissons Ratio (x) = 0.70544 0.02713
# Poissons Ratio (y) = 0.54169 0.30122
# Poissons Ratio (z) = 0.01149 0.16618
#
# Static dielectric constant tensor:
#      x y z
#    x 3.824120 0.000000 -0.035590 
#    y 0.000000 3.867240 0.000000 
#    z -0.035590 0.000000 3.820790 
# 
# 
# High freq. dielectric constant tensor:
#      x y z
#    x 1.877170 0.000000 0.000580 
#    y 0.000000 1.885400 0.000000 
#    z 0.000580 0.000000 1.861050 
# 
# From -- ./inp_files/59221.got.cif
#   From: 2010.03.12/outbox.cif.g09.slc.cpg/sg5_30_cif.got.tgz:59221.got - 2010.03.31 09:47:26.
