data_PCOD8051300
_publ_section_title
;
Structure prediction by ZEFSAII (Michael W. Deem and Ramdas Pophale) SiO2 
 PCOD8051300
Probable space group: C 2
;
_chemical_formula_sum "Si O2"
_cell_formula_units_Z 28
_cell_length_a 14.204374
_cell_length_b 11.061424
_cell_length_c 8.518261
_cell_angle_alpha 90.000000
_cell_angle_beta 79.290061
_cell_angle_gamma 90.000000
_cell_volume 1315.080249
_symmetry_space_group_name_H-M "C 2"
_symmetry_group_IT_number 5
_symmetry_cell_setting 'monoclinic'
loop_
_space_group_symop_operation_xyz
x,y,z
-x,y,-z
1/2+x,1/2+y,z
1/2-x,1/2+y,-z
loop_
_atom_site_type_symbol
_atom_site_label
_atom_site_fract_x
_atom_site_fract_y
_atom_site_fract_z
Si Si1 0.420854 0.980940 0.728123
Si Si2 0.158434 0.075450 0.211762
Si Si3 0.735784 0.604850 0.855337
Si Si4 0.500000 0.863737 0.000000
Si Si5 0.000000 0.679962 0.500000
Si Si6 0.357717 0.772564 0.541861
Si Si7 0.689823 0.319041 0.361255
Si Si8 0.552093 0.657670 0.769510
O O1 0.426671 0.867819 0.608766
O O2 0.309935 0.014233 0.754388
O O3 0.492099 0.089625 0.653237
O O4 0.440998 0.948821 0.902055
O O5 0.189909 0.182156 0.318270
O O6 0.050565 0.095211 0.180295
O O7 0.164349 0.948570 0.298187
O O8 0.231023 0.086873 0.043735
O O9 0.771366 0.739065 0.795693
O O10 0.634862 0.568423 0.805858
O O11 0.433800 0.777816 0.127439
O O12 0.095172 0.762667 0.474857
O O13 0.273143 0.832834 0.465705
O O14 0.430139 0.693291 0.415002
#
# Coordination Sequence:
#
# PCOD8051300 Si02
#       8
#     4   4   4   2   2   4   4   4
#     4  11  24  42  70  95 133 175 215 279 326 404
#     4  12  24  41  72  98 132 176 222 284 331 391
#     4  10  24  44  65  97 133 172 221 270 341 394
#     4  12  22  40  68 100 126 172 218 280 322 386
#     4  10  24  48  62  98 136 176 224 268 336 398
#     4  11  25  41  66 103 125 177 228 266 338 389
#     4  10  27  43  68  95 138 176 219 280 330 403
#     4  11  22  42  65 100 130 166 225 273 321 394
#
# _framework density 21.291475999999999
#
# number of rings (size 3 to 8) (size 9 to 14) (size 15 to 20)
#    0.000    1.143    2.857    1.286   14.000    1.143 
#    0.000    0.000   12.571    0.000    0.000    0.000 
#    0.000    0.000    0.000    0.000    0.000    0.000 
#
# Total GULP energy -173552.040345 kJ/mol
# GULP energy per Si atom -12396.574310 kJ/mol
# Density = 2.124302 g / cm^3
# Si number density = 21.291476 Si / 1000 Ang^3
#
#
#
# Elastic Constant Matrix: (Units=GPa)
#
#
# Indices 1 2 3 4 5 6 
#
# 1 88.1683 37.0207 33.9011 0.0000 2.7422 0.0000
# 2 37.0207 101.1226 38.6008 0.0000 11.1772 0.0000
# 3 33.9011 38.6008 124.7431 0.0000 3.2652 0.0000
# 4 0.0000 0.0000 0.0000 36.4513 0.0000 3.8141
# 5 2.7422 11.1772 3.2652 0.0000 37.8104 0.0000
# 6 0.0000 0.0000 0.0000 3.8141 0.0000 26.5930
#
#
#
# Elastic Compliance Matrix: (Units=1/GPa)
#
#
# Indices 1 2 3 4 5 6 
#
# 1 0.014080 -0.004240 -0.002526 0.000000 0.000450 0.000000
# 2 -0.004240 0.012846 -0.002738 0.000000 -0.003253 0.000000
# 3 -0.002526 -0.002738 0.009546 0.000000 0.000168 0.000000
# 4 0.000000 0.000000 0.000000 0.027852 0.000000 -0.003995
# 5 0.000450 -0.003253 0.000168 0.000000 0.027362 0.000000
# 6 0.000000 0.000000 0.000000 -0.003995 0.000000 0.038177
#
#
# Mechanical properties :
#
#
# Convention : Reuss Voigt Hill
#
# Bulk Modulus (GPa) = 57.26160 59.23100 58.24630
# Shear Modulus (GPa) = 32.32255 33.80504 33.06380
#
# Velocity S-wave (km/s) = 3.90050 3.98895 3.94498
# Velocity P-wave (km/s) = 6.87297 7.00679 6.94021
#
# Compressibility (1/GPa) = 0.01746371
#
# Stress axis : x y z
#
# Youngs Moduli (GPa) = 71.02495 77.84615 104.75899
#
# Poissons Ratio (x) = 0.33007 0.26463
# Poissons Ratio (y) = 0.30115 0.28679
# Poissons Ratio (z) = 0.17942 0.21311
#
# Static dielectric constant tensor:
#      x y z
#    x 3.857820 0.000000 -0.062880 
#    y 0.000000 3.784280 0.000000 
#    z -0.062880 0.000000 4.022210 
# 
# 
# High freq. dielectric constant tensor:
#      x y z
#    x 1.837130 0.000000 -0.008830 
#    y 0.000000 1.822300 0.000000 
#    z -0.008830 0.000000 1.851940 
# 
# From -- ./inp_files/23621.got.cif
#   From: 2010.03.12/outbox.cif.g09.slc.cpg/sg5_12_cif.got.tgz:23621.got - 2010.03.31 09:47:26.
