data_PCOD8051556
_publ_section_title
;
Structure prediction by ZEFSAII (Michael W. Deem and Ramdas Pophale) SiO2 
 PCOD8051556
Probable space group: C 2
;
_chemical_formula_sum "Si O2"
_cell_formula_units_Z 28
_cell_length_a 16.542737
_cell_length_b 13.253163
_cell_length_c 6.617829
_cell_angle_alpha 90.000000
_cell_angle_beta 123.390521
_cell_angle_gamma 90.000000
_cell_volume 1211.426733
_symmetry_space_group_name_H-M "C 2"
_symmetry_group_IT_number 5
_symmetry_cell_setting 'monoclinic'
loop_
_space_group_symop_operation_xyz
x,y,z
-x,y,-z
1/2+x,1/2+y,z
1/2-x,1/2+y,-z
loop_
_atom_site_type_symbol
_atom_site_label
_atom_site_fract_x
_atom_site_fract_y
_atom_site_fract_z
Si Si1 0.500000 0.009851 0.000000
Si Si2 0.911982 0.007763 0.997281
Si Si3 0.818765 0.623796 0.905847
Si Si4 0.314492 0.689485 0.631681
Si Si5 0.823280 0.783808 0.246207
Si Si6 0.500000 0.430000 0.500000
Si Si7 0.223773 0.440079 0.880682
Si Si8 0.561192 0.857663 0.401694
O O1 0.406173 0.080748 0.890184
O O2 0.504144 0.936657 0.811624
O O3 0.880681 0.113930 0.854365
O O4 0.820233 0.933862 0.873459
O O5 0.000000 0.955710 0.000000
O O6 0.958386 0.011363 0.284328
O O7 0.727778 0.646996 0.635898
O O8 0.855022 0.717045 0.094586
O O9 0.776216 0.545693 0.006890
O O10 0.218755 0.720545 0.624881
O O11 0.387928 0.779242 0.677246
O O12 0.911854 0.854561 0.442796
O O13 0.729854 0.849737 0.049980
O O14 0.137050 0.431988 0.608650
O O15 0.500000 0.805297 0.500000
#
# Coordination Sequence:
#
# PCOD8051556 Si02
#       8
#     2   4   4   4   4   2   4   4
#     4  12  28  44  78 114 142 200 250 306 386 438
#     4  11  27  45  74 107 144 197 245 300 377 444
#     4  12  26  47  77 110 151 197 250 311 377 449
#     4  12  28  45  77 107 150 197 252 306 377 453
#     4  11  26  48  75 110 150 198 248 309 376 448
#     4  10  28  48  74 104 154 194 246 314 370 450
#     4  11  24  52  73 103 157 195 235 319 377 434
#     4  12  27  49  74 110 153 194 251 315 371 448
#
# _framework density 23.113243000000001
#
# number of rings (size 3 to 8) (size 9 to 14) (size 15 to 20)
#    0.000    0.571    4.286    1.714    9.000    1.143 
#    1.286    0.000    0.000    0.000    0.000    0.000 
#    0.000    0.000    0.000    0.000    0.000    0.000 
#
# Total GULP energy -173500.469169 kJ/mol
# GULP energy per Si atom -12392.890655 kJ/mol
# Density = 2.306064 g / cm^3
# Si number density = 23.113243 Si / 1000 Ang^3
#
#
#
# Elastic Constant Matrix: (Units=GPa)
#
#
# Indices 1 2 3 4 5 6 
#
# 1 113.3306 17.9044 32.5751 0.0000 -4.9142 0.0000
# 2 17.9044 92.4877 52.9447 0.0000 -1.2123 0.0000
# 3 32.5751 52.9447 131.7741 0.0000 6.4341 0.0000
# 4 0.0000 0.0000 0.0000 44.9845 0.0000 -9.6284
# 5 -4.9142 -1.2123 6.4341 0.0000 31.2683 0.0000
# 6 0.0000 0.0000 0.0000 -9.6284 0.0000 27.4331
#
#
#
# Elastic Compliance Matrix: (Units=1/GPa)
#
#
# Indices 1 2 3 4 5 6 
#
# 1 0.009645 -0.000548 -0.002260 0.000000 0.001960 0.000000
# 2 -0.000548 0.014165 -0.005635 0.000000 0.001623 0.000000
# 3 -0.002260 -0.005635 0.010546 0.000000 -0.002744 0.000000
# 4 0.000000 0.000000 0.000000 0.024035 0.000000 0.008436
# 5 0.001960 0.001623 -0.002744 0.000000 0.032917 0.000000
# 6 0.000000 0.000000 0.000000 0.008436 0.000000 0.039413
#
#
# Mechanical properties :
#
#
# Convention : Reuss Voigt Hill
#
# Bulk Modulus (GPa) = 57.24090 60.49343 58.86717
# Shear Modulus (GPa) = 32.58810 36.34838 34.46824
#
# Velocity S-wave (km/s) = 3.75898 3.96993 3.86589
# Velocity P-wave (km/s) = 6.60750 6.87337 6.74175
#
# Compressibility (1/GPa) = 0.01747002
#
# Stress axis : x y z
#
# Youngs Moduli (GPa) = 103.68275 70.59414 94.82705
#
# Poissons Ratio (x) = 0.03867 0.21429
# Poissons Ratio (y) = 0.05679 0.53438
# Poissons Ratio (z) = 0.23431 0.39782
#
# Static dielectric constant tensor:
#      x y z
#    x 4.374320 0.000000 -0.046940 
#    y 0.000000 4.068330 0.000000 
#    z -0.046940 0.000000 4.308270 
# 
# 
# High freq. dielectric constant tensor:
#      x y z
#    x 1.926540 0.000000 0.002960 
#    y 0.000000 1.905490 0.000000 
#    z 0.002960 0.000000 1.926020 
# 
# From -- ./inp_files/8717.got.cif
#   From: 2010.03.12/outbox.cif.g09.slc.cpg/sg5_5_cif.got.tgz:8717.got - 2010.03.31 09:47:26.
