data_PCOD8051402
_publ_section_title
;
Structure prediction by ZEFSAII (Michael W. Deem and Ramdas Pophale) SiO2 
 PCOD8051402
Probable space group: C 2
;
_chemical_formula_sum "Si O2"
_cell_formula_units_Z 28
_cell_length_a 11.864860
_cell_length_b 7.817431
_cell_length_c 13.949494
_cell_angle_alpha 90.000000
_cell_angle_beta 108.627001
_cell_angle_gamma 90.000000
_cell_volume 1226.078925
_symmetry_space_group_name_H-M "C 2"
_symmetry_group_IT_number 5
_symmetry_cell_setting 'monoclinic'
loop_
_space_group_symop_operation_xyz
x,y,z
-x,y,-z
1/2+x,1/2+y,z
1/2-x,1/2+y,-z
loop_
_atom_site_type_symbol
_atom_site_label
_atom_site_fract_x
_atom_site_fract_y
_atom_site_fract_z
Si Si1 0.423371 0.528350 0.302982
Si Si2 0.146456 0.240808 0.357443
Si Si3 0.786296 0.101246 0.824976
Si Si4 0.000000 0.000254 0.000000
Si Si5 0.800182 0.720914 0.759785
Si Si6 0.810088 0.620944 0.558241
Si Si7 0.057450 0.764989 0.849859
Si Si8 0.000000 0.834522 0.500000
O O1 0.507927 0.693725 0.318732
O O2 0.293615 0.580442 0.227376
O O3 0.477077 0.387299 0.247663
O O4 0.416725 0.454052 0.409886
O O5 0.207701 0.216319 0.269516
O O6 0.158316 0.433594 0.395234
O O7 0.205958 0.112622 0.451063
O O8 0.673378 0.153520 0.859246
O O9 0.771990 0.902661 0.798188
O O10 0.907769 0.122971 0.918992
O O11 0.923450 0.877398 0.049698
O O12 0.773733 0.736492 0.639113
O O13 0.933919 0.655546 0.823709
O O14 0.923647 0.709608 0.543640
#
# Coordination Sequence:
#
# PCOD8051402 Si02
#       8
#     4   4   4   2   4   4   4   2
#     4  12  24  44  70 101 149 187 240 292 350 422
#     4  12  25  43  69 107 143 196 241 291 355 426
#     4  11  24  49  77 101 146 186 236 303 362 422
#     4  10  24  48  74 108 140 184 244 298 370 416
#     4  11  24  43  69 106 141 189 234 283 353 426
#     4  12  25  41  67 106 149 192 243 283 352 430
#     4  11  24  48  72 104 145 185 233 307 352 424
#     4  12  24  44  64 100 154 196 232 298 340 420
#
# _framework density 22.837029000000001
#
# number of rings (size 3 to 8) (size 9 to 14) (size 15 to 20)
#    0.000    0.571    4.286    5.143    2.000    4.000 
#    0.000    0.000    0.000    0.857    0.000    0.000 
#    0.000    0.000    0.000    0.000    0.000    0.000 
#
# Total GULP energy -173620.277818 kJ/mol
# GULP energy per Si atom -12401.448416 kJ/mol
# Density = 2.278505 g / cm^3
# Si number density = 22.837029 Si / 1000 Ang^3
#
#
#
# Elastic Constant Matrix: (Units=GPa)
#
#
# Indices 1 2 3 4 5 6 
#
# 1 134.0945 42.8921 25.7546 0.0000 15.5596 0.0000
# 2 42.8921 90.4486 26.9629 0.0000 8.7172 0.0000
# 3 25.7546 26.9629 106.4615 0.0000 8.8653 0.0000
# 4 0.0000 0.0000 0.0000 34.5174 0.0000 -2.4245
# 5 15.5596 8.7172 8.8653 0.0000 43.1011 0.0000
# 6 0.0000 0.0000 0.0000 -2.4245 0.0000 35.5721
#
#
#
# Elastic Compliance Matrix: (Units=1/GPa)
#
#
# Indices 1 2 3 4 5 6 
#
# 1 0.009144 -0.003798 -0.001057 0.000000 -0.002315 0.000000
# 2 -0.003798 0.013679 -0.002472 0.000000 -0.000887 0.000000
# 3 -0.001057 -0.002472 0.010379 0.000000 -0.001253 0.000000
# 4 0.000000 0.000000 0.000000 0.029110 0.000000 0.001984
# 5 -0.002315 -0.000887 -0.001253 0.000000 0.024474 0.000000
# 6 0.000000 0.000000 0.000000 0.001984 0.000000 0.028247
#
#
# Mechanical properties :
#
#
# Convention : Reuss Voigt Hill
#
# Bulk Modulus (GPa) = 53.91303 58.02487 55.96895
# Shear Modulus (GPa) = 36.79951 38.33111 37.56531
#
# Velocity S-wave (km/s) = 4.01858 4.10135 4.06017
# Velocity P-wave (km/s) = 6.72242 6.92037 6.82211
#
# Compressibility (1/GPa) = 0.01854839
#
# Stress axis : x y z
#
# Youngs Moduli (GPa) = 109.36160 73.10277 96.34598
#
# Poissons Ratio (x) = 0.27763 0.10188
# Poissons Ratio (y) = 0.41534 0.23815
# Poissons Ratio (z) = 0.11564 0.18070
#
# Static dielectric constant tensor:
#      x y z
#    x 4.300860 0.000000 -0.052500 
#    y 0.000000 3.869230 0.000000 
#    z -0.052500 0.000000 4.378990 
# 
# 
# High freq. dielectric constant tensor:
#      x y z
#    x 1.918360 0.000000 -0.002480 
#    y 0.000000 1.888300 0.000000 
#    z -0.002480 0.000000 1.901940 
# 
# From -- ./inp_files/52324.got.cif
#   From: 2010.03.12/outbox.cif.g09.slc.cpg/sg5_27_cif.got.tgz:52324.got - 2010.03.31 09:47:26.
