data_PCOD8051518
_publ_section_title
;
Structure prediction by ZEFSAII (Michael W. Deem and Ramdas Pophale) SiO2 
 PCOD8051518
Probable space group: C 2
;
_chemical_formula_sum "Si O2"
_cell_formula_units_Z 28
_cell_length_a 16.842988
_cell_length_b 5.740562
_cell_length_c 14.272372
_cell_angle_alpha 90.000000
_cell_angle_beta 69.215699
_cell_angle_gamma 90.000000
_cell_volume 1290.165796
_symmetry_space_group_name_H-M "C 2"
_symmetry_group_IT_number 5
_symmetry_cell_setting 'monoclinic'
loop_
_space_group_symop_operation_xyz
x,y,z
-x,y,-z
1/2+x,1/2+y,z
1/2-x,1/2+y,-z
loop_
_atom_site_type_symbol
_atom_site_label
_atom_site_fract_x
_atom_site_fract_y
_atom_site_fract_z
Si Si1 0.000000 0.763581 0.500000
Si Si2 0.044298 0.892697 0.142798
Si Si3 0.297742 0.729812 0.494854
Si Si4 0.351383 0.775281 0.999179
Si Si5 0.378752 0.907695 0.636106
Si Si6 0.969983 0.116979 0.347940
Si Si7 0.500000 0.088876 0.000000
Si Si8 0.689987 0.087152 0.154378
O O1 0.084239 0.614877 0.442936
O O2 0.026073 0.909145 0.579675
O O3 0.106754 0.746707 0.182622
O O4 0.985815 0.734414 0.101014
O O5 0.982460 0.037985 0.235559
O O6 0.099965 0.042080 0.047769
O O7 0.250122 0.479964 0.500124
O O8 0.332739 0.723429 0.587090
O O9 0.377790 0.736698 0.390661
O O10 0.275600 0.731437 0.103453
O O11 0.414534 0.942739 0.027445
O O12 0.312873 0.882426 0.920667
O O13 0.457113 0.800366 0.659628
O O14 0.308741 0.989403 0.740657
#
# Coordination Sequence:
#
# PCOD8051518 Si02
#       8
#     2   4   4   4   4   4   2   4
#     4  12  20  42  74 106 138 178 256 314 348 432
#     4  11  23  44  71 105 135 187 244 296 367 438
#     4  12  28  50  71 111 162 194 240 311 384 447
#     4  11  22  45  68 101 142 177 236 304 363 428
#     4  12  24  44  75 106 135 195 250 300 367 439
#     4  12  24  44  79 101 141 195 250 301 357 453
#     4  10  26  46  68  96 152 190 230 290 380 454
#     4  11  23  40  74 106 133 180 248 313 353 424
#
# _framework density 21.702635999999998
#
# number of rings (size 3 to 8) (size 9 to 14) (size 15 to 20)
#    0.000    0.571    7.143    1.286    0.000    0.000 
#    5.143    1.429    0.000    0.000    0.000    0.000 
#    0.000    0.000    0.000    0.000    0.000    0.000 
#
# Total GULP energy -173613.280659 kJ/mol
# GULP energy per Si atom -12400.948619 kJ/mol
# Density = 2.165324 g / cm^3
# Si number density = 21.702636 Si / 1000 Ang^3
#
#
#
# Elastic Constant Matrix: (Units=GPa)
#
#
# Indices 1 2 3 4 5 6 
#
# 1 88.2130 29.8597 47.1625 0.0000 -6.6237 -0.0002
# 2 29.8597 94.0581 31.7058 0.0004 -7.7176 -0.0006
# 3 47.1625 31.7058 142.1134 0.0001 -23.9944 -0.0002
# 4 0.0000 0.0004 0.0001 9.4631 0.0000 8.9609
# 5 -6.6237 -7.7176 -23.9944 0.0000 22.4728 -0.0001
# 6 -0.0002 -0.0006 -0.0002 8.9609 -0.0001 7.8645
#
#
#
# Elastic Compliance Matrix: (Units=1/GPa)
#
#
# Indices 1 2 3 4 5 6 
#
# 1 0.014690 -0.003306 -0.004389 -0.000002 -0.001492 0.000002
# 2 -0.003306 0.012281 -0.001336 0.000016 0.001817 -0.000017
# 3 -0.004389 -0.001336 0.010364 0.000002 0.009313 -0.000002
# 4 -0.000002 0.000016 0.000002 -1.338731 0.000012 1.525362
# 5 -0.001492 0.001817 0.009313 0.000012 0.054626 -0.000013
# 6 0.000002 -0.000017 -0.000002 1.525362 -0.000013 -1.610857
#
#
# Mechanical properties :
#
#
# Convention : Reuss Voigt Hill
#
# Bulk Modulus (GPa) = 51.89070 60.20449 56.04759
# Shear Modulus (GPa) = -1.76483 22.33719 10.28618
#
# Velocity S-wave (km/s) = -0.90275 3.21166 2.17942
# Velocity P-wave (km/s) = 4.78280 6.44623 5.67578
#
# Compressibility (1/GPa) = 0.01927128
#
# Stress axis : x y z
#
# Youngs Moduli (GPa) = 68.07303 81.42845 96.49012
#
# Poissons Ratio (x) = 0.26923 0.42354
# Poissons Ratio (y) = 0.22507 0.12890
# Poissons Ratio (z) = 0.29880 0.10878
#
# Static dielectric constant tensor:
#      x y z
#    x 3.951780 0.000000 -0.093900 
#    y 0.000000 4.159470 0.000000 
#    z -0.093900 0.000000 3.978790 
# 
# 
# High freq. dielectric constant tensor:
#      x y z
#    x 1.845350 0.000000 -0.002460 
#    y 0.000000 1.864380 0.000000 
#    z -0.002460 0.000000 1.857970 
# 
# From -- ./inp_files/55254.got.cif
#   From: 2010.03.12/outbox.cif.g09.slc.cpg/sg5_28_cif.got.tgz:55254.got - 2010.03.31 09:47:26.
