data_PCOD8051546
_publ_section_title
;
Structure prediction by ZEFSAII (Michael W. Deem and Ramdas Pophale) SiO2 
 PCOD8051546
Probable space group: C 2
;
_chemical_formula_sum "Si O2"
_cell_formula_units_Z 22
_cell_length_a 19.759451
_cell_length_b 5.093004
_cell_length_c 9.396733
_cell_angle_alpha 90.000000
_cell_angle_beta 116.466965
_cell_angle_gamma 90.000000
_cell_volume 846.528759
_symmetry_space_group_name_H-M "C 2"
_symmetry_group_IT_number 5
_symmetry_cell_setting 'monoclinic'
loop_
_space_group_symop_operation_xyz
x,y,z
-x,y,-z
1/2+x,1/2+y,z
1/2-x,1/2+y,-z
loop_
_atom_site_type_symbol
_atom_site_label
_atom_site_fract_x
_atom_site_fract_y
_atom_site_fract_z
Si Si1 0.574455 0.606360 0.314307
Si Si2 0.263645 0.593103 0.590073
Si Si3 0.000000 0.427118 0.000000
Si Si4 0.794992 0.053704 0.081472
Si Si5 0.436355 0.243133 0.183604
Si Si6 0.136372 0.395451 0.639529
O O1 0.651661 0.468917 0.329767
O O2 0.547543 0.755974 0.151555
O O3 0.514026 0.385465 0.305014
O O4 0.585252 0.805846 0.458214
O O5 0.222281 0.392671 0.442545
O O6 0.209060 0.585358 0.676315
O O7 0.943643 0.600553 0.040412
O O8 0.822580 0.130365 0.265905
O O9 0.871503 0.950860 0.080027
O O10 0.767699 0.322722 0.977589
O O11 0.413866 0.041858 0.288960
#
# Coordination Sequence:
#
# PCOD8051546 Si02
#       6
#     4   4   2   4   4   4
#     4  11  29  55  82 125 172 227 292 357 437 515
#     4  10  26  52  80 121 166 219 277 355 432 510
#     4  12  30  54  78 118 180 232 276 366 438 508
#     4  12  28  53  82 128 170 216 287 360 431 515
#     4  12  29  54  84 130 169 234 287 366 434 513
#     4  11  28  54  91 124 168 228 293 361 427 525
#
# _framework density 25.988486000000002
#
# number of rings (size 3 to 8) (size 9 to 14) (size 15 to 20)
#    0.000    0.727    1.818    1.636   10.182   10.182 
#    3.273    0.000    0.000    0.000    0.000    0.000 
#    0.000    0.000    0.000    0.000    0.000    0.000 
#
# Total GULP energy -136286.634685 kJ/mol
# GULP energy per Si atom -12389.694062 kJ/mol
# Density = 2.592933 g / cm^3
# Si number density = 25.988486 Si / 1000 Ang^3
#
#
#
# Elastic Constant Matrix: (Units=GPa)
#
#
# Indices 1 2 3 4 5 6 
#
# 1 154.5952 37.7522 78.5280 0.0000 -6.2595 0.0000
# 2 37.7522 124.9042 71.6221 0.0000 -6.0563 0.0000
# 3 78.5280 71.6221 152.3785 0.0000 -8.5601 0.0000
# 4 0.0000 0.0000 0.0000 112.8992 0.0000 41.2583
# 5 -6.2595 -6.0563 -8.5601 0.0000 47.9232 0.0000
# 6 0.0000 0.0000 0.0000 41.2583 0.0000 81.7360
#
#
#
# Elastic Compliance Matrix: (Units=1/GPa)
#
#
# Indices 1 2 3 4 5 6 
#
# 1 0.008768 -0.000073 -0.004465 0.000000 0.000338 0.000000
# 2 -0.000073 0.010971 -0.005093 0.000000 0.000467 0.000000
# 3 -0.004465 -0.005093 0.011302 0.000000 0.000792 0.000000
# 4 0.000000 0.000000 0.000000 0.010861 0.000000 -0.005482
# 5 0.000338 0.000467 0.000792 0.000000 0.021111 0.000000
# 6 0.000000 0.000000 0.000000 -0.005482 0.000000 0.015002
#
#
# Mechanical properties :
#
#
# Convention : Reuss Voigt Hill
#
# Bulk Modulus (GPa) = 84.89801 89.74249 87.32025
# Shear Modulus (GPa) = 49.40489 64.77670 57.09080
#
# Velocity S-wave (km/s) = 4.36481 4.99793 4.69206
# Velocity P-wave (km/s) = 7.62500 8.24089 7.93892
#
# Compressibility (1/GPa) = 0.01177884
#
# Stress axis : x y z
#
# Youngs Moduli (GPa) = 114.04758 91.14762 88.48024
#
# Poissons Ratio (x) = 0.00669 0.39508
# Poissons Ratio (y) = 0.00837 0.45060
# Poissons Ratio (z) = 0.50925 0.46419
#
# Static dielectric constant tensor:
#      x y z
#    x 5.296350 0.000000 0.498590 
#    y 0.000000 4.961660 0.000000 
#    z 0.498590 0.000000 0.789790 
# 
# 
# High freq. dielectric constant tensor:
#      x y z
#    x 2.063640 0.000000 0.005340 
#    y 0.000000 2.050860 0.000000 
#    z 0.005340 0.000000 2.030730 
# 
# From -- ./inp_files/28387.got.cif
#   From: 2010.03.12/outbox.cif.g09.slc.cpg/sg5_15_cif.got.tgz:28387.got - 2010.03.31 09:47:26.
