data_PCOD8051931
_publ_section_title
;
Structure prediction by ZEFSAII (Michael W. Deem and Ramdas Pophale) SiO2 
 PCOD8051931
Probable space group: C 2
;
_chemical_formula_sum "Si O2"
_cell_formula_units_Z 30
_cell_length_a 30.881948
_cell_length_b 8.857499
_cell_length_c 9.115803
_cell_angle_alpha 90.000000
_cell_angle_beta 33.673994
_cell_angle_gamma 90.000000
_cell_volume 1382.567175
_symmetry_space_group_name_H-M "C 2"
_symmetry_group_IT_number 5
_symmetry_cell_setting 'monoclinic'
loop_
_space_group_symop_operation_xyz
x,y,z
-x,y,-z
1/2+x,1/2+y,z
1/2-x,1/2+y,-z
loop_
_atom_site_type_symbol
_atom_site_label
_atom_site_fract_x
_atom_site_fract_y
_atom_site_fract_z
Si Si1 0.590084 0.291480 0.261759
Si Si2 0.240139 0.768270 0.364904
Si Si3 0.000000 0.066737 0.000000
Si Si4 0.985039 0.533914 0.882917
Si Si5 0.821846 0.581545 0.203789
Si Si6 0.593053 0.313619 0.586771
Si Si7 0.614620 0.622599 0.168119
Si Si8 0.491228 0.739004 0.308159
O O1 0.500000 0.236269 0.500000
O O2 0.620217 0.328292 0.341562
O O3 0.598655 0.452445 0.155814
O O4 0.646237 0.168076 0.030211
O O5 0.231943 0.694736 0.549125
O O6 0.160435 0.749894 0.499623
O O7 0.269977 0.940000 0.297294
O O8 0.296646 0.668587 0.103734
O O9 0.931243 0.966939 0.263950
O O10 0.028009 0.171246 0.054918
O O11 0.018691 0.702477 0.782982
O O12 0.030214 0.416564 0.648965
O O13 0.893585 0.531128 0.103218
O O14 0.000000 0.465294 0.000000
O O15 0.562037 0.735509 0.222240
O O16 0.585213 0.647494 0.419517
#
# Coordination Sequence:
#
# PCOD8051931 Si02
#       8
#     4   4   2   4   4   4   4   4
#     4  12  24  45  75 102 133 190 243 295 356 430
#     4  12  28  46  68 104 148 191 234 302 371 433
#     4  12  22  44  68 104 130 186 234 290 356 420
#     4  12  23  44  71 107 135 184 244 300 345 429
#     4  12  27  46  73 101 144 194 239 295 370 440
#     4  12  26  43  71 102 144 183 241 297 356 436
#     4  11  24  45  67 102 140 185 234 296 355 426
#     4  11  24  41  73 100 137 180 241 297 348 429
#
# _framework density 21.698765999999999
#
# number of rings (size 3 to 8) (size 9 to 14) (size 15 to 20)
#    0.000    0.267    8.000    0.800    5.600    1.067 
#    0.000    0.000    0.000    0.000    0.000    0.000 
#    0.000    0.000    0.000    0.000    0.000    0.000 
#
# Total GULP energy -185946.229794 kJ/mol
# GULP energy per Si atom -12396.415320 kJ/mol
# Density = 2.164938 g / cm^3
# Si number density = 21.698766 Si / 1000 Ang^3
#
#
#
# Elastic Constant Matrix: (Units=GPa)
#
#
# Indices 1 2 3 4 5 6 
#
# 1 78.8476 10.9551 22.5651 0.0000 14.6452 0.0000
# 2 10.9551 102.3027 30.2976 0.0000 11.0607 0.0000
# 3 22.5651 30.2976 96.6297 0.0000 19.7574 0.0000
# 4 0.0000 0.0000 0.0000 47.5491 0.0000 2.0776
# 5 14.6452 11.0607 19.7574 0.0000 36.1318 0.0000
# 6 0.0000 0.0000 0.0000 2.0776 0.0000 25.1915
#
#
#
# Elastic Compliance Matrix: (Units=1/GPa)
#
#
# Indices 1 2 3 4 5 6 
#
# 1 0.014208 -0.000364 -0.002307 0.000000 -0.004386 0.000000
# 2 -0.000364 0.010871 -0.003010 0.000000 -0.001535 0.000000
# 3 -0.002307 -0.003010 0.012893 0.000000 -0.005194 0.000000
# 4 0.000000 0.000000 0.000000 0.021107 0.000000 -0.001741
# 5 -0.004386 -0.001535 -0.005194 0.000000 0.032764 0.000000
# 6 0.000000 0.000000 0.000000 -0.001741 0.000000 0.039840
#
#
# Mechanical properties :
#
#
# Convention : Reuss Voigt Hill
#
# Bulk Modulus (GPa) = 37.57875 45.04619 41.31247
# Shear Modulus (GPa) = 32.91316 36.03863 34.47589
#
# Velocity S-wave (km/s) = 3.89886 4.07979 3.99035
# Velocity P-wave (km/s) = 6.13385 6.55727 6.34909
#
# Compressibility (1/GPa) = 0.02661078
#
# Stress axis : x y z
#
# Youngs Moduli (GPa) = 70.38206 91.98636 77.56052
#
# Poissons Ratio (x) = 0.03349 0.17893
# Poissons Ratio (y) = 0.02562 0.23344
# Poissons Ratio (z) = 0.16237 0.27686
#
# Static dielectric constant tensor:
#      x y z
#    x 3.887240 0.000000 0.358720 
#    y 0.000000 3.959960 0.000000 
#    z 0.358720 0.000000 4.122630 
# 
# 
# High freq. dielectric constant tensor:
#      x y z
#    x 1.842750 0.000000 0.021130 
#    y 0.000000 1.867360 0.000000 
#    z 0.021130 0.000000 1.848750 
# 
# From -- ./inp_files/32501.got.cif
#   From: 2010.03.12/outbox.cif.g09.slc.cpg/sg5_17_cif.got.tgz:32501.got - 2010.03.31 09:47:26.
