data_PCOD8051334
_publ_section_title
;
Structure prediction by ZEFSAII (Michael W. Deem and Ramdas Pophale) SiO2 
 PCOD8051334
Probable space group: C 2
;
_chemical_formula_sum "Si O2"
_cell_formula_units_Z 24
_cell_length_a 11.408567
_cell_length_b 7.164556
_cell_length_c 26.650927
_cell_angle_alpha 90.000000
_cell_angle_beta 30.793919
_cell_angle_gamma 90.000000
_cell_volume 1115.222919
_symmetry_space_group_name_H-M "C 2"
_symmetry_group_IT_number 5
_symmetry_cell_setting 'monoclinic'
loop_
_space_group_symop_operation_xyz
x,y,z
-x,y,-z
1/2+x,1/2+y,z
1/2-x,1/2+y,-z
loop_
_atom_site_type_symbol
_atom_site_label
_atom_site_fract_x
_atom_site_fract_y
_atom_site_fract_z
Si Si1 0.108348 0.912040 0.910947
Si Si2 0.000000 0.557825 0.000000
Si Si3 0.409434 0.065236 0.248241
Si Si4 0.138459 0.703915 0.343313
Si Si5 0.250134 0.133347 0.410096
Si Si6 0.500000 0.273987 0.500000
Si Si7 0.496332 0.429661 0.840518
O O1 0.022994 0.990365 0.888967
O O2 0.375909 0.932900 0.820454
O O3 0.000000 0.016237 0.000000
O O4 0.040332 0.692338 0.936971
O O5 0.771247 0.436899 0.076212
O O6 0.369946 0.182483 0.313393
O O7 0.430002 0.214816 0.195637
O O8 0.204866 0.921701 0.313066
O O9 0.065812 0.650345 0.427137
O O10 0.341096 0.568047 0.250661
O O11 0.907291 0.701128 0.396861
O O12 0.000000 0.232700 0.500000
O O13 0.219239 0.909206 0.429435
#
# Coordination Sequence:
#
# PCOD8051334 Si02
#       7
#     4   2   4   4   4   2   4
#     4  10  24  45  67  98 139 172 227 288 334 401
#     4  10  26  42  66 108 130 182 236 274 346 404
#     4  11  24  45  69 101 136 180 224 286 342 401
#     4  11  21  49  70  99 146 177 226 283 335 409
#     4   9  21  44  69 101 137 176 225 280 342 401
#     4   8  22  42  70 102 140 180 220 282 332 400
#     4  12  26  44  74 100 136 185 230 276 347 408
#
# _framework density 21.520361000000001
#
# number of rings (size 3 to 8) (size 9 to 14) (size 15 to 20)
#    1.000    0.667    3.333    0.000    3.500    2.667 
#    4.500    0.000    0.000    0.000    0.000    0.000 
#    0.000    0.000    0.000    0.000    0.000    0.000 
#
# Total GULP energy -148670.027950 kJ/mol
# GULP energy per Si atom -12389.168996 kJ/mol
# Density = 2.147138 g / cm^3
# Si number density = 21.520361 Si / 1000 Ang^3
#
#
#
# Elastic Constant Matrix: (Units=GPa)
#
#
# Indices 1 2 3 4 5 6 
#
# 1 155.7365 36.7508 83.8965 0.0023 2.3133 0.0037
# 2 36.7508 69.4767 32.4456 0.0057 5.7865 0.0089
# 3 83.8965 32.4456 139.3562 0.0138 8.8541 -0.0117
# 4 0.0023 0.0057 0.0138 23.2384 -0.0022 10.6884
# 5 2.3133 5.7865 8.8541 -0.0022 46.8891 0.0030
# 6 0.0037 0.0089 -0.0117 10.6884 0.0030 17.4906
#
#
#
# Elastic Compliance Matrix: (Units=1/GPa)
#
#
# Indices 1 2 3 4 5 6 
#
# 1 0.009992 -0.002831 -0.005412 0.000007 0.000878 -0.000009
# 2 -0.002831 0.017030 -0.002162 0.000002 -0.001554 -0.000011
# 3 -0.005412 -0.002162 0.011036 -0.000014 -0.001550 0.000019
# 4 0.000007 0.000002 -0.000014 0.059856 0.000007 -0.036577
# 5 0.000878 -0.001554 -0.001550 0.000007 0.021768 -0.000008
# 6 -0.000009 -0.000011 0.000019 -0.036577 -0.000008 0.079526
#
#
# Mechanical properties :
#
#
# Convention : Reuss Voigt Hill
#
# Bulk Modulus (GPa) = 57.97908 74.52836 66.25372
# Shear Modulus (GPa) = 22.14689 31.62207 26.88448
#
# Velocity S-wave (km/s) = 3.21146 3.83744 3.53832
# Velocity P-wave (km/s) = 6.38367 7.37166 6.89538
#
# Compressibility (1/GPa) = 0.01724760
#
# Stress axis : x y z
#
# Youngs Moduli (GPa) = 100.08470 58.72044 90.61413
#
# Poissons Ratio (x) = 0.16624 0.49039
# Poissons Ratio (y) = 0.28334 0.19590
# Poissons Ratio (z) = 0.54165 0.12695
#
# Static dielectric constant tensor:
#      x y z
#    x 3.622050 0.000000 0.115970 
#    y 0.000000 3.479040 0.000000 
#    z 0.115970 0.000000 4.166400 
# 
# 
# High freq. dielectric constant tensor:
#      x y z
#    x 1.835800 0.000000 0.001400 
#    y 0.000000 1.818200 0.000000 
#    z 0.001400 0.000000 1.864440 
# 
# From -- ./inp_files/70306.got.cif
#   From: 2010.03.12/outbox.cif.g09.slc.cpg/sg5_36_cif.got.tgz:70306.got - 2010.03.31 09:47:26.
