data_PCOD8051069
_publ_section_title
;
Structure prediction by ZEFSAII (Michael W. Deem and Ramdas Pophale) SiO2 
 PCOD8051069
Probable space group: C 2
;
_chemical_formula_sum "Si O2"
_cell_formula_units_Z 32
_cell_length_a 11.956464
_cell_length_b 14.085152
_cell_length_c 18.160743
_cell_angle_alpha 90.000000
_cell_angle_beta 28.835235
_cell_angle_gamma 90.000000
_cell_volume 1475.055644
_symmetry_space_group_name_H-M "C 2"
_symmetry_group_IT_number 5
_symmetry_cell_setting 'monoclinic'
loop_
_space_group_symop_operation_xyz
x,y,z
-x,y,-z
1/2+x,1/2+y,z
1/2-x,1/2+y,-z
loop_
_atom_site_type_symbol
_atom_site_label
_atom_site_fract_x
_atom_site_fract_y
_atom_site_fract_z
Si Si1 0.851754 0.239780 0.152681
Si Si2 0.652572 0.855920 0.527661
Si Si3 0.254702 0.258156 0.168853
Si Si4 0.909031 0.911711 0.633582
Si Si5 0.875236 0.596109 0.211749
Si Si6 0.804406 0.545075 0.562334
Si Si7 0.114145 0.123863 0.121247
Si Si8 0.875785 0.659564 0.375658
O O1 0.767691 0.325376 0.252195
O O2 0.641797 0.180954 0.238607
O O3 0.012555 0.169399 0.106112
O O4 0.000000 0.282707 0.000000
O O5 0.418320 0.843858 0.710716
O O6 0.724515 0.754783 0.452970
O O7 0.865689 0.902166 0.447383
O O8 0.604652 0.936613 0.495121
O O9 0.293314 0.191103 0.217670
O O10 0.137348 0.203914 0.169472
O O11 0.500000 0.301399 0.000000
O O12 0.000000 0.906942 0.500000
O O13 0.780564 0.009664 0.726951
O O14 0.847144 0.603526 0.315910
O O15 0.141735 0.574045 0.037323
O O16 0.560430 0.545000 0.746146
O O17 0.775336 0.597275 0.500528
O O18 0.000000 0.598500 0.500000
#
# Coordination Sequence:
#
# PCOD8051069 Si02
#       8
#     4   4   4   4   4   4   4   4
#     4  11  23  43  70 102 138 188 233 287 352 412
#     4  11  25  43  67 102 136 180 237 286 341 417
#     4  10  23  42  70 100 139 185 227 285 360 413
#     4  11  25  42  70 103 136 181 241 290 344 416
#     4  11  25  43  70 104 143 184 231 291 356 412
#     4  12  25  42  69 102 138 187 236 281 350 417
#     4  11  22  45  69  99 143 185 228 287 353 418
#     4  11  24  43  71 101 143 183 230 292 346 415
#
# _framework density 21.694098
#
# number of rings (size 3 to 8) (size 9 to 14) (size 15 to 20)
#    0.000    1.000    3.750    2.250    5.250    3.500 
#    0.000    3.125    0.000    0.000    0.000    0.000 
#    0.000    0.000    0.000    0.000    0.000    0.000 
#
# Total GULP energy -198415.888099 kJ/mol
# GULP energy per Si atom -12400.993006 kJ/mol
# Density = 2.164472 g / cm^3
# Si number density = 21.694098 Si / 1000 Ang^3
#
#
#
# Elastic Constant Matrix: (Units=GPa)
#
#
# Indices 1 2 3 4 5 6 
#
# 1 63.9194 18.0832 39.1873 0.0305 -3.8537 0.0183
# 2 18.0832 103.2202 64.2844 -0.0319 -2.6338 0.0099
# 3 39.1873 64.2844 177.4667 0.0022 -7.8301 0.0308
# 4 0.0305 -0.0319 0.0022 44.0379 -0.0011 -2.4191
# 5 -3.8537 -2.6338 -7.8301 -0.0011 35.2223 -0.0252
# 6 0.0183 0.0099 0.0308 -2.4191 -0.0252 25.3435
#
#
#
# Elastic Compliance Matrix: (Units=1/GPa)
#
#
# Indices 1 2 3 4 5 6 
#
# 1 0.018200 -0.000888 -0.003648 -0.000014 0.001114 -0.000009
# 2 -0.000888 0.012554 -0.004357 0.000010 -0.000127 0.000002
# 3 -0.003648 -0.004357 0.008066 -0.000001 0.001068 -0.000005
# 4 -0.000014 0.000010 -0.000001 0.022827 0.000001 0.002179
# 5 0.001114 -0.000127 0.001068 0.000001 0.028741 0.000027
# 6 -0.000009 0.000002 -0.000005 0.002179 0.000027 0.039666
#
#
# Mechanical properties :
#
#
# Convention : Reuss Voigt Hill
#
# Bulk Modulus (GPa) = 47.54372 65.30178 56.42275
# Shear Modulus (GPa) = 32.28926 35.79083 34.04004
#
# Velocity S-wave (km/s) = 3.86215 4.06617 3.96547
# Velocity P-wave (km/s) = 6.46926 7.22576 6.85795
#
# Compressibility (1/GPa) = 0.02103327
#
# Stress axis : x y z
#
# Youngs Moduli (GPa) = 54.94645 79.65704 123.98154
#
# Poissons Ratio (x) = 0.07074 0.45227
# Poissons Ratio (y) = 0.04880 0.54018
# Poissons Ratio (z) = 0.20044 0.34706
#
# Static dielectric constant tensor:
#      x y z
#    x 3.875000 -0.000220 -0.080050 
#    y -0.000220 3.746990 0.000090 
#    z -0.080050 0.000090 4.199500 
# 
# 
# High freq. dielectric constant tensor:
#      x y z
#    x 1.869600 0.000000 -0.007020 
#    y 0.000000 1.830280 0.000000 
#    z -0.007020 0.000000 1.871140 
# 
# From -- ./inp_files/60697.got.cif
#   From: 2010.03.12/outbox.cif.g09.slc.cpg/sg5_31_cif.got.tgz:60697.got - 2010.03.31 09:47:26.
