data_PCOD8051001
_publ_section_title
;
Structure prediction by ZEFSAII (Michael W. Deem and Ramdas Pophale) SiO2 
 PCOD8051001
Probable space group: C 2
;
_chemical_formula_sum "Si O2"
_cell_formula_units_Z 26
_cell_length_a 20.577309
_cell_length_b 9.374810
_cell_length_c 7.691729
_cell_angle_alpha 90.000000
_cell_angle_beta 122.966285
_cell_angle_gamma 90.000000
_cell_volume 1244.893741
_symmetry_space_group_name_H-M "C 2"
_symmetry_group_IT_number 5
_symmetry_cell_setting 'monoclinic'
loop_
_space_group_symop_operation_xyz
x,y,z
-x,y,-z
1/2+x,1/2+y,z
1/2-x,1/2+y,-z
loop_
_atom_site_type_symbol
_atom_site_label
_atom_site_fract_x
_atom_site_fract_y
_atom_site_fract_z
Si Si1 0.587565 0.952600 0.772182
Si Si2 0.228179 0.469590 0.387151
Si Si3 0.000000 0.165946 0.000000
Si Si4 0.852775 0.986592 0.858606
Si Si5 0.573512 0.892956 0.363755
Si Si6 0.683238 0.198586 0.045516
Si Si7 0.793862 0.253358 0.918429
O O1 0.594391 0.870009 0.597415
O O2 0.502652 0.993586 0.724626
O O3 0.624467 0.838968 0.959614
O O4 0.632456 0.102977 0.840431
O O5 0.305092 0.491007 0.610530
O O6 0.147387 0.463098 0.377903
O O7 0.223579 0.604042 0.251889
O O8 0.245660 0.321688 0.310554
O O9 0.042422 0.254587 0.215691
O O10 0.064364 0.059821 0.022294
O O11 0.866160 0.824962 0.939884
O O12 0.802442 0.083194 0.917780
O O13 0.746903 0.282872 0.025528
#
# Coordination Sequence:
#
# PCOD8051001 Si02
#       7
#     4   4   2   4   4   4   4
#     4  10  23  40  70  95 128 181 227 276 327 403
#     4  11  23  41  70  93 129 187 233 264 331 417
#     4  12  24  42  68 102 140 168 236 274 344 388
#     4  12  24  40  65 102 136 171 220 292 337 391
#     4  11  21  45  72  93 124 183 236 264 318 423
#     4  11  24  40  62  99 141 171 224 288 338 393
#     4  11  21  41  63  95 133 182 225 272 327 412
#
# _framework density 20.885317000000001
#
# number of rings (size 3 to 8) (size 9 to 14) (size 15 to 20)
#    0.000    0.923    3.077    5.538    2.154    1.231 
#    0.000    1.538    0.000    0.000    0.000    0.000 
#    0.000    0.000    0.000    0.000    0.000    0.000 
#
# Total GULP energy -161064.927752 kJ/mol
# GULP energy per Si atom -12389.609827 kJ/mol
# Density = 2.083778 g / cm^3
# Si number density = 20.885317 Si / 1000 Ang^3
#
#
#
# Elastic Constant Matrix: (Units=GPa)
#
#
# Indices 1 2 3 4 5 6 
#
# 1 92.9566 19.1604 24.4175 0.0000 -7.7526 0.0000
# 2 19.1604 121.1717 41.3171 0.0000 -7.9358 0.0000
# 3 24.4175 41.3171 103.0581 0.0000 -2.5228 0.0000
# 4 0.0000 0.0000 0.0000 26.6780 0.0000 -3.0854
# 5 -7.7526 -7.9358 -2.5228 0.0000 29.6470 0.0000
# 6 0.0000 0.0000 0.0000 -3.0854 0.0000 34.3178
#
#
#
# Elastic Compliance Matrix: (Units=1/GPa)
#
#
# Indices 1 2 3 4 5 6 
#
# 1 0.011783 -0.000881 -0.002374 0.000000 0.002644 0.000000
# 2 -0.000881 0.009776 -0.003660 0.000000 0.002075 0.000000
# 3 -0.002374 -0.003660 0.011718 0.000000 -0.000603 0.000000
# 4 0.000000 0.000000 0.000000 0.037878 0.000000 0.003405
# 5 0.002644 0.002075 -0.000603 0.000000 0.034926 0.000000
# 6 0.000000 0.000000 0.000000 0.003405 0.000000 0.029446
#
#
# Mechanical properties :
#
#
# Convention : Reuss Voigt Hill
#
# Bulk Modulus (GPa) = 51.41802 54.10851 52.76326
# Shear Modulus (GPa) = 32.08457 33.61466 32.84962
#
# Velocity S-wave (km/s) = 3.92372 4.01619 3.97023
# Velocity P-wave (km/s) = 6.72311 6.88986 6.80699
#
# Compressibility (1/GPa) = 0.01944844
#
# Stress axis : x y z
#
# Youngs Moduli (GPa) = 84.86585 102.29328 85.33715
#
# Poissons Ratio (x) = 0.09008 0.20260
# Poissons Ratio (y) = 0.07473 0.31232
# Poissons Ratio (z) = 0.20148 0.37437
#
# Static dielectric constant tensor:
#      x y z
#    x 3.817000 0.000000 -0.014790 
#    y 0.000000 3.705380 0.000000 
#    z -0.014790 0.000000 3.951140 
# 
# 
# High freq. dielectric constant tensor:
#      x y z
#    x 1.824910 0.000000 -0.003300 
#    y 0.000000 1.808780 0.000000 
#    z -0.003300 0.000000 1.825600 
# 
# From -- ./inp_files/29017.got.cif
#   From: 2010.03.12/outbox.cif.g09.slc.cpg/sg5_15_cif.got.tgz:29017.got - 2010.03.31 09:47:26.
