data_PCOD8051945
_publ_section_title
;
Structure prediction by ZEFSAII (Michael W. Deem and Ramdas Pophale) SiO2 
 PCOD8051945
Probable space group: C 2
;
_chemical_formula_sum "Si O2"
_cell_formula_units_Z 26
_cell_length_a 16.743456
_cell_length_b 11.664057
_cell_length_c 11.712842
_cell_angle_alpha 90.000000
_cell_angle_beta 147.973004
_cell_angle_gamma 90.000000
_cell_volume 1213.092813
_symmetry_space_group_name_H-M "C 2"
_symmetry_group_IT_number 5
_symmetry_cell_setting 'monoclinic'
loop_
_space_group_symop_operation_xyz
x,y,z
-x,y,-z
1/2+x,1/2+y,z
1/2-x,1/2+y,-z
loop_
_atom_site_type_symbol
_atom_site_label
_atom_site_fract_x
_atom_site_fract_y
_atom_site_fract_z
Si Si1 0.594111 0.735590 0.318345
Si Si2 0.608051 0.057633 0.943964
Si Si3 0.358705 0.972863 0.256151
Si Si4 0.115883 0.221564 0.729986
Si Si5 0.028107 0.003756 0.902750
Si Si6 0.500000 0.894817 0.000000
Si Si7 0.926595 0.764411 0.787065
O O1 0.454361 0.754650 0.233043
O O2 0.586909 0.601539 0.276713
O O3 0.588165 0.814256 0.196954
O O4 0.745600 0.764049 0.571270
O O5 0.762425 0.123808 0.114267
O O6 0.609646 0.978559 0.059824
O O7 0.474900 0.151117 0.776775
O O8 0.588915 0.977244 0.811383
O O9 0.500000 0.021851 0.500000
O O10 0.321511 0.841187 0.245478
O O11 0.202244 0.040333 0.090136
O O12 0.000000 0.167844 0.500000
O O13 0.984056 0.880688 0.792662
O O14 0.000000 0.982089 0.000000
O O15 0.000000 0.750313 0.000000
#
# Coordination Sequence:
#
# PCOD8051945 Si02
#       7
#     4   4   4   4   4   2   4
#     4  12  26  45  72 101 146 183 237 294 366 421
#     4  12  24  45  69 100 148 177 237 295 357 420
#     4  11  25  43  70 102 139 188 238 291 352 425
#     4  11  24  43  69  98 133 189 236 290 345 424
#     4  11  25  44  69 102 140 182 241 292 354 433
#     4  12  28  44  70 108 144 186 230 300 374 414
#     4  11  26  42  70 103 135 187 240 289 349 421
#
# _framework density 21.432821000000001
#
# number of rings (size 3 to 8) (size 9 to 14) (size 15 to 20)
#    0.000    0.615    6.154    0.923   10.769    0.000 
#    0.000    0.000    0.000    0.000    0.000    0.000 
#    0.000    0.000    0.000    0.000    0.000    0.000 
#
# Total GULP energy -161138.410436 kJ/mol
# GULP energy per Si atom -12395.262341 kJ/mol
# Density = 2.138404 g / cm^3
# Si number density = 21.432821 Si / 1000 Ang^3
#
#
#
# Elastic Constant Matrix: (Units=GPa)
#
#
# Indices 1 2 3 4 5 6 
#
# 1 121.5306 32.7034 47.5294 0.0000 -1.5500 0.0000
# 2 32.7034 118.3431 44.1012 0.0000 5.2047 0.0000
# 3 47.5294 44.1012 125.9552 0.0000 9.1538 0.0000
# 4 0.0000 0.0000 0.0000 15.9221 0.0000 3.7035
# 5 -1.5500 5.2047 9.1538 0.0000 35.6257 0.0000
# 6 0.0000 0.0000 0.0000 3.7035 0.0000 31.6617
#
#
#
# Elastic Compliance Matrix: (Units=1/GPa)
#
#
# Indices 1 2 3 4 5 6 
#
# 1 0.009972 -0.001586 -0.003318 0.000000 0.001518 0.000000
# 2 -0.001586 0.009981 -0.002838 0.000000 -0.000798 0.000000
# 3 -0.003318 -0.002838 0.010359 0.000000 -0.002391 0.000000
# 4 0.000000 0.000000 0.000000 0.064562 0.000000 -0.007552
# 5 0.001518 -0.000798 -0.002391 0.000000 0.028867 0.000000
# 6 0.000000 0.000000 0.000000 -0.007552 0.000000 0.032467
#
#
# Mechanical properties :
#
#
# Convention : Reuss Voigt Hill
#
# Bulk Modulus (GPa) = 67.44174 68.27746 67.85960
# Shear Modulus (GPa) = 28.30683 32.74154 30.52418
#
# Velocity S-wave (km/s) = 3.63812 3.91274 3.77792
# Velocity P-wave (km/s) = 7.01304 7.23452 7.12464
#
# Compressibility (1/GPa) = 0.01482761
#
# Stress axis : x y z
#
# Youngs Moduli (GPa) = 100.27890 100.18960 96.53487
#
# Poissons Ratio (x) = 0.15890 0.32031
# Poissons Ratio (y) = 0.15905 0.27399
# Poissons Ratio (z) = 0.33273 0.28436
#
# Static dielectric constant tensor:
#      x y z
#    x 3.874670 0.000000 -0.006760 
#    y 0.000000 4.258150 0.000000 
#    z -0.006760 0.000000 3.704280 
# 
# 
# High freq. dielectric constant tensor:
#      x y z
#    x 1.843740 0.000000 0.002300 
#    y 0.000000 1.854470 0.000000 
#    z 0.002300 0.000000 1.827060 
# 
# From -- ./inp_files/44667.got.cif
#   From: 2010.03.12/outbox.cif.g09.slc.cpg/sg5_23_cif.got.tgz:44667.got - 2010.03.31 09:47:26.
