data_PCOD8051665
_publ_section_title
;
Structure prediction by ZEFSAII (Michael W. Deem and Ramdas Pophale) SiO2 
 PCOD8051665
Probable space group: C 2
;
_chemical_formula_sum "Si O2"
_cell_formula_units_Z 30
_cell_length_a 8.795653
_cell_length_b 16.527059
_cell_length_c 14.545242
_cell_angle_alpha 90.000000
_cell_angle_beta 41.475239
_cell_angle_gamma 90.000000
_cell_volume 1400.351162
_symmetry_space_group_name_H-M "C 2"
_symmetry_group_IT_number 5
_symmetry_cell_setting 'monoclinic'
loop_
_space_group_symop_operation_xyz
x,y,z
-x,y,-z
1/2+x,1/2+y,z
1/2-x,1/2+y,-z
loop_
_atom_site_type_symbol
_atom_site_label
_atom_site_fract_x
_atom_site_fract_y
_atom_site_fract_z
Si Si1 0.000000 0.865751 0.000000
Si Si2 0.170143 0.485305 0.803846
Si Si3 0.896363 0.135713 0.151083
Si Si4 0.442744 0.053304 0.422259
Si Si5 0.334554 0.485993 0.921566
Si Si6 0.944070 0.257151 0.772576
Si Si7 0.269988 0.898333 0.390303
Si Si8 0.025927 0.130373 0.386638
O O1 0.777002 0.810723 0.105612
O O2 0.031326 0.922610 0.075169
O O3 0.309453 0.452556 0.829334
O O4 0.131623 0.407954 0.757372
O O5 0.311434 0.551674 0.681725
O O6 0.915479 0.517443 0.936154
O O7 0.630903 0.105100 0.277487
O O8 0.945987 0.219110 0.183728
O O9 0.023767 0.067287 0.150820
O O10 0.000000 0.141606 0.000000
O O11 0.500000 0.029308 0.500000
O O12 0.227318 0.111179 0.532938
O O13 0.375802 0.968301 0.405674
O O14 0.134308 0.309405 0.629208
O O15 0.859039 0.190556 0.738367
O O16 0.000000 0.902106 0.500000
O O17 0.000000 0.167939 0.500000
#
# Coordination Sequence:
#
# PCOD8051665 Si02
#       8
#     2   4   4   4   4   4   4   4
#     4  12  26  48  70 102 148 178 228 296 360 418
#     4  11  21  44  73 102 131 186 240 281 341 425
#     4  12  26  42  74 107 142 187 238 289 355 418
#     4  12  23  45  78 104 136 187 248 286 342 433
#     4  11  23  42  75 100 136 185 239 282 341 433
#     4  12  29  45  67 109 150 177 226 309 363 403
#     4  12  25  46  71 101 145 181 233 295 358 411
#     4  12  25  45  71 105 136 188 237 291 348 421
#
# _framework density 21.423197999999999
#
# number of rings (size 3 to 8) (size 9 to 14) (size 15 to 20)
#    0.000    0.267    7.333    1.600    3.733    1.600 
#    2.400    0.000    0.000    0.000    0.000    0.000 
#    0.000    0.000    0.000    0.000    0.000    0.000 
#
# Total GULP energy -185877.964754 kJ/mol
# GULP energy per Si atom -12391.864317 kJ/mol
# Density = 2.137444 g / cm^3
# Si number density = 21.423198 Si / 1000 Ang^3
#
#
#
# Elastic Constant Matrix: (Units=GPa)
#
#
# Indices 1 2 3 4 5 6 
#
# 1 105.0766 40.8783 29.1329 0.0009 2.3855 -0.0052
# 2 40.8783 96.8292 32.4456 -0.0003 -7.2320 -0.0017
# 3 29.1329 32.4456 86.7581 -0.0004 -2.7324 -0.0033
# 4 0.0009 -0.0003 -0.0004 32.1481 0.0000 0.3702
# 5 2.3855 -7.2320 -2.7324 0.0000 47.2676 0.0005
# 6 -0.0052 -0.0017 -0.0033 0.3702 0.0005 17.6738
#
#
#
# Elastic Compliance Matrix: (Units=1/GPa)
#
#
# Indices 1 2 3 4 5 6 
#
# 1 0.011900 -0.004316 -0.002426 0.000000 -0.001401 0.000003
# 2 -0.004316 0.013487 -0.003529 0.000000 0.002077 -0.000001
# 3 -0.002426 -0.003529 0.013673 0.000000 0.000373 0.000001
# 4 0.000000 0.000000 0.000000 0.031114 0.000000 -0.000652
# 5 -0.001401 0.002077 0.000373 0.000000 0.021566 -0.000001
# 6 0.000003 -0.000001 0.000001 -0.000652 -0.000001 0.056595
#
#
# Mechanical properties :
#
#
# Convention : Reuss Voigt Hill
#
# Bulk Modulus (GPa) = 54.00217 54.84192 54.42204
# Shear Modulus (GPa) = 28.56337 31.83170 30.19754
#
# Velocity S-wave (km/s) = 3.65539 3.85886 3.75850
# Velocity P-wave (km/s) = 6.56337 6.74605 6.65534
#
# Compressibility (1/GPa) = 0.01851778
#
# Stress axis : x y z
#
# Youngs Moduli (GPa) = 84.03175 74.14478 73.13878
#
# Poissons Ratio (x) = 0.31998 0.17745
# Poissons Ratio (y) = 0.36265 0.25813
# Poissons Ratio (z) = 0.20388 0.26168
#
# Static dielectric constant tensor:
#      x y z
#    x 4.059810 0.000000 -0.046750 
#    y 0.000000 3.778130 0.000000 
#    z -0.046750 0.000000 3.799330 
# 
# 
# High freq. dielectric constant tensor:
#      x y z
#    x 1.858480 0.000000 -0.002770 
#    y 0.000000 1.827900 0.000000 
#    z -0.002770 0.000000 1.855370 
# 
# From -- ./inp_files/51377.got.cif
#   From: 2010.03.12/outbox.cif.g09.slc.cpg/sg5_26_cif.got.tgz:51377.got - 2010.03.31 09:47:26.
