data_PCOD8051091
_publ_section_title
;
Structure prediction by ZEFSAII (Michael W. Deem and Ramdas Pophale) SiO2 
 PCOD8051091
Probable space group: C 2
;
_chemical_formula_sum "Si O2"
_cell_formula_units_Z 26
_cell_length_a 15.858796
_cell_length_b 8.992608
_cell_length_c 20.566421
_cell_angle_alpha 90.000000
_cell_angle_beta 21.058792
_cell_angle_gamma 90.000000
_cell_volume 1053.908487
_symmetry_space_group_name_H-M "C 2"
_symmetry_group_IT_number 5
_symmetry_cell_setting 'monoclinic'
loop_
_space_group_symop_operation_xyz
x,y,z
-x,y,-z
1/2+x,1/2+y,z
1/2-x,1/2+y,-z
loop_
_atom_site_type_symbol
_atom_site_label
_atom_site_fract_x
_atom_site_fract_y
_atom_site_fract_z
Si Si1 0.767356 0.948820 0.816034
Si Si2 0.941353 0.458170 0.424377
Si Si3 0.157524 0.309417 0.026301
Si Si4 0.199505 0.688897 0.302600
Si Si5 0.653274 0.668450 0.560009
Si Si6 0.000000 0.240939 0.500000
Si Si7 0.943202 0.609373 0.226771
O O1 0.803163 0.871089 0.859971
O O2 0.856102 0.839268 0.696005
O O3 0.500000 0.995942 0.000000
O O4 0.915366 0.098239 0.703495
O O5 0.183417 0.548512 0.263099
O O6 0.912669 0.342846 0.503841
O O7 0.738462 0.587261 0.565424
O O8 0.905954 0.345438 0.387879
O O9 0.337740 0.221687 0.943517
O O10 0.959584 0.191840 0.144854
O O11 0.030816 0.441253 0.156001
O O12 0.000000 0.661928 0.500000
O O13 0.862752 0.632552 0.358884
O O14 0.234005 0.138047 0.323880
#
# Coordination Sequence:
#
# PCOD8051091 Si02
#       7
#     4   4   4   4   4   2   4
#     4  10  23  43  67 101 142 186 237 301 354 421
#     4  11  23  41  73 100 142 184 247 295 352 431
#     4  11  26  43  72 103 152 182 245 301 363 418
#     4  11  23  42  70 102 139 197 235 295 362 438
#     4  11  24  45  71 102 143 193 240 293 364 434
#     4  10  24  44  74 106 148 190 246 296 358 428
#     4  11  26  45  73 105 145 196 237 304 356 439
#
# _framework density 24.670072999999999
#
# number of rings (size 3 to 8) (size 9 to 14) (size 15 to 20)
#    0.000    1.231    0.769    4.615   11.846    2.462 
#    0.000    3.846    0.000    0.000    0.000    0.000 
#    0.000    0.000    0.000    0.000    0.000    0.000 
#
# Total GULP energy -161080.812160 kJ/mol
# GULP energy per Si atom -12390.831705 kJ/mol
# Density = 2.461392 g / cm^3
# Si number density = 24.670073 Si / 1000 Ang^3
#
#
#
# Elastic Constant Matrix: (Units=GPa)
#
#
# Indices 1 2 3 4 5 6 
#
# 1 74.4653 40.4940 32.3922 0.0397 -30.4402 0.0013
# 2 40.4940 165.7965 72.9595 -0.0135 -45.7198 0.0000
# 3 32.3922 72.9595 101.9382 -0.0790 -30.5934 -0.0150
# 4 0.0397 -0.0135 -0.0790 38.5314 0.0074 -24.9878
# 5 -30.4402 -45.7198 -30.5934 0.0074 46.3161 -0.0002
# 6 0.0013 0.0000 -0.0150 -24.9878 -0.0002 48.0137
#
#
#
# Elastic Compliance Matrix: (Units=1/GPa)
#
#
# Indices 1 2 3 4 5 6 
#
# 1 0.019066 -0.000779 -0.002458 -0.000042 0.010138 -0.000023
# 2 -0.000779 0.010205 -0.005222 -0.000013 0.006112 -0.000008
# 3 -0.002458 -0.005222 0.015337 0.000052 0.003360 0.000032
# 4 -0.000042 -0.000013 0.000052 0.039174 -0.000012 0.020388
# 5 0.010138 0.006112 0.003360 -0.000012 0.036507 -0.000005
# 6 -0.000023 -0.000008 0.000032 0.020388 -0.000005 0.031438
#
#
# Mechanical properties :
#
#
# Convention : Reuss Voigt Hill
#
# Bulk Modulus (GPa) = 36.11501 70.43239 53.27370
# Shear Modulus (GPa) = 28.10922 39.66251 33.88587
#
# Velocity S-wave (km/s) = 3.37917 4.01399 3.71018
# Velocity P-wave (km/s) = 5.46773 7.07775 6.32418
#
# Compressibility (1/GPa) = 0.02768932
#
# Stress axis : x y z
#
# Youngs Moduli (GPa) = 52.44807 97.98699 65.20127
#
# Poissons Ratio (x) = 0.07637 0.16028
# Poissons Ratio (y) = 0.04088 0.34049
# Poissons Ratio (z) = 0.12893 0.51171
#
# Static dielectric constant tensor:
#      x y z
#    x 4.737800 -0.000010 -0.292360 
#    y -0.000010 4.767060 0.000120 
#    z -0.292360 0.000120 4.242460 
# 
# 
# High freq. dielectric constant tensor:
#      x y z
#    x 1.987410 0.000000 -0.028720 
#    y 0.000000 1.997150 0.000010 
#    z -0.028720 0.000010 1.956070 
# 
# From -- ./inp_files/69147.got.cif
#   From: 2010.03.12/outbox.cif.g09.slc.cpg/sg5_35_cif.got.tgz:69147.got - 2010.03.31 09:47:26.
