data_PCOD8051547
_publ_section_title
;
Structure prediction by ZEFSAII (Michael W. Deem and Ramdas Pophale) SiO2 
 PCOD8051547
Probable space group: C 2
;
_chemical_formula_sum "Si O2"
_cell_formula_units_Z 14
_cell_length_a 18.916933
_cell_length_b 5.205854
_cell_length_c 4.732011
_cell_angle_alpha 90.000000
_cell_angle_beta 92.280148
_cell_angle_gamma 90.000000
_cell_volume 465.633762
_symmetry_space_group_name_H-M "C 2"
_symmetry_group_IT_number 5
_symmetry_cell_setting 'monoclinic'
loop_
_space_group_symop_operation_xyz
x,y,z
-x,y,-z
1/2+x,1/2+y,z
1/2-x,1/2+y,-z
loop_
_atom_site_type_symbol
_atom_site_label
_atom_site_fract_x
_atom_site_fract_y
_atom_site_fract_z
Si Si1 0.617485 0.812050 0.081347
Si Si2 0.000000 0.706028 0.000000
Si Si3 0.738058 0.272692 0.654095
Si Si4 0.093333 0.975182 0.596902
O O1 0.701016 0.885842 0.126410
O O2 0.594437 0.558209 0.265951
O O3 0.607765 0.748731 0.750793
O O4 0.564739 0.044363 0.147952
O O5 0.020908 0.868467 0.723263
O O6 0.739597 0.481696 0.400845
O O7 0.655349 0.281780 0.724874
#
# Coordination Sequence:
#
# PCOD8051547 Si02
#       4
#     4   2   4   4
#     4  11  29  51  79 118 160 211 273 332 411 487
#     4  12  30  50  84 116 168 216 262 350 406 502
#     4  10  26  52  84 118 156 212 274 338 400 484
#     4  11  29  51  79 118 160 211 273 332 411 487
#
# _framework density 30.066551
#
# number of rings (size 3 to 8) (size 9 to 14) (size 15 to 20)
#    0.000    1.143    0.000    0.857   20.000    9.143 
#    0.000    0.000    0.000    0.000    0.000    0.000 
#    0.000    0.000    0.000    0.000    0.000    0.000 
#
# Total GULP energy -86734.995303 kJ/mol
# GULP energy per Si atom -12390.713615 kJ/mol
# Density = 2.999812 g / cm^3
# Si number density = 30.066551 Si / 1000 Ang^3
#
#
#
# Elastic Constant Matrix: (Units=GPa)
#
#
# Indices 1 2 3 4 5 6 
#
# 1 140.8933 5.7142 -13.7324 0.0000 -4.9304 0.0000
# 2 5.7142 63.5494 -19.2862 0.0000 -13.1554 0.0000
# 3 -13.7324 -19.2862 88.7006 0.0000 -2.7011 0.0000
# 4 0.0000 0.0000 0.0000 12.2089 0.0000 14.8307
# 5 -4.9304 -13.1554 -2.7011 0.0000 37.1773 0.0000
# 6 0.0000 0.0000 0.0000 14.8307 0.0000 66.9937
#
#
#
# Elastic Compliance Matrix: (Units=1/GPa)
#
#
# Indices 1 2 3 4 5 6 
#
# 1 0.007247 -0.000100 0.001131 0.000000 0.001008 0.000000
# 2 -0.000100 0.018430 0.004199 0.000000 0.006813 0.000000
# 3 0.001131 0.004199 0.012439 0.000000 0.002540 0.000000
# 4 0.000000 0.000000 0.000000 0.112035 0.000000 -0.024802
# 5 0.001008 0.006813 0.002540 0.000000 0.029627 0.000000
# 6 0.000000 0.000000 0.000000 -0.024802 0.000000 0.020417
#
#
# Mechanical properties :
#
#
# Convention : Reuss Voigt Hill
#
# Bulk Modulus (GPa) = 20.58592 26.50383 23.54487
# Shear Modulus (GPa) = 24.28045 44.63916 34.45981
#
# Velocity S-wave (km/s) = 2.84484 3.85733 3.38911
# Velocity P-wave (km/s) = 4.20148 5.35471 4.81276
#
# Compressibility (1/GPa) = 0.04857690
#
# Stress axis : x y z
#
# Youngs Moduli (GPa) = 137.98582 54.26064 80.39003
#
# Poissons Ratio (x) = 0.00541 -0.09092
# Poissons Ratio (y) = 0.01376 -0.33757
# Poissons Ratio (z) = -0.15606 -0.22785
#
# Static dielectric constant tensor:
#      x y z
#    x 6.359300 0.000000 0.070940 
#    y 0.000000 5.193180 0.000000 
#    z 0.070940 0.000000 4.954660 
# 
# 
# High freq. dielectric constant tensor:
#      x y z
#    x 2.270000 0.000000 0.014470 
#    y 0.000000 2.224380 0.000000 
#    z 0.014470 0.000000 2.218100 
# 
# From -- ./inp_files/686.got.cif
#   From: 2010.03.12/outbox.cif.g09.slc.cpg/sg5_1_cif.got.tgz:686.got - 2010.03.31 09:47:26.
