data_PCOD8051866
_publ_section_title
;
Structure prediction by ZEFSAII (Michael W. Deem and Ramdas Pophale) SiO2 
 PCOD8051866
Probable space group: C 2
;
_chemical_formula_sum "Si O2"
_cell_formula_units_Z 24
_cell_length_a 9.412549
_cell_length_b 14.157096
_cell_length_c 15.550846
_cell_angle_alpha 90.000000
_cell_angle_beta 146.979745
_cell_angle_gamma 90.000000
_cell_volume 1129.225136
_symmetry_space_group_name_H-M "C 2"
_symmetry_group_IT_number 5
_symmetry_cell_setting 'monoclinic'
loop_
_space_group_symop_operation_xyz
x,y,z
-x,y,-z
1/2+x,1/2+y,z
1/2-x,1/2+y,-z
loop_
_atom_site_type_symbol
_atom_site_label
_atom_site_fract_x
_atom_site_fract_y
_atom_site_fract_z
Si Si1 0.748506 0.473900 0.320486
Si Si2 0.465627 0.826416 0.127467
Si Si3 0.215149 0.177177 0.363881
Si Si4 0.100225 0.822634 0.789488
Si Si5 0.704294 0.995517 0.841636
Si Si6 0.738809 0.148232 0.417225
O O1 0.704565 0.586707 0.295572
O O2 0.499729 0.426486 0.237750
O O3 0.796112 0.437122 0.247677
O O4 0.000000 0.443379 0.500000
O O5 0.497575 0.751445 0.221627
O O6 0.739440 0.836342 0.216839
O O7 0.369863 0.925946 0.117812
O O8 0.264346 0.786016 0.954945
O O9 0.500000 0.225354 0.500000
O O10 0.174791 0.140257 0.439838
O O11 0.856816 0.753694 0.651417
O O12 0.493774 0.078869 0.728771
O O13 0.000000 0.036581 0.000000
O O14 0.000000 0.121732 0.500000
#
# Coordination Sequence:
#
# PCOD8051866 Si02
#       6
#     4   4   4   4   4   4
#     4  11  23  44  70  96 138 182 225 283 339 405
#     4  11  26  42  71 100 137 181 226 281 345 409
#     4  11  23  45  67 100 137 181 225 282 346 399
#     4  11  25  45  68 102 138 179 229 280 344 406
#     4  12  26  46  71 101 140 183 229 279 348 405
#     4  12  28  45  71 104 136 183 234 280 341 408
#
# _framework density 21.253512000000001
#
# number of rings (size 3 to 8) (size 9 to 14) (size 15 to 20)
#    0.000    0.667    6.667    0.500   11.667    0.667 
#    0.000    0.000    3.667    0.000    0.000    0.000 
#    0.000    0.000    0.000    0.000    0.000    0.000 
#
# Total GULP energy -148789.467717 kJ/mol
# GULP energy per Si atom -12399.122310 kJ/mol
# Density = 2.120514 g / cm^3
# Si number density = 21.253512 Si / 1000 Ang^3
#
#
#
# Elastic Constant Matrix: (Units=GPa)
#
#
# Indices 1 2 3 4 5 6 
#
# 1 128.5737 33.4801 57.0446 -0.0006 1.9809 0.0003
# 2 33.4801 77.2660 35.5761 -0.0007 7.4122 0.0003
# 3 57.0446 35.5761 114.9780 -0.0031 1.5601 0.0001
# 4 -0.0006 -0.0007 -0.0031 16.0022 -0.0004 -1.8032
# 5 1.9809 7.4122 1.5601 -0.0004 42.3466 0.0006
# 6 0.0003 0.0003 0.0001 -1.8032 0.0006 29.8370
#
#
#
# Elastic Compliance Matrix: (Units=1/GPa)
#
#
# Indices 1 2 3 4 5 6 
#
# 1 0.010364 -0.002488 -0.004374 -0.000001 0.000112 0.000000
# 2 -0.002488 0.015953 -0.003667 0.000000 -0.002541 0.000000
# 3 -0.004374 -0.003667 0.011997 0.000002 0.000405 0.000000
# 4 -0.000001 0.000000 0.000002 0.062920 0.000001 0.003803
# 5 0.000112 -0.002541 0.000405 0.000001 0.024039 0.000000
# 6 0.000000 0.000000 0.000000 0.003803 0.000000 0.033745
#
#
# Mechanical properties :
#
#
# Convention : Reuss Voigt Hill
#
# Bulk Modulus (GPa) = 57.95198 63.66882 60.81040
# Shear Modulus (GPa) = 26.90669 30.61828 28.76248
#
# Velocity S-wave (km/s) = 3.56193 3.79967 3.68272
# Velocity P-wave (km/s) = 6.65152 7.01939 6.83793
#
# Compressibility (1/GPa) = 0.01725567
#
# Stress axis : x y z
#
# Youngs Moduli (GPa) = 96.48530 62.68585 83.35737
#
# Poissons Ratio (x) = 0.15595 0.36459
# Poissons Ratio (y) = 0.24003 0.30569
# Poissons Ratio (z) = 0.42201 0.22988
#
# Static dielectric constant tensor:
#      x y z
#    x 3.941170 0.000000 -0.077380 
#    y 0.000000 3.566350 0.000000 
#    z -0.077380 0.000000 4.060680 
# 
# 
# High freq. dielectric constant tensor:
#      x y z
#    x 1.839950 0.000000 -0.010860 
#    y 0.000000 1.816210 0.000000 
#    z -0.010860 0.000000 1.848780 
# 
# From -- ./inp_files/27658.got.cif
#   From: 2010.03.12/outbox.cif.g09.slc.cpg/sg5_14_cif.got.tgz:27658.got - 2010.03.31 09:47:26.
