data_PCOD8051100
_publ_section_title
;
Structure prediction by ZEFSAII (Michael W. Deem and Ramdas Pophale) SiO2 
 PCOD8051100
Probable space group: C 2
;
_chemical_formula_sum "Si O2"
_cell_formula_units_Z 24
_cell_length_a 15.334819
_cell_length_b 8.273548
_cell_length_c 18.105353
_cell_angle_alpha 90.000000
_cell_angle_beta 154.254347
_cell_angle_gamma 90.000000
_cell_volume 997.801573
_symmetry_space_group_name_H-M "C 2"
_symmetry_group_IT_number 5
_symmetry_cell_setting 'monoclinic'
loop_
_space_group_symop_operation_xyz
x,y,z
-x,y,-z
1/2+x,1/2+y,z
1/2-x,1/2+y,-z
loop_
_atom_site_type_symbol
_atom_site_label
_atom_site_fract_x
_atom_site_fract_y
_atom_site_fract_z
Si Si1 0.777105 0.752230 0.343359
Si Si2 0.161751 0.591606 0.466543
Si Si3 0.770649 0.508484 0.813384
Si Si4 0.178308 0.359134 0.747141
Si Si5 0.517853 0.371554 0.740753
Si Si6 0.995676 0.966575 0.888791
O O1 0.762385 0.738653 0.421276
O O2 0.588774 0.649608 0.168154
O O3 0.000000 0.679303 0.500000
O O4 0.764244 0.928318 0.294354
O O5 0.349936 0.492533 0.580576
O O6 0.050807 0.683024 0.314654
O O7 0.025850 0.460867 0.407193
O O8 0.635796 0.668728 0.724389
O O9 0.708006 0.384738 0.830818
O O10 0.000000 0.559271 0.000000
O O11 0.299546 0.362658 0.762033
O O12 0.316921 0.439553 0.915729
O O13 0.570716 0.416999 0.864776
#
# Coordination Sequence:
#
# PCOD8051100 Si02
#       6
#     4   4   4   4   4   4
#     4  11  22  43  70  97 132 190 233 275 350 416
#     4  11  24  47  72 103 142 181 236 292 351 423
#     4  12  26  46  67 101 146 185 237 285 351 421
#     4  11  23  47  68 101 141 184 232 287 356 418
#     4  11  25  43  67 107 137 183 232 292 348 410
#     4  10  23  43  70 100 137 179 236 283 351 414
#
# _framework density 24.052876999999999
#
# number of rings (size 3 to 8) (size 9 to 14) (size 15 to 20)
#    0.000    1.000    5.000    1.000    4.667    2.667 
#   12.000    0.000    0.000    0.000    0.000    0.000 
#    0.000    0.000    0.000    0.000    0.000    0.000 
#
# Total GULP energy -148663.777874 kJ/mol
# GULP energy per Si atom -12388.648156 kJ/mol
# Density = 2.399813 g / cm^3
# Si number density = 24.052877 Si / 1000 Ang^3
#
#
#
# Elastic Constant Matrix: (Units=GPa)
#
#
# Indices 1 2 3 4 5 6 
#
# 1 73.3713 26.3536 19.0221 -0.0033 -0.0946 -0.0016
# 2 26.3536 112.4532 41.1353 -0.0058 -15.0515 -0.0023
# 3 19.0221 41.1353 59.9103 -0.0159 -5.4503 -0.0080
# 4 -0.0033 -0.0058 -0.0159 38.3363 -0.0042 -3.1930
# 5 -0.0946 -15.0515 -5.4503 -0.0042 25.3671 -0.0021
# 6 -0.0016 -0.0023 -0.0080 -3.1930 -0.0021 34.6779
#
#
#
# Elastic Compliance Matrix: (Units=1/GPa)
#
#
# Indices 1 2 3 4 5 6 
#
# 1 0.015448 -0.002743 -0.003228 -0.000001 -0.002263 0.000000
# 2 -0.002743 0.013134 -0.007588 -0.000001 0.006153 -0.000001
# 3 -0.003228 -0.007588 0.022965 0.000009 0.000420 0.000005
# 4 -0.000001 -0.000001 0.000009 0.026287 0.000006 0.002420
# 5 -0.002263 0.006153 0.000420 0.000006 0.043154 0.000004
# 6 0.000000 -0.000001 0.000005 0.002420 0.000004 0.029060
#
#
# Mechanical properties :
#
#
# Convention : Reuss Voigt Hill
#
# Bulk Modulus (GPa) = 40.93150 46.52854 43.73002
# Shear Modulus (GPa) = 26.98223 30.29117 28.63670
#
# Velocity S-wave (km/s) = 3.35294 3.55259 3.45421
# Velocity P-wave (km/s) = 5.66073 6.01782 5.84200
#
# Compressibility (1/GPa) = 0.02443106
#
# Stress axis : x y z
#
# Youngs Moduli (GPa) = 64.73209 76.13566 43.54534
#
# Poissons Ratio (x) = 0.20880 0.14056
# Poissons Ratio (y) = 0.17753 0.33041
# Poissons Ratio (z) = 0.20894 0.57770
#
# Static dielectric constant tensor:
#      x y z
#    x 4.240340 0.000010 0.027570 
#    y 0.000010 4.265480 0.000010 
#    z 0.027570 0.000010 4.150310 
# 
# 
# High freq. dielectric constant tensor:
#      x y z
#    x 1.952080 0.000000 0.006500 
#    y 0.000000 1.950780 0.000000 
#    z 0.006500 0.000000 1.944240 
# 
# From -- ./inp_files/61502.got.cif
#   From: 2010.03.12/outbox.cif.g09.slc.cpg/sg5_31_cif.got.tgz:61502.got - 2010.03.31 09:47:26.
