data_PCOD8051425
_publ_section_title
;
Structure prediction by ZEFSAII (Michael W. Deem and Ramdas Pophale) SiO2 
 PCOD8051425
Probable space group: C 2
;
_chemical_formula_sum "Si O2"
_cell_formula_units_Z 20
_cell_length_a 7.921275
_cell_length_b 12.147600
_cell_length_c 15.771268
_cell_angle_alpha 90.000000
_cell_angle_beta 33.367571
_cell_angle_gamma 90.000000
_cell_volume 834.682480
_symmetry_space_group_name_H-M "C 2"
_symmetry_group_IT_number 5
_symmetry_cell_setting 'monoclinic'
loop_
_space_group_symop_operation_xyz
x,y,z
-x,y,-z
1/2+x,1/2+y,z
1/2-x,1/2+y,-z
loop_
_atom_site_type_symbol
_atom_site_label
_atom_site_fract_x
_atom_site_fract_y
_atom_site_fract_z
Si Si1 0.729042 0.770160 0.248950
Si Si2 0.000000 0.042659 0.500000
Si Si3 0.397566 0.019503 0.184375
Si Si4 0.271975 0.308073 0.828866
Si Si5 0.898010 0.697201 0.451107
Si Si6 0.000000 0.933418 0.000000
O O1 0.806697 0.642456 0.193749
O O2 0.366187 0.787649 0.417208
O O3 0.826625 0.852712 0.135844
O O4 0.901238 0.799130 0.263395
O O5 0.792948 0.976026 0.653168
O O6 0.754494 0.109501 0.547015
O O7 0.314712 0.936053 0.144382
O O8 0.759945 0.011969 0.052737
O O9 0.307618 0.248685 0.722074
O O10 0.000000 0.253127 0.000000
O O11 0.000000 0.647135 0.500000
#
# Coordination Sequence:
#
# PCOD8051425 Si02
#       6
#     4   2   4   4   4   2
#     4  11  26  49  70 105 153 189 248 306 365 439
#     4  10  24  52  68 112 150 190 250 306 364 446
#     4  11  26  45  72 103 146 191 246 302 365 440
#     4  12  24  46  74 107 147 193 243 304 366 435
#     4  11  23  48  79 105 147 200 240 305 374 428
#     4  12  26  42  72 108 140 200 244 300 368 432
#
# _framework density 23.961209
#
# number of rings (size 3 to 8) (size 9 to 14) (size 15 to 20)
#    0.000    0.800    6.000    1.200    7.000    0.000 
#    7.200    0.000    0.000    0.000    0.000    0.000 
#    0.000    0.000    0.000    0.000    0.000    0.000 
#
# Total GULP energy -123936.473332 kJ/mol
# GULP energy per Si atom -12393.647333 kJ/mol
# Density = 2.390667 g / cm^3
# Si number density = 23.961209 Si / 1000 Ang^3
#
#
#
# Elastic Constant Matrix: (Units=GPa)
#
#
# Indices 1 2 3 4 5 6 
#
# 1 107.6713 17.4929 21.8278 -0.0039 -1.5619 -0.0316
# 2 17.4929 63.9864 23.5409 -0.0018 -0.7580 0.0303
# 3 21.8278 23.5409 162.7185 0.0373 6.6540 -0.1648
# 4 -0.0039 -0.0018 0.0373 26.5426 0.0005 39.6552
# 5 -1.5619 -0.7580 6.6540 0.0005 43.1472 0.0986
# 6 -0.0316 0.0303 -0.1648 39.6552 0.0986 -159.9582
#
#
#
# Elastic Compliance Matrix: (Units=1/GPa)
#
#
# Indices 1 2 3 4 5 6 
#
# 1 0.009876 -0.002324 -0.001008 0.000003 0.000472 0.000000
# 2 -0.002324 0.017072 -0.002181 -0.000004 0.000552 0.000005
# 3 -0.001008 -0.002181 0.006641 0.000001 -0.001099 -0.000007
# 4 0.000003 -0.000004 0.000001 0.027493 -0.000016 0.006816
# 5 0.000472 0.000552 -0.001099 -0.000016 0.023373 0.000012
# 6 0.000000 0.000005 -0.000007 0.006816 0.000012 -0.004562
#
#
# Mechanical properties :
#
#
# Convention : Reuss Voigt Hill
#
# Bulk Modulus (GPa) = 44.31612 51.12217 47.71915
# Shear Modulus (GPa) = 50.79256 0.04728 25.41992
#
# Velocity S-wave (km/s) = 4.60910 0.14062 3.26065
# Velocity P-wave (km/s) = 6.84545 4.62689 5.84244
#
# Compressibility (1/GPa) = 0.02256515
#
# Stress axis : x y z
#
# Youngs Moduli (GPa) = 101.25329 58.57408 150.57444
#
# Poissons Ratio (x) = 0.13610 0.15178
# Poissons Ratio (y) = 0.23527 0.32837
# Poissons Ratio (z) = 0.10206 0.12774
#
# Static dielectric constant tensor:
#      x y z
#    x 4.802130 0.000070 0.101290 
#    y 0.000070 3.974250 0.000030 
#    z 0.101290 0.000030 4.907440 
# 
# 
# High freq. dielectric constant tensor:
#      x y z
#    x 1.957530 0.000000 0.003420 
#    y 0.000000 1.922390 0.000000 
#    z 0.003420 0.000000 1.972310 
# 
# From -- ./inp_files/59560.got.cif
#   From: 2010.03.12/outbox.cif.g09.slc.cpg/sg5_30_cif.got.tgz:59560.got - 2010.03.31 09:47:26.
