data_PCOD8051778
_publ_section_title
;
Structure prediction by ZEFSAII (Michael W. Deem and Ramdas Pophale) SiO2 
 PCOD8051778
Probable space group: C 2
;
_chemical_formula_sum "Si O2"
_cell_formula_units_Z 32
_cell_length_a 11.340073
_cell_length_b 8.774104
_cell_length_c 23.186342
_cell_angle_alpha 90.000000
_cell_angle_beta 139.946645
_cell_angle_gamma 90.000000
_cell_volume 1484.567267
_symmetry_space_group_name_H-M "C 2"
_symmetry_group_IT_number 5
_symmetry_cell_setting 'monoclinic'
loop_
_space_group_symop_operation_xyz
x,y,z
-x,y,-z
1/2+x,1/2+y,z
1/2-x,1/2+y,-z
loop_
_atom_site_type_symbol
_atom_site_label
_atom_site_fract_x
_atom_site_fract_y
_atom_site_fract_z
Si Si1 0.459756 0.062340 0.318817
Si Si2 0.174549 0.074299 0.602341
Si Si3 0.880157 0.410809 0.399213
Si Si4 0.627270 0.799948 0.916883
Si Si5 0.586660 0.445667 0.900548
Si Si6 0.768050 0.336345 0.167950
Si Si7 0.765638 0.862560 0.268718
Si Si8 0.480895 0.520639 0.252376
O O1 0.315789 0.185037 0.290039
O O2 0.660596 0.119495 0.378754
O O3 0.491286 0.949064 0.383406
O O4 0.378056 0.983376 0.230971
O O5 0.221341 0.938627 0.663724
O O6 0.000000 0.021733 0.500000
O O7 0.147162 0.232795 0.624405
O O8 0.699934 0.515878 0.337300
O O9 0.000000 0.442206 0.500000
O O10 0.583885 0.624260 0.915531
O O11 0.762074 0.832978 0.912567
O O12 0.437749 0.885780 0.832216
O O13 0.719934 0.874768 0.007435
O O14 0.426154 0.344248 0.870832
O O15 0.578024 0.433031 0.828261
O O16 0.896554 0.188916 0.226954
O O17 0.914034 0.928814 0.281681
#
# Coordination Sequence:
#
# PCOD8051778 Si02
#       8
#     4   4   4   4   4   4   4   4
#     4  12  23  45  72  96 139 182 224 283 343 409
#     4  11  27  45  69 105 138 180 234 285 340 408
#     4  11  25  47  68 103 143 179 229 286 342 407
#     4  11  25  43  68 100 135 178 230 282 341 410
#     4  11  25  45  67 101 135 178 230 279 346 407
#     4  11  22  46  70  94 137 180 226 282 345 403
#     4  12  25  44  68 102 138 180 233 278 345 414
#     4  11  25  43  69 101 137 183 227 281 345 410
#
# _framework density 21.555104
#
# number of rings (size 3 to 8) (size 9 to 14) (size 15 to 20)
#    0.000    0.750    5.000    1.875    3.500    2.000 
#    2.250    0.000    0.000    0.000    0.000    0.000 
#    0.000    0.000    0.000    0.000    0.000    0.000 
#
# Total GULP energy -198333.370573 kJ/mol
# GULP energy per Si atom -12395.835661 kJ/mol
# Density = 2.150604 g / cm^3
# Si number density = 21.555104 Si / 1000 Ang^3
#
#
#
# Elastic Constant Matrix: (Units=GPa)
#
#
# Indices 1 2 3 4 5 6 
#
# 1 92.3649 27.7097 33.5694 0.0000 -5.1798 0.0000
# 2 27.7097 98.9120 44.1480 0.0000 -7.6940 0.0000
# 3 33.5694 44.1480 132.1723 0.0000 11.7436 0.0000
# 4 0.0000 0.0000 0.0000 34.2524 0.0000 -1.4046
# 5 -5.1798 -7.6940 11.7436 0.0000 25.4689 0.0000
# 6 0.0000 0.0000 0.0000 -1.4046 0.0000 43.2851
#
#
#
# Elastic Compliance Matrix: (Units=1/GPa)
#
#
# Indices 1 2 3 4 5 6 
#
# 1 0.012644 -0.002028 -0.002824 0.000000 0.003261 0.000000
# 2 -0.002028 0.013041 -0.004332 0.000000 0.005525 0.000000
# 3 -0.002824 -0.004332 0.010320 0.000000 -0.006641 0.000000
# 4 0.000000 0.000000 0.000000 0.029234 0.000000 0.000949
# 5 0.003261 0.005525 -0.006641 0.000000 0.044658 0.000000
# 6 0.000000 0.000000 0.000000 0.000949 0.000000 0.023133
#
#
# Mechanical properties :
#
#
# Convention : Reuss Voigt Hill
#
# Bulk Modulus (GPa) = 56.69508 59.36705 58.03107
# Shear Modulus (GPa) = 31.79087 35.13609 33.46348
#
# Velocity S-wave (km/s) = 3.84456 4.04178 3.94440
# Velocity P-wave (km/s) = 6.78727 7.02731 6.90833
#
# Compressibility (1/GPa) = 0.01763821
#
# Stress axis : x y z
#
# Youngs Moduli (GPa) = 79.08758 76.67896 96.89899
#
# Poissons Ratio (x) = 0.15553 0.27361
# Poissons Ratio (y) = 0.16041 0.41975
# Poissons Ratio (z) = 0.22332 0.33216
#
# Static dielectric constant tensor:
#      x y z
#    x 4.028570 0.000000 0.007010 
#    y 0.000000 3.969870 0.000000 
#    z 0.007010 0.000000 3.930170 
# 
# 
# High freq. dielectric constant tensor:
#      x y z
#    x 1.857630 0.000000 0.001680 
#    y 0.000000 1.847880 0.000000 
#    z 0.001680 0.000000 1.849870 
# 
# From -- ./inp_files/68291.got.cif
#   From: 2010.03.12/outbox.cif.g09.slc.cpg/sg5_35_cif.got.tgz:68291.got - 2010.03.31 09:47:26.
