data_PCOD8051523
_publ_section_title
;
Structure prediction by ZEFSAII (Michael W. Deem and Ramdas Pophale) SiO2 
 PCOD8051523
Probable space group: C 2
;
_chemical_formula_sum "Si O2"
_cell_formula_units_Z 28
_cell_length_a 20.339956
_cell_length_b 9.908870
_cell_length_c 8.435954
_cell_angle_alpha 90.000000
_cell_angle_beta 132.736155
_cell_angle_gamma 90.000000
_cell_volume 1248.797926
_symmetry_space_group_name_H-M "C 2"
_symmetry_group_IT_number 5
_symmetry_cell_setting 'monoclinic'
loop_
_space_group_symop_operation_xyz
x,y,z
-x,y,-z
1/2+x,1/2+y,z
1/2-x,1/2+y,-z
loop_
_atom_site_type_symbol
_atom_site_label
_atom_site_fract_x
_atom_site_fract_y
_atom_site_fract_z
Si Si1 0.400045 0.238550 0.364084
Si Si2 0.673966 0.043644 0.264315
Si Si3 0.500000 0.425190 0.000000
Si Si4 0.058395 0.261040 0.436225
Si Si5 0.693670 0.001577 0.643522
Si Si6 0.371040 0.483920 0.531441
Si Si7 0.000000 0.363947 0.000000
Si Si8 0.852540 0.817347 0.952970
O O1 0.500000 0.180798 0.500000
O O2 0.405848 0.344504 0.515724
O O3 0.333362 0.111725 0.271387
O O4 0.357779 0.317795 0.149223
O O5 0.683710 0.177830 0.176936
O O6 0.674251 0.081246 0.449397
O O7 0.764777 0.960946 0.377695
O O8 0.585388 0.955057 0.089261
O O9 0.577433 0.509316 0.216907
O O10 0.547706 0.331119 0.949660
O O11 0.136644 0.367959 0.572330
O O12 0.000000 0.284375 0.500000
O O13 0.102458 0.113596 0.529700
O O14 0.013240 0.277004 0.185094
O O15 0.795404 0.950859 0.817873
#
# Coordination Sequence:
#
# PCOD8051523 Si02
#       8
#     4   4   2   4   4   4   2   4
#     4  12  28  46  72 106 147 191 244 296 371 439
#     4  11  25  47  74 102 148 188 248 296 369 432
#     4  12  24  46  76 106 139 193 246 298 361 437
#     4  11  25  46  75 105 152 188 244 305 372 432
#     4  11  26  46  73 104 141 193 241 302 360 443
#     4  12  25  49  73 108 148 190 242 307 363 441
#     4  10  26  46  74 114 141 203 248 306 363 447
#     4  12  26  46  74 104 145 192 242 301 369 433
#
# _framework density 22.421562999999999
#
# number of rings (size 3 to 8) (size 9 to 14) (size 15 to 20)
#    0.000    0.571    4.286    2.571    8.000    0.000 
#    2.571    0.000    0.000    0.000    0.000    0.000 
#    0.000    0.000    0.000    0.000    0.000    0.000 
#
# Total GULP energy -173492.722189 kJ/mol
# GULP energy per Si atom -12392.337299 kJ/mol
# Density = 2.237053 g / cm^3
# Si number density = 22.421563 Si / 1000 Ang^3
#
#
#
# Elastic Constant Matrix: (Units=GPa)
#
#
# Indices 1 2 3 4 5 6 
#
# 1 129.6960 40.9770 50.0798 0.0000 12.5182 0.0000
# 2 40.9770 105.9434 36.0342 0.0000 8.0129 0.0000
# 3 50.0798 36.0342 101.9143 0.0000 8.4133 0.0000
# 4 0.0000 0.0000 0.0000 28.8624 0.0000 -0.1414
# 5 12.5182 8.0129 8.4133 0.0000 38.9696 0.0000
# 6 0.0000 0.0000 0.0000 -0.1414 0.0000 36.3017
#
#
#
# Elastic Compliance Matrix: (Units=1/GPa)
#
#
# Indices 1 2 3 4 5 6 
#
# 1 0.010210 -0.002446 -0.003994 0.000000 -0.001915 0.000000
# 2 -0.002446 0.011392 -0.002747 0.000000 -0.000964 0.000000
# 3 -0.003994 -0.002747 0.012822 0.000000 -0.000920 0.000000
# 4 0.000000 0.000000 0.000000 0.034648 0.000000 0.000135
# 5 -0.001915 -0.000964 -0.000920 0.000000 0.026673 0.000000
# 6 0.000000 0.000000 0.000000 0.000135 0.000000 0.027547
#
#
# Mechanical properties :
#
#
# Convention : Reuss Voigt Hill
#
# Bulk Modulus (GPa) = 62.30158 65.74839 64.02498
# Shear Modulus (GPa) = 34.00986 34.85759 34.43373
#
# Velocity S-wave (km/s) = 3.89888 3.94718 3.92311
# Velocity P-wave (km/s) = 6.93651 7.08244 7.00986
#
# Compressibility (1/GPa) = 0.01605096
#
# Stress axis : x y z
#
# Youngs Moduli (GPa) = 97.94115 87.78064 77.99055
#
# Poissons Ratio (x) = 0.21469 0.31153
# Poissons Ratio (y) = 0.23954 0.21420
# Poissons Ratio (z) = 0.39122 0.24109
#
# Static dielectric constant tensor:
#      x y z
#    x 4.243050 0.000000 -0.017260 
#    y 0.000000 3.789500 0.000000 
#    z -0.017260 0.000000 4.140810 
# 
# 
# High freq. dielectric constant tensor:
#      x y z
#    x 1.898440 0.000000 0.001840 
#    y 0.000000 1.877270 0.000000 
#    z 0.001840 0.000000 1.889410 
# 
# From -- ./inp_files/29167.got.cif
#   From: 2010.03.12/outbox.cif.g09.slc.cpg/sg5_15_cif.got.tgz:29167.got - 2010.03.31 09:47:26.
