data_PCOD8051959
_publ_section_title
;
Structure prediction by ZEFSAII (Michael W. Deem and Ramdas Pophale) SiO2 
 PCOD8051959
Probable space group: C 2
;
_chemical_formula_sum "Si O2"
_cell_formula_units_Z 20
_cell_length_a 13.684062
_cell_length_b 5.574536
_cell_length_c 23.903103
_cell_angle_alpha 90.000000
_cell_angle_beta 152.035931
_cell_angle_gamma 90.000000
_cell_volume 855.016949
_symmetry_space_group_name_H-M "C 2"
_symmetry_group_IT_number 5
_symmetry_cell_setting 'monoclinic'
loop_
_space_group_symop_operation_xyz
x,y,z
-x,y,-z
1/2+x,1/2+y,z
1/2-x,1/2+y,-z
loop_
_atom_site_type_symbol
_atom_site_label
_atom_site_fract_x
_atom_site_fract_y
_atom_site_fract_z
Si Si1 0.049748 0.594160 0.359366
Si Si2 0.018543 0.924601 0.447374
Si Si3 0.843425 0.977763 0.070043
Si Si4 0.743980 0.229040 0.238469
Si Si5 0.282135 0.891762 0.873674
O O1 0.058043 0.713801 0.424117
O O2 0.279613 0.597888 0.449875
O O3 0.962322 0.327972 0.324897
O O4 0.892442 0.714793 0.236563
O O5 0.000000 0.815151 0.500000
O O6 0.806558 0.065161 0.323349
O O7 0.816624 0.024273 0.122447
O O8 0.087183 0.940314 0.177966
O O9 0.731260 0.721997 0.998113
O O10 0.644323 0.076451 0.137588
O O11 0.500000 0.757977 0.000000
#
# Coordination Sequence:
#
# PCOD8051959 Si02
#       5
#     4   4   4   4   4
#     4  11  24  44  71 102 147 187 248 301 374 439
#     4  11  24  45  69 105 141 188 245 306 369 441
#     4  12  27  47  73 111 151 196 253 304 375 452
#     4  11  25  44  72 104 145 195 244 305 372 444
#     4  11  24  45  71 105 146 191 238 311 369 441
#
# _framework density 23.391349999999999
#
# number of rings (size 3 to 8) (size 9 to 14) (size 15 to 20)
#    0.000    0.800    4.000    2.400    5.600    3.200 
#    0.000    0.000    0.000    0.000    0.000    0.000 
#    0.000    0.000    0.000    0.000    0.000    0.000 
#
# Total GULP energy -123963.305261 kJ/mol
# GULP energy per Si atom -12396.330526 kJ/mol
# Density = 2.333811 g / cm^3
# Si number density = 23.391350 Si / 1000 Ang^3
#
#
#
# Elastic Constant Matrix: (Units=GPa)
#
#
# Indices 1 2 3 4 5 6 
#
# 1 93.0896 1.7930 55.1579 -0.0012 -17.6206 0.0027
# 2 1.7930 70.3877 28.6889 -0.0031 -6.9941 0.0055
# 3 55.1579 28.6889 140.4469 -0.0003 -8.4437 0.0009
# 4 -0.0012 -0.0031 -0.0003 28.3756 0.0003 12.8760
# 5 -17.6206 -6.9941 -8.4437 0.0003 45.1255 -0.0007
# 6 0.0027 0.0055 0.0009 12.8760 -0.0007 28.5711
#
#
#
# Elastic Compliance Matrix: (Units=1/GPa)
#
#
# Indices 1 2 3 4 5 6 
#
# 1 0.015410 0.002692 -0.006286 0.000002 0.005258 -0.000002
# 2 0.002692 0.016118 -0.004183 0.000004 0.002767 -0.000005
# 3 -0.006286 -0.004183 0.010373 -0.000001 -0.001162 0.000002
# 4 0.000002 0.000004 -0.000001 0.044301 0.000001 -0.019965
# 5 0.005258 0.002767 -0.001162 0.000001 0.024425 -0.000001
# 6 -0.000002 -0.000005 0.000002 -0.019965 -0.000001 0.043998
#
#
# Mechanical properties :
#
#
# Convention : Reuss Voigt Hill
#
# Bulk Modulus (GPa) = 37.95393 52.80042 45.37718
# Shear Modulus (GPa) = 27.93866 34.96674 31.45270
#
# Velocity S-wave (km/s) = 3.45976 3.87053 3.67090
# Velocity P-wave (km/s) = 5.67633 6.52659 6.11625
#
# Compressibility (1/GPa) = 0.02634773
#
# Stress axis : x y z
#
# Youngs Moduli (GPa) = 64.89129 62.04072 96.39962
#
# Poissons Ratio (x) = -0.16701 0.60596
# Poissons Ratio (y) = -0.17469 0.40328
# Poissons Ratio (z) = 0.40790 0.25954
#
# Static dielectric constant tensor:
#      x y z
#    x 4.299370 0.000000 0.090840 
#    y 0.000000 3.903250 0.000000 
#    z 0.090840 0.000000 4.526070 
# 
# 
# High freq. dielectric constant tensor:
#      x y z
#    x 1.931230 0.000000 0.002360 
#    y 0.000000 1.903190 0.000000 
#    z 0.002360 0.000000 1.948900 
# 
# From -- ./inp_files/45351.got.cif
#   From: 2010.03.12/outbox.cif.g09.slc.cpg/sg5_23_cif.got.tgz:45351.got - 2010.03.31 09:47:26.
