data_PCOD8051690
_publ_section_title
;
Structure prediction by ZEFSAII (Michael W. Deem and Ramdas Pophale) SiO2 
 PCOD8051690
Probable space group: C 2
;
_chemical_formula_sum "Si O2"
_cell_formula_units_Z 32
_cell_length_a 22.694675
_cell_length_b 8.750966
_cell_length_c 12.608497
_cell_angle_alpha 90.000000
_cell_angle_beta 35.970777
_cell_angle_gamma 90.000000
_cell_volume 1470.811199
_symmetry_space_group_name_H-M "C 2"
_symmetry_group_IT_number 5
_symmetry_cell_setting 'monoclinic'
loop_
_space_group_symop_operation_xyz
x,y,z
-x,y,-z
1/2+x,1/2+y,z
1/2-x,1/2+y,-z
loop_
_atom_site_type_symbol
_atom_site_label
_atom_site_fract_x
_atom_site_fract_y
_atom_site_fract_z
Si Si1 0.520102 0.113640 0.085727
Si Si2 0.810120 0.620329 0.482390
Si Si3 0.675881 0.478398 0.503940
Si Si4 0.612055 0.506947 0.364823
Si Si5 0.301680 0.157761 0.048236
Si Si6 0.894776 0.669332 0.690275
Si Si7 0.979382 0.973405 0.915803
Si Si8 0.764042 0.979928 0.196653
O O1 0.427640 0.081962 0.298907
O O2 0.536848 0.293491 0.046996
O O3 0.500000 0.037048 0.000000
O O4 0.625232 0.053193 0.983017
O O5 0.757163 0.580612 0.447723
O O6 0.794284 0.799072 0.533950
O O7 0.769515 0.509106 0.633143
O O8 0.659165 0.546084 0.411067
O O9 0.568566 0.513179 0.709478
O O10 0.500000 0.574286 0.500000
O O11 0.700410 0.568357 0.157788
O O12 0.605879 0.326064 0.372378
O O13 0.260241 0.302625 0.172721
O O14 0.375844 0.201430 0.842295
O O15 0.805138 0.563542 0.785673
O O16 0.000000 0.590742 0.500000
O O17 0.876960 0.044426 0.018331
O O18 0.000000 0.048504 0.000000
#
# Coordination Sequence:
#
# PCOD8051690 Si02
#       8
#     4   4   4   4   4   4   4   4
#     4   9  19  36  62  89 124 162 213 257 323 383
#     4  11  22  39  67 101 126 170 215 273 327 390
#     4  11  23  40  67  94 135 168 219 268 327 388
#     4  11  26  43  64  95 134 177 217 264 328 393
#     4  11  24  41  67  94 127 172 220 275 321 384
#     4  11  24  43  66  92 126 170 223 267 321 386
#     4   9  18  34  60  93 117 162 203 254 312 388
#     4  11  22  39  66  93 128 165 219 267 326 385
#
# _framework density 21.756702000000001
#
# number of rings (size 3 to 8) (size 9 to 14) (size 15 to 20)
#    0.000    1.500    2.500    2.250   14.000    0.500 
#    0.000    2.500    2.750    0.000    0.000    0.000 
#    0.000    0.000    0.000    0.000    0.000    0.000 
#
# Total GULP energy -198281.408882 kJ/mol
# GULP energy per Si atom -12392.588055 kJ/mol
# Density = 2.170718 g / cm^3
# Si number density = 21.756702 Si / 1000 Ang^3
#
#
#
# Elastic Constant Matrix: (Units=GPa)
#
#
# Indices 1 2 3 4 5 6 
#
# 1 124.3040 25.2787 49.6742 0.0000 -16.3372 0.0000
# 2 25.2787 38.9260 34.6397 -0.0002 -9.8321 0.0001
# 3 49.6742 34.6397 144.9549 -0.0001 -26.9138 0.0000
# 4 0.0000 -0.0002 -0.0001 15.4669 0.0000 0.2906
# 5 -16.3372 -9.8321 -26.9138 0.0000 52.2886 0.0000
# 6 0.0000 0.0001 0.0000 0.2906 0.0000 28.5441
#
#
#
# Elastic Compliance Matrix: (Units=1/GPa)
#
#
# Indices 1 2 3 4 5 6 
#
# 1 0.009926 -0.004211 -0.002174 0.000000 0.001190 0.000000
# 2 -0.004211 0.034677 -0.006498 0.000000 0.001860 0.000000
# 3 -0.002174 -0.006498 0.009778 0.000000 0.003132 0.000000
# 4 0.000000 0.000000 0.000000 0.064667 0.000000 -0.000658
# 5 0.001190 0.001860 0.003132 0.000000 0.021458 0.000000
# 6 0.000000 0.000000 0.000000 -0.000658 0.000000 0.035040
#
#
# Mechanical properties :
#
#
# Convention : Reuss Voigt Hill
#
# Bulk Modulus (GPa) = 34.94713 58.59667 46.77190
# Shear Modulus (GPa) = 23.71335 32.49941 28.10638
#
# Velocity S-wave (km/s) = 3.30500 3.86912 3.59813
# Velocity P-wave (km/s) = 5.53729 6.85210 6.22948
#
# Compressibility (1/GPa) = 0.02861465
#
# Stress axis : x y z
#
# Youngs Moduli (GPa) = 100.74073 28.83775 102.26801
#
# Poissons Ratio (x) = 0.12142 0.22238
# Poissons Ratio (y) = 0.42418 0.66458
# Poissons Ratio (z) = 0.21905 0.18740
#
# Static dielectric constant tensor:
#      x y z
#    x 4.361950 0.000000 -0.266630 
#    y 0.000000 3.410190 0.000000 
#    z -0.266630 0.000000 4.228300 
# 
# 
# High freq. dielectric constant tensor:
#      x y z
#    x 1.870250 0.000000 -0.008360 
#    y 0.000000 1.805350 0.000000 
#    z -0.008360 0.000000 1.877540 
# 
# From -- ./inp_files/57694.got.cif
#   From: 2010.03.12/outbox.cif.g09.slc.cpg/sg5_29_cif.got.tgz:57694.got - 2010.03.31 09:47:26.
