data_PCOD8051508
_publ_section_title
;
Structure prediction by ZEFSAII (Michael W. Deem and Ramdas Pophale) SiO2 
 PCOD8051508
Probable space group: C 2
;
_chemical_formula_sum "Si O2"
_cell_formula_units_Z 30
_cell_length_a 11.750935
_cell_length_b 14.515346
_cell_length_c 8.970535
_cell_angle_alpha 90.000000
_cell_angle_beta 114.231528
_cell_angle_gamma 90.000000
_cell_volume 1395.284325
_symmetry_space_group_name_H-M "C 2"
_symmetry_group_IT_number 5
_symmetry_cell_setting 'monoclinic'
loop_
_space_group_symop_operation_xyz
x,y,z
-x,y,-z
1/2+x,1/2+y,z
1/2-x,1/2+y,-z
loop_
_atom_site_type_symbol
_atom_site_label
_atom_site_fract_x
_atom_site_fract_y
_atom_site_fract_z
Si Si1 0.480911 0.302120 0.662505
Si Si2 0.732011 0.948383 0.025837
Si Si3 0.151984 0.129353 0.348840
Si Si4 0.362983 0.640143 0.149839
Si Si5 0.188399 0.656480 0.300346
Si Si6 0.887119 0.953888 0.840129
Si Si7 0.500000 0.042744 0.000000
Si Si8 0.249065 0.256262 0.167595
O O1 0.500000 0.332340 0.500000
O O2 0.365772 0.234867 0.622581
O O3 0.450297 0.389145 0.750361
O O4 0.602900 0.246199 0.785334
O O5 0.726572 0.865841 0.142927
O O6 0.820720 0.032804 0.125510
O O7 0.783374 0.908030 0.894857
O O8 0.589888 0.983076 0.941528
O O9 0.216214 0.101843 0.540247
O O10 0.215691 0.221475 0.315191
O O11 0.004258 0.145846 0.281944
O O12 0.182875 0.040858 0.265663
O O13 0.276384 0.697124 0.218168
O O14 0.339460 0.692444 0.982271
O O15 0.079004 0.599105 0.163560
O O16 0.000000 0.993727 0.000000
#
# Coordination Sequence:
#
# PCOD8051508 Si02
#       8
#     4   4   4   4   4   4   2   4
#     4  12  25  43  67 105 142 184 244 293 351 419
#     4  11  23  43  70 106 138 189 243 284 348 435
#     4  12  24  43  68 104 142 182 229 295 354 409
#     4  11  23  43  70 101 139 187 236 283 353 428
#     4  11  25  44  69  99 142 182 234 287 355 421
#     4  12  23  44  72 101 137 185 241 288 344 427
#     4  10  26  44  72 104 144 188 232 294 366 424
#     4  12  23  41  73  97 143 187 230 289 354 414
#
# _framework density 21.500993999999999
#
# number of rings (size 3 to 8) (size 9 to 14) (size 15 to 20)
#    0.000    0.533    5.333    3.200    2.800    3.200 
#    0.000    0.000    0.000    0.000    0.000    0.000 
#    0.000    0.000    0.000    0.000    0.000    0.000 
#
# Total GULP energy -185859.530634 kJ/mol
# GULP energy per Si atom -12390.635376 kJ/mol
# Density = 2.145206 g / cm^3
# Si number density = 21.500994 Si / 1000 Ang^3
#
#
#
# Elastic Constant Matrix: (Units=GPa)
#
#
# Indices 1 2 3 4 5 6 
#
# 1 143.6755 38.1341 45.2090 0.0000 -4.2353 0.0000
# 2 38.1341 92.3663 33.8553 0.0000 5.8442 0.0000
# 3 45.2090 33.8553 131.0438 0.0000 14.8390 0.0000
# 4 0.0000 0.0000 0.0000 23.1042 0.0000 -7.9230
# 5 -4.2353 5.8442 14.8390 0.0000 41.1706 0.0000
# 6 0.0000 0.0000 0.0000 -7.9230 0.0000 38.7468
#
#
#
# Elastic Compliance Matrix: (Units=1/GPa)
#
#
# Indices 1 2 3 4 5 6 
#
# 1 0.008534 -0.002752 -0.002478 0.000000 0.002162 0.000000
# 2 -0.002752 0.012861 -0.002225 0.000000 -0.001307 0.000000
# 3 -0.002478 -0.002225 0.009439 0.000000 -0.003341 0.000000
# 4 0.000000 0.000000 0.000000 0.046546 0.000000 0.009518
# 5 0.002162 -0.001307 -0.003341 0.000000 0.025901 0.000000
# 6 0.000000 0.000000 0.000000 0.009518 0.000000 0.027755
#
#
# Mechanical properties :
#
#
# Convention : Reuss Voigt Hill
#
# Bulk Modulus (GPa) = 62.79911 66.83139 64.81525
# Shear Modulus (GPa) = 33.05688 37.26344 35.16016
#
# Velocity S-wave (km/s) = 3.92530 4.16757 4.04825
# Velocity P-wave (km/s) = 7.05797 7.36944 7.21538
#
# Compressibility (1/GPa) = 0.01592379
#
# Stress axis : x y z
#
# Youngs Moduli (GPa) = 117.17889 77.75508 105.94144
#
# Poissons Ratio (x) = 0.21397 0.26252
# Poissons Ratio (y) = 0.32246 0.23575
# Poissons Ratio (z) = 0.29037 0.17303
#
# Static dielectric constant tensor:
#      x y z
#    x 4.328680 0.000000 -0.131790 
#    y 0.000000 3.687020 0.000000 
#    z -0.131790 0.000000 3.930000 
# 
# 
# High freq. dielectric constant tensor:
#      x y z
#    x 1.866690 0.000000 -0.003820 
#    y 0.000000 1.827180 0.000000 
#    z -0.003820 0.000000 1.842330 
# 
# From -- ./inp_files/20683.got.cif
#   From: 2010.03.12/outbox.cif.g09.slc.cpg/sg5_11_cif.got.tgz:20683.got - 2010.03.31 09:47:26.
