data_PCOD8051420
_publ_section_title
;
Structure prediction by ZEFSAII (Michael W. Deem and Ramdas Pophale) SiO2 
 PCOD8051420
Probable space group: C 2
;
_chemical_formula_sum "Si O2"
_cell_formula_units_Z 18
_cell_length_a 12.963023
_cell_length_b 7.889424
_cell_length_c 16.436723
_cell_angle_alpha 90.000000
_cell_angle_beta 24.679811
_cell_angle_gamma 90.000000
_cell_volume 701.894939
_symmetry_space_group_name_H-M "C 2"
_symmetry_group_IT_number 5
_symmetry_cell_setting 'monoclinic'
loop_
_space_group_symop_operation_xyz
x,y,z
-x,y,-z
1/2+x,1/2+y,z
1/2-x,1/2+y,-z
loop_
_atom_site_type_symbol
_atom_site_label
_atom_site_fract_x
_atom_site_fract_y
_atom_site_fract_z
Si Si1 0.499076 0.551290 0.237908
Si Si2 0.050753 0.732753 0.620962
Si Si3 0.726168 0.977286 0.281234
Si Si4 0.500000 0.455992 0.500000
Si Si5 0.034519 0.632626 0.889955
O O1 0.329927 0.655111 0.424504
O O2 0.498408 0.348601 0.263387
O O3 0.393667 0.587089 0.223453
O O4 0.771372 0.628142 0.034451
O O5 0.857096 0.578415 0.741397
O O6 0.011693 0.848263 0.571612
O O7 0.500000 0.917134 0.500000
O O8 0.884092 0.818630 0.139409
O O9 0.246348 0.561506 0.680048
O O10 0.000000 0.528920 0.000000
#
# Coordination Sequence:
#
# PCOD8051420 Si02
#       5
#     4   4   4   2   4
#     4  11  26  46  75 112 144 202 251 301 386 448
#     4  11  25  48  76 108 154 196 250 309 379 447
#     4  10  24  50  70 104 154 193 246 321 364 442
#     4  12  24  50  72 102 166 188 242 332 352 446
#     4  12  27  46  73 109 146 198 255 303 377 443
#
# _framework density 25.644863999999998
#
# number of rings (size 3 to 8) (size 9 to 14) (size 15 to 20)
#    0.000    0.889    6.667    0.000   12.444    0.000 
#    8.000    0.000    0.000    0.000    0.000    0.000 
#    0.000    0.000    0.000    0.000    0.000    0.000 
#
# Total GULP energy -111522.843189 kJ/mol
# GULP energy per Si atom -12391.427021 kJ/mol
# Density = 2.558649 g / cm^3
# Si number density = 25.644864 Si / 1000 Ang^3
#
#
#
# Elastic Constant Matrix: (Units=GPa)
#
#
# Indices 1 2 3 4 5 6 
#
# 1 30.9573 -17.2592 32.1206 -0.0019 -16.9939 -0.0009
# 2 -17.2592 100.5755 55.8732 -0.0095 -14.6876 -0.0028
# 3 32.1206 55.8732 179.1367 -0.0162 -45.2923 -0.0045
# 4 -0.0019 -0.0095 -0.0162 51.0342 0.0004 -1.1788
# 5 -16.9939 -14.6876 -45.2923 0.0004 44.2327 -0.0004
# 6 -0.0009 -0.0028 -0.0045 -1.1788 -0.0004 29.3838
#
#
#
# Elastic Compliance Matrix: (Units=1/GPa)
#
#
# Indices 1 2 3 4 5 6 
#
# 1 0.072745 0.024000 -0.015447 0.000002 0.020100 0.000003
# 2 0.024000 0.019946 -0.008796 0.000002 0.006837 0.000001
# 3 -0.015447 -0.008796 0.011951 0.000002 0.003381 0.000001
# 4 0.000002 0.000002 0.000002 0.019613 0.000003 0.000787
# 5 0.020100 0.006837 0.003381 0.000003 0.036063 0.000002
# 6 0.000003 0.000001 0.000001 0.000787 0.000002 0.034064
#
#
# Mechanical properties :
#
#
# Convention : Reuss Voigt Hill
#
# Bulk Modulus (GPa) = 9.60107 50.23763 29.91935
# Shear Modulus (GPa) = 21.77835 40.92582 31.35209
#
# Velocity S-wave (km/s) = 2.91731 3.99917 3.50029
# Velocity P-wave (km/s) = 3.88582 6.39974 5.29416
#
# Compressibility (1/GPa) = 0.10415511
#
# Stress axis : x y z
#
# Youngs Moduli (GPa) = 13.74670 50.13474 83.67803
#
# Poissons Ratio (x) = -1.20324 1.29261
# Poissons Ratio (y) = -0.32992 0.73603
# Poissons Ratio (z) = 0.21235 0.44098
#
# Static dielectric constant tensor:
#      x y z
#    x 1.070870 0.000250 -1.509990 
#    y 0.000250 4.826490 0.000050 
#    z -1.509990 0.000050 4.468300 
# 
# 
# High freq. dielectric constant tensor:
#      x y z
#    x 2.022030 0.000000 -0.012760 
#    y 0.000000 2.014730 0.000000 
#    z -0.012760 0.000000 2.032840 
# 
# From -- ./inp_files/65821.got.cif
#   From: 2010.03.12/outbox.cif.g09.slc.cpg/sg5_33_cif.got.tgz:65821.got - 2010.03.31 09:47:26.
