data_PCOD8051384
_publ_section_title
;
Structure prediction by ZEFSAII (Michael W. Deem and Ramdas Pophale) SiO2 
 PCOD8051384
Probable space group: C 2
;
_chemical_formula_sum "Si O2"
_cell_formula_units_Z 24
_cell_length_a 11.665018
_cell_length_b 8.037211
_cell_length_c 12.220307
_cell_angle_alpha 90.000000
_cell_angle_beta 110.391444
_cell_angle_gamma 90.000000
_cell_volume 1073.908512
_symmetry_space_group_name_H-M "C 2"
_symmetry_group_IT_number 5
_symmetry_cell_setting 'monoclinic'
loop_
_space_group_symop_operation_xyz
x,y,z
-x,y,-z
1/2+x,1/2+y,z
1/2-x,1/2+y,-z
loop_
_atom_site_type_symbol
_atom_site_label
_atom_site_fract_x
_atom_site_fract_y
_atom_site_fract_z
Si Si1 0.479849 0.344280 0.328751
Si Si2 0.689458 0.125171 0.867373
Si Si3 0.208080 0.933378 0.289212
Si Si4 0.755643 0.548764 0.692124
Si Si5 0.366475 0.915838 0.947521
Si Si6 0.883655 0.564859 0.517236
O O1 0.418848 0.189023 0.246145
O O2 0.563883 0.445361 0.270497
O O3 0.379023 0.466082 0.348021
O O4 0.572003 0.256819 0.446872
O O5 0.768858 0.275853 0.938598
O O6 0.773235 0.994340 0.828666
O O7 0.633301 0.049952 0.956879
O O8 0.261578 0.747405 0.321532
O O9 0.276386 0.063939 0.391888
O O10 0.838524 0.503166 0.823010
O O11 0.830573 0.482713 0.610684
O O12 0.500000 0.833647 0.000000
O O13 0.000000 0.468029 0.500000
#
# Coordination Sequence:
#
# PCOD8051384 Si02
#       6
#     4   4   4   4   4   4
#     4  10  24  47  66  95 138 171 221 270 321 397
#     4  11  24  43  68  96 136 171 218 270 329 381
#     4  11  24  42  68  98 127 177 217 272 326 387
#     4  10  25  44  68  98 128 179 221 265 332 384
#     4  11  24  42  68  97 133 174 218 271 321 391
#     4  11  23  42  68  93 135 171 213 275 326 384
#
# _framework density 22.348271
#
# number of rings (size 3 to 8) (size 9 to 14) (size 15 to 20)
#    0.000    1.333    1.667    3.000    4.667    4.000 
#    9.000    0.833    0.000    0.000    0.000    0.000 
#    0.000    0.000    0.000    0.000    0.000    0.000 
#
# Total GULP energy -148753.569016 kJ/mol
# GULP energy per Si atom -12396.130751 kJ/mol
# Density = 2.229741 g / cm^3
# Si number density = 22.348271 Si / 1000 Ang^3
#
#
#
# Elastic Constant Matrix: (Units=GPa)
#
#
# Indices 1 2 3 4 5 6 
#
# 1 145.8367 24.6307 37.5029 0.0000 -11.8641 0.0000
# 2 24.6307 63.9360 27.5522 0.0000 11.0141 0.0000
# 3 37.5029 27.5522 71.8016 0.0000 -15.8097 0.0000
# 4 0.0000 0.0000 0.0000 26.1962 0.0000 -6.6539
# 5 -11.8641 11.0141 -15.8097 0.0000 39.6186 0.0000
# 6 0.0000 0.0000 0.0000 -6.6539 0.0000 34.6935
#
#
#
# Elastic Compliance Matrix: (Units=1/GPa)
#
#
# Indices 1 2 3 4 5 6 
#
# 1 0.008147 -0.002149 -0.003028 0.000000 0.001829 0.000000
# 2 -0.002149 0.022647 -0.009972 0.000000 -0.010918 0.000000
# 3 -0.003028 -0.009972 0.021648 0.000000 0.010504 0.000000
# 4 0.000000 0.000000 0.000000 0.040128 0.000000 0.007696
# 5 0.001829 -0.010918 0.010504 0.000000 0.033015 0.000000
# 6 0.000000 0.000000 0.000000 0.007696 0.000000 0.030300
#
#
# Mechanical properties :
#
#
# Convention : Reuss Voigt Hill
#
# Bulk Modulus (GPa) = 45.15809 51.21621 48.18715
# Shear Modulus (GPa) = 25.83112 32.89423 29.36267
#
# Velocity S-wave (km/s) = 3.40346 3.84069 3.62866
# Velocity P-wave (km/s) = 5.97454 6.52954 6.25819
#
# Compressibility (1/GPa) = 0.02214443
#
# Stress axis : x y z
#
# Youngs Moduli (GPa) = 122.73827 44.15688 46.19298
#
# Poissons Ratio (x) = 0.09488 0.13989
# Poissons Ratio (y) = 0.26373 0.46063
# Poissons Ratio (z) = 0.37169 0.44033
#
# Static dielectric constant tensor:
#      x y z
#    x 4.401770 0.000000 -0.180860 
#    y 0.000000 3.808220 0.000000 
#    z -0.180860 0.000000 4.074450 
# 
# 
# High freq. dielectric constant tensor:
#      x y z
#    x 1.902250 0.000000 -0.012390 
#    y 0.000000 1.857590 0.000000 
#    z -0.012390 0.000000 1.887510 
# 
# From -- ./inp_files/38420.got.cif
#   From: 2010.03.12/outbox.cif.g09.slc.cpg/sg5_20_cif.got.tgz:38420.got - 2010.03.31 09:47:26.
