data_PCOD8051367
_publ_section_title
;
Structure prediction by ZEFSAII (Michael W. Deem and Ramdas Pophale) SiO2 
 PCOD8051367
Probable space group: C 2
;
_chemical_formula_sum "Si O2"
_cell_formula_units_Z 22
_cell_length_a 15.402814
_cell_length_b 10.987058
_cell_length_c 12.422799
_cell_angle_alpha 90.000000
_cell_angle_beta 154.847563
_cell_angle_gamma 90.000000
_cell_volume 893.549279
_symmetry_space_group_name_H-M "C 2"
_symmetry_group_IT_number 5
_symmetry_cell_setting 'monoclinic'
loop_
_space_group_symop_operation_xyz
x,y,z
-x,y,-z
1/2+x,1/2+y,z
1/2-x,1/2+y,-z
loop_
_atom_site_type_symbol
_atom_site_label
_atom_site_fract_x
_atom_site_fract_y
_atom_site_fract_z
Si Si1 0.367992 0.715250 0.454816
Si Si2 0.499636 0.535657 0.243139
Si Si3 0.274556 0.896941 0.921803
Si Si4 0.710682 0.645705 0.176436
Si Si5 0.624216 0.970663 0.471091
Si Si6 0.000000 0.554242 0.000000
O O1 0.500000 0.677022 0.500000
O O2 0.494115 0.674905 0.703469
O O3 0.304036 0.856141 0.376885
O O4 0.161033 0.640022 0.239200
O O5 0.719794 0.491973 0.450552
O O6 0.442624 0.446347 0.278278
O O7 0.337444 0.538137 0.963062
O O8 0.413565 0.922388 0.183749
O O9 0.372314 0.973420 0.937513
O O10 0.220015 0.763803 0.813391
O O11 0.878243 0.590206 0.450853
O O12 0.500000 0.679451 0.000000
#
# Coordination Sequence:
#
# PCOD8051367 Si02
#       6
#     4   4   4   4   4   2
#     4  12  26  46  72 104 146 193 247 309 366 446
#     4  11  25  46  71 110 141 196 252 298 373 452
#     4  12  24  47  78 105 149 192 244 309 372 441
#     4  10  24  46  73 107 151 188 244 312 363 445
#     4  11  27  47  72 107 152 190 244 308 374 432
#     4  12  26  44  74 108 142 196 242 310 382 430
#
# _framework density 24.620913000000002
#
# number of rings (size 3 to 8) (size 9 to 14) (size 15 to 20)
#    0.000    0.727    6.364    0.000    6.364    1.455 
#    0.000    5.455    0.000    0.000    0.000    0.000 
#    0.000    0.000    0.000    0.000    0.000    0.000 
#
# Total GULP energy -136281.847841 kJ/mol
# GULP energy per Si atom -12389.258895 kJ/mol
# Density = 2.456488 g / cm^3
# Si number density = 24.620913 Si / 1000 Ang^3
#
#
#
# Elastic Constant Matrix: (Units=GPa)
#
#
# Indices 1 2 3 4 5 6 
#
# 1 150.0093 57.7114 17.6045 -0.0001 -0.3405 -0.0007
# 2 57.7114 145.4779 42.3055 -0.0004 -5.7724 -0.0011
# 3 17.6045 42.3055 74.5653 -0.0004 -20.9131 -0.0010
# 4 -0.0001 -0.0004 -0.0004 19.2831 0.0000 -24.1564
# 5 -0.3405 -5.7724 -20.9131 0.0000 26.6691 -0.0004
# 6 -0.0007 -0.0011 -0.0010 -24.1564 -0.0004 -9.8871
#
#
#
# Elastic Compliance Matrix: (Units=1/GPa)
#
#
# Indices 1 2 3 4 5 6 
#
# 1 0.007882 -0.003054 -0.000366 0.000000 -0.000847 0.000000
# 2 -0.003054 0.009538 -0.005285 0.000000 -0.002119 0.000000
# 3 -0.000366 -0.005285 0.020734 -0.000001 0.015110 -0.000001
# 4 0.000000 0.000000 -0.000001 0.012771 -0.000001 -0.031202
# 5 -0.000847 -0.002119 0.015110 -0.000001 0.048876 -0.000001
# 6 0.000000 0.000000 -0.000001 -0.031202 -0.000001 -0.024908
#
#
# Mechanical properties :
#
#
# Convention : Reuss Voigt Hill
#
# Bulk Modulus (GPa) = 48.20489 67.25504 57.72996
# Shear Modulus (GPa) = 50.39408 24.04176 37.21792
#
# Velocity S-wave (km/s) = 4.52907 3.12825 3.89220
# Velocity P-wave (km/s) = 6.85356 6.35795 6.61040
#
# Compressibility (1/GPa) = 0.02074478
#
# Stress axis : x y z
#
# Youngs Moduli (GPa) = 126.86733 104.84099 48.23068
#
# Poissons Ratio (x) = 0.32020 0.01764
# Poissons Ratio (y) = 0.38747 0.25489
# Poissons Ratio (z) = 0.04641 0.55406
#
# Static dielectric constant tensor:
#      x y z
#    x 4.657570 0.000000 -0.114560 
#    y 0.000000 4.346180 0.000000 
#    z -0.114560 0.000000 4.411100 
# 
# 
# High freq. dielectric constant tensor:
#      x y z
#    x 2.001500 0.000000 -0.005210 
#    y 0.000000 1.974510 0.000000 
#    z -0.005210 0.000000 1.972340 
# 
# From -- ./inp_files/42722.got.cif
#   From: 2010.03.12/outbox.cif.g09.slc.cpg/sg5_22_cif.got.tgz:42722.got - 2010.03.31 09:47:26.
