data_PCOD8051890
_publ_section_title
;
Structure prediction by ZEFSAII (Michael W. Deem and Ramdas Pophale) SiO2 
 PCOD8051890
Probable space group: C 2
;
_chemical_formula_sum "Si O2"
_cell_formula_units_Z 22
_cell_length_a 17.388444
_cell_length_b 7.845561
_cell_length_c 17.642999
_cell_angle_alpha 90.000000
_cell_angle_beta 23.983928
_cell_angle_gamma 90.000000
_cell_volume 978.355544
_symmetry_space_group_name_H-M "C 2"
_symmetry_group_IT_number 5
_symmetry_cell_setting 'monoclinic'
loop_
_space_group_symop_operation_xyz
x,y,z
-x,y,-z
1/2+x,1/2+y,z
1/2-x,1/2+y,-z
loop_
_atom_site_type_symbol
_atom_site_label
_atom_site_fract_x
_atom_site_fract_y
_atom_site_fract_z
Si Si1 0.183846 0.579040 0.377135
Si Si2 0.500000 0.408500 0.000000
Si Si3 0.794650 0.968945 0.683709
Si Si4 0.431264 0.087534 0.250464
Si Si5 0.134583 0.344855 0.559640
Si Si6 0.743914 0.657056 0.139129
O O1 0.383301 0.522120 0.163805
O O2 0.188115 0.782337 0.367014
O O3 0.158997 0.511176 0.484886
O O4 0.000000 0.505753 0.500000
O O5 0.346108 0.308569 0.090621
O O6 0.000000 0.058111 0.500000
O O7 0.660265 0.080331 0.751139
O O8 0.733008 0.987280 0.827854
O O9 0.333097 0.243745 0.382974
O O10 0.410029 0.912970 0.316105
O O11 0.653645 0.121586 0.034016
O O12 0.972140 0.211146 0.681683
#
# Coordination Sequence:
#
# PCOD8051890 Si02
#       6
#     4   2   4   4   4   4
#     4  11  24  42  70 105 138 178 236 287 341 417
#     4  12  22  40  76 102 134 180 234 290 340 408
#     4  11  23  45  75 104 135 183 240 287 341 415
#     4  12  26  46  71  99 142 187 229 290 359 403
#     4  12  26  48  68 102 147 182 230 293 352 419
#     4  12  24  45  73 101 139 185 236 283 348 415
#
# _framework density 22.486715
#
# number of rings (size 3 to 8) (size 9 to 14) (size 15 to 20)
#    0.000    0.364    7.273    1.091    2.545    1.455 
#    9.818    0.000    0.000    0.000    0.000    0.000 
#    0.000    0.000    0.000    0.000    0.000    0.000 
#
# Total GULP energy -136367.799777 kJ/mol
# GULP energy per Si atom -12397.072707 kJ/mol
# Density = 2.243553 g / cm^3
# Si number density = 22.486715 Si / 1000 Ang^3
#
#
#
# Elastic Constant Matrix: (Units=GPa)
#
#
# Indices 1 2 3 4 5 6 
#
# 1 69.9737 21.7837 26.0796 -0.0001 19.7504 0.0001
# 2 21.7837 80.8262 26.7334 0.0001 12.8108 -0.0006
# 3 26.0796 26.7334 127.0254 0.0016 23.2025 -0.0012
# 4 -0.0001 0.0001 0.0016 38.2654 -0.0003 10.3260
# 5 19.7504 12.8108 23.2025 -0.0003 33.9459 0.0001
# 6 0.0001 -0.0006 -0.0012 10.3260 0.0001 29.5466
#
#
#
# Elastic Compliance Matrix: (Units=1/GPa)
#
#
# Indices 1 2 3 4 5 6 
#
# 1 0.018185 -0.003059 -0.001563 0.000000 -0.008357 0.000000
# 2 -0.003059 0.014198 -0.001950 0.000000 -0.002245 0.000000
# 3 -0.001563 -0.001950 0.009488 -0.000001 -0.004840 0.000001
# 4 0.000000 0.000000 -0.000001 0.028854 0.000001 -0.010084
# 5 -0.008357 -0.002245 -0.004840 0.000001 0.038477 -0.000001
# 6 0.000000 0.000000 0.000001 -0.010084 -0.000001 0.037369
#
#
# Mechanical properties :
#
#
# Convention : Reuss Voigt Hill
#
# Bulk Modulus (GPa) = 34.81204 47.44653 41.12929
# Shear Modulus (GPa) = 29.53509 33.90016 31.71763
#
# Velocity S-wave (km/s) = 3.62808 3.88695 3.75974
# Velocity P-wave (km/s) = 5.75025 6.42574 6.09736
#
# Compressibility (1/GPa) = 0.02872569
#
# Stress axis : x y z
#
# Youngs Moduli (GPa) = 54.99035 70.43474 105.39936
#
# Poissons Ratio (x) = 0.21549 0.16475
# Poissons Ratio (y) = 0.16824 0.20550
# Poissons Ratio (z) = 0.08596 0.13733
#
# Static dielectric constant tensor:
#      x y z
#    x 3.942560 0.000000 0.014410 
#    y 0.000000 3.773630 0.000000 
#    z 0.014410 0.000000 4.675010 
# 
# 
# High freq. dielectric constant tensor:
#      x y z
#    x 1.872530 0.000000 0.006000 
#    y 0.000000 1.875380 0.000000 
#    z 0.006000 0.000000 1.909270 
# 
# From -- ./inp_files/67018.got.cif
#   From: 2010.03.12/outbox.cif.g09.slc.cpg/sg5_34_cif.got.tgz:67018.got - 2010.03.31 09:47:26.
