data_PCOD8051524
_publ_section_title
;
Structure prediction by ZEFSAII (Michael W. Deem and Ramdas Pophale) SiO2 
 PCOD8051524
Probable space group: C 2
;
_chemical_formula_sum "Si O2"
_cell_formula_units_Z 20
_cell_length_a 7.590786
_cell_length_b 9.682099
_cell_length_c 11.017598
_cell_angle_alpha 90.000000
_cell_angle_beta 87.968212
_cell_angle_gamma 90.000000
_cell_volume 809.226445
_symmetry_space_group_name_H-M "C 2"
_symmetry_group_IT_number 5
_symmetry_cell_setting 'monoclinic'
loop_
_space_group_symop_operation_xyz
x,y,z
-x,y,-z
1/2+x,1/2+y,z
1/2-x,1/2+y,-z
loop_
_atom_site_type_symbol
_atom_site_label
_atom_site_fract_x
_atom_site_fract_y
_atom_site_fract_z
Si Si1 0.500000 0.679330 0.500000
Si Si2 0.363198 0.250709 0.396562
Si Si3 0.000000 0.693493 0.000000
Si Si4 0.151421 0.246835 0.896330
Si Si5 0.342569 0.021996 0.218818
Si Si6 0.439859 0.517522 0.267466
O O1 0.662322 0.771417 0.446894
O O2 0.413968 0.582714 0.400362
O O3 0.500000 0.284013 0.500000
O O4 0.401657 0.096074 0.343400
O O5 0.387843 0.356533 0.282483
O O6 0.925642 0.594066 0.102814
O O7 0.160796 0.787396 0.046593
O O8 0.106055 0.359629 0.791706
O O9 0.179078 0.098758 0.828493
O O10 0.000000 0.242321 0.000000
O O11 0.134572 0.038719 0.213642
#
# Coordination Sequence:
#
# PCOD8051524 Si02
#       6
#     2   4   2   4   4   4
#     4  10  26  46  74 114 150 200 250 316 372 442
#     4  11  26  53  76 113 154 199 254 313 377 454
#     4  12  26  46  80 110 146 210 252 306 382 442
#     4  12  27  50  75 113 153 199 257 313 371 451
#     4  11  26  49  77 111 151 201 252 310 384 441
#     4  11  25  51  75 111 160 194 251 318 370 451
#
# _framework density 24.714960000000001
#
# number of rings (size 3 to 8) (size 9 to 14) (size 15 to 20)
#    0.000    0.800    4.000    1.200    5.600    6.400 
#    5.400    0.000    0.000    1.200    0.000    0.000 
#    0.000    0.000    0.000    0.000    0.000    0.000 
#
# Total GULP energy -123990.189655 kJ/mol
# GULP energy per Si atom -12399.018966 kJ/mol
# Density = 2.465871 g / cm^3
# Si number density = 24.714960 Si / 1000 Ang^3
#
#
#
# Elastic Constant Matrix: (Units=GPa)
#
#
# Indices 1 2 3 4 5 6 
#
# 1 125.8412 44.7328 61.6429 0.0000 -12.3671 0.0000
# 2 44.7328 134.2322 49.9248 0.0000 5.1741 0.0000
# 3 61.6429 49.9248 103.3066 0.0000 -9.7673 0.0000
# 4 0.0000 0.0000 0.0000 40.6993 0.0000 1.0815
# 5 -12.3671 5.1741 -9.7673 0.0000 41.8604 0.0000
# 6 0.0000 0.0000 0.0000 1.0815 0.0000 24.7826
#
#
#
# Elastic Compliance Matrix: (Units=1/GPa)
#
#
# Indices 1 2 3 4 5 6 
#
# 1 0.011699 -0.001795 -0.005896 0.000000 0.002302 0.000000
# 2 -0.001795 0.009559 -0.003794 0.000000 -0.002597 0.000000
# 3 -0.005896 -0.003794 0.015248 0.000000 0.002285 0.000000
# 4 0.000000 0.000000 0.000000 0.024599 0.000000 -0.001073
# 5 0.002302 -0.002597 0.002285 0.000000 0.025423 0.000000
# 6 0.000000 0.000000 0.000000 -0.001073 0.000000 0.040398
#
#
# Mechanical properties :
#
#
# Convention : Reuss Voigt Hill
#
# Bulk Modulus (GPa) = 73.87565 75.10900 74.49232
# Shear Modulus (GPa) = 32.38202 35.27375 33.82788
#
# Velocity S-wave (km/s) = 3.62362 3.78196 3.70364
# Velocity P-wave (km/s) = 6.88937 7.03754 6.96385
#
# Compressibility (1/GPa) = 0.01353626
#
# Stress axis : x y z
#
# Youngs Moduli (GPa) = 85.47987 104.61181 65.58427
#
# Poissons Ratio (x) = 0.18773 0.38666
# Poissons Ratio (y) = 0.15340 0.24885
# Poissons Ratio (z) = 0.50396 0.39694
#
# Static dielectric constant tensor:
#      x y z
#    x 4.593660 0.000000 -0.200150 
#    y 0.000000 4.525430 0.000000 
#    z -0.200150 0.000000 4.566870 
# 
# 
# High freq. dielectric constant tensor:
#      x y z
#    x 1.987690 0.000000 -0.022100 
#    y 0.000000 1.975100 0.000000 
#    z -0.022100 0.000000 1.992100 
# 
# From -- ./inp_files/34755.got.cif
#   From: 2010.03.12/outbox.cif.g09.slc.cpg/sg5_18_cif.got.tgz:34755.got - 2010.03.31 09:47:26.
