data_PCOD8051373
_publ_section_title
;
Structure prediction by ZEFSAII (Michael W. Deem and Ramdas Pophale) SiO2 
 PCOD8051373
Probable space group: C 2
;
_chemical_formula_sum "Si O2"
_cell_formula_units_Z 24
_cell_length_a 12.895505
_cell_length_b 8.002454
_cell_length_c 9.500131
_cell_angle_alpha 90.000000
_cell_angle_beta 84.012151
_cell_angle_gamma 90.000000
_cell_volume 975.023659
_symmetry_space_group_name_H-M "C 2"
_symmetry_group_IT_number 5
_symmetry_cell_setting 'monoclinic'
loop_
_space_group_symop_operation_xyz
x,y,z
-x,y,-z
1/2+x,1/2+y,z
1/2-x,1/2+y,-z
loop_
_atom_site_type_symbol
_atom_site_label
_atom_site_fract_x
_atom_site_fract_y
_atom_site_fract_z
Si Si1 0.500000 0.537750 0.000000
Si Si2 0.201699 0.457858 0.578730
Si Si3 0.237737 0.785641 0.703218
Si Si4 0.349484 0.012287 0.899594
Si Si5 0.998912 0.765841 0.206925
Si Si6 0.323886 0.771255 0.143893
Si Si7 0.000000 0.651355 0.500000
O O1 0.447873 0.416634 0.888718
O O2 0.581220 0.653030 0.909287
O O3 0.268482 0.597514 0.653849
O O4 0.269915 0.393791 0.438849
O O5 0.175134 0.307215 0.689521
O O6 0.094410 0.536289 0.537428
O O7 0.324713 0.860381 0.795237
O O8 0.125523 0.786972 0.795252
O O9 0.466768 0.083003 0.859710
O O10 0.280767 0.175163 0.880512
O O11 0.332461 0.945932 0.059123
O O12 0.033899 0.771120 0.365668
#
# Coordination Sequence:
#
# PCOD8051373 Si02
#       7
#     2   4   4   4   4   4   2
#     4  12  28  46  74 112 156 198 256 328 380 452
#     4  11  25  47  77 107 154 198 263 320 382 463
#     4  11  24  47  75 110 149 205 253 319 384 457
#     4  12  25  50  74 110 155 202 260 313 398 457
#     4  11  26  47  75 111 149 199 256 317 385 457
#     4  12  28  46  75 113 150 205 257 321 386 469
#     4  10  24  46  74 108 144 206 252 308 398 440
#
# _framework density 24.614788000000001
#
# number of rings (size 3 to 8) (size 9 to 14) (size 15 to 20)
#    0.000    0.667    3.333    3.000   11.667    0.000 
#    0.000    0.833    0.000    0.000    0.000    0.000 
#    0.000    0.000    0.000    0.000    0.000    0.000 
#
# Total GULP energy -148808.812245 kJ/mol
# GULP energy per Si atom -12400.734354 kJ/mol
# Density = 2.455876 g / cm^3
# Si number density = 24.614788 Si / 1000 Ang^3
#
#
#
# Elastic Constant Matrix: (Units=GPa)
#
#
# Indices 1 2 3 4 5 6 
#
# 1 79.4119 43.5791 30.0054 0.0000 -6.7692 0.0000
# 2 43.5791 110.7789 36.7902 0.0000 -3.9026 0.0000
# 3 30.0054 36.7902 116.8292 0.0000 -1.0092 0.0000
# 4 0.0000 0.0000 0.0000 40.3997 0.0000 10.2792
# 5 -6.7692 -3.9026 -1.0092 0.0000 32.9201 0.0000
# 6 0.0000 0.0000 0.0000 10.2792 0.0000 46.8872
#
#
#
# Elastic Compliance Matrix: (Units=1/GPa)
#
#
# Indices 1 2 3 4 5 6 
#
# 1 0.016917 -0.005722 -0.002519 0.000000 0.002723 0.000000
# 2 -0.005722 0.012057 -0.002326 0.000000 0.000181 0.000000
# 3 -0.002519 -0.002326 0.009935 0.000000 -0.000489 0.000000
# 4 0.000000 0.000000 0.000000 0.026215 0.000000 -0.005747
# 5 0.002723 0.000181 -0.000489 0.000000 0.030943 0.000000
# 6 0.000000 0.000000 0.000000 -0.005747 0.000000 0.022588
#
#
# Mechanical properties :
#
#
# Convention : Reuss Voigt Hill
#
# Bulk Modulus (GPa) = 56.26172 58.64103 57.45137
# Shear Modulus (GPa) = 34.31409 37.15108 35.73259
#
# Velocity S-wave (km/s) = 3.73774 3.88918 3.81421
# Velocity P-wave (km/s) = 6.44470 6.63648 6.54129
#
# Compressibility (1/GPa) = 0.01777407
#
# Stress axis : x y z
#
# Youngs Moduli (GPa) = 59.11281 82.94088 100.65807
#
# Poissons Ratio (x) = 0.47461 0.25358
# Poissons Ratio (y) = 0.33826 0.23408
# Poissons Ratio (z) = 0.14892 0.19288
#
# Static dielectric constant tensor:
#      x y z
#    x 4.761960 0.000000 -0.615940 
#    y 0.000000 4.694340 0.000000 
#    z -0.615940 0.000000 5.218040 
# 
# 
# High freq. dielectric constant tensor:
#      x y z
#    x 1.960280 0.000000 -0.009040 
#    y 0.000000 1.984650 0.000000 
#    z -0.009040 0.000000 2.005070 
# 
# From -- ./inp_files/22832.got.cif
#   From: 2010.03.12/outbox.cif.g09.slc.cpg/sg5_12_cif.got.tgz:22832.got - 2010.03.31 09:47:26.
