data_PCOD8051617
_publ_section_title
;
Structure prediction by ZEFSAII (Michael W. Deem and Ramdas Pophale) SiO2 
 PCOD8051617
Probable space group: C 2
;
_chemical_formula_sum "Si O2"
_cell_formula_units_Z 20
_cell_length_a 4.987842
_cell_length_b 14.064178
_cell_length_c 12.510078
_cell_angle_alpha 90.000000
_cell_angle_beta 99.792268
_cell_angle_gamma 90.000000
_cell_volume 864.795095
_symmetry_space_group_name_H-M "C 2"
_symmetry_group_IT_number 5
_symmetry_cell_setting 'monoclinic'
loop_
_space_group_symop_operation_xyz
x,y,z
-x,y,-z
1/2+x,1/2+y,z
1/2-x,1/2+y,-z
loop_
_atom_site_type_symbol
_atom_site_label
_atom_site_fract_x
_atom_site_fract_y
_atom_site_fract_z
Si Si1 0.482687 0.349640 0.807038
Si Si2 0.067039 0.578558 0.389083
Si Si3 0.496526 0.551702 0.249465
Si Si4 0.207041 0.797067 0.430758
Si Si5 0.029892 0.239521 0.879308
O O1 0.546866 0.460933 0.831582
O O2 0.313647 0.347928 0.684694
O O3 0.756997 0.288508 0.816671
O O4 0.285026 0.311224 0.886638
O O5 0.326719 0.533025 0.346992
O O6 0.137524 0.687442 0.412064
O O7 0.000000 0.529987 0.500000
O O8 0.812004 0.566751 0.294553
O O9 0.391729 0.645977 0.182493
O O10 0.500000 0.811391 0.500000
O O11 0.000000 0.845101 0.500000
O O12 0.000000 0.210884 0.000000
#
# Coordination Sequence:
#
# PCOD8051617 Si02
#       5
#     4   4   4   4   4
#     4  12  26  45  71 104 136 177 231 279 342 409
#     4  11  22  40  69 100 141 182 222 267 332 404
#     4  12  24  45  70 101 136 179 226 279 337 409
#     4  11  21  38  65  98 138 180 217 263 326 402
#     4  12  26  48  71  97 135 177 230 295 348 392
#
# _framework density 23.126864000000001
#
# number of rings (size 3 to 8) (size 9 to 14) (size 15 to 20)
#    0.000    0.400    4.000    6.000    0.000    4.000 
#    0.000    0.000    0.000    0.000    0.000    0.000 
#    0.000    0.000    0.000    0.000    0.000    0.000 
#
# Total GULP energy -124041.814350 kJ/mol
# GULP energy per Si atom -12404.181435 kJ/mol
# Density = 2.307423 g / cm^3
# Si number density = 23.126864 Si / 1000 Ang^3
#
#
#
# Elastic Constant Matrix: (Units=GPa)
#
#
# Indices 1 2 3 4 5 6 
#
# 1 141.0241 47.8835 21.4637 0.0000 -16.0109 0.0000
# 2 47.8835 108.3955 30.1149 0.0000 -6.3543 0.0000
# 3 21.4637 30.1149 81.9868 0.0000 -13.4925 0.0000
# 4 0.0000 0.0000 0.0000 18.1731 0.0000 -7.2289
# 5 -16.0109 -6.3543 -13.4925 0.0000 43.7240 0.0000
# 6 0.0000 0.0000 0.0000 -7.2289 0.0000 18.0400
#
#
#
# Elastic Compliance Matrix: (Units=1/GPa)
#
#
# Indices 1 2 3 4 5 6 
#
# 1 0.008654 -0.003521 -0.000564 0.000000 0.002483 0.000000
# 2 -0.003521 0.011711 -0.003489 0.000000 -0.000664 0.000000
# 3 -0.000564 -0.003489 0.014232 0.000000 0.003678 0.000000
# 4 0.000000 0.000000 0.000000 0.065461 0.000000 0.026231
# 5 0.002483 -0.000664 0.003678 0.000000 0.024819 0.000000
# 6 0.000000 0.000000 0.000000 0.026231 0.000000 0.065943
#
#
# Mechanical properties :
#
#
# Convention : Reuss Voigt Hill
#
# Bulk Modulus (GPa) = 51.41500 58.92562 55.17031
# Shear Modulus (GPa) = 23.53490 31.45037 27.49264
#
# Velocity S-wave (km/s) = 3.19351 3.69169 3.45160
# Velocity P-wave (km/s) = 5.98983 6.61106 6.30809
#
# Compressibility (1/GPa) = 0.01944958
#
# Stress axis : x y z
#
# Youngs Moduli (GPa) = 115.55116 85.38799 70.26610
#
# Poissons Ratio (x) = 0.30063 0.03961
# Poissons Ratio (y) = 0.40683 0.24518
# Poissons Ratio (z) = 0.06513 0.29794
#
# Static dielectric constant tensor:
#      x y z
#    x 4.385290 0.000000 -0.304270 
#    y 0.000000 4.396690 0.000000 
#    z -0.304270 0.000000 4.189300 
# 
# 
# High freq. dielectric constant tensor:
#      x y z
#    x 1.930700 0.000000 -0.009680 
#    y 0.000000 1.915080 0.000000 
#    z -0.009680 0.000000 1.900440 
# 
# From -- ./inp_files/33082.got.cif
#   From: 2010.03.12/outbox.cif.g09.slc.cpg/sg5_17_cif.got.tgz:33082.got - 2010.03.31 09:47:26.
