data_PCOD8051194
_publ_section_title
;
Structure prediction by ZEFSAII (Michael W. Deem and Ramdas Pophale) SiO2 
 PCOD8051194
Probable space group: C 2
;
_chemical_formula_sum "Si O2"
_cell_formula_units_Z 14
_cell_length_a 5.143421
_cell_length_b 19.318594
_cell_length_c 5.545543
_cell_angle_alpha 90.000000
_cell_angle_beta 86.264690
_cell_angle_gamma 90.000000
_cell_volume 549.854895
_symmetry_space_group_name_H-M "C 2"
_symmetry_group_IT_number 5
_symmetry_cell_setting 'monoclinic'
loop_
_space_group_symop_operation_xyz
x,y,z
-x,y,-z
1/2+x,1/2+y,z
1/2-x,1/2+y,-z
loop_
_atom_site_type_symbol
_atom_site_label
_atom_site_fract_x
_atom_site_fract_y
_atom_site_fract_z
Si Si1 0.000000 0.830050 0.500000
Si Si2 0.155622 0.073802 0.738679
Si Si3 0.733568 0.221383 0.160411
Si Si4 0.732848 0.929671 0.156013
O O1 0.788165 0.782667 0.646667
O O2 0.796605 0.876381 0.362760
O O3 0.308497 0.146567 0.709764
O O4 0.000000 0.064962 0.500000
O O5 0.345509 0.006478 0.740066
O O6 0.000000 0.079056 0.000000
O O7 0.500000 0.236575 0.000000
O O8 0.000000 0.227814 0.000000
O O9 0.500000 0.901341 0.000000
O O10 0.000000 0.939908 0.000000
#
# Coordination Sequence:
#
# PCOD8051194 Si02
#       4
#     2   4   4   4
#     4  12  28  50  82 114 166 212 262 336 412 486
#     4  10  23  50  82 116 155 209 274 335 396 479
#     4  11  28  49  76 117 159 207 268 330 402 480
#     4  11  26  51  78 114 156 209 270 329 399 482
#
# _framework density 25.461258999999998
#
# number of rings (size 3 to 8) (size 9 to 14) (size 15 to 20)
#    0.000    1.143    1.429    1.714    8.000    8.000 
#    0.000    0.000    0.000    0.000    0.000    0.000 
#    0.000    0.000    0.000    0.000    0.000    0.000 
#
# Total GULP energy -86741.732881 kJ/mol
# GULP energy per Si atom -12391.676126 kJ/mol
# Density = 2.540331 g / cm^3
# Si number density = 25.461259 Si / 1000 Ang^3
#
#
#
# Elastic Constant Matrix: (Units=GPa)
#
#
# Indices 1 2 3 4 5 6 
#
# 1 132.1018 49.5740 53.2628 0.0000 8.5277 0.0000
# 2 49.5740 247.9843 81.3059 0.0000 11.3288 0.0000
# 3 53.2628 81.3059 173.1397 0.0000 25.5286 0.0000
# 4 0.0000 0.0000 0.0000 129.9712 0.0000 -96.4813
# 5 8.5277 11.3288 25.5286 0.0000 32.0252 0.0000
# 6 0.0000 0.0000 0.0000 -96.4813 0.0000 212.0166
#
#
#
# Elastic Compliance Matrix: (Units=1/GPa)
#
#
# Indices 1 2 3 4 5 6 
#
# 1 0.008864 -0.001038 -0.002204 0.000000 -0.000236 0.000000
# 2 -0.001038 0.004888 -0.001997 0.000000 0.000139 0.000000
# 3 -0.002204 -0.001997 0.008160 0.000000 -0.005211 0.000000
# 4 0.000000 0.000000 0.000000 0.011619 0.000000 0.005287
# 5 -0.000236 0.000139 -0.005211 0.000000 0.035393 0.000000
# 6 0.000000 0.000000 0.000000 0.005287 0.000000 0.007123
#
#
# Mechanical properties :
#
#
# Convention : Reuss Voigt Hill
#
# Bulk Modulus (GPa) = 87.46535 102.39015 94.92775
# Shear Modulus (GPa) = 55.34880 99.40814 77.37847
#
# Velocity S-wave (km/s) = 4.66751 6.25521 5.51875
# Velocity P-wave (km/s) = 7.96708 9.61622 8.83023
#
# Compressibility (1/GPa) = 0.01143310
#
# Stress axis : x y z
#
# Youngs Moduli (GPa) = 112.82111 204.56699 122.55271
#
# Poissons Ratio (x) = 0.21242 0.27014
# Poissons Ratio (y) = 0.11715 0.24469
# Poissons Ratio (z) = 0.24869 0.40844
#
# Static dielectric constant tensor:
#      x y z
#    x 4.005280 0.000000 0.069120 
#    y 0.000000 5.797890 0.000000 
#    z 0.069120 0.000000 4.719970 
# 
# 
# High freq. dielectric constant tensor:
#      x y z
#    x 1.992600 0.000000 0.004400 
#    y 0.000000 2.058140 0.000000 
#    z 0.004400 0.000000 2.031650 
# 
# From -- ./inp_files/407.got.cif
#   From: 2010.03.12/outbox.cif.g09.slc.cpg/sg5_1_cif.got.tgz:407.got - 2010.03.31 09:47:26.
