data_PCOD8051201
_publ_section_title
;
Structure prediction by ZEFSAII (Michael W. Deem and Ramdas Pophale) SiO2 
 PCOD8051201
Probable space group: C 2
;
_chemical_formula_sum "Si O2"
_cell_formula_units_Z 26
_cell_length_a 18.150547
_cell_length_b 12.520240
_cell_length_c 6.350236
_cell_angle_alpha 90.000000
_cell_angle_beta 123.584037
_cell_angle_gamma 90.000000
_cell_volume 1202.199495
_symmetry_space_group_name_H-M "C 2"
_symmetry_group_IT_number 5
_symmetry_cell_setting 'monoclinic'
loop_
_space_group_symop_operation_xyz
x,y,z
-x,y,-z
1/2+x,1/2+y,z
1/2-x,1/2+y,-z
loop_
_atom_site_type_symbol
_atom_site_label
_atom_site_fract_x
_atom_site_fract_y
_atom_site_fract_z
Si Si1 0.249278 0.110120 0.590082
Si Si2 0.852463 0.766773 0.059273
Si Si3 0.000000 0.777021 0.000000
Si Si4 0.216883 0.396613 0.101172
Si Si5 0.895703 0.249242 0.788037
Si Si6 0.914964 0.408483 0.461719
Si Si7 0.399229 0.133824 0.518266
O O1 0.147597 0.138471 0.364035
O O2 0.299921 0.114688 0.447753
O O3 0.255704 0.990582 0.694932
O O4 0.284107 0.199913 0.808223
O O5 0.806206 0.850437 0.141285
O O6 0.903096 0.682345 0.289391
O O7 0.924345 0.833687 0.026664
O O8 0.945295 0.707526 0.755864
O O9 0.158852 0.298845 0.103422
O O10 0.158991 0.444252 0.822015
O O11 0.875296 0.335021 0.576710
O O12 0.000000 0.232971 0.000000
O O13 0.950004 0.520666 0.609978
O O14 0.000000 0.347565 0.500000
#
# Coordination Sequence:
#
# PCOD8051201 Si02
#       7
#     4   4   2   4   4   4   4
#     4  11  24  41  66 105 135 178 231 282 348 413
#     4  11  22  41  66  96 135 177 225 287 346 405
#     4  10  24  38  64 100 132 172 222 284 348 408
#     4  12  24  41  69  99 136 186 226 283 346 415
#     4  12  25  42  67 105 143 178 229 287 347 417
#     4  12  23  36  64 105 134 168 227 289 350 403
#     4  11  22  38  65  98 140 168 217 291 349 402
#
# _framework density 21.627026999999998
#
# number of rings (size 3 to 8) (size 9 to 14) (size 15 to 20)
#    0.000    0.615    7.692    1.385    3.231    0.000 
#    0.000    0.000    1.692    5.538    0.000    0.000 
#    0.000    0.000    0.000    0.000    0.000    0.000 
#
# Total GULP energy -161059.701228 kJ/mol
# GULP energy per Si atom -12389.207787 kJ/mol
# Density = 2.157780 g / cm^3
# Si number density = 21.627027 Si / 1000 Ang^3
#
#
#
# Elastic Constant Matrix: (Units=GPa)
#
#
# Indices 1 2 3 4 5 6 
#
# 1 156.3751 29.5435 40.1690 0.0000 -5.8726 0.0000
# 2 29.5435 47.2438 20.6424 0.0000 9.0678 0.0000
# 3 40.1690 20.6424 88.9503 0.0000 5.3784 0.0000
# 4 0.0000 0.0000 0.0000 33.1918 0.0000 -2.2800
# 5 -5.8726 9.0678 5.3784 0.0000 37.9203 0.0000
# 6 0.0000 0.0000 0.0000 -2.2800 0.0000 27.9348
#
#
#
# Elastic Compliance Matrix: (Units=1/GPa)
#
#
# Indices 1 2 3 4 5 6 
#
# 1 0.008025 -0.004314 -0.002784 0.000000 0.002670 0.000000
# 2 -0.004314 0.026813 -0.003879 0.000000 -0.006530 0.000000
# 3 -0.002784 -0.003879 0.013486 0.000000 -0.001416 0.000000
# 4 0.000000 0.000000 0.000000 0.030298 0.000000 0.002473
# 5 0.002670 -0.006530 -0.001416 0.000000 0.028547 0.000000
# 6 0.000000 0.000000 0.000000 0.002473 0.000000 0.036000
#
#
# Mechanical properties :
#
#
# Convention : Reuss Voigt Hill
#
# Bulk Modulus (GPa) = 37.92494 52.58656 45.25575
# Shear Modulus (GPa) = 28.74989 33.29031 31.02010
#
# Velocity S-wave (km/s) = 3.64998 3.92764 3.79135
# Velocity P-wave (km/s) = 5.94450 6.70346 6.33536
#
# Compressibility (1/GPa) = 0.02636787
#
# Stress axis : x y z
#
# Youngs Moduli (GPa) = 124.60292 37.29531 74.15358
#
# Poissons Ratio (x) = 0.16091 0.20647
# Poissons Ratio (y) = 0.53759 0.28766
# Poissons Ratio (z) = 0.34695 0.14468
#
# Static dielectric constant tensor:
#      x y z
#    x 4.485810 0.000000 -0.280770 
#    y 0.000000 3.564170 0.000000 
#    z -0.280770 0.000000 3.948550 
# 
# 
# High freq. dielectric constant tensor:
#      x y z
#    x 1.871250 0.000000 -0.013150 
#    y 0.000000 1.810000 0.000000 
#    z -0.013150 0.000000 1.857520 
# 
# From -- ./inp_files/8589.got.cif
#   From: 2010.03.12/outbox.cif.g09.slc.cpg/sg5_5_cif.got.tgz:8589.got - 2010.03.31 09:47:26.
