data_PCOD8051971
_publ_section_title
;
Structure prediction by ZEFSAII (Michael W. Deem and Ramdas Pophale) SiO2 
 PCOD8051971
Probable space group: C 2
;
_chemical_formula_sum "Si O2"
_cell_formula_units_Z 28
_cell_length_a 10.568877
_cell_length_b 8.756283
_cell_length_c 16.822147
_cell_angle_alpha 90.000000
_cell_angle_beta 55.075685
_cell_angle_gamma 90.000000
_cell_volume 1276.426196
_symmetry_space_group_name_H-M "C 2"
_symmetry_group_IT_number 5
_symmetry_cell_setting 'monoclinic'
loop_
_space_group_symop_operation_xyz
x,y,z
-x,y,-z
1/2+x,1/2+y,z
1/2-x,1/2+y,-z
loop_
_atom_site_type_symbol
_atom_site_label
_atom_site_fract_x
_atom_site_fract_y
_atom_site_fract_z
Si Si1 0.328180 0.428360 0.569711
Si Si2 0.121880 0.427100 0.402303
Si Si3 0.693461 0.940311 0.786578
Si Si4 0.339685 0.579634 0.888349
Si Si5 0.662224 0.939798 0.096591
Si Si6 0.188471 0.082551 0.802462
Si Si7 0.162324 0.236649 0.518779
O O1 0.500000 0.372406 0.500000
O O2 0.282481 0.478877 0.673903
O O3 0.230402 0.278672 0.580417
O O4 0.301376 0.563032 0.515397
O O5 0.195169 0.524847 0.306952
O O6 0.241302 0.344973 0.420775
O O7 0.000000 0.528654 0.500000
O O8 0.020645 0.278543 0.407758
O O9 0.516162 0.992708 0.838607
O O10 0.701122 0.763056 0.806261
O O11 0.781858 0.035781 0.821744
O O12 0.322252 0.759269 0.904159
O O13 0.516689 0.529524 0.840477
O O14 0.231746 0.492791 0.988673
O O15 0.760344 0.012976 0.132382
#
# Coordination Sequence:
#
# PCOD8051971 Si02
#       7
#     4   4   4   4   4   4   4
#     4  12  25  42  66  97 134 179 222 273 326 395
#     4   8  20  42  65  86 135 172 208 271 318 378
#     4  11  28  42  68 103 138 172 227 279 336 401
#     4  11  26  46  70 102 134 172 223 287 335 404
#     4  11  25  48  71  97 138 174 223 279 344 398
#     4  11  24  45  70  99 133 181 226 271 337 401
#     4   9  23  42  62  89 136 172 217 268 322 380
#
# _framework density 21.936246000000001
#
# number of rings (size 3 to 8) (size 9 to 14) (size 15 to 20)
#    0.857    0.571    1.429    2.571    6.000    9.714 
#    0.000    0.000    0.000    0.000    0.000    0.000 
#    0.000    0.000    0.000    0.000    0.000    0.000 
#
# Total GULP energy -173467.262616 kJ/mol
# GULP energy per Si atom -12390.518758 kJ/mol
# Density = 2.188632 g / cm^3
# Si number density = 21.936246 Si / 1000 Ang^3
#
#
#
# Elastic Constant Matrix: (Units=GPa)
#
#
# Indices 1 2 3 4 5 6 
#
# 1 146.4465 46.8503 60.4985 0.0000 9.1445 0.0000
# 2 46.8503 72.8527 26.2536 0.0000 3.0210 0.0000
# 3 60.4985 26.2536 120.9805 0.0000 -5.8411 0.0000
# 4 0.0000 0.0000 0.0000 39.2434 0.0000 3.6552
# 5 9.1445 3.0210 -5.8411 0.0000 39.1472 0.0000
# 6 0.0000 0.0000 0.0000 3.6552 0.0000 35.8558
#
#
#
# Elastic Compliance Matrix: (Units=1/GPa)
#
#
# Indices 1 2 3 4 5 6 
#
# 1 0.010340 -0.005022 -0.004209 0.000000 -0.002656 0.000000
# 2 -0.005022 0.017436 -0.001290 0.000000 -0.000365 0.000000
# 3 -0.004209 -0.001290 0.010780 0.000000 0.002691 0.000000
# 4 0.000000 0.000000 0.000000 0.025726 0.000000 -0.002623
# 5 -0.002656 -0.000365 0.002691 0.000000 0.026595 0.000000
# 6 0.000000 0.000000 0.000000 -0.002623 0.000000 0.028157
#
#
# Mechanical properties :
#
#
# Convention : Reuss Voigt Hill
#
# Bulk Modulus (GPa) = 57.09742 67.49828 62.29785
# Shear Modulus (GPa) = 34.26671 36.62778 35.44724
#
# Velocity S-wave (km/s) = 3.95663 4.09068 4.02421
# Velocity P-wave (km/s) = 6.85263 7.29030 7.07485
#
# Compressibility (1/GPa) = 0.01751393
#
# Stress axis : x y z
#
# Youngs Moduli (GPa) = 96.71410 57.35224 92.76128
#
# Poissons Ratio (x) = 0.28805 0.39042
# Poissons Ratio (y) = 0.48574 0.11964
# Poissons Ratio (z) = 0.40706 0.07397
#
# Static dielectric constant tensor:
#      x y z
#    x 4.175650 0.000000 0.112940 
#    y 0.000000 3.807560 0.000000 
#    z 0.112940 0.000000 3.967730 
# 
# 
# High freq. dielectric constant tensor:
#      x y z
#    x 1.873800 0.000000 0.012240 
#    y 0.000000 1.863470 0.000000 
#    z 0.012240 0.000000 1.862440 
# 
# From -- ./inp_files/52368.got.cif
#   From: 2010.03.12/outbox.cif.g09.slc.cpg/sg5_27_cif.got.tgz:52368.got - 2010.03.31 09:47:26.
