data_PCOD8051146
_publ_section_title
;
Structure prediction by ZEFSAII (Michael W. Deem and Ramdas Pophale) SiO2 
 PCOD8051146
Probable space group: C 2
;
_chemical_formula_sum "Si O2"
_cell_formula_units_Z 20
_cell_length_a 27.556856
_cell_length_b 6.596233
_cell_length_c 11.026983
_cell_angle_alpha 90.000000
_cell_angle_beta 153.492506
_cell_angle_gamma 90.000000
_cell_volume 894.589319
_symmetry_space_group_name_H-M "C 2"
_symmetry_group_IT_number 5
_symmetry_cell_setting 'monoclinic'
loop_
_space_group_symop_operation_xyz
x,y,z
-x,y,-z
1/2+x,1/2+y,z
1/2-x,1/2+y,-z
loop_
_atom_site_type_symbol
_atom_site_label
_atom_site_fract_x
_atom_site_fract_y
_atom_site_fract_z
Si Si1 0.195197 0.373270 0.709154
Si Si2 0.106640 0.783341 0.493192
Si Si3 0.221006 0.046468 0.568197
Si Si4 0.415401 0.282809 0.907467
Si Si5 0.379176 0.559773 0.260895
O O1 0.101770 0.540498 0.484119
O O2 0.189995 0.251216 0.571440
O O3 0.175848 0.237453 0.784171
O O4 0.307617 0.500571 0.982478
O O5 0.117062 0.855258 0.653119
O O6 0.208433 0.864045 0.637738
O O7 0.990100 0.865627 0.184276
O O8 0.339939 0.094388 0.780617
O O9 0.147269 0.979669 0.287974
O O10 0.500000 0.188333 0.000000
O O11 0.500000 0.633751 0.500000
#
# Coordination Sequence:
#
# PCOD8051146 Si02
#       5
#     4   4   4   4   4
#     4  11  23  44  70 102 137 179 223 275 343 398
#     4  10  23  45  65 100 137 176 227 277 329 403
#     4  10  24  43  68  97 134 177 221 283 328 400
#     4  10  23  46  65  98 134 174 227 276 331 398
#     4  11  23  42  70 101 138 176 223 275 333 404
#
# _framework density 22.356627
#
# number of rings (size 3 to 8) (size 9 to 14) (size 15 to 20)
#    0.000    1.600    2.000    1.200    5.600    2.400 
#   14.400    0.000    0.000    0.000    0.000    0.000 
#    0.000    0.000    0.000    0.000    0.000    0.000 
#
# Total GULP energy -123881.003990 kJ/mol
# GULP energy per Si atom -12388.100399 kJ/mol
# Density = 2.230574 g / cm^3
# Si number density = 22.356627 Si / 1000 Ang^3
#
#
#
# Elastic Constant Matrix: (Units=GPa)
#
#
# Indices 1 2 3 4 5 6 
#
# 1 71.3543 24.8147 42.0759 0.0000 13.0544 0.0000
# 2 24.8147 100.9896 36.7015 0.0000 -2.2066 0.0000
# 3 42.0759 36.7015 121.3254 0.0000 2.3760 0.0000
# 4 0.0000 0.0000 0.0000 35.9623 0.0000 -0.3823
# 5 13.0544 -2.2066 2.3760 0.0000 43.4684 0.0000
# 6 0.0000 0.0000 0.0000 -0.3823 0.0000 24.8547
#
#
#
# Elastic Compliance Matrix: (Units=1/GPa)
#
#
# Indices 1 2 3 4 5 6 
#
# 1 0.019433 -0.002797 -0.005782 0.000000 -0.005662 0.000000
# 2 -0.002797 0.011552 -0.002555 0.000000 0.001566 0.000000
# 3 -0.005782 -0.002555 0.011001 0.000000 0.001006 0.000000
# 4 0.000000 0.000000 0.000000 0.027811 0.000000 0.000428
# 5 -0.005662 0.001566 0.001006 0.000000 0.024730 0.000000
# 6 0.000000 0.000000 0.000000 0.000428 0.000000 0.040240
#
#
# Mechanical properties :
#
#
# Convention : Reuss Voigt Hill
#
# Bulk Modulus (GPa) = 50.71898 55.65036 53.18467
# Shear Modulus (GPa) = 30.56055 33.52889 32.04472
#
# Velocity S-wave (km/s) = 3.70125 3.87684 3.79006
# Velocity P-wave (km/s) = 6.40322 6.70716 6.55695
#
# Compressibility (1/GPa) = 0.01971648
#
# Stress axis : x y z
#
# Youngs Moduli (GPa) = 51.45901 86.56391 90.90199
#
# Poissons Ratio (x) = 0.24214 0.52562
# Poissons Ratio (y) = 0.14395 0.23227
# Poissons Ratio (z) = 0.29755 0.22118
#
# Static dielectric constant tensor:
#      x y z
#    x 4.171960 0.000000 -0.090320 
#    y 0.000000 3.831230 0.000000 
#    z -0.090320 0.000000 4.203470 
# 
# 
# High freq. dielectric constant tensor:
#      x y z
#    x 1.883440 0.000000 -0.011360 
#    y 0.000000 1.867740 0.000000 
#    z -0.011360 0.000000 1.879890 
# 
# From -- ./inp_files/41066.got.cif
#   From: 2010.03.12/outbox.cif.g09.slc.cpg/sg5_21_cif.got.tgz:41066.got - 2010.03.31 09:47:26.
