data_PCOD8051432
_publ_section_title
;
Structure prediction by ZEFSAII (Michael W. Deem and Ramdas Pophale) SiO2 
 PCOD8051432
Probable space group: C 2
;
_chemical_formula_sum "Si O2"
_cell_formula_units_Z 32
_cell_length_a 24.625435
_cell_length_b 13.642627
_cell_length_c 9.884680
_cell_angle_alpha 90.000000
_cell_angle_beta 28.362407
_cell_angle_gamma 90.000000
_cell_volume 1577.542488
_symmetry_space_group_name_H-M "C 2"
_symmetry_group_IT_number 5
_symmetry_cell_setting 'monoclinic'
loop_
_space_group_symop_operation_xyz
x,y,z
-x,y,-z
1/2+x,1/2+y,z
1/2-x,1/2+y,-z
loop_
_atom_site_type_symbol
_atom_site_label
_atom_site_fract_x
_atom_site_fract_y
_atom_site_fract_z
Si Si1 0.498613 0.514930 0.655940
Si Si2 0.515288 0.685069 0.812063
Si Si3 0.763370 0.515905 0.709095
Si Si4 0.233004 0.306094 0.374327
Si Si5 0.870641 0.736052 0.827001
Si Si6 0.260730 0.727398 0.346854
Si Si7 0.193423 0.864649 0.262206
Si Si8 0.130708 0.514457 0.227967
O O1 0.500000 0.554817 0.500000
O O2 0.552941 0.594241 0.637428
O O3 0.570241 0.415620 0.516504
O O4 0.368507 0.496014 0.975021
O O5 0.614242 0.763959 0.578584
O O6 0.500000 0.648617 0.000000
O O7 0.396400 0.731395 0.020406
O O8 0.794941 0.422025 0.547171
O O9 0.786694 0.617738 0.579690
O O10 0.834270 0.514077 0.692027
O O11 0.268890 0.255245 0.435200
O O12 0.337344 0.283842 0.043446
O O13 0.788852 0.784398 0.894034
O O14 0.848834 0.620782 0.880815
O O15 0.000000 0.759706 0.500000
O O16 0.198411 0.808553 0.393161
O O17 0.294342 0.942810 0.027835
O O18 0.000000 0.481333 0.500000
#
# Coordination Sequence:
#
# PCOD8051432 Si02
#       8
#     4   4   4   4   4   4   4   4
#     4  11  21  38  65  95 120 161 215 266 315 364
#     4   9  22  41  62  92 127 165 209 260 317 376
#     4  11  22  43  63  93 131 164 211 268 317 373
#     4  11  22  41  69  92 126 173 212 258 326 378
#     4  11  23  41  64  89 129 164 212 262 315 375
#     4  10  25  41  64  95 132 167 212 264 313 383
#     4  12  22  39  64  95 124 166 216 259 312 381
#     4  11  24  39  62  96 130 167 208 265 317 375
#
# _framework density 20.284714999999998
#
# number of rings (size 3 to 8) (size 9 to 14) (size 15 to 20)
#    0.000    1.250    3.750    1.875    1.750    4.000 
#    0.000    1.875    0.000    0.000    0.000    0.000 
#    0.000    0.000    0.000    0.000    0.000    0.000 
#
# Total GULP energy -198419.624291 kJ/mol
# GULP energy per Si atom -12401.226518 kJ/mol
# Density = 2.023855 g / cm^3
# Si number density = 20.284715 Si / 1000 Ang^3
#
#
#
# Elastic Constant Matrix: (Units=GPa)
#
#
# Indices 1 2 3 4 5 6 
#
# 1 112.0922 60.7693 39.3760 0.0000 2.6074 0.0000
# 2 60.7693 134.2997 44.9153 0.0000 2.9890 0.0000
# 3 39.3760 44.9153 70.5118 0.0000 0.3992 0.0000
# 4 0.0000 0.0000 0.0000 43.0760 0.0000 -19.3885
# 5 2.6074 2.9890 0.3992 0.0000 33.0907 0.0000
# 6 0.0000 0.0000 0.0000 -19.3885 0.0000 65.0323
#
#
#
# Elastic Compliance Matrix: (Units=1/GPa)
#
#
# Indices 1 2 3 4 5 6 
#
# 1 0.012822 -0.004315 -0.004409 0.000000 -0.000567 0.000000
# 2 -0.004315 0.010934 -0.004552 0.000000 -0.000593 0.000000
# 3 -0.004409 -0.004552 0.019541 0.000000 0.000523 0.000000
# 4 0.000000 0.000000 0.000000 0.026813 0.000000 0.007994
# 5 -0.000567 -0.000593 0.000523 0.000000 0.030312 0.000000
# 6 0.000000 0.000000 0.000000 0.007994 0.000000 0.017760
#
#
# Mechanical properties :
#
#
# Convention : Reuss Voigt Hill
#
# Bulk Modulus (GPa) = 59.71598 67.44724 63.58161
# Shear Modulus (GPa) = 33.26348 39.69600 36.47974
#
# Velocity S-wave (km/s) = 4.05387 4.42853 4.24534
# Velocity P-wave (km/s) = 7.17040 7.71179 7.44602
#
# Compressibility (1/GPa) = 0.01674594
#
# Stress axis : x y z
#
# Youngs Moduli (GPa) = 77.98854 91.45744 51.17573
#
# Poissons Ratio (x) = 0.39463 0.22562
# Poissons Ratio (y) = 0.33652 0.23295
# Poissons Ratio (z) = 0.34382 0.41631
#
# Static dielectric constant tensor:
#      x y z
#    x 3.744260 0.000000 -0.119130 
#    y 0.000000 3.991230 0.000000 
#    z -0.119130 0.000000 3.510110 
# 
# 
# High freq. dielectric constant tensor:
#      x y z
#    x 1.797340 0.000000 -0.006520 
#    y 0.000000 1.806460 0.000000 
#    z -0.006520 0.000000 1.781280 
# 
# From -- ./inp_files/31045.got.cif
#   From: 2010.03.12/outbox.cif.g09.slc.cpg/sg5_16_cif.got.tgz:31045.got - 2010.03.31 09:47:26.
