data_PCOD8051463
_publ_section_title
;
Structure prediction by ZEFSAII (Michael W. Deem and Ramdas Pophale) SiO2 
 PCOD8051463
Probable space group: C 2
;
_chemical_formula_sum "Si O2"
_cell_formula_units_Z 28
_cell_length_a 7.926836
_cell_length_b 9.640077
_cell_length_c 18.114472
_cell_angle_alpha 90.000000
_cell_angle_beta 122.716741
_cell_angle_gamma 90.000000
_cell_volume 1164.620015
_symmetry_space_group_name_H-M "C 2"
_symmetry_group_IT_number 5
_symmetry_cell_setting 'monoclinic'
loop_
_space_group_symop_operation_xyz
x,y,z
-x,y,-z
1/2+x,1/2+y,z
1/2-x,1/2+y,-z
loop_
_atom_site_type_symbol
_atom_site_label
_atom_site_fract_x
_atom_site_fract_y
_atom_site_fract_z
Si Si1 0.064226 0.702790 0.671205
Si Si2 0.614900 0.327004 0.833742
Si Si3 0.802883 0.425275 0.229380
Si Si4 0.151926 0.279667 0.387350
Si Si5 0.288911 0.554061 0.487052
Si Si6 0.301381 0.627813 0.989773
Si Si7 0.946385 0.392693 0.099395
O O1 0.019221 0.795075 0.731713
O O2 0.188736 0.569479 0.725720
O O3 0.190979 0.794123 0.642771
O O4 0.852226 0.660564 0.588737
O O5 0.436282 0.403829 0.835207
O O6 0.664526 0.193291 0.893489
O O7 0.821324 0.410580 0.867443
O O8 0.905134 0.435266 0.173443
O O9 0.926349 0.306837 0.303977
O O10 0.202088 0.396826 0.462438
O O11 0.181111 0.121734 0.424391
O O12 0.500000 0.557974 0.500000
O O13 0.175445 0.493314 0.986794
O O14 0.500000 0.567180 0.000000
O O15 0.361756 0.736555 0.067738
#
# Coordination Sequence:
#
# PCOD8051463 Si02
#       7
#     4   4   4   4   4   4   4
#     4  11  23  44  69 104 144 181 243 296 347 423
#     4  11  24  45  70 106 141 186 239 292 352 423
#     4  11  25  44  74 103 143 194 234 293 357 417
#     4  11  25  46  71 103 143 191 232 299 353 423
#     4  11  24  42  70 102 141 187 237 292 357 421
#     4  10  25  46  72 105 145 185 238 297 350 426
#     4  11  24  50  71 104 148 185 239 297 352 422
#
# _framework density 24.042179000000001
#
# number of rings (size 3 to 8) (size 9 to 14) (size 15 to 20)
#    0.000    1.143    2.857    2.143    2.000    5.714 
#    7.714    0.000    0.000    0.000    0.000    0.000 
#    0.000    0.000    0.000    0.000    0.000    0.000 
#
# Total GULP energy -173504.180969 kJ/mol
# GULP energy per Si atom -12393.155784 kJ/mol
# Density = 2.398746 g / cm^3
# Si number density = 24.042179 Si / 1000 Ang^3
#
#
#
# Elastic Constant Matrix: (Units=GPa)
#
#
# Indices 1 2 3 4 5 6 
#
# 1 120.0162 27.0494 37.2210 0.0000 29.4671 0.0000
# 2 27.0494 77.6849 25.0553 0.0000 13.2569 0.0000
# 3 37.2210 25.0553 78.7963 0.0000 16.0549 0.0000
# 4 0.0000 0.0000 0.0000 483.3460 0.0000 144.0952
# 5 29.4671 13.2569 16.0549 0.0000 54.0257 0.0000
# 6 0.0000 0.0000 0.0000 144.0952 0.0000 80.1704
#
#
#
# Elastic Compliance Matrix: (Units=1/GPa)
#
#
# Indices 1 2 3 4 5 6 
#
# 1 0.010989 -0.001879 -0.003689 0.000000 -0.004436 0.000000
# 2 -0.001879 0.014939 -0.003539 0.000000 -0.001589 0.000000
# 3 -0.003689 -0.003539 0.015937 0.000000 -0.001855 0.000000
# 4 0.000000 0.000000 0.000000 0.004457 0.000000 -0.008011
# 5 -0.004436 -0.001589 -0.001855 0.000000 0.021871 0.000000
# 6 0.000000 0.000000 0.000000 -0.008011 0.000000 0.026873
#
#
# Mechanical properties :
#
#
# Convention : Reuss Voigt Hill
#
# Bulk Modulus (GPa) = 42.28269 50.57209 46.42739
# Shear Modulus (GPa) = 41.26605 135.98653 88.62629
#
# Velocity S-wave (km/s) = 4.14744 7.52891 6.07806
# Velocity P-wave (km/s) = 6.36868 9.83156 8.28311
#
# Compressibility (1/GPa) = 0.02365034
#
# Stress axis : x y z
#
# Youngs Moduli (GPa) = 90.99810 66.93692 62.74695
#
# Poissons Ratio (x) = 0.12580 0.23150
# Poissons Ratio (y) = 0.17102 0.22205
# Poissons Ratio (z) = 0.33574 0.23688
#
# Static dielectric constant tensor:
#      x y z
#    x 3.121650 0.000000 2.443930 
#    y 0.000000 4.425430 0.000000 
#    z 2.443930 0.000000 -0.415430 
# 
# 
# High freq. dielectric constant tensor:
#      x y z
#    x 1.951230 0.000000 0.010900 
#    y 0.000000 1.945480 0.000000 
#    z 0.010900 0.000000 1.971160 
# 
# From -- ./inp_files/64402.got.cif
#   From: 2010.03.12/outbox.cif.g09.slc.cpg/sg5_33_cif.got.tgz:64402.got - 2010.03.31 09:47:26.
