data_PCOD8051231
_publ_section_title
;
Structure prediction by ZEFSAII (Michael W. Deem and Ramdas Pophale) SiO2 
 PCOD8051231
Probable space group: C 2
;
_chemical_formula_sum "Si O2"
_cell_formula_units_Z 24
_cell_length_a 21.056776
_cell_length_b 5.245373
_cell_length_c 9.948636
_cell_angle_alpha 90.000000
_cell_angle_beta 70.561232
_cell_angle_gamma 90.000000
_cell_volume 1036.197225
_symmetry_space_group_name_H-M "C 2"
_symmetry_group_IT_number 5
_symmetry_cell_setting 'monoclinic'
loop_
_space_group_symop_operation_xyz
x,y,z
-x,y,-z
1/2+x,1/2+y,z
1/2-x,1/2+y,-z
loop_
_atom_site_type_symbol
_atom_site_label
_atom_site_fract_x
_atom_site_fract_y
_atom_site_fract_z
Si Si1 0.375756 0.313500 0.153999
Si Si2 0.137109 0.202380 0.291199
Si Si3 0.500000 0.665732 0.000000
Si Si4 0.621535 0.221192 0.138994
Si Si5 0.016575 0.543715 0.762893
Si Si6 0.749895 0.346623 0.583506
Si Si7 0.500000 0.798557 0.500000
O O1 0.431366 0.520403 0.078739
O O2 0.411280 0.108829 0.225631
O O3 0.312316 0.426668 0.277352
O O4 0.349354 0.191888 0.032714
O O5 0.136505 0.463388 0.208566
O O6 0.188767 0.231857 0.375599
O O7 0.063357 0.134075 0.404465
O O8 0.157516 0.961465 0.184989
O O9 0.517420 0.826450 0.120983
O O10 0.539853 0.268834 0.190601
O O11 0.028722 0.470500 0.600536
O O12 0.771654 0.610766 0.497370
#
# Coordination Sequence:
#
# PCOD8051231 Si02
#       7
#     4   4   2   4   4   4   2
#     4  12  25  42  78 102 147 195 242 312 364 447
#     4  11  26  45  67 106 142 189 247 297 370 436
#     4  12  22  44  72 114 142 188 258 304 374 428
#     4  11  23  44  71 103 141 181 242 308 364 424
#     4  11  23  42  68 111 144 184 252 300 376 431
#     4  12  30  50  72 105 151 201 249 296 374 452
#     4  10  24  40  70  94 146 190 232 312 350 432
#
# _framework density 23.161615999999999
#
# number of rings (size 3 to 8) (size 9 to 14) (size 15 to 20)
#    0.000    0.667    3.333    4.000    4.667    5.333 
#    0.000    0.000    0.000    0.000    0.000    0.000 
#    0.000    0.000    0.000    0.000    0.000    0.000 
#
# Total GULP energy -148774.238831 kJ/mol
# GULP energy per Si atom -12397.853236 kJ/mol
# Density = 2.310890 g / cm^3
# Si number density = 23.161616 Si / 1000 Ang^3
#
#
#
# Elastic Constant Matrix: (Units=GPa)
#
#
# Indices 1 2 3 4 5 6 
#
# 1 87.0143 22.2543 37.7337 0.0000 2.3165 0.0000
# 2 22.2543 107.4373 40.8234 0.0000 4.3322 0.0000
# 3 37.7337 40.8234 149.7994 0.0000 13.6903 0.0000
# 4 0.0000 0.0000 0.0000 16.0215 0.0000 2.8502
# 5 2.3165 4.3322 13.6903 0.0000 45.2726 0.0000
# 6 0.0000 0.0000 0.0000 2.8502 0.0000 23.0169
#
#
#
# Elastic Compliance Matrix: (Units=1/GPa)
#
#
# Indices 1 2 3 4 5 6 
#
# 1 0.013160 -0.001638 -0.002902 0.000000 0.000361 0.000000
# 2 -0.001638 0.010588 -0.002456 0.000000 -0.000187 0.000000
# 3 -0.002902 -0.002456 0.008269 0.000000 -0.002117 0.000000
# 4 0.000000 0.000000 0.000000 0.063822 0.000000 -0.007903
# 5 0.000361 -0.000187 -0.002117 0.000000 0.022728 0.000000
# 6 0.000000 0.000000 0.000000 -0.007903 0.000000 0.044425
#
#
# Mechanical properties :
#
#
# Convention : Reuss Voigt Hill
#
# Bulk Modulus (GPa) = 55.47408 60.65264 58.06336
# Shear Modulus (GPa) = 27.32376 33.09152 30.20764
#
# Velocity S-wave (km/s) = 3.43840 3.78395 3.61530
# Velocity P-wave (km/s) = 6.30606 6.73309 6.52307
#
# Compressibility (1/GPa) = 0.01802644
#
# Stress axis : x y z
#
# Youngs Moduli (GPa) = 75.98833 94.44952 120.93097
#
# Poissons Ratio (x) = 0.15470 0.35088
# Poissons Ratio (y) = 0.12447 0.29697
# Poissons Ratio (z) = 0.22048 0.23194
#
# Static dielectric constant tensor:
#      x y z
#    x 4.227910 0.000000 0.257880 
#    y 0.000000 3.959250 0.000000 
#    z 0.257880 0.000000 4.752810 
# 
# 
# High freq. dielectric constant tensor:
#      x y z
#    x 1.910150 0.000000 0.019110 
#    y 0.000000 1.904020 0.000000 
#    z 0.019110 0.000000 1.934810 
# 
# From -- ./inp_files/30261.got.cif
#   From: 2010.03.12/outbox.cif.g09.slc.cpg/sg5_16_cif.got.tgz:30261.got - 2010.03.31 09:47:26.
