data_PCOD8051271
_publ_section_title
;
Structure prediction by ZEFSAII (Michael W. Deem and Ramdas Pophale) SiO2 
 PCOD8051271
Probable space group: C 2
;
_chemical_formula_sum "Si O2"
_cell_formula_units_Z 18
_cell_length_a 10.298561
_cell_length_b 9.033757
_cell_length_c 14.019219
_cell_angle_alpha 90.000000
_cell_angle_beta 31.515594
_cell_angle_gamma 90.000000
_cell_volume 681.783833
_symmetry_space_group_name_H-M "C 2"
_symmetry_group_IT_number 5
_symmetry_cell_setting 'monoclinic'
loop_
_space_group_symop_operation_xyz
x,y,z
-x,y,-z
1/2+x,1/2+y,z
1/2-x,1/2+y,-z
loop_
_atom_site_type_symbol
_atom_site_label
_atom_site_fract_x
_atom_site_fract_y
_atom_site_fract_z
Si Si1 0.933866 0.074730 0.415577
Si Si2 0.995688 0.750117 0.396739
Si Si3 0.866452 0.979854 0.907735
Si Si4 0.552648 0.177192 0.858943
Si Si5 0.500000 0.668419 0.000000
O O1 0.675705 0.164248 0.573499
O O2 0.024496 0.063976 0.251020
O O3 0.150379 0.155722 0.344216
O O4 0.879189 0.911319 0.489257
O O5 0.261216 0.769845 0.175792
O O6 0.000000 0.672921 0.500000
O O7 0.571420 0.017948 0.090347
O O8 0.988337 0.057145 0.920511
O O9 0.929359 0.805272 0.869915
O O10 0.500000 0.224751 0.000000
#
# Coordination Sequence:
#
# PCOD8051271 Si02
#       5
#     4   4   4   4   2
#     4  11  28  48  75 113 157 197 261 315 379 459
#     4  12  29  51  77 114 159 202 258 318 384 457
#     4  11  23  46  77 108 153 197 256 310 387 448
#     4  10  24  42  72 112 149 198 254 312 376 455
#     4  12  26  48  84 108 154 208 250 320 388 446
#
# _framework density 26.401330000000002
#
# number of rings (size 3 to 8) (size 9 to 14) (size 15 to 20)
#    0.000    0.889    3.333    1.333   10.889    3.556 
#    0.000    0.000    0.000    0.000    0.000    0.000 
#    0.000    0.000    0.000    0.000    0.000    0.000 
#
# Total GULP energy -111579.785610 kJ/mol
# GULP energy per Si atom -12397.753957 kJ/mol
# Density = 2.634124 g / cm^3
# Si number density = 26.401330 Si / 1000 Ang^3
#
#
#
# Elastic Constant Matrix: (Units=GPa)
#
#
# Indices 1 2 3 4 5 6 
#
# 1 113.3136 42.7075 29.3983 -0.0003 -41.7059 -0.0001
# 2 42.7075 138.4723 58.6440 -0.0023 -30.9583 0.0005
# 3 29.3983 58.6440 157.0935 -0.0062 -36.6316 0.0014
# 4 -0.0003 -0.0023 -0.0062 37.0847 0.0019 -4.9322
# 5 -41.7059 -30.9583 -36.6316 0.0019 37.3182 -0.0002
# 6 -0.0001 0.0005 0.0014 -4.9322 -0.0002 50.7625
#
#
#
# Elastic Compliance Matrix: (Units=1/GPa)
#
#
# Indices 1 2 3 4 5 6 
#
# 1 0.015502 -0.001577 0.001845 -0.000001 0.017828 0.000000
# 2 -0.001577 0.009577 -0.002384 0.000000 0.003842 0.000000
# 3 0.001845 -0.002384 0.008987 0.000001 0.008905 0.000000
# 4 -0.000001 0.000000 0.000001 0.027318 -0.000001 0.002654
# 5 0.017828 0.003842 0.008905 -0.000001 0.058650 0.000000
# 6 0.000000 0.000000 0.000000 0.002654 0.000000 0.019957
#
#
# Mechanical properties :
#
#
# Convention : Reuss Voigt Hill
#
# Bulk Modulus (GPa) = 33.51886 74.48658 54.00272
# Shear Modulus (GPa) = 32.43211 43.57504 38.00357
#
# Velocity S-wave (km/s) = 3.50869 4.06703 3.79813
# Velocity P-wave (km/s) = 5.39797 7.09427 6.30344
#
# Compressibility (1/GPa) = 0.02983395
#
# Stress axis : x y z
#
# Youngs Moduli (GPa) = 64.50618 104.42105 111.27189
#
# Poissons Ratio (x) = 0.16464 -0.20526
# Poissons Ratio (y) = 0.10171 0.26527
# Poissons Ratio (z) = -0.11899 0.24894
#
# Static dielectric constant tensor:
#      x y z
#    x 5.249340 0.000000 -0.051310 
#    y 0.000000 4.360870 0.000010 
#    z -0.051310 0.000010 4.744930 
# 
# 
# High freq. dielectric constant tensor:
#      x y z
#    x 2.105600 0.000000 0.014890 
#    y 0.000000 2.034850 0.000000 
#    z 0.014890 0.000000 2.059130 
# 
# From -- ./inp_files/60166.got.cif
#   From: 2010.03.12/outbox.cif.g09.slc.cpg/sg5_31_cif.got.tgz:60166.got - 2010.03.31 09:47:26.
