data_PCOD8051343
_publ_section_title
;
Structure prediction by ZEFSAII (Michael W. Deem and Ramdas Pophale) SiO2 
 PCOD8051343
Probable space group: C 2
;
_chemical_formula_sum "Si O2"
_cell_formula_units_Z 28
_cell_length_a 20.268125
_cell_length_b 8.210280
_cell_length_c 14.765375
_cell_angle_alpha 90.000000
_cell_angle_beta 150.937614
_cell_angle_gamma 90.000000
_cell_volume 1193.546251
_symmetry_space_group_name_H-M "C 2"
_symmetry_group_IT_number 5
_symmetry_cell_setting 'monoclinic'
loop_
_space_group_symop_operation_xyz
x,y,z
-x,y,-z
1/2+x,1/2+y,z
1/2-x,1/2+y,-z
loop_
_atom_site_type_symbol
_atom_site_label
_atom_site_fract_x
_atom_site_fract_y
_atom_site_fract_z
Si Si1 0.928773 0.907190 0.690306
Si Si2 0.176025 0.252494 0.458742
Si Si3 0.645144 0.283261 0.840193
Si Si4 0.868787 0.335249 0.397645
Si Si5 0.189636 0.077382 0.091328
Si Si6 0.756363 0.600199 0.882195
Si Si7 0.474956 0.886442 0.071686
O O1 0.836425 0.796826 0.646294
O O2 0.983719 0.793482 0.672681
O O3 0.834701 0.057729 0.547173
O O4 0.066381 0.978414 0.898702
O O5 0.104236 0.322460 0.462829
O O6 0.105045 0.325308 0.283943
O O7 0.687056 0.129108 0.828756
O O8 0.674288 0.455861 0.830235
O O9 0.733309 0.256173 0.038395
O O10 0.751069 0.468835 0.244675
O O11 0.820876 0.160147 0.300525
O O12 0.000000 0.393330 0.500000
O O13 0.133723 0.241768 0.067905
O O14 0.908611 0.539856 0.043236
O O15 0.500000 0.944832 0.000000
#
# Coordination Sequence:
#
# PCOD8051343 Si02
#       7
#     4   4   4   4   4   4   4
#     4  11  24  45  72 103 146 189 243 297 365 429
#     4  11  29  44  72 107 149 191 242 307 363 431
#     4  11  21  44  75 100 138 196 245 293 354 433
#     4  12  27  44  70 110 147 187 247 303 360 434
#     4  10  24  45  73 101 137 195 242 290 366 433
#     4  11  23  42  75 100 140 189 245 294 358 433
#     4  10  26  49  72  99 144 189 240 292 368 443
#
# _framework density 23.459500999999999
#
# number of rings (size 3 to 8) (size 9 to 14) (size 15 to 20)
#    0.000    1.143    2.857    0.857   14.000    0.000 
#    0.000    1.429    0.000    0.000    0.000    0.000 
#    0.000    0.000    0.000    0.000    0.000    0.000 
#
# Total GULP energy -173532.648115 kJ/mol
# GULP energy per Si atom -12395.189151 kJ/mol
# Density = 2.340611 g / cm^3
# Si number density = 23.459501 Si / 1000 Ang^3
#
#
#
# Elastic Constant Matrix: (Units=GPa)
#
#
# Indices 1 2 3 4 5 6 
#
# 1 136.6470 25.1119 43.0644 0.0000 8.3860 0.0000
# 2 25.1119 78.8915 47.1616 0.0000 6.5925 0.0000
# 3 43.0644 47.1616 67.5528 0.0000 2.6617 0.0000
# 4 0.0000 0.0000 0.0000 28.7081 0.0000 10.0783
# 5 8.3860 6.5925 2.6617 0.0000 45.4232 0.0000
# 6 0.0000 0.0000 0.0000 10.0783 0.0000 38.5365
#
#
#
# Elastic Compliance Matrix: (Units=1/GPa)
#
#
# Indices 1 2 3 4 5 6 
#
# 1 0.009302 0.001156 -0.006678 0.000000 -0.001494 0.000000
# 2 0.001156 0.022136 -0.016093 0.000000 -0.002483 0.000000
# 3 -0.006678 -0.016093 0.030225 0.000000 0.001798 0.000000
# 4 0.000000 0.000000 0.000000 0.038355 0.000000 -0.010031
# 5 -0.001494 -0.002483 0.001798 0.000000 0.022546 0.000000
# 6 0.000000 0.000000 0.000000 -0.010031 0.000000 0.028573
#
#
# Mechanical properties :
#
#
# Convention : Reuss Voigt Hill
#
# Bulk Modulus (GPa) = 54.25248 57.08523 55.66885
# Shear Modulus (GPa) = 24.93633 33.71711 29.32672
#
# Velocity S-wave (km/s) = 3.26383 3.79522 3.53951
# Velocity P-wave (km/s) = 6.11389 6.60237 6.36282
#
# Compressibility (1/GPa) = 0.01843234
#
# Stress axis : x y z
#
# Youngs Moduli (GPa) = 107.50386 45.17610 33.08514
#
# Poissons Ratio (x) = -0.05223 0.22095
# Poissons Ratio (y) = -0.12430 0.53244
# Poissons Ratio (z) = 0.71794 0.72702
#
# Static dielectric constant tensor:
#      x y z
#    x 4.409130 0.000000 0.247010 
#    y 0.000000 4.478970 0.000000 
#    z 0.247010 0.000000 3.940130 
# 
# 
# High freq. dielectric constant tensor:
#      x y z
#    x 1.934580 0.000000 0.014490 
#    y 0.000000 1.941560 0.000000 
#    z 0.014490 0.000000 1.903770 
# 
# From -- ./inp_files/56931.got.cif
#   From: 2010.03.12/outbox.cif.g09.slc.cpg/sg5_29_cif.got.tgz:56931.got - 2010.03.31 09:47:26.
