data_PCOD8051859
_publ_section_title
;
Structure prediction by ZEFSAII (Michael W. Deem and Ramdas Pophale) SiO2 
 PCOD8051859
Probable space group: C 2
;
_chemical_formula_sum "Si O2"
_cell_formula_units_Z 30
_cell_length_a 12.050157
_cell_length_b 8.231278
_cell_length_c 29.297902
_cell_angle_alpha 90.000000
_cell_angle_beta 153.896552
_cell_angle_gamma 90.000000
_cell_volume 1278.622884
_symmetry_space_group_name_H-M "C 2"
_symmetry_group_IT_number 5
_symmetry_cell_setting 'monoclinic'
loop_
_space_group_symop_operation_xyz
x,y,z
-x,y,-z
1/2+x,1/2+y,z
1/2-x,1/2+y,-z
loop_
_atom_site_type_symbol
_atom_site_label
_atom_site_fract_x
_atom_site_fract_y
_atom_site_fract_z
Si Si1 0.388051 0.423190 0.270001
Si Si2 0.369392 0.470244 0.728521
Si Si3 0.464703 0.475704 0.434008
Si Si4 0.754940 0.141327 0.068578
Si Si5 0.575412 0.181442 0.413662
Si Si6 0.412264 0.842882 0.046979
Si Si7 0.000000 0.107730 0.000000
Si Si8 0.446422 0.095850 0.778128
O O1 0.606677 0.498293 0.318039
O O2 0.498948 0.270706 0.338355
O O3 0.231839 0.546274 0.244537
O O4 0.210361 0.365612 0.162533
O O5 0.534771 0.604532 0.816386
O O6 0.441578 0.290809 0.772871
O O7 0.085147 0.517523 0.637141
O O8 0.500000 0.458739 0.500000
O O9 0.547223 0.303949 0.444720
O O10 0.635712 0.625038 0.479756
O O11 0.178457 0.518230 0.313445
O O12 0.812356 0.302093 0.060730
O O13 0.500000 0.176870 0.000000
O O14 0.735127 0.001152 0.023499
O O15 0.375886 0.710008 0.994873
O O16 0.263879 0.020457 0.113337
#
# Coordination Sequence:
#
# PCOD8051859 Si02
#       8
#     4   4   4   4   4   4   2   4
#     4  11  23  44  68 102 143 182 230 291 341 418
#     4  12  23  43  68  98 140 186 231 285 351 411
#     4  11  26  48  75 105 140 180 232 295 350 418
#     4  12  24  41  63  97 141 192 235 287 346 416
#     4  11  26  46  72 105 136 178 236 289 356 417
#     4  12  22  43  67  96 146 187 234 289 345 418
#     4  12  22  42  72 102 140 198 226 284 348 416
#     4  11  24  44  72 103 144 187 234 282 355 415
#
# _framework density 23.462745000000002
#
# number of rings (size 3 to 8) (size 9 to 14) (size 15 to 20)
#    0.000    0.533    6.000    2.400    0.000    3.200 
#    4.800    2.000    0.000    0.000    0.000    0.000 
#    0.000    0.000    0.000    0.000    0.000    0.000 
#
# Total GULP energy -185916.327288 kJ/mol
# GULP energy per Si atom -12394.421819 kJ/mol
# Density = 2.340934 g / cm^3
# Si number density = 23.462745 Si / 1000 Ang^3
#
#
#
# Elastic Constant Matrix: (Units=GPa)
#
#
# Indices 1 2 3 4 5 6 
#
# 1 132.0984 28.9062 41.6110 0.0003 -5.6799 -0.0003
# 2 28.9062 51.6185 10.6144 -0.0002 -12.4056 -0.0001
# 3 41.6110 10.6144 151.3175 -0.0018 16.9100 0.0002
# 4 0.0003 -0.0002 -0.0018 23.2833 0.0009 5.3349
# 5 -5.6799 -12.4056 16.9100 0.0009 65.2037 -0.0005
# 6 -0.0003 -0.0001 0.0002 5.3349 -0.0005 16.4759
#
#
#
# Elastic Compliance Matrix: (Units=1/GPa)
#
#
# Indices 1 2 3 4 5 6 
#
# 1 0.009329 -0.004624 -0.002300 0.000000 0.000529 0.000000
# 2 -0.004624 0.023144 -0.000823 0.000000 0.004214 0.000000
# 3 -0.002300 -0.000823 0.007558 0.000001 -0.002317 0.000000
# 4 0.000000 0.000000 0.000001 0.046391 -0.000001 -0.015021
# 5 0.000529 0.004214 -0.002317 -0.000001 0.016785 0.000001
# 6 0.000000 0.000000 0.000000 -0.015021 0.000001 0.065559
#
#
# Mechanical properties :
#
#
# Convention : Reuss Voigt Hill
#
# Bulk Modulus (GPa) = 40.75470 55.25527 48.00498
# Shear Modulus (GPa) = 25.98210 37.91942 31.95076
#
# Velocity S-wave (km/s) = 3.33134 4.02450 3.69421
# Velocity P-wave (km/s) = 5.67492 6.72286 6.22100
#
# Compressibility (1/GPa) = 0.02453705
#
# Stress axis : x y z
#
# Youngs Moduli (GPa) = 107.18876 43.20702 132.31326
#
# Poissons Ratio (x) = 0.19980 0.30436
# Poissons Ratio (y) = 0.49566 0.10887
# Poissons Ratio (z) = 0.24656 0.03555
#
# Static dielectric constant tensor:
#      x y z
#    x 4.339190 0.000000 0.038220 
#    y 0.000000 3.997180 0.000000 
#    z 0.038220 0.000000 4.793930 
# 
# 
# High freq. dielectric constant tensor:
#      x y z
#    x 1.939730 0.000000 -0.006420 
#    y 0.000000 1.916330 0.000000 
#    z -0.006420 0.000000 1.939570 
# 
# From -- ./inp_files/71719.got.cif
#   From: 2010.03.12/outbox.cif.g09.slc.cpg/sg5_36_cif.got.tgz:71719.got - 2010.03.31 09:47:26.
