data_PCOD8051041
_publ_section_title
;
Structure prediction by ZEFSAII (Michael W. Deem and Ramdas Pophale) SiO2 
 PCOD8051041
Probable space group: C 2
;
_chemical_formula_sum "Si O2"
_cell_formula_units_Z 28
_cell_length_a 12.305456
_cell_length_b 7.715427
_cell_length_c 15.617219
_cell_angle_alpha 90.000000
_cell_angle_beta 63.044260
_cell_angle_gamma 90.000000
_cell_volume 1321.639585
_symmetry_space_group_name_H-M "C 2"
_symmetry_group_IT_number 5
_symmetry_cell_setting 'monoclinic'
loop_
_space_group_symop_operation_xyz
x,y,z
-x,y,-z
1/2+x,1/2+y,z
1/2-x,1/2+y,-z
loop_
_atom_site_type_symbol
_atom_site_label
_atom_site_fract_x
_atom_site_fract_y
_atom_site_fract_z
Si Si1 0.417723 0.552750 0.681915
Si Si2 0.283743 0.088507 0.377393
Si Si3 0.750434 0.742848 0.921295
Si Si4 0.750204 0.136817 0.891787
Si Si5 0.511222 0.297597 0.774333
Si Si6 0.097001 0.322158 0.534690
Si Si7 0.898085 0.960406 0.102376
O O1 0.321498 0.498191 0.642161
O O2 0.354780 0.656614 0.782663
O O3 0.472271 0.371568 0.695784
O O4 0.528053 0.667781 0.607801
O O5 0.385114 0.154869 0.274598
O O6 0.219504 0.249429 0.447478
O O7 0.354149 0.966041 0.418085
O O8 0.706618 0.604154 0.866762
O O9 0.896639 0.721494 0.867455
O O10 0.707056 0.936114 0.911280
O O11 0.698822 0.693637 0.033409
O O12 0.640579 0.264038 0.906976
O O13 0.558978 0.458723 0.814695
O O14 0.000000 0.400970 0.500000
O O15 0.000000 0.022239 0.000000
#
# Coordination Sequence:
#
# PCOD8051041 Si02
#       7
#     4   4   4   4   4   4   4
#     4  10  23  42  62  92 129 161 213 270 315 378
#     4  11  23  41  67  93 124 167 208 260 329 389
#     4  11  24  40  66  96 132 179 221 270 324 374
#     4  11  21  40  64  93 132 172 220 268 318 381
#     4  11  24  41  64  94 129 169 216 271 315 387
#     4  10  24  42  65  95 125 163 208 265 324 389
#     4  12  23  43  64  93 137 175 221 272 318 383
#
# _framework density 21.185807
#
# number of rings (size 3 to 8) (size 9 to 14) (size 15 to 20)
#    0.000    1.143    4.286    1.714    2.000    4.000 
#    0.000    0.000    0.000    0.000    0.000    0.000 
#    0.000    0.000    0.000    0.000    0.000    0.000 
#
# Total GULP energy -173573.066128 kJ/mol
# GULP energy per Si atom -12398.076152 kJ/mol
# Density = 2.113759 g / cm^3
# Si number density = 21.185807 Si / 1000 Ang^3
#
#
#
# Elastic Constant Matrix: (Units=GPa)
#
#
# Indices 1 2 3 4 5 6 
#
# 1 113.8000 45.6454 23.0363 0.0000 14.8997 0.0000
# 2 45.6454 92.0458 18.3283 0.0000 5.8984 0.0000
# 3 23.0363 18.3283 77.0267 0.0000 7.7542 0.0000
# 4 0.0000 0.0000 0.0000 27.5299 0.0000 18.1165
# 5 14.8997 5.8984 7.7542 0.0000 35.6152 0.0000
# 6 0.0000 0.0000 0.0000 18.1165 0.0000 34.4296
#
#
#
# Elastic Compliance Matrix: (Units=1/GPa)
#
#
# Indices 1 2 3 4 5 6 
#
# 1 0.011738 -0.005209 -0.001905 0.000000 -0.003633 0.000000
# 2 -0.005209 0.013777 -0.001749 0.000000 0.000278 0.000000
# 3 -0.001905 -0.001749 0.014170 0.000000 -0.001998 0.000000
# 4 0.000000 0.000000 0.000000 0.055564 0.000000 -0.029237
# 5 -0.003633 0.000278 -0.001998 0.000000 0.029987 0.000000
# 6 0.000000 0.000000 0.000000 -0.029237 0.000000 0.044429
#
#
# Mechanical properties :
#
#
# Convention : Reuss Voigt Hill
#
# Bulk Modulus (GPa) = 45.53745 50.76583 48.15164
# Shear Modulus (GPa) = 25.67916 32.57244 29.12580
#
# Velocity S-wave (km/s) = 3.48529 3.92531 3.71182
# Velocity P-wave (km/s) = 6.14307 6.67520 6.41465
#
# Compressibility (1/GPa) = 0.02195995
#
# Stress axis : x y z
#
# Youngs Moduli (GPa) = 85.19413 72.58233 70.57375
#
# Poissons Ratio (x) = 0.37805 0.13447
# Poissons Ratio (y) = 0.44374 0.12340
# Poissons Ratio (z) = 0.16232 0.12692
#
# Static dielectric constant tensor:
#      x y z
#    x 4.009210 0.000000 0.082140 
#    y 0.000000 3.557910 0.000000 
#    z 0.082140 0.000000 4.015010 
# 
# 
# High freq. dielectric constant tensor:
#      x y z
#    x 1.841490 0.000000 0.004670 
#    y 0.000000 1.808750 0.000000 
#    z 0.004670 0.000000 1.842230 
# 
# From -- ./inp_files/52235.got.cif
#   From: 2010.03.12/outbox.cif.g09.slc.cpg/sg5_27_cif.got.tgz:52235.got - 2010.03.31 09:47:26.
