data_PCOD8051522
_publ_section_title
;
Structure prediction by ZEFSAII (Michael W. Deem and Ramdas Pophale) SiO2 
 PCOD8051522
Probable space group: C 2
;
_chemical_formula_sum "Si O2"
_cell_formula_units_Z 16
_cell_length_a 5.032361
_cell_length_b 20.274085
_cell_length_c 8.085891
_cell_angle_alpha 90.000000
_cell_angle_beta 55.227602
_cell_angle_gamma 90.000000
_cell_volume 677.654535
_symmetry_space_group_name_H-M "C 2"
_symmetry_group_IT_number 5
_symmetry_cell_setting 'monoclinic'
loop_
_space_group_symop_operation_xyz
x,y,z
-x,y,-z
1/2+x,1/2+y,z
1/2-x,1/2+y,-z
loop_
_atom_site_type_symbol
_atom_site_label
_atom_site_fract_x
_atom_site_fract_y
_atom_site_fract_z
Si Si1 0.681757 0.420720 0.712623
Si Si2 0.609443 0.836757 0.783989
Si Si3 0.645238 0.159805 0.121819
Si Si4 0.000000 0.033100 0.000000
Si Si5 0.500000 0.228084 0.500000
O O1 0.434333 0.380942 0.685277
O O2 0.000000 0.440894 0.500000
O O3 0.804297 0.377389 0.824340
O O4 0.506769 0.487369 0.835201
O O5 0.686166 0.774640 0.637879
O O6 0.500000 0.809853 0.000000
O O7 0.679408 0.079724 0.111484
O O8 0.442575 0.183674 0.355298
O O9 0.500000 0.184323 0.000000
O O10 0.000000 0.192297 0.000000
#
# Coordination Sequence:
#
# PCOD8051522 Si02
#       5
#     4   4   4   2   2
#     4  12  24  44  72 106 141 186 233 300 369 429
#     4  12  25  44  71 108 143 185 233 305 364 428
#     4  10  27  48  71 107 140 205 239 303 350 429
#     4  10  26  46  74 102 150 180 254 294 366 424
#     4  12  26  50  74 106 154 188 258 280 384 432
#
# _framework density 23.610849999999999
#
# number of rings (size 3 to 8) (size 9 to 14) (size 15 to 20)
#    0.750    0.000    5.000    0.750    5.250    7.000 
#    0.000    0.000    0.000    0.000    0.000    0.000 
#    0.000    0.000    0.000    0.000    0.000    0.000 
#
# Total GULP energy -99153.822331 kJ/mol
# GULP energy per Si atom -12394.227791 kJ/mol
# Density = 2.355711 g / cm^3
# Si number density = 23.610850 Si / 1000 Ang^3
#
#
#
# Elastic Constant Matrix: (Units=GPa)
#
#
# Indices 1 2 3 4 5 6 
#
# 1 132.5585 41.6899 37.9684 0.0000 17.0898 0.0000
# 2 41.6899 142.7339 78.0242 0.0000 9.4360 0.0000
# 3 37.9684 78.0242 173.4994 0.0000 25.5029 0.0000
# 4 0.0000 0.0000 0.0000 57.4728 0.0000 7.1526
# 5 17.0898 9.4360 25.5029 0.0000 45.8029 0.0000
# 6 0.0000 0.0000 0.0000 7.1526 0.0000 3.4670
#
#
#
# Elastic Compliance Matrix: (Units=1/GPa)
#
#
# Indices 1 2 3 4 5 6 
#
# 1 0.008680 -0.002032 -0.000622 0.000000 -0.002474 0.000000
# 2 -0.002032 0.009774 -0.004102 0.000000 0.001028 0.000000
# 3 -0.000622 -0.004102 0.008262 0.000000 -0.003523 0.000000
# 4 0.000000 0.000000 0.000000 0.023410 0.000000 -0.048296
# 5 -0.002474 0.001028 -0.003523 0.000000 0.024505 0.000000
# 6 0.000000 0.000000 0.000000 -0.048296 0.000000 0.388073
#
#
# Mechanical properties :
#
#
# Convention : Reuss Voigt Hill
#
# Bulk Modulus (GPa) = 75.73143 84.90631 80.31887
# Shear Modulus (GPa) = 10.40328 40.75584 25.57956
#
# Velocity S-wave (km/s) = 2.10136 4.15920 3.29505
# Velocity P-wave (km/s) = 6.16702 7.68792 6.96908
#
# Compressibility (1/GPa) = 0.01320456
#
# Stress axis : x y z
#
# Youngs Moduli (GPa) = 115.20859 102.31544 121.02953
#
# Poissons Ratio (x) = 0.20786 0.07532
# Poissons Ratio (y) = 0.23405 0.49645
# Poissons Ratio (z) = 0.07169 0.41969
#
# Static dielectric constant tensor:
#      x y z
#    x 3.993990 0.000000 0.033510 
#    y 0.000000 4.164410 0.000000 
#    z 0.033510 0.000000 4.376720 
# 
# 
# High freq. dielectric constant tensor:
#      x y z
#    x 1.911330 0.000000 0.006320 
#    y 0.000000 1.932700 0.000000 
#    z 0.006320 0.000000 1.954610 
# 
# From -- ./inp_files/12382.got.cif
#   From: 2010.03.12/outbox.cif.g09.slc.cpg/sg5_7_cif.got.tgz:12382.got - 2010.03.31 09:47:26.
