data_PCOD8051533
_publ_section_title
;
Structure prediction by ZEFSAII (Michael W. Deem and Ramdas Pophale) SiO2 
 PCOD8051533
Probable space group: C 2
;
_chemical_formula_sum "Si O2"
_cell_formula_units_Z 22
_cell_length_a 24.945363
_cell_length_b 5.050146
_cell_length_c 23.340343
_cell_angle_alpha 90.000000
_cell_angle_beta 161.013113
_cell_angle_gamma 90.000000
_cell_volume 956.652350
_symmetry_space_group_name_H-M "C 2"
_symmetry_group_IT_number 5
_symmetry_cell_setting 'monoclinic'
loop_
_space_group_symop_operation_xyz
x,y,z
-x,y,-z
1/2+x,1/2+y,z
1/2-x,1/2+y,-z
loop_
_atom_site_type_symbol
_atom_site_label
_atom_site_fract_x
_atom_site_fract_y
_atom_site_fract_z
Si Si1 0.560233 0.625000 0.663591
Si Si2 0.187251 0.678492 0.294418
Si Si3 0.746303 0.633557 0.170906
Si Si4 0.355146 0.573994 0.119752
Si Si5 0.500000 0.370889 0.000000
Si Si6 0.553603 0.673303 0.215538
O O1 0.367792 0.609400 0.454061
O O2 0.661505 0.413565 0.727755
O O3 0.586679 0.558275 0.756505
O O4 0.616648 0.916324 0.704086
O O5 0.061292 0.683595 0.113457
O O6 0.125403 0.461856 0.276804
O O7 0.184432 0.958719 0.324649
O O8 0.648936 0.562444 0.130716
O O9 0.622375 0.639962 0.992536
O O10 0.517887 0.641742 0.246894
O O11 0.287857 0.289304 0.032563
#
# Coordination Sequence:
#
# PCOD8051533 Si02
#       6
#     4   4   4   4   2   4
#     4  12  24  43  68 104 133 169 226 281 326 392
#     4  11  26  43  67  98 138 172 225 280 325 396
#     4  11  23  43  70  94 134 174 226 277 326 400
#     4  12  22  39  70 102 133 180 216 269 335 403
#     4  10  26  48  68  96 130 188 224 272 352 386
#     4  11  22  42  67  97 136 181 215 266 333 404
#
# _framework density 22.996860000000002
#
# number of rings (size 3 to 8) (size 9 to 14) (size 15 to 20)
#    0.000    0.727    3.636    4.364    0.000    8.727 
#    0.000    3.636    0.000    0.000    0.000    0.000 
#    0.000    0.000    0.000    0.000    0.000    0.000 
#
# Total GULP energy -136486.238890 kJ/mol
# GULP energy per Si atom -12407.839899 kJ/mol
# Density = 2.294452 g / cm^3
# Si number density = 22.996860 Si / 1000 Ang^3
#
#
#
# Elastic Constant Matrix: (Units=GPa)
#
#
# Indices 1 2 3 4 5 6 
#
# 1 72.1921 12.4666 23.2717 0.0017 20.5516 0.0003
# 2 12.4666 102.5206 24.1672 -0.0107 2.0229 -0.0005
# 3 23.2717 24.1672 92.9808 0.0044 21.6336 0.0005
# 4 0.0017 -0.0107 0.0044 34.5235 0.0018 16.0475
# 5 20.5516 2.0229 21.6336 0.0018 30.5841 0.0003
# 6 0.0003 -0.0005 0.0005 16.0475 0.0003 34.3192
#
#
#
# Elastic Compliance Matrix: (Units=1/GPa)
#
#
# Indices 1 2 3 4 5 6 
#
# 1 0.017657 -0.001577 -0.001524 -0.000001 -0.010683 0.000000
# 2 -0.001577 0.010587 -0.002921 0.000004 0.002426 -0.000002
# 3 -0.001524 -0.002921 0.013900 -0.000003 -0.008615 0.000001
# 4 -0.000001 0.000004 -0.000003 0.037010 0.000000 -0.017306
# 5 -0.010683 0.002426 -0.008615 0.000000 0.045808 0.000000
# 6 0.000000 -0.000002 0.000001 -0.017306 0.000000 0.037230
#
#
# Mechanical properties :
#
#
# Convention : Reuss Voigt Hill
#
# Bulk Modulus (GPa) = 33.22389 43.05607 38.13998
# Shear Modulus (GPa) = 27.13417 33.73789 30.43603
#
# Velocity S-wave (km/s) = 3.43871 3.83438 3.64192
# Velocity P-wave (km/s) = 5.49952 6.19407 5.85710
#
# Compressibility (1/GPa) = 0.03009883
#
# Stress axis : x y z
#
# Youngs Moduli (GPa) = 56.63616 94.45808 71.94226
#
# Poissons Ratio (x) = 0.14897 0.10962
# Poissons Ratio (y) = 0.08932 0.21017
# Poissons Ratio (z) = 0.08630 0.27595
#
# Static dielectric constant tensor:
#      x y z
#    x 4.245540 0.000010 0.195160 
#    y 0.000010 4.280520 0.000000 
#    z 0.195160 0.000000 3.998710 
# 
# 
# High freq. dielectric constant tensor:
#      x y z
#    x 1.914570 0.000000 0.019960 
#    y 0.000000 1.920800 0.000000 
#    z 0.019960 0.000000 1.893410 
# 
# From -- ./inp_files/69583.got.cif
#   From: 2010.03.12/outbox.cif.g09.slc.cpg/sg5_35_cif.got.tgz:69583.got - 2010.03.31 09:47:26.
