data_PCOD8051753
_publ_section_title
;
Structure prediction by ZEFSAII (Michael W. Deem and Ramdas Pophale) SiO2 
 PCOD8051753
Probable space group: C 2
;
_chemical_formula_sum "Si O2"
_cell_formula_units_Z 32
_cell_length_a 17.651483
_cell_length_b 15.209234
_cell_length_c 12.341249
_cell_angle_alpha 90.000000
_cell_angle_beta 24.846174
_cell_angle_gamma 90.000000
_cell_volume 1392.152025
_symmetry_space_group_name_H-M "C 2"
_symmetry_group_IT_number 5
_symmetry_cell_setting 'monoclinic'
loop_
_space_group_symop_operation_xyz
x,y,z
-x,y,-z
1/2+x,1/2+y,z
1/2-x,1/2+y,-z
loop_
_atom_site_type_symbol
_atom_site_label
_atom_site_fract_x
_atom_site_fract_y
_atom_site_fract_z
Si Si1 0.791036 0.984820 0.241518
Si Si2 0.988190 0.543430 0.224078
Si Si3 0.631482 0.293506 0.432316
Si Si4 0.337818 0.203201 0.928502
Si Si5 0.804567 0.786642 0.198800
Si Si6 0.820297 0.983313 0.663357
Si Si7 0.651737 0.654597 0.956171
Si Si8 0.696976 0.637945 0.479813
O O1 0.747233 0.887736 0.251418
O O2 0.663847 0.990241 0.513187
O O3 0.749925 0.062153 0.206304
O O4 0.000000 0.993435 0.000000
O O5 0.108032 0.601175 0.148333
O O6 0.897004 0.613215 0.259775
O O7 0.131869 0.484046 0.973549
O O8 0.500000 0.287817 0.500000
O O9 0.513795 0.263820 0.686882
O O10 0.699070 0.390750 0.374099
O O11 0.799107 0.226504 0.199115
O O12 0.198278 0.201977 0.010492
O O13 0.262981 0.234011 0.141379
O O14 0.683447 0.734087 0.442990
O O15 0.000000 0.783434 0.000000
O O16 0.000000 0.978755 0.500000
O O17 0.856159 0.062853 0.536545
O O18 0.437931 0.636172 0.241822
#
# Coordination Sequence:
#
# PCOD8051753 Si02
#       8
#     4   4   4   4   4   4   4   4
#     4  11  25  45  68 106 140 184 233 286 353 415
#     4  12  23  44  69  94 138 181 226 283 347 408
#     4   9  22  42  67  97 131 174 228 283 348 407
#     4  11  22  44  69  91 136 182 222 285 347 402
#     4  11  24  43  67 100 139 182 231 285 349 415
#     4  11  24  43  68 100 133 179 232 285 343 412
#     4  11  24  43  67 100 138 179 227 284 345 415
#     4  12  24  42  65 100 139 181 226 283 345 416
#
# _framework density 22.985997000000001
#
# number of rings (size 3 to 8) (size 9 to 14) (size 15 to 20)
#    0.000    1.000    5.000    1.125    3.500    0.000 
#    2.250    3.750    0.000    0.000    0.000    0.000 
#    0.000    0.000    0.000    0.000    0.000    0.000 
#
# Total GULP energy -198234.556268 kJ/mol
# GULP energy per Si atom -12389.659767 kJ/mol
# Density = 2.293368 g / cm^3
# Si number density = 22.985997 Si / 1000 Ang^3
#
#
#
# Elastic Constant Matrix: (Units=GPa)
#
#
# Indices 1 2 3 4 5 6 
#
# 1 51.0475 7.8217 1.4727 -0.0033 3.4894 -0.0054
# 2 7.8217 154.8282 31.5184 -0.0081 6.1326 -0.0157
# 3 1.4727 31.5184 117.2898 -0.0110 16.9076 -0.0206
# 4 -0.0033 -0.0081 -0.0110 27.5711 0.0050 -15.6043
# 5 3.4894 6.1326 16.9076 0.0050 19.9908 0.0043
# 6 -0.0054 -0.0157 -0.0206 -15.6043 0.0043 -28.2349
#
#
#
# Elastic Compliance Matrix: (Units=1/GPa)
#
#
# Indices 1 2 3 4 5 6 
#
# 1 0.019972 -0.000974 0.000536 0.000000 -0.003640 -0.000005
# 2 -0.000974 0.006887 -0.001775 0.000000 -0.000442 -0.000002
# 3 0.000536 -0.001775 0.010171 0.000001 -0.008152 -0.000008
# 4 0.000000 0.000000 0.000001 0.027628 -0.000004 -0.015269
# 5 -0.003640 -0.000442 -0.008152 -0.000004 0.057688 0.000018
# 6 -0.000005 -0.000002 -0.000008 -0.015269 0.000018 -0.026979
#
#
# Mechanical properties :
#
#
# Convention : Reuss Voigt Hill
#
# Bulk Modulus (GPa) = 30.67072 44.97681 37.82377
# Shear Modulus (GPa) = 45.18268 22.68890 33.93579
#
# Velocity S-wave (km/s) = 4.43839 3.14518 3.84652
# Velocity P-wave (km/s) = 6.29586 5.72705 6.01818
#
# Compressibility (1/GPa) = 0.03260438
#
# Stress axis : x y z
#
# Youngs Moduli (GPa) = 50.06955 145.20650 98.31741
#
# Poissons Ratio (x) = 0.14141 -0.05267
# Poissons Ratio (y) = 0.04876 0.17449
# Poissons Ratio (z) = -0.02682 0.25770
#
# Static dielectric constant tensor:
#      x y z
#    x 3.908590 0.000010 0.174070 
#    y 0.000010 4.513330 0.000010 
#    z 0.174070 0.000010 4.225430 
# 
# 
# High freq. dielectric constant tensor:
#      x y z
#    x 1.890280 0.000000 0.009910 
#    y 0.000000 1.915930 0.000000 
#    z 0.009910 0.000000 1.912580 
# 
# From -- ./inp_files/57180.got.cif
#   From: 2010.03.12/outbox.cif.g09.slc.cpg/sg5_29_cif.got.tgz:57180.got - 2010.03.31 09:47:26.
