data_PCOD8051192
_publ_section_title
;
Structure prediction by ZEFSAII (Michael W. Deem and Ramdas Pophale) SiO2 
 PCOD8051192
Probable space group: C 2
;
_chemical_formula_sum "Si O2"
_cell_formula_units_Z 28
_cell_length_a 13.966958
_cell_length_b 7.588860
_cell_length_c 12.705241
_cell_angle_alpha 90.000000
_cell_angle_beta 118.857001
_cell_angle_gamma 90.000000
_cell_volume 1179.450152
_symmetry_space_group_name_H-M "C 2"
_symmetry_group_IT_number 5
_symmetry_cell_setting 'monoclinic'
loop_
_space_group_symop_operation_xyz
x,y,z
-x,y,-z
1/2+x,1/2+y,z
1/2-x,1/2+y,-z
loop_
_atom_site_type_symbol
_atom_site_label
_atom_site_fract_x
_atom_site_fract_y
_atom_site_fract_z
Si Si1 0.752649 0.986550 0.348467
Si Si2 0.883317 0.164714 0.113013
Si Si3 0.198569 0.418678 0.095200
Si Si4 0.125425 0.755885 0.422172
Si Si5 0.826705 0.336306 0.288505
Si Si6 0.500000 0.045982 0.500000
Si Si7 0.500000 0.165693 0.000000
Si Si8 0.911818 0.943949 0.799344
O O1 0.693745 0.886471 0.219399
O O2 0.810496 0.831129 0.443059
O O3 0.679357 0.091690 0.391775
O O4 0.824050 0.136143 0.329321
O O5 0.881249 0.319254 0.201500
O O6 0.814658 0.995124 0.115721
O O7 0.827046 0.235459 0.976557
O O8 0.009387 0.114838 0.148892
O O9 0.103140 0.554751 0.016410
O O10 0.098733 0.915957 0.331239
O O11 0.015498 0.670754 0.407663
O O12 0.895920 0.430254 0.415404
O O13 0.711117 0.442659 0.216989
O O14 0.473087 0.280986 0.884144
#
# Coordination Sequence:
#
# PCOD8051192 Si02
#       8
#     4   4   4   4   4   2   2   4
#     4  10  23  49  74  98 148 191 241 312 358 450
#     4  11  25  46  79 103 152 197 247 313 377 451
#     4  11  25  47  71 112 143 201 250 308 376 453
#     4  11  24  46  71 105 139 192 242 304 376 437
#     4  10  25  50  70 111 151 187 258 307 371 460
#     4  12  28  42  74 108 144 192 244 316 370 456
#     4  12  22  50  70 104 160 180 258 312 366 458
#     4  11  25  48  73 106 149 201 239 316 378 447
#
# _framework density 23.739877
#
# number of rings (size 3 to 8) (size 9 to 14) (size 15 to 20)
#    0.000    1.143    4.286    2.571    8.000    1.714 
#   10.286    0.000    0.000    0.000    0.000    0.000 
#    0.000    0.000    0.000    0.000    0.000    0.000 
#
# Total GULP energy -173478.864232 kJ/mol
# GULP energy per Si atom -12391.347445 kJ/mol
# Density = 2.368584 g / cm^3
# Si number density = 23.739877 Si / 1000 Ang^3
#
#
#
# Elastic Constant Matrix: (Units=GPa)
#
#
# Indices 1 2 3 4 5 6 
#
# 1 104.1122 43.3014 41.8656 0.0000 4.9241 0.0000
# 2 43.3014 61.0717 43.3128 0.0000 -7.0617 0.0000
# 3 41.8656 43.3128 139.9206 0.0000 -1.6458 0.0000
# 4 0.0000 0.0000 0.0000 39.4060 0.0000 5.3443
# 5 4.9241 -7.0617 -1.6458 0.0000 36.7830 0.0000
# 6 0.0000 0.0000 0.0000 5.3443 0.0000 22.4111
#
#
#
# Elastic Compliance Matrix: (Units=1/GPa)
#
#
# Indices 1 2 3 4 5 6 
#
# 1 0.014346 -0.009659 -0.001347 0.000000 -0.003835 0.000000
# 2 -0.009659 0.028011 -0.005705 0.000000 0.006415 0.000000
# 3 -0.001347 -0.005705 0.009310 0.000000 -0.000498 0.000000
# 4 0.000000 0.000000 0.000000 0.026225 0.000000 -0.006254
# 5 -0.003835 0.006415 -0.000498 0.000000 0.028909 0.000000
# 6 0.000000 0.000000 0.000000 -0.006254 0.000000 0.046112
#
#
# Mechanical properties :
#
#
# Convention : Reuss Voigt Hill
#
# Bulk Modulus (GPa) = 54.81566 62.45156 58.63361
# Shear Modulus (GPa) = 25.98509 31.49500 28.74005
#
# Velocity S-wave (km/s) = 3.31203 3.64630 3.48318
# Velocity P-wave (km/s) = 6.14543 6.64011 6.39755
#
# Compressibility (1/GPa) = 0.01824296
#
# Stress axis : x y z
#
# Youngs Moduli (GPa) = 69.70758 35.70037 107.40823
#
# Poissons Ratio (x) = 0.34484 0.14472
# Poissons Ratio (y) = 0.67333 0.61279
# Poissons Ratio (z) = 0.09392 0.20368
#
# Static dielectric constant tensor:
#      x y z
#    x 4.405140 0.000000 -0.096890 
#    y 0.000000 4.157620 0.000000 
#    z -0.096890 0.000000 4.800120 
# 
# 
# High freq. dielectric constant tensor:
#      x y z
#    x 1.937390 0.000000 -0.014040 
#    y 0.000000 1.930320 0.000000 
#    z -0.014040 0.000000 1.957040 
# 
# From -- ./inp_files/42036.got.cif
#   From: 2010.03.12/outbox.cif.g09.slc.cpg/sg5_22_cif.got.tgz:42036.got - 2010.03.31 09:47:26.
