data_PCOD8051509
_publ_section_title
;
Structure prediction by ZEFSAII (Michael W. Deem and Ramdas Pophale) SiO2 
 PCOD8051509
Probable space group: C 2
;
_chemical_formula_sum "Si O2"
_cell_formula_units_Z 18
_cell_length_a 7.889034
_cell_length_b 9.061285
_cell_length_c 11.858839
_cell_angle_alpha 90.000000
_cell_angle_beta 60.015037
_cell_angle_gamma 90.000000
_cell_volume 734.263953
_symmetry_space_group_name_H-M "C 2"
_symmetry_group_IT_number 5
_symmetry_cell_setting 'monoclinic'
loop_
_space_group_symop_operation_xyz
x,y,z
-x,y,-z
1/2+x,1/2+y,z
1/2-x,1/2+y,-z
loop_
_atom_site_type_symbol
_atom_site_label
_atom_site_fract_x
_atom_site_fract_y
_atom_site_fract_z
Si Si1 0.547066 0.976170 0.662654
Si Si2 0.859259 0.783519 0.445993
Si Si3 0.067486 0.281822 0.107811
Si Si4 0.886676 0.000591 0.252280
Si Si5 0.000000 0.826200 0.000000
O O1 0.656891 0.842738 0.563756
O O2 0.489741 0.937573 0.812809
O O3 0.346463 0.995341 0.661240
O O4 0.668895 0.131058 0.616986
O O5 0.964126 0.909271 0.334576
O O6 0.000000 0.743179 0.500000
O O7 0.298321 0.237194 0.043321
O O8 0.954097 0.168597 0.226472
O O9 0.000000 0.282489 0.000000
O O10 0.978136 0.930911 0.112330
#
# Coordination Sequence:
#
# PCOD8051509 Si02
#       5
#     4   4   4   4   2
#     4  11  26  48  73 107 153 192 254 311 372 449
#     4  12  26  45  76 107 148 200 249 311 378 443
#     4  11  25  51  79 109 157 200 244 315 375 446
#     4  11  25  50  71 109 154 190 250 316 362 452
#     4  10  26  44  74 114 152 194 254 302 368 450
#
# _framework density 24.514346
#
# number of rings (size 3 to 8) (size 9 to 14) (size 15 to 20)
#    0.000    0.889    1.111    4.667    6.222    5.333 
#    4.000    1.111    0.000    0.000    0.000    0.000 
#    0.000    0.000    0.000    0.000    0.000    0.000 
#
# Total GULP energy -111546.546348 kJ/mol
# GULP energy per Si atom -12394.060705 kJ/mol
# Density = 2.445855 g / cm^3
# Si number density = 24.514346 Si / 1000 Ang^3
#
#
#
# Elastic Constant Matrix: (Units=GPa)
#
#
# Indices 1 2 3 4 5 6 
#
# 1 116.9061 54.0178 56.7429 0.0000 -15.9055 0.0000
# 2 54.0178 133.6320 69.6606 0.0000 -5.4805 0.0000
# 3 56.7429 69.6606 149.9610 0.0000 -1.6639 0.0000
# 4 0.0000 0.0000 0.0000 -18.2286 0.0000 -64.3571
# 5 -15.9055 -5.4805 -1.6639 0.0000 51.4633 0.0000
# 6 0.0000 0.0000 0.0000 -64.3571 0.0000 -19.6157
#
#
#
# Elastic Compliance Matrix: (Units=1/GPa)
#
#
# Indices 1 2 3 4 5 6 
#
# 1 0.011896 -0.003098 -0.003026 0.000000 0.003249 0.000000
# 2 -0.003098 0.010723 -0.003808 0.000000 0.000061 0.000000
# 3 -0.003026 -0.003808 0.009571 0.000000 -0.001031 0.000000
# 4 0.000000 0.000000 0.000000 0.005183 0.000000 -0.017006
# 5 0.003249 0.000061 -0.001031 0.000000 0.020409 0.000000
# 6 0.000000 0.000000 0.000000 -0.017006 0.000000 0.004817
#
#
# Mechanical properties :
#
#
# Convention : Reuss Voigt Hill
#
# Bulk Modulus (GPa) = 81.13241 84.59354 82.86298
# Shear Modulus (GPa) = 57.75465 17.39567 37.57516
#
# Velocity S-wave (km/s) = 4.85908 2.66674 3.91932
# Velocity P-wave (km/s) = 8.04044 6.63813 7.37270
#
# Compressibility (1/GPa) = 0.01232553
#
# Stress axis : x y z
#
# Youngs Moduli (GPa) = 84.06046 93.25502 104.48153
#
# Poissons Ratio (x) = 0.28891 0.31618
# Poissons Ratio (y) = 0.26042 0.39790
# Poissons Ratio (z) = 0.25438 0.35514
#
# Static dielectric constant tensor:
#      x y z
#    x 4.393610 0.000000 -0.118170 
#    y 0.000000 4.546880 0.000000 
#    z -0.118170 0.000000 4.964150 
# 
# 
# High freq. dielectric constant tensor:
#      x y z
#    x 1.957440 0.000000 -0.007360 
#    y 0.000000 1.970900 0.000000 
#    z -0.007360 0.000000 2.007660 
# 
# From -- ./inp_files/34638.got.cif
#   From: 2010.03.12/outbox.cif.g09.slc.cpg/sg5_18_cif.got.tgz:34638.got - 2010.03.31 09:47:26.
