data_PCOD8051616
_publ_section_title
;
Structure prediction by ZEFSAII (Michael W. Deem and Ramdas Pophale) SiO2 
 PCOD8051616
Probable space group: C 2
;
_chemical_formula_sum "Si O2"
_cell_formula_units_Z 30
_cell_length_a 13.114259
_cell_length_b 13.235127
_cell_length_c 18.567966
_cell_angle_alpha 90.000000
_cell_angle_beta 151.569804
_cell_angle_gamma 90.000000
_cell_volume 1534.345610
_symmetry_space_group_name_H-M "C 2"
_symmetry_group_IT_number 5
_symmetry_cell_setting 'monoclinic'
loop_
_space_group_symop_operation_xyz
x,y,z
-x,y,-z
1/2+x,1/2+y,z
1/2-x,1/2+y,-z
loop_
_atom_site_type_symbol
_atom_site_label
_atom_site_fract_x
_atom_site_fract_y
_atom_site_fract_z
Si Si1 0.000000 0.605070 0.000000
Si Si2 0.529093 0.596847 0.902001
Si Si3 0.610682 0.934805 0.172660
Si Si4 0.369531 0.389383 0.112647
Si Si5 0.496286 0.324768 0.340565
Si Si6 0.099857 0.417171 0.330155
Si Si7 0.706904 0.747187 0.905893
Si Si8 0.142083 0.604415 0.764725
O O1 0.881163 0.540147 0.864931
O O2 0.811327 0.671321 0.915127
O O3 0.575014 0.494871 0.888282
O O4 0.535017 0.689026 0.849277
O O5 0.295828 0.587634 0.791885
O O6 0.715931 0.616029 0.075687
O O7 0.656267 0.956199 0.285006
O O8 0.778823 0.856041 0.245210
O O9 0.378231 0.885870 0.016299
O O10 0.516054 0.371629 0.272996
O O11 0.395726 0.299054 0.070867
O O12 0.693931 0.365882 0.507955
O O13 0.500880 0.203638 0.337287
O O14 0.912546 0.334441 0.212318
O O15 0.020312 0.510683 0.329143
#
# Coordination Sequence:
#
# PCOD8051616 Si02
#       8
#     2   4   4   4   4   4   4   4
#     4  12  22  36  74  98 124 162 230 266 332 370
#     4  11  21  39  68  97 122 164 221 271 307 380
#     4  11  21  42  64  97 122 167 219 273 308 380
#     4  11  21  38  63  93 127 160 217 266 317 373
#     4  12  24  41  66  92 130 173 211 265 325 392
#     4  11  26  43  61  94 138 167 212 265 334 391
#     4  11  22  39  64  96 129 166 214 271 322 381
#     4  11  23  39  67  95 124 169 216 264 325 377
#
# _framework density 19.552308
#
# number of rings (size 3 to 8) (size 9 to 14) (size 15 to 20)
#    0.000    0.800    6.667    2.000    3.733    2.133 
#    0.000    2.000    0.000    0.000    0.000    0.000 
#    0.000    0.000    0.000    0.000    0.000    0.000 
#
# Total GULP energy -186049.117027 kJ/mol
# GULP energy per Si atom -12403.274468 kJ/mol
# Density = 1.950781 g / cm^3
# Si number density = 19.552308 Si / 1000 Ang^3
#
#
#
# Elastic Constant Matrix: (Units=GPa)
#
#
# Indices 1 2 3 4 5 6 
#
# 1 87.5615 64.7495 45.8420 -0.0019 -7.2174 -0.0010
# 2 64.7495 153.3186 44.9961 0.0068 -1.3598 0.0046
# 3 45.8420 44.9961 90.0589 0.0144 -16.9262 0.0124
# 4 -0.0019 0.0068 0.0144 25.1968 0.0070 -5.2760
# 5 -7.2174 -1.3598 -16.9262 0.0070 22.7291 0.0024
# 6 -0.0010 0.0046 0.0124 -5.2760 0.0024 40.6985
#
#
#
# Elastic Compliance Matrix: (Units=1/GPa)
#
#
# Indices 1 2 3 4 5 6 
#
# 1 0.019684 -0.006344 -0.006682 0.000008 0.000895 0.000004
# 2 -0.006344 0.009841 -0.002274 -0.000001 -0.003119 -0.000001
# 3 -0.006682 -0.002274 0.017693 -0.000015 0.010918 -0.000008
# 4 0.000008 -0.000001 -0.000015 0.040795 -0.000022 0.005288
# 5 0.000895 -0.003119 0.010918 -0.000022 0.052225 -0.000009
# 6 0.000004 -0.000001 -0.000008 0.005288 -0.000009 0.025257
#
#
# Mechanical properties :
#
#
# Convention : Reuss Voigt Hill
#
# Bulk Modulus (GPa) = 60.17220 71.34602 65.75911
# Shear Modulus (GPa) = 24.79756 29.41496 27.10626
#
# Velocity S-wave (km/s) = 3.56514 3.88290 3.72741
# Velocity P-wave (km/s) = 6.91294 7.52805 7.22704
#
# Compressibility (1/GPa) = 0.01661897
#
# Stress axis : x y z
#
# Youngs Moduli (GPa) = 50.80381 101.61321 56.51920
#
# Poissons Ratio (x) = 0.64463 0.37764
# Poissons Ratio (y) = 0.32230 0.12852
# Poissons Ratio (z) = 0.33945 0.23107
#
# Static dielectric constant tensor:
#      x y z
#    x 3.816540 -0.000010 -0.162780 
#    y -0.000010 3.748030 -0.000010 
#    z -0.162780 -0.000010 3.335500 
# 
# 
# High freq. dielectric constant tensor:
#      x y z
#    x 1.773250 0.000000 -0.009180 
#    y 0.000000 1.780450 0.000000 
#    z -0.009180 0.000000 1.729690 
# 
# From -- ./inp_files/60660.got.cif
#   From: 2010.03.12/outbox.cif.g09.slc.cpg/sg5_31_cif.got.tgz:60660.got - 2010.03.31 09:47:26.
