data_PCOD8051796
_publ_section_title
;
Structure prediction by ZEFSAII (Michael W. Deem and Ramdas Pophale) SiO2 
 PCOD8051796
Probable space group: C 2
;
_chemical_formula_sum "Si O2"
_cell_formula_units_Z 32
_cell_length_a 25.799058
_cell_length_b 5.149492
_cell_length_c 11.571965
_cell_angle_alpha 90.000000
_cell_angle_beta 113.446511
_cell_angle_gamma 90.000000
_cell_volume 1410.422409
_symmetry_space_group_name_H-M "C 2"
_symmetry_group_IT_number 5
_symmetry_cell_setting 'monoclinic'
loop_
_space_group_symop_operation_xyz
x,y,z
-x,y,-z
1/2+x,1/2+y,z
1/2-x,1/2+y,-z
loop_
_atom_site_type_symbol
_atom_site_label
_atom_site_fract_x
_atom_site_fract_y
_atom_site_fract_z
Si Si1 0.923582 0.952060 0.639321
Si Si2 0.566162 0.460049 0.080295
Si Si3 0.271123 0.840005 0.700029
Si Si4 0.307340 0.606815 0.521645
Si Si5 0.326487 0.985654 0.339658
Si Si6 0.446707 0.969679 0.527410
Si Si7 0.868983 0.465033 0.946621
Si Si8 0.214195 0.348325 0.936096
O O1 0.927008 0.918995 0.778474
O O2 0.960831 0.732561 0.610561
O O3 0.858445 0.905241 0.541270
O O4 0.939798 0.241899 0.615307
O O5 0.592081 0.730568 0.060779
O O6 0.596376 0.230869 0.034485
O O7 0.500000 0.459533 0.000000
O O8 0.308304 0.627584 0.663308
O O9 0.212924 0.742682 0.707535
O O10 0.310232 0.991501 0.823498
O O11 0.253767 0.014291 0.574577
O O12 0.317804 0.867924 0.458499
O O13 0.394262 0.024195 0.392757
O O14 0.303415 0.805605 0.213817
O O15 0.500000 0.890260 0.500000
O O16 0.845594 0.418380 0.054934
O O17 0.259665 0.581985 0.990723
#
# Coordination Sequence:
#
# PCOD8051796 Si02
#       8
#     4   4   4   4   4   4   4   4
#     4  11  24  45  69 101 136 176 225 291 343 405
#     4  12  28  49  72 101 137 182 242 294 347 410
#     4  12  22  38  68 103 139 171 223 279 353 414
#     4  11  23  36  67 104 138 172 215 281 352 411
#     4  11  25  41  64 100 135 181 223 281 340 413
#     4  11  25  45  70 100 137 182 231 278 345 409
#     4  12  27  45  73 102 137 187 235 288 353 411
#     4  12  26  45  67  99 145 187 231 283 342 422
#
# _framework density 22.688238999999999
#
# number of rings (size 3 to 8) (size 9 to 14) (size 15 to 20)
#    0.000    0.500    5.000    3.000    5.250    2.000 
#    0.000    0.000    0.000    0.000    0.000    0.000 
#    0.000    0.000    0.000    0.000    0.000    0.000 
#
# Total GULP energy -198281.813616 kJ/mol
# GULP energy per Si atom -12392.613351 kJ/mol
# Density = 2.263660 g / cm^3
# Si number density = 22.688239 Si / 1000 Ang^3
#
#
#
# Elastic Constant Matrix: (Units=GPa)
#
#
# Indices 1 2 3 4 5 6 
#
# 1 114.8303 10.7611 25.3403 0.0000 15.3389 0.0000
# 2 10.7611 85.8793 5.9917 0.0000 8.5868 0.0000
# 3 25.3403 5.9917 63.4555 0.0000 6.5977 0.0000
# 4 0.0000 0.0000 0.0000 22.4451 0.0000 -1.7064
# 5 15.3389 8.5868 6.5977 0.0000 33.2465 0.0000
# 6 0.0000 0.0000 0.0000 -1.7064 0.0000 37.6658
#
#
#
# Elastic Compliance Matrix: (Units=1/GPa)
#
#
# Indices 1 2 3 4 5 6 
#
# 1 0.010058 -0.000635 -0.003565 0.000000 -0.003769 0.000000
# 2 -0.000635 0.012035 -0.000603 0.000000 -0.002696 0.000000
# 3 -0.003565 -0.000603 0.017412 0.000000 -0.001655 0.000000
# 4 0.000000 0.000000 0.000000 0.044707 0.000000 0.002025
# 5 -0.003769 -0.002696 -0.001655 0.000000 0.032842 0.000000
# 6 0.000000 0.000000 0.000000 0.002025 0.000000 0.026641
#
#
# Mechanical properties :
#
#
# Convention : Reuss Voigt Hill
#
# Bulk Modulus (GPa) = 33.44394 38.70570 36.07482
# Shear Modulus (GPa) = 30.62476 33.47629 32.05052
#
# Velocity S-wave (km/s) = 3.67796 3.84538 3.76260
# Velocity P-wave (km/s) = 5.72793 6.06735 5.90008
#
# Compressibility (1/GPa) = 0.02990079
#
# Stress axis : x y z
#
# Youngs Moduli (GPa) = 99.42210 83.08826 57.43292
#
# Poissons Ratio (x) = 0.05274 0.20474
# Poissons Ratio (y) = 0.06311 0.03461
# Poissons Ratio (z) = 0.35442 0.05007
#
# Static dielectric constant tensor:
#      x y z
#    x 4.501410 0.000000 0.098430 
#    y 0.000000 3.992280 0.000000 
#    z 0.098430 0.000000 4.170140 
# 
# 
# High freq. dielectric constant tensor:
#      x y z
#    x 1.903140 0.000000 -0.005090 
#    y 0.000000 1.894060 0.000000 
#    z -0.005090 0.000000 1.893290 
# 
# From -- ./inp_files/47042.got.cif
#   From: 2010.03.12/outbox.cif.g09.slc.cpg/sg5_24_cif.got.tgz:47042.got - 2010.03.31 09:47:26.
