data_PCOD8051286
_publ_section_title
;
Structure prediction by ZEFSAII (Michael W. Deem and Ramdas Pophale) SiO2 
 PCOD8051286
Probable space group: C 2
;
_chemical_formula_sum "Si O2"
_cell_formula_units_Z 22
_cell_length_a 22.541392
_cell_length_b 8.808391
_cell_length_c 5.804613
_cell_angle_alpha 90.000000
_cell_angle_beta 121.003981
_cell_angle_gamma 90.000000
_cell_volume 987.866024
_symmetry_space_group_name_H-M "C 2"
_symmetry_group_IT_number 5
_symmetry_cell_setting 'monoclinic'
loop_
_space_group_symop_operation_xyz
x,y,z
-x,y,-z
1/2+x,1/2+y,z
1/2-x,1/2+y,-z
loop_
_atom_site_type_symbol
_atom_site_label
_atom_site_fract_x
_atom_site_fract_y
_atom_site_fract_z
Si Si1 0.817900 0.340600 0.255540
Si Si2 0.500000 0.497163 0.000000
Si Si3 0.598344 0.997155 0.196665
Si Si4 0.060194 0.243112 0.802886
Si Si5 0.682112 0.153666 0.983966
Si Si6 0.939812 0.751170 0.562104
O O1 0.855567 0.375735 0.571361
O O2 0.866343 0.241395 0.181441
O O3 0.750010 0.247125 0.179790
O O4 0.796469 0.497139 0.092958
O O5 0.448050 0.596450 0.051862
O O6 0.551921 0.397885 0.259750
O O7 0.644464 0.118529 0.149162
O O8 0.551324 0.096697 0.273596
O O9 0.551321 0.897640 0.931579
O O10 0.000000 0.245033 0.500000
O O11 0.633655 0.252889 0.716103
O O12 0.000000 0.749097 0.500000
#
# Coordination Sequence:
#
# PCOD8051286 Si02
#       6
#     4   2   4   4   4   4
#     4  10  24  44  66  95 131 171 215 265 318 380
#     4  12  26  42  66  98 130 170 214 270 324 376
#     4  10  24  43  69  96 129 173 214 262 322 383
#     4  11  25  44  66  97 131 169 216 267 320 380
#     4  10  24  44  66  95 131 171 215 265 318 380
#     4  11  25  44  66  97 131 169 216 267 320 380
#
# _framework density 22.270223999999999
#
# number of rings (size 3 to 8) (size 9 to 14) (size 15 to 20)
#    0.000    1.455    0.000    2.727    0.000   29.091 
#    0.000    3.636    0.000    0.000    0.000    0.000 
#    0.000    0.000    0.000    0.000    0.000    0.000 
#
# Total GULP energy -136447.496313 kJ/mol
# GULP energy per Si atom -12404.317847 kJ/mol
# Density = 2.221954 g / cm^3
# Si number density = 22.270224 Si / 1000 Ang^3
#
#
#
# Elastic Constant Matrix: (Units=GPa)
#
#
# Indices 1 2 3 4 5 6 
#
# 1 87.9063 79.1271 69.9744 0.0000 -1.9853 0.0000
# 2 79.1271 135.2383 75.2196 0.0000 4.0286 0.0000
# 3 69.9744 75.2196 108.3639 0.0000 -20.2816 0.0000
# 4 0.0000 0.0000 0.0000 49.8656 0.0000 4.2275
# 5 -1.9853 4.0286 -20.2816 0.0000 29.4694 0.0000
# 6 0.0000 0.0000 0.0000 4.2275 0.0000 53.8171
#
#
#
# Elastic Compliance Matrix: (Units=1/GPa)
#
#
# Indices 1 2 3 4 5 6 
#
# 1 0.032716 -0.010580 -0.015036 0.000000 -0.006698 0.000000
# 2 -0.010580 0.017655 -0.006897 0.000000 -0.007873 0.000000
# 3 -0.015036 -0.006897 0.027218 0.000000 0.018662 0.000000
# 4 0.000000 0.000000 0.000000 0.020188 0.000000 -0.001586
# 5 -0.006698 -0.007873 0.018662 0.000000 0.047402 0.000000
# 6 0.000000 0.000000 0.000000 -0.001586 0.000000 0.018706
#
#
# Mechanical properties :
#
#
# Convention : Reuss Voigt Hill
#
# Bulk Modulus (GPa) = 79.59253 86.68341 83.13797
# Shear Modulus (GPa) = 21.45019 33.77624 27.61322
#
# Velocity S-wave (km/s) = 3.10688 3.89865 3.52506
# Velocity P-wave (km/s) = 6.97763 7.69896 7.34715
#
# Compressibility (1/GPa) = 0.01256399
#
# Stress axis : x y z
#
# Youngs Moduli (GPa) = 30.56585 56.64135 36.74089
#
# Poissons Ratio (x) = 0.59924 0.55244
# Poissons Ratio (y) = 0.32337 0.25340
# Poissons Ratio (z) = 0.45959 0.39065
#
# Static dielectric constant tensor:
#      x y z
#    x 4.089090 0.000000 -0.400470 
#    y 0.000000 4.100630 0.000000 
#    z -0.400470 0.000000 4.462610 
# 
# 
# High freq. dielectric constant tensor:
#      x y z
#    x 1.876400 0.000000 -0.015640 
#    y 0.000000 1.880630 0.000000 
#    z -0.015640 0.000000 1.890970 
# 
# From -- ./inp_files/10826.got.cif
#   From: 2010.03.12/outbox.cif.g09.slc.cpg/sg5_6_cif.got.tgz:10826.got - 2010.03.31 09:47:26.
