data_PCOD8051596
_publ_section_title
;
Structure prediction by ZEFSAII (Michael W. Deem and Ramdas Pophale) SiO2 
 PCOD8051596
Probable space group: C 2
;
_chemical_formula_sum "Si O2"
_cell_formula_units_Z 30
_cell_length_a 19.336706
_cell_length_b 14.442398
_cell_length_c 13.996633
_cell_angle_alpha 90.000000
_cell_angle_beta 160.062539
_cell_angle_gamma 90.000000
_cell_volume 1332.884262
_symmetry_space_group_name_H-M "C 2"
_symmetry_group_IT_number 5
_symmetry_cell_setting 'monoclinic'
loop_
_space_group_symop_operation_xyz
x,y,z
-x,y,-z
1/2+x,1/2+y,z
1/2-x,1/2+y,-z
loop_
_atom_site_type_symbol
_atom_site_label
_atom_site_fract_x
_atom_site_fract_y
_atom_site_fract_z
Si Si1 0.355018 0.241330 0.589570
Si Si2 0.273165 0.333092 0.183440
Si Si3 0.714338 0.169425 0.929943
Si Si4 0.425039 0.988585 0.175893
Si Si5 0.047708 0.605134 0.962923
Si Si6 0.000000 0.291751 0.000000
Si Si7 0.806839 0.885871 0.683327
Si Si8 0.909165 0.236807 0.479275
O O1 0.555185 0.228652 0.785924
O O2 0.350487 0.159012 0.662913
O O3 0.157931 0.230746 0.266584
O O4 0.365234 0.341401 0.656511
O O5 0.500000 0.366079 0.500000
O O6 0.270841 0.223029 0.152354
O O7 0.130647 0.350548 0.091738
O O8 0.192709 0.390500 0.985588
O O9 0.644129 0.060553 0.829881
O O10 0.931703 0.168190 0.263560
O O11 0.671051 0.978740 0.494685
O O12 0.356833 0.035036 0.987483
O O13 0.203078 0.685612 0.188670
O O14 0.000000 0.552154 0.000000
O O15 0.641812 0.821488 0.519288
O O16 0.000000 0.907393 0.000000
O O17 0.000000 0.278741 0.500000
#
# Coordination Sequence:
#
# PCOD8051596 Si02
#       8
#     4   4   4   4   4   2   4   4
#     4  11  20  41  68  99 139 192 239 286 366 447
#     4  12  26  46  73 101 149 192 243 302 366 453
#     4  11  24  45  67 102 147 193 238 300 376 433
#     4  11  26  42  71 109 143 181 251 304 366 439
#     4  11  23  41  67 104 138 181 247 299 363 433
#     4  12  24  42  74 102 144 200 238 284 384 432
#     4  12  22  43  72 104 141 186 247 307 371 441
#     4  12  19  38  73  98 131 186 240 301 364 429
#
# _framework density 22.507580999999998
#
# number of rings (size 3 to 8) (size 9 to 14) (size 15 to 20)
#    0.000    0.533    9.333    0.000    2.800    0.000 
#    4.800    0.667    0.000    0.000    0.000    0.000 
#    0.000    0.000    0.000    0.000    0.000    0.000 
#
# Total GULP energy -185866.426851 kJ/mol
# GULP energy per Si atom -12391.095123 kJ/mol
# Density = 2.245635 g / cm^3
# Si number density = 22.507581 Si / 1000 Ang^3
#
#
#
# Elastic Constant Matrix: (Units=GPa)
#
#
# Indices 1 2 3 4 5 6 
#
# 1 82.4241 17.6868 15.6155 -0.0002 6.5787 -0.0001
# 2 17.6868 75.4018 30.0018 -0.0001 4.7263 0.0000
# 3 15.6155 30.0018 158.5182 -0.0002 -9.6060 -0.0001
# 4 -0.0002 -0.0001 -0.0002 24.2617 -0.0002 13.2871
# 5 6.5787 4.7263 -9.6060 -0.0002 33.1046 -0.0001
# 6 -0.0001 0.0000 -0.0001 13.2871 -0.0001 26.7994
#
#
#
# Elastic Compliance Matrix: (Units=1/GPa)
#
#
# Indices 1 2 3 4 5 6 
#
# 1 0.013056 -0.002523 -0.000961 0.000000 -0.002513 0.000000
# 2 -0.002523 0.015106 -0.002759 0.000000 -0.002456 0.000000
# 3 -0.000961 -0.002759 0.007085 0.000000 0.002641 0.000000
# 4 0.000000 0.000000 0.000000 0.056580 0.000000 -0.028053
# 5 -0.002513 -0.002456 0.002641 0.000000 0.031824 0.000000
# 6 0.000000 0.000000 0.000000 -0.028053 0.000000 0.051223
#
#
# Mechanical properties :
#
#
# Convention : Reuss Voigt Hill
#
# Bulk Modulus (GPa) = 43.93370 49.21692 46.57531
# Shear Modulus (GPa) = 25.64791 33.70247 29.67519
#
# Velocity S-wave (km/s) = 3.37934 3.87380 3.63499
# Velocity P-wave (km/s) = 5.89818 6.47478 6.19319
#
# Compressibility (1/GPa) = 0.02276157
#
# Stress axis : x y z
#
# Youngs Moduli (GPa) = 76.59094 66.19938 141.13585
#
# Poissons Ratio (x) = 0.16700 0.13564
# Poissons Ratio (y) = 0.19321 0.38944
# Poissons Ratio (z) = 0.07361 0.18267
#
# Static dielectric constant tensor:
#      x y z
#    x 4.520810 0.000000 -0.125590 
#    y 0.000000 3.960980 0.000000 
#    z -0.125590 0.000000 4.219570 
# 
# 
# High freq. dielectric constant tensor:
#      x y z
#    x 1.881510 0.000000 -0.003260 
#    y 0.000000 1.855710 0.000000 
#    z -0.003260 0.000000 1.904980 
# 
# From -- ./inp_files/57148.got.cif
#   From: 2010.03.12/outbox.cif.g09.slc.cpg/sg5_29_cif.got.tgz:57148.got - 2010.03.31 09:47:26.
