data_PCOD8051729
_publ_section_title
;
Structure prediction by ZEFSAII (Michael W. Deem and Ramdas Pophale) SiO2 
 PCOD8051729
Probable space group: C 2
;
_chemical_formula_sum "Si O2"
_cell_formula_units_Z 20
_cell_length_a 12.953241
_cell_length_b 7.614229
_cell_length_c 18.510004
_cell_angle_alpha 90.000000
_cell_angle_beta 30.470624
_cell_angle_gamma 90.000000
_cell_volume 925.766653
_symmetry_space_group_name_H-M "C 2"
_symmetry_group_IT_number 5
_symmetry_cell_setting 'monoclinic'
loop_
_space_group_symop_operation_xyz
x,y,z
-x,y,-z
1/2+x,1/2+y,z
1/2-x,1/2+y,-z
loop_
_atom_site_type_symbol
_atom_site_label
_atom_site_fract_x
_atom_site_fract_y
_atom_site_fract_z
Si Si1 0.858921 0.875000 0.650551
Si Si2 0.496792 0.058731 0.658473
Si Si3 0.025857 0.213915 0.169976
Si Si4 0.556492 0.657288 0.621249
Si Si5 0.838903 0.967790 0.036078
O O1 0.623661 0.867916 0.768501
O O2 0.000000 0.935233 0.500000
O O3 0.925382 0.680747 0.636037
O O4 0.886221 0.021093 0.696075
O O5 0.724447 0.111490 0.545538
O O6 0.343032 0.083742 0.818815
O O7 0.491512 0.854006 0.638158
O O8 0.245922 0.292877 0.056649
O O9 0.927863 0.131929 0.301574
O O10 0.045084 0.071147 0.096186
O O11 0.000000 0.912182 0.000000
#
# Coordination Sequence:
#
# PCOD8051729 Si02
#       5
#     4   4   4   4   4
#     4  12  23  45  72 103 137 178 231 284 340 402
#     4  11  22  42  70 100 138 173 227 283 331 403
#     4  11  26  44  68 100 136 182 226 279 340 404
#     4  11  24  44  72 104 136 176 231 282 337 408
#     4  11  25  43  66  99 137 177 227 277 334 410
#
# _framework density 21.603715000000001
#
# number of rings (size 3 to 8) (size 9 to 14) (size 15 to 20)
#    0.000    0.800    6.000    1.200    2.800    4.000 
#    0.000    0.000    0.000    0.000    0.000    0.000 
#    0.000    0.000    0.000    0.000    0.000    0.000 
#
# Total GULP energy -124022.050111 kJ/mol
# GULP energy per Si atom -12402.205011 kJ/mol
# Density = 2.155454 g / cm^3
# Si number density = 21.603715 Si / 1000 Ang^3
#
#
#
# Elastic Constant Matrix: (Units=GPa)
#
#
# Indices 1 2 3 4 5 6 
#
# 1 129.4953 54.9845 24.5262 -0.0003 -17.0895 -0.0001
# 2 54.9845 114.5529 25.8351 0.0007 -5.1346 0.0007
# 3 24.5262 25.8351 79.0194 0.0004 -8.4275 0.0013
# 4 -0.0003 0.0007 0.0004 28.1747 0.0007 -14.0191
# 5 -17.0895 -5.1346 -8.4275 0.0007 32.7155 0.0000
# 6 -0.0001 0.0007 0.0013 -14.0191 0.0000 36.3103
#
#
#
# Elastic Compliance Matrix: (Units=1/GPa)
#
#
# Indices 1 2 3 4 5 6 
#
# 1 0.010480 -0.004539 -0.001296 0.000000 0.004428 0.000000
# 2 -0.004539 0.011407 -0.002450 0.000000 -0.001212 0.000000
# 3 -0.001296 -0.002450 0.014133 -0.000001 0.002579 -0.000001
# 4 0.000000 0.000000 -0.000001 0.043933 -0.000001 0.016962
# 5 0.004428 -0.001212 0.002579 -0.000001 0.033354 0.000000
# 6 0.000000 0.000000 -0.000001 0.016962 0.000000 0.034089
#
#
# Mechanical properties :
#
#
# Convention : Reuss Voigt Hill
#
# Bulk Modulus (GPa) = 51.41657 59.30661 55.36159
# Shear Modulus (GPa) = 29.33428 33.95487 31.64457
#
# Velocity S-wave (km/s) = 3.68888 3.96879 3.83139
# Velocity P-wave (km/s) = 6.48038 6.96515 6.72713
#
# Compressibility (1/GPa) = 0.01944898
#
# Stress axis : x y z
#
# Youngs Moduli (GPa) = 95.42392 87.66885 70.75402
#
# Poissons Ratio (x) = 0.39795 0.09172
# Poissons Ratio (y) = 0.43316 0.17332
# Poissons Ratio (z) = 0.12370 0.21476
#
# Static dielectric constant tensor:
#      x y z
#    x 3.957500 0.000000 -0.049420 
#    y 0.000000 3.676630 0.000000 
#    z -0.049420 0.000000 4.067750 
# 
# 
# High freq. dielectric constant tensor:
#      x y z
#    x 1.854550 0.000000 -0.006450 
#    y 0.000000 1.831910 0.000000 
#    z -0.006450 0.000000 1.856410 
# 
# From -- ./inp_files/18249.got.cif
#   From: 2010.03.12/outbox.cif.g09.slc.cpg/sg5_10_cif.got.tgz:18249.got - 2010.03.31 09:47:26.
