data_PCOD8051394
_publ_section_title
;
Structure prediction by ZEFSAII (Michael W. Deem and Ramdas Pophale) SiO2 
 PCOD8051394
Probable space group: C 2
;
_chemical_formula_sum "Si O2"
_cell_formula_units_Z 20
_cell_length_a 8.661333
_cell_length_b 18.452612
_cell_length_c 7.382236
_cell_angle_alpha 90.000000
_cell_angle_beta 126.543252
_cell_angle_gamma 90.000000
_cell_volume 947.908570
_symmetry_space_group_name_H-M "C 2"
_symmetry_group_IT_number 5
_symmetry_cell_setting 'monoclinic'
loop_
_space_group_symop_operation_xyz
x,y,z
-x,y,-z
1/2+x,1/2+y,z
1/2-x,1/2+y,-z
loop_
_atom_site_type_symbol
_atom_site_label
_atom_site_fract_x
_atom_site_fract_y
_atom_site_fract_z
Si Si1 0.500000 0.595490 0.500000
Si Si2 0.993094 0.318940 0.783997
Si Si3 0.841059 0.043670 0.734395
Si Si4 0.710220 0.198243 0.683467
Si Si5 0.500000 0.935691 0.500000
Si Si6 0.724318 0.207334 0.111175
O O1 0.441839 0.535953 0.610429
O O2 0.327178 0.647424 0.307712
O O3 0.843274 0.252932 0.663471
O O4 0.937077 0.389432 0.631276
O O5 0.186338 0.288717 0.818520
O O6 0.000000 0.342045 0.000000
O O7 0.732090 0.118949 0.619074
O O8 0.686417 0.983037 0.677638
O O9 0.000000 0.045880 0.000000
O O10 0.500000 0.229260 0.500000
O O11 0.764520 0.188204 0.930403
O O12 0.500000 0.210188 0.000000
#
# Coordination Sequence:
#
# PCOD8051394 Si02
#       6
#     2   4   4   4   2   4
#     4  12  23  42  70 103 142 172 232 292 347 404
#     4  10  24  48  69 100 144 181 233 287 339 421
#     4  12  25  46  68 103 140 182 232 290 343 411
#     4  11  21  44  75 104 136 180 239 292 338 406
#     4  12  29  46  68  97 152 184 222 284 359 412
#     4  11  23  38  74 109 133 174 237 291 345 396
#
# _framework density 21.099081000000002
#
# number of rings (size 3 to 8) (size 9 to 14) (size 15 to 20)
#    0.000    0.800    5.000    2.400    2.800    2.400 
#    5.400    0.000    0.000    0.000    0.000    0.000 
#    0.000    0.000    0.000    0.000    0.000    0.000 
#
# Total GULP energy -123936.187605 kJ/mol
# GULP energy per Si atom -12393.618760 kJ/mol
# Density = 2.105106 g / cm^3
# Si number density = 21.099081 Si / 1000 Ang^3
#
#
#
# Elastic Constant Matrix: (Units=GPa)
#
#
# Indices 1 2 3 4 5 6 
#
# 1 132.1539 54.1567 48.3243 0.0000 5.1531 0.0000
# 2 54.1567 112.4241 45.5259 0.0000 1.6661 0.0000
# 3 48.3243 45.5259 102.4490 0.0000 9.2676 0.0000
# 4 0.0000 0.0000 0.0000 11.0369 0.0000 18.3045
# 5 5.1531 1.6661 9.2676 0.0000 44.9999 0.0000
# 6 0.0000 0.0000 0.0000 18.3045 0.0000 7.6687
#
#
#
# Elastic Compliance Matrix: (Units=1/GPa)
#
#
# Indices 1 2 3 4 5 6 
#
# 1 0.010234 -0.003638 -0.003176 0.000000 -0.000383 0.000000
# 2 -0.003638 0.012156 -0.003753 0.000000 0.000739 0.000000
# 3 -0.003176 -0.003753 0.013126 0.000000 -0.002201 0.000000
# 4 0.000000 0.000000 0.000000 -0.030624 0.000000 0.073096
# 5 -0.000383 0.000739 -0.002201 0.000000 0.022692 0.000000
# 6 0.000000 0.000000 0.000000 0.073096 0.000000 -0.044074
#
#
# Mechanical properties :
#
#
# Convention : Reuss Voigt Hill
#
# Bulk Modulus (GPa) = 69.52987 71.44895 70.48941
# Shear Modulus (GPa) = 529.76741 26.00912 277.88826
#
# Velocity S-wave (km/s) = 15.86287 3.51481 11.48879
# Velocity P-wave (km/s) = 19.19721 7.09992 14.47311
#
# Compressibility (1/GPa) = 0.01438231
#
# Stress axis : x y z
#
# Youngs Moduli (GPa) = 97.71202 82.26291 76.18644
#
# Poissons Ratio (x) = 0.29929 0.24197
# Poissons Ratio (y) = 0.35549 0.28590
# Poissons Ratio (z) = 0.31033 0.30871
#
# Static dielectric constant tensor:
#      x y z
#    x 4.208450 0.000000 -0.308200 
#    y 0.000000 3.617210 0.000000 
#    z -0.308200 0.000000 4.131830 
# 
# 
# High freq. dielectric constant tensor:
#      x y z
#    x 1.844430 0.000000 -0.009650 
#    y 0.000000 1.803460 0.000000 
#    z -0.009650 0.000000 1.838940 
# 
# From -- ./inp_files/15580.got.cif
#   From: 2010.03.12/outbox.cif.g09.slc.cpg/sg5_8_cif.got.tgz:15580.got - 2010.03.31 09:47:26.
