data_PCOD8051101
_publ_section_title
;
Structure prediction by ZEFSAII (Michael W. Deem and Ramdas Pophale) SiO2 
 PCOD8051101
Probable space group: C 2
;
_chemical_formula_sum "Si O2"
_cell_formula_units_Z 32
_cell_length_a 25.653606
_cell_length_b 13.824357
_cell_length_c 9.270732
_cell_angle_alpha 90.000000
_cell_angle_beta 151.273911
_cell_angle_gamma 90.000000
_cell_volume 1580.199058
_symmetry_space_group_name_H-M "C 2"
_symmetry_group_IT_number 5
_symmetry_cell_setting 'monoclinic'
loop_
_space_group_symop_operation_xyz
x,y,z
-x,y,-z
1/2+x,1/2+y,z
1/2-x,1/2+y,-z
loop_
_atom_site_type_symbol
_atom_site_label
_atom_site_fract_x
_atom_site_fract_y
_atom_site_fract_z
Si Si1 0.160800 0.901340 0.158412
Si Si2 0.467000 0.532254 0.764007
Si Si3 0.691327 0.358113 0.563109
Si Si4 0.125284 0.348775 0.772701
Si Si5 0.305638 0.648896 0.194848
Si Si6 0.092620 0.710610 0.839144
Si Si7 0.442345 0.169503 0.713262
Si Si8 0.699690 0.003645 0.729192
O O1 0.199958 0.861734 0.409869
O O2 0.257771 0.935908 0.294089
O O3 0.111432 0.814018 0.952250
O O4 0.075685 0.989566 0.957342
O O5 0.379611 0.447826 0.559335
O O6 0.413620 0.619697 0.545194
O O7 0.500000 0.574020 0.000000
O O8 0.635613 0.262587 0.496462
O O9 0.810558 0.368665 0.922081
O O10 0.175575 0.253909 0.823557
O O11 0.136803 0.439408 0.693713
O O12 0.000000 0.331897 0.500000
O O13 0.198327 0.655482 0.035175
O O14 0.288371 0.569044 0.028177
O O15 0.000000 0.727707 0.500000
O O16 0.036823 0.647871 0.827504
O O17 0.375403 0.072304 0.547286
O O18 0.500000 0.189970 0.000000
#
# Coordination Sequence:
#
# PCOD8051101 Si02
#       8
#     4   4   4   4   4   4   4   4
#     4  11  25  43  73 101 135 179 231 290 337 393
#     4  10  23  43  71 100 134 178 232 282 345 403
#     4  11  21  48  70 102 138 177 228 294 337 401
#     4  12  28  47  67  97 145 185 220 284 355 406
#     4  12  26  44  68 103 139 180 234 284 340 415
#     4  12  23  42  71  99 134 184 227 286 339 393
#     4  12  24  43  74 105 139 176 234 285 344 405
#     4  12  27  44  68 106 137 179 237 277 337 420
#
# _framework density 20.250612
#
# number of rings (size 3 to 8) (size 9 to 14) (size 15 to 20)
#    0.000    0.500    7.500    0.375    5.250    3.000 
#    2.250    0.625    0.000    0.000    0.000    0.000 
#    0.000    0.000    0.000    0.000    0.000    0.000 
#
# Total GULP energy -198342.805897 kJ/mol
# GULP energy per Si atom -12396.425369 kJ/mol
# Density = 2.020452 g / cm^3
# Si number density = 20.250612 Si / 1000 Ang^3
#
#
#
# Elastic Constant Matrix: (Units=GPa)
#
#
# Indices 1 2 3 4 5 6 
#
# 1 99.4700 11.2386 33.8068 0.0000 6.2705 0.0000
# 2 11.2386 71.7577 9.8607 0.0000 2.6807 0.0000
# 3 33.8068 9.8607 95.8441 0.0000 7.3367 0.0000
# 4 0.0000 0.0000 0.0000 48.4229 0.0000 1.2084
# 5 6.2705 2.6807 7.3367 0.0000 27.3988 0.0000
# 6 0.0000 0.0000 0.0000 1.2084 0.0000 20.2938
#
#
#
# Elastic Compliance Matrix: (Units=1/GPa)
#
#
# Indices 1 2 3 4 5 6 
#
# 1 0.011595 -0.001231 -0.003848 0.000000 -0.001503 0.000000
# 2 -0.001231 0.014294 -0.000971 0.000000 -0.000857 0.000000
# 3 -0.003848 -0.000971 0.012063 0.000000 -0.002255 0.000000
# 4 0.000000 0.000000 0.000000 0.020682 0.000000 -0.001232
# 5 -0.001503 -0.000857 -0.002255 0.000000 0.037529 0.000000
# 6 0.000000 0.000000 0.000000 -0.001232 0.000000 0.049349
#
#
# Mechanical properties :
#
#
# Convention : Reuss Voigt Hill
#
# Bulk Modulus (GPa) = 38.68114 41.87598 40.27856
# Shear Modulus (GPa) = 30.07864 33.36749 31.72306
#
# Velocity S-wave (km/s) = 3.85817 4.06362 3.96223
# Velocity P-wave (km/s) = 6.24419 6.53767 6.39262
#
# Compressibility (1/GPa) = 0.02585239
#
# Stress axis : x y z
#
# Youngs Moduli (GPa) = 86.24425 69.95943 82.89516
#
# Poissons Ratio (x) = 0.08612 0.31900
# Poissons Ratio (y) = 0.10617 0.08047
# Poissons Ratio (z) = 0.33188 0.06792
#
# Static dielectric constant tensor:
#      x y z
#    x 4.232020 0.000000 -0.007390 
#    y 0.000000 3.630430 0.000000 
#    z -0.007390 0.000000 3.854620 
# 
# 
# High freq. dielectric constant tensor:
#      x y z
#    x 1.797160 0.000000 -0.008580 
#    y 0.000000 1.794840 0.000000 
#    z -0.008580 0.000000 1.797200 
# 
# From -- ./inp_files/31076.got.cif
#   From: 2010.03.12/outbox.cif.g09.slc.cpg/sg5_16_cif.got.tgz:31076.got - 2010.03.31 09:47:26.
