data_PCOD8051097
_publ_section_title
;
Structure prediction by ZEFSAII (Michael W. Deem and Ramdas Pophale) SiO2 
 PCOD8051097
Probable space group: C 2
;
_chemical_formula_sum "Si O2"
_cell_formula_units_Z 20
_cell_length_a 8.676455
_cell_length_b 12.003812
_cell_length_c 8.586148
_cell_angle_alpha 90.000000
_cell_angle_beta 96.880607
_cell_angle_gamma 90.000000
_cell_volume 887.811456
_symmetry_space_group_name_H-M "C 2"
_symmetry_group_IT_number 5
_symmetry_cell_setting 'monoclinic'
loop_
_space_group_symop_operation_xyz
x,y,z
-x,y,-z
1/2+x,1/2+y,z
1/2-x,1/2+y,-z
loop_
_atom_site_type_symbol
_atom_site_label
_atom_site_fract_x
_atom_site_fract_y
_atom_site_fract_z
Si Si1 0.675540 0.119940 0.577923
Si Si2 0.051904 0.412684 0.678391
Si Si3 0.755309 0.029268 0.275070
Si Si4 0.892845 0.809569 0.214351
Si Si5 0.279611 0.252653 0.863182
O O1 0.500000 0.122560 0.500000
O O2 0.783666 0.099362 0.439450
O O3 0.707787 0.234055 0.675814
O O4 0.684102 0.010104 0.688391
O O5 0.125428 0.310420 0.779602
O O6 0.000000 0.372963 0.500000
O O7 0.903212 0.458758 0.752621
O O8 0.754098 0.120030 0.136172
O O9 0.891390 0.938806 0.266672
O O10 0.072267 0.771951 0.232727
O O11 0.813634 0.797669 0.037761
#
# Coordination Sequence:
#
# PCOD8051097 Si02
#       5
#     4   4   4   4   4
#     4   9  19  40  66  90 129 170 223 262 319 385
#     4   9  21  43  67  93 132 174 221 270 324 389
#     4  10  23  43  68  96 128 185 219 267 337 382
#     4  11  24  41  70 100 134 178 215 275 339 389
#     4  11  24  43  66  99 142 167 221 275 334 399
#
# _framework density 22.527305999999999
#
# number of rings (size 3 to 8) (size 9 to 14) (size 15 to 20)
#    0.000    2.400    4.000    0.000    8.400    0.800 
#    3.600    1.000    0.000    0.000    0.000    0.000 
#    0.000    0.000    0.000    0.000    0.000    0.000 
#
# Total GULP energy -123956.906531 kJ/mol
# GULP energy per Si atom -12395.690653 kJ/mol
# Density = 2.247603 g / cm^3
# Si number density = 22.527306 Si / 1000 Ang^3
#
#
#
# Elastic Constant Matrix: (Units=GPa)
#
#
# Indices 1 2 3 4 5 6 
#
# 1 38.8027 36.8432 17.7460 0.0000 5.5778 0.0000
# 2 36.8432 156.7400 49.6574 0.0000 0.4543 0.0000
# 3 17.7460 49.6574 73.2735 0.0000 -7.2064 0.0000
# 4 0.0000 0.0000 0.0000 37.5353 0.0000 -1.2870
# 5 5.5778 0.4543 -7.2064 0.0000 26.4709 0.0000
# 6 0.0000 0.0000 0.0000 -1.2870 0.0000 32.1428
#
#
#
# Elastic Compliance Matrix: (Units=1/GPa)
#
#
# Indices 1 2 3 4 5 6 
#
# 1 0.035749 -0.006828 -0.004891 0.000000 -0.008747 0.000000
# 2 -0.006828 0.009502 -0.004789 0.000000 -0.000028 0.000000
# 3 -0.004891 -0.004789 0.018687 0.000000 0.006200 0.000000
# 4 0.000000 0.000000 0.000000 0.026678 0.000000 0.001068
# 5 -0.008747 -0.000028 0.006200 0.000000 0.041309 0.000000
# 6 0.000000 0.000000 0.000000 0.001068 0.000000 0.031154
#
#
# Mechanical properties :
#
#
# Convention : Reuss Voigt Hill
#
# Bulk Modulus (GPa) = 32.33854 53.03439 42.68646
# Shear Modulus (GPa) = 24.22456 30.20111 27.21284
#
# Velocity S-wave (km/s) = 3.28280 3.66545 3.47939
# Velocity P-wave (km/s) = 5.36241 6.44263 5.92718
#
# Compressibility (1/GPa) = 0.03092286
#
# Stress axis : x y z
#
# Youngs Moduli (GPa) = 27.97282 105.23816 53.51315
#
# Poissons Ratio (x) = 0.71860 0.26172
# Poissons Ratio (y) = 0.19101 0.25626
# Poissons Ratio (z) = 0.13681 0.50395
#
# Static dielectric constant tensor:
#      x y z
#    x 3.693590 0.000000 -0.250280 
#    y 0.000000 4.520010 0.000000 
#    z -0.250280 0.000000 3.908680 
# 
# 
# High freq. dielectric constant tensor:
#      x y z
#    x 1.850580 0.000000 -0.010790 
#    y 0.000000 1.901540 0.000000 
#    z -0.010790 0.000000 1.874100 
# 
# From -- ./inp_files/14217.got.cif
#   From: 2010.03.12/outbox.cif.g09.slc.cpg/sg5_8_cif.got.tgz:14217.got - 2010.03.31 09:47:26.
