data_PCOD8051294
_publ_section_title
;
Structure prediction by ZEFSAII (Michael W. Deem and Ramdas Pophale) SiO2 
 PCOD8051294
Probable space group: C 2
;
_chemical_formula_sum "Si O2"
_cell_formula_units_Z 26
_cell_length_a 11.569631
_cell_length_b 15.310188
_cell_length_c 7.649885
_cell_angle_alpha 90.000000
_cell_angle_beta 62.152537
_cell_angle_gamma 90.000000
_cell_volume 1198.126463
_symmetry_space_group_name_H-M "C 2"
_symmetry_group_IT_number 5
_symmetry_cell_setting 'monoclinic'
loop_
_space_group_symop_operation_xyz
x,y,z
-x,y,-z
1/2+x,1/2+y,z
1/2-x,1/2+y,-z
loop_
_atom_site_type_symbol
_atom_site_label
_atom_site_fract_x
_atom_site_fract_y
_atom_site_fract_z
Si Si1 0.188543 0.040630 0.195560
Si Si2 0.112157 0.523586 0.242642
Si Si3 0.000000 0.911511 0.500000
Si Si4 0.505871 0.838920 0.682648
Si Si5 0.153248 0.596118 0.584181
Si Si6 0.371873 0.704384 0.985840
Si Si7 0.278194 0.273201 0.603894
O O1 0.262853 0.046961 0.327843
O O2 0.147209 0.135461 0.156072
O O3 0.064714 0.975107 0.306920
O O4 0.283090 0.002666 0.979960
O O5 0.182458 0.549921 0.375174
O O6 0.021816 0.439570 0.327146
O O7 0.003141 0.596070 0.265960
O O8 0.889906 0.845662 0.508398
O O9 0.500000 0.790378 0.500000
O O10 0.396947 0.798475 0.884264
O O11 0.647316 0.826775 0.665033
O O12 0.193908 0.697955 0.557054
O O13 0.500000 0.671647 0.000000
O O14 0.242664 0.719926 0.196918
#
# Coordination Sequence:
#
# PCOD8051294 Si02
#       7
#     4   4   2   4   4   4   4
#     4  12  26  44  73 105 141 186 240 291 353 429
#     4  11  23  45  72 104 140 184 240 290 350 420
#     4  12  28  40  70 110 146 178 228 304 360 404
#     4  11  22  42  71 100 134 186 238 286 347 424
#     4  11  23  44  76  98 140 190 239 286 353 427
#     4  10  24  43  72  99 141 192 238 287 354 427
#     4  11  24  46  69 100 146 185 229 295 358 421
#
# _framework density 21.700547
#
# number of rings (size 3 to 8) (size 9 to 14) (size 15 to 20)
#    0.000    0.923    3.077    4.154    5.385    2.462 
#    0.000    0.000    6.769    0.000    0.000    0.000 
#    0.000    0.000    0.000    0.000    0.000    0.000 
#
# Total GULP energy -161105.156538 kJ/mol
# GULP energy per Si atom -12392.704349 kJ/mol
# Density = 2.165116 g / cm^3
# Si number density = 21.700547 Si / 1000 Ang^3
#
#
#
# Elastic Constant Matrix: (Units=GPa)
#
#
# Indices 1 2 3 4 5 6 
#
# 1 83.4985 41.1578 54.6099 0.0000 9.4230 0.0000
# 2 41.1578 108.2949 47.2353 0.0000 -5.1146 0.0000
# 3 54.6099 47.2353 143.6132 0.0000 -13.7342 0.0000
# 4 0.0000 0.0000 0.0000 28.4765 0.0000 -5.6298
# 5 9.4230 -5.1146 -13.7342 0.0000 41.0359 0.0000
# 6 0.0000 0.0000 0.0000 -5.6298 0.0000 27.2588
#
#
#
# Elastic Compliance Matrix: (Units=1/GPa)
#
#
# Indices 1 2 3 4 5 6 
#
# 1 0.019447 -0.004910 -0.006473 0.000000 -0.007244 0.000000
# 2 -0.004910 0.012021 -0.001896 0.000000 0.001991 0.000000
# 3 -0.006473 -0.001896 0.010504 0.000000 0.004766 0.000000
# 4 0.000000 0.000000 0.000000 0.036612 0.000000 0.007561
# 5 -0.007244 0.001991 0.004766 0.000000 0.027875 0.000000
# 6 0.000000 0.000000 0.000000 0.007561 0.000000 0.038247
#
#
# Mechanical properties :
#
#
# Convention : Reuss Voigt Hill
#
# Bulk Modulus (GPa) = 64.87510 69.04586 66.96048
# Shear Modulus (GPa) = 28.34415 32.18113 30.26264
#
# Velocity S-wave (km/s) = 3.61799 3.85510 3.73843
# Velocity P-wave (km/s) = 6.88576 7.19044 7.03975
#
# Compressibility (1/GPa) = 0.01541423
#
# Stress axis : x y z
#
# Youngs Moduli (GPa) = 51.42098 83.18594 95.20182
#
# Poissons Ratio (x) = 0.40843 0.61623
# Poissons Ratio (y) = 0.25247 0.18055
# Poissons Ratio (z) = 0.33284 0.15776
#
# Static dielectric constant tensor:
#      x y z
#    x 3.960120 0.000000 -0.093260 
#    y 0.000000 3.970200 0.000000 
#    z -0.093260 0.000000 4.162420 
# 
# 
# High freq. dielectric constant tensor:
#      x y z
#    x 1.841860 0.000000 -0.006560 
#    y 0.000000 1.862380 0.000000 
#    z -0.006560 0.000000 1.859860 
# 
# From -- ./inp_files/20283.got.cif
#   From: 2010.03.12/outbox.cif.g09.slc.cpg/sg5_11_cif.got.tgz:20283.got - 2010.03.31 09:47:26.
