data_PCOD8051670
_publ_section_title
;
Structure prediction by ZEFSAII (Michael W. Deem and Ramdas Pophale) SiO2 
 PCOD8051670
Probable space group: C 2
;
_chemical_formula_sum "Si O2"
_cell_formula_units_Z 30
_cell_length_a 8.787711
_cell_length_b 25.527508
_cell_length_c 6.723868
_cell_angle_alpha 90.000000
_cell_angle_beta 110.269674
_cell_angle_gamma 90.000000
_cell_volume 1414.945587
_symmetry_space_group_name_H-M "C 2"
_symmetry_group_IT_number 5
_symmetry_cell_setting 'monoclinic'
loop_
_space_group_symop_operation_xyz
x,y,z
-x,y,-z
1/2+x,1/2+y,z
1/2-x,1/2+y,-z
loop_
_atom_site_type_symbol
_atom_site_label
_atom_site_fract_x
_atom_site_fract_y
_atom_site_fract_z
Si Si1 0.275264 0.568350 0.832654
Si Si2 0.657625 0.873772 0.944088
Si Si3 0.000000 0.624972 0.500000
Si Si4 0.819504 0.291440 0.377591
Si Si5 0.176353 0.462331 0.634677
Si Si6 0.346566 0.185811 0.778574
Si Si7 0.431224 0.607583 0.256091
Si Si8 0.684904 0.378677 0.591415
O O1 0.098183 0.589557 0.700818
O O2 0.293722 0.509829 0.753465
O O3 0.405030 0.610015 0.801390
O O4 0.309349 0.566418 0.087728
O O5 0.696221 0.822800 0.834041
O O6 0.638548 0.923960 0.798345
O O7 0.500000 0.863077 0.000000
O O8 0.797295 0.884897 0.164722
O O9 0.116976 0.659219 0.415826
O O10 0.689402 0.245535 0.294391
O O11 0.783050 0.329638 0.546386
O O12 0.000000 0.269214 0.500000
O O13 0.264452 0.432338 0.494887
O O14 0.000000 0.485373 0.500000
O O15 0.177445 0.160725 0.784858
O O16 0.500000 0.181692 0.000000
O O17 0.500000 0.588352 0.500000
O O18 0.500000 0.365164 0.500000
#
# Coordination Sequence:
#
# PCOD8051670 Si02
#       8
#     4   4   2   4   4   4   4   4
#     4  11  25  43  71 102 135 185 223 289 336 411
#     4  11  21  45  70  98 133 183 222 270 338 412
#     4  12  24  46  68 100 140 172 234 280 348 408
#     4  11  25  44  69  99 136 176 229 277 340 415
#     4  11  23  43  70 101 138 176 232 275 337 411
#     4  12  27  46  70 103 133 182 225 290 346 415
#     4  11  24  47  68  96 143 175 231 277 347 404
#     4  11  25  43  68 102 138 175 222 286 336 401
#
# _framework density 21.202228000000002
#
# number of rings (size 3 to 8) (size 9 to 14) (size 15 to 20)
#    0.000    0.800    6.000    1.200    2.800    5.333 
#    4.800    0.000    0.000    0.000    0.000    0.000 
#    0.000    0.000    0.000    0.000    0.000    0.000 
#
# Total GULP energy -185879.896514 kJ/mol
# GULP energy per Si atom -12391.993101 kJ/mol
# Density = 2.115397 g / cm^3
# Si number density = 21.202228 Si / 1000 Ang^3
#
#
#
# Elastic Constant Matrix: (Units=GPa)
#
#
# Indices 1 2 3 4 5 6 
#
# 1 71.6419 25.2692 17.2363 0.0000 12.0579 0.0000
# 2 25.2692 111.8029 43.7884 0.0000 3.2007 0.0000
# 3 17.2363 43.7884 163.5686 0.0000 21.5292 0.0000
# 4 0.0000 0.0000 0.0000 21.5323 0.0000 8.7475
# 5 12.0579 3.2007 21.5292 0.0000 38.4279 0.0000
# 6 0.0000 0.0000 0.0000 8.7475 0.0000 24.6260
#
#
#
# Elastic Compliance Matrix: (Units=1/GPa)
#
#
# Indices 1 2 3 4 5 6 
#
# 1 0.015983 -0.003418 -0.000158 0.000000 -0.004642 0.000000
# 2 -0.003418 0.010741 -0.002741 0.000000 0.001713 0.000000
# 3 -0.000158 -0.002741 0.007371 0.000000 -0.003852 0.000000
# 4 0.000000 0.000000 0.000000 0.054274 0.000000 -0.019279
# 5 -0.004642 0.001713 -0.003852 0.000000 0.029494 0.000000
# 6 0.000000 0.000000 0.000000 -0.019279 0.000000 0.047456
#
#
# Mechanical properties :
#
#
# Convention : Reuss Voigt Hill
#
# Bulk Modulus (GPa) = 46.59448 57.73346 52.16397
# Shear Modulus (GPa) = 27.01143 34.29853 30.65498
#
# Velocity S-wave (km/s) = 3.57317 4.02641 3.80654
# Velocity P-wave (km/s) = 6.24879 6.99321 6.63145
#
# Compressibility (1/GPa) = 0.02146177
#
# Stress axis : x y z
#
# Youngs Moduli (GPa) = 62.56615 93.09988 135.66607
#
# Poissons Ratio (x) = 0.31817 0.02149
# Poissons Ratio (y) = 0.21382 0.37184
# Poissons Ratio (z) = 0.00991 0.25517
#
# Static dielectric constant tensor:
#      x y z
#    x 3.820690 0.000000 0.242950 
#    y 0.000000 3.631520 0.000000 
#    z 0.242950 0.000000 4.038950 
# 
# 
# High freq. dielectric constant tensor:
#      x y z
#    x 1.833940 0.000000 0.012500 
#    y 0.000000 1.814200 0.000000 
#    z 0.012500 0.000000 1.855870 
# 
# From -- ./inp_files/3969.got.cif
#   From: 2010.03.12/outbox.cif.g09.slc.cpg/sg5_2_cif.got.tgz:3969.got - 2010.03.31 09:47:26.
