data_PCOD8051513
_publ_section_title
;
Structure prediction by ZEFSAII (Michael W. Deem and Ramdas Pophale) SiO2 
 PCOD8051513
Probable space group: C 2
;
_chemical_formula_sum "Si O2"
_cell_formula_units_Z 14
_cell_length_a 9.370419
_cell_length_b 7.855585
_cell_length_c 8.641733
_cell_angle_alpha 90.000000
_cell_angle_beta 113.383513
_cell_angle_gamma 90.000000
_cell_volume 583.873853
_symmetry_space_group_name_H-M "C 2"
_symmetry_group_IT_number 5
_symmetry_cell_setting 'monoclinic'
loop_
_space_group_symop_operation_xyz
x,y,z
-x,y,-z
1/2+x,1/2+y,z
1/2-x,1/2+y,-z
loop_
_atom_site_type_symbol
_atom_site_label
_atom_site_fract_x
_atom_site_fract_y
_atom_site_fract_z
Si Si1 0.226348 0.645280 0.713965
Si Si2 0.818723 0.273344 0.436870
Si Si3 0.037052 0.613092 0.180273
Si Si4 0.500000 0.785345 0.000000
O O1 0.225667 0.456621 0.646860
O O2 0.266630 0.774192 0.593501
O O3 0.059881 0.691654 0.718253
O O4 0.352034 0.664286 0.907382
O O5 0.719356 0.134264 0.297369
O O6 0.000000 0.228170 0.500000
O O7 0.985340 0.412951 0.142749
O O8 0.000000 0.705606 0.000000
#
# Coordination Sequence:
#
# PCOD8051513 Si02
#       4
#     4   4   4   2
#     4  12  26  47  75 107 146 191 238 297 358 427
#     4  12  27  47  73 110 146 190 240 292 362 428
#     4  10  27  47  76 107 143 187 241 297 357 423
#     4  10  26  44  78 108 144 182 244 296 358 422
#
# _framework density 23.977778000000001
#
# number of rings (size 3 to 8) (size 9 to 14) (size 15 to 20)
#    0.857    0.000    0.000    6.000   10.000    4.571 
#    0.000    1.429    0.000    0.000    0.000    0.000 
#    0.000    0.000    0.000    0.000    0.000    0.000 
#
# Total GULP energy -86751.581148 kJ/mol
# GULP energy per Si atom -12393.083021 kJ/mol
# Density = 2.392320 g / cm^3
# Si number density = 23.977778 Si / 1000 Ang^3
#
#
#
# Elastic Constant Matrix: (Units=GPa)
#
#
# Indices 1 2 3 4 5 6 
#
# 1 185.4824 61.7923 96.7821 0.0000 8.3648 0.0000
# 2 61.7923 83.2003 63.7622 0.0000 12.4864 0.0000
# 3 96.7821 63.7622 166.5141 0.0000 26.1489 0.0000
# 4 0.0000 0.0000 0.0000 65.5587 0.0000 8.5437
# 5 8.3648 12.4864 26.1489 0.0000 61.5267 0.0000
# 6 0.0000 0.0000 0.0000 8.5437 0.0000 16.8681
#
#
#
# Elastic Compliance Matrix: (Units=1/GPa)
#
#
# Indices 1 2 3 4 5 6 
#
# 1 0.008493 -0.003622 -0.003733 0.000000 0.001167 0.000000
# 2 -0.003622 0.018587 -0.004819 0.000000 -0.001232 0.000000
# 3 -0.003733 -0.004819 0.010487 0.000000 -0.002972 0.000000
# 4 0.000000 0.000000 0.000000 0.016331 0.000000 -0.008272
# 5 0.001167 -0.001232 -0.002972 0.000000 0.017607 0.000000
# 6 0.000000 0.000000 0.000000 -0.008272 0.000000 0.063473
#
#
# Mechanical properties :
#
#
# Convention : Reuss Voigt Hill
#
# Bulk Modulus (GPa) = 75.64321 97.76335 86.70328
# Shear Modulus (GPa) = 30.53754 42.98139 36.75947
#
# Velocity S-wave (km/s) = 3.57259 4.23845 3.91968
# Velocity P-wave (km/s) = 6.97378 8.05069 7.53151
#
# Compressibility (1/GPa) = 0.01321996
#
# Stress axis : x y z
#
# Youngs Moduli (GPa) = 117.74303 53.80040 95.35846
#
# Poissons Ratio (x) = 0.19488 0.35593
# Poissons Ratio (y) = 0.42651 0.45950
# Poissons Ratio (z) = 0.43948 0.25925
#
# Static dielectric constant tensor:
#      x y z
#    x 4.184770 0.000000 0.053140 
#    y 0.000000 3.980830 0.000000 
#    z 0.053140 0.000000 4.778180 
# 
# 
# High freq. dielectric constant tensor:
#      x y z
#    x 1.940650 0.000000 0.005580 
#    y 0.000000 1.926990 0.000000 
#    z 0.005580 0.000000 1.982270 
# 
# From -- ./inp_files/13494.got.cif
#   From: 2010.03.12/outbox.cif.g09.slc.cpg/sg5_7_cif.got.tgz:13494.got - 2010.03.31 09:47:26.
