data_PCOD8051797
_publ_section_title
;
Structure prediction by ZEFSAII (Michael W. Deem and Ramdas Pophale) SiO2 
 PCOD8051797
Probable space group: C 2
;
_chemical_formula_sum "Si O2"
_cell_formula_units_Z 26
_cell_length_a 9.504687
_cell_length_b 20.037503
_cell_length_c 8.544101
_cell_angle_alpha 90.000000
_cell_angle_beta 130.877133
_cell_angle_gamma 90.000000
_cell_volume 1230.369299
_symmetry_space_group_name_H-M "C 2"
_symmetry_group_IT_number 5
_symmetry_cell_setting 'monoclinic'
loop_
_space_group_symop_operation_xyz
x,y,z
-x,y,-z
1/2+x,1/2+y,z
1/2-x,1/2+y,-z
loop_
_atom_site_type_symbol
_atom_site_label
_atom_site_fract_x
_atom_site_fract_y
_atom_site_fract_z
Si Si1 0.138977 0.743320 0.326021
Si Si2 0.165699 0.891134 0.322107
Si Si3 0.500000 0.980141 0.000000
Si Si4 0.256557 0.735820 0.052354
Si Si5 0.070033 0.147286 0.373780
Si Si6 0.233246 0.385680 0.947250
Si Si7 0.312919 0.510044 0.450805
O O1 0.184124 0.818359 0.415055
O O2 0.197337 0.738309 0.188872
O O3 0.254349 0.695195 0.522316
O O4 0.923410 0.721385 0.186061
O O5 0.288276 0.896627 0.254136
O O6 0.253326 0.946246 0.499730
O O7 0.947093 0.902289 0.138810
O O8 0.394061 0.935113 0.048150
O O9 0.648718 0.026300 0.204076
O O10 0.408718 0.676087 0.140731
O O11 0.328713 0.809599 0.057421
O O12 0.000000 0.149509 0.500000
O O13 0.140922 0.071688 0.396991
O O14 0.500000 0.489074 0.500000
#
# Coordination Sequence:
#
# PCOD8051797 Si02
#       7
#     4   4   2   4   4   4   4
#     4   8  15  29  53  82 106 141 193 244 279 335
#     4   9  18  38  61  86 119 156 196 247 301 347
#     4  12  24  36  56  94 120 154 200 244 298 356
#     4   8  15  30  52  81 108 141 189 239 286 338
#     4   9  18  30  50  80 113 151 191 233 286 350
#     4   9  19  36  62  90 115 150 198 247 297 352
#     4  11  23  37  53  88 127 162 194 243 303 350
#
# _framework density 21.131865000000001
#
# number of rings (size 3 to 8) (size 9 to 14) (size 15 to 20)
#    0.000    2.769    1.538    1.846    2.154    4.308 
#    0.000    0.000    0.000    1.846   12.000    0.000 
#    0.000    0.000    0.000    0.000    0.000    0.000 
#
# Total GULP energy -161069.879008 kJ/mol
# GULP energy per Si atom -12389.990693 kJ/mol
# Density = 2.108377 g / cm^3
# Si number density = 21.131865 Si / 1000 Ang^3
#
#
#
# Elastic Constant Matrix: (Units=GPa)
#
#
# Indices 1 2 3 4 5 6 
#
# 1 57.1413 28.8752 17.8644 0.0000 10.4718 0.0000
# 2 28.8752 135.8629 52.9025 0.0000 13.5743 0.0000
# 3 17.8644 52.9025 83.0525 0.0000 20.8636 0.0000
# 4 0.0000 0.0000 0.0000 30.4257 0.0000 6.2497
# 5 10.4718 13.5743 20.8636 0.0000 19.6537 0.0000
# 6 0.0000 0.0000 0.0000 6.2497 0.0000 17.4923
#
#
#
# Elastic Compliance Matrix: (Units=1/GPa)
#
#
# Indices 1 2 3 4 5 6 
#
# 1 0.020895 -0.003554 -0.000069 0.000000 -0.008605 0.000000
# 2 -0.003554 0.010393 -0.006175 0.000000 0.001270 0.000000
# 3 -0.000069 -0.006175 0.020329 0.000000 -0.017279 0.000000
# 4 0.000000 0.000000 0.000000 0.035470 0.000000 -0.012673
# 5 -0.008605 0.001270 -0.017279 0.000000 0.072932 0.000000
# 6 0.000000 0.000000 0.000000 -0.012673 0.000000 0.061696
#
#
# Mechanical properties :
#
#
# Convention : Reuss Voigt Hill
#
# Bulk Modulus (GPa) = 31.22865 52.81565 42.02215
# Shear Modulus (GPa) = 19.84246 25.27532 22.55889
#
# Velocity S-wave (km/s) = 3.06761 3.46219 3.27085
# Velocity P-wave (km/s) = 5.23039 6.40546 5.84752
#
# Compressibility (1/GPa) = 0.03202187
#
# Stress axis : x y z
#
# Youngs Moduli (GPa) = 47.85808 96.21664 49.18995
#
# Poissons Ratio (x) = 0.34199 0.00338
# Poissons Ratio (y) = 0.17010 0.30374
# Poissons Ratio (z) = 0.00329 0.59412
#
# Static dielectric constant tensor:
#      x y z
#    x 3.569950 0.000000 0.384350 
#    y 0.000000 3.975050 0.000000 
#    z 0.384350 0.000000 3.929940 
# 
# 
# High freq. dielectric constant tensor:
#      x y z
#    x 1.793700 0.000000 0.031380 
#    y 0.000000 1.821190 0.000000 
#    z 0.031380 0.000000 1.817740 
# 
# From -- ./inp_files/16741.got.cif
#   From: 2010.03.12/outbox.cif.g09.slc.cpg/sg5_9_cif.got.tgz:16741.got - 2010.03.31 09:47:26.
