data_PCOD8051573
_publ_section_title
;
Structure prediction by ZEFSAII (Michael W. Deem and Ramdas Pophale) SiO2 
 PCOD8051573
Probable space group: C 2
;
_chemical_formula_sum "Si O2"
_cell_formula_units_Z 24
_cell_length_a 17.419750
_cell_length_b 10.840340
_cell_length_c 11.543746
_cell_angle_alpha 90.000000
_cell_angle_beta 152.943182
_cell_angle_gamma 90.000000
_cell_volume 991.568125
_symmetry_space_group_name_H-M "C 2"
_symmetry_group_IT_number 5
_symmetry_cell_setting 'monoclinic'
loop_
_space_group_symop_operation_xyz
x,y,z
-x,y,-z
1/2+x,1/2+y,z
1/2-x,1/2+y,-z
loop_
_atom_site_type_symbol
_atom_site_label
_atom_site_fract_x
_atom_site_fract_y
_atom_site_fract_z
Si Si1 0.337727 0.884460 0.848428
Si Si2 0.696539 0.653588 0.068761
Si Si3 0.085757 0.259279 0.449921
Si Si4 0.101567 0.654094 0.021239
Si Si5 0.157363 0.834708 0.386915
Si Si6 0.500000 0.522201 0.000000
Si Si7 0.000000 0.476768 0.500000
O O1 0.259023 0.795200 0.839865
O O2 0.197451 0.905484 0.560448
O O3 0.395737 0.007973 0.994512
O O4 0.500000 0.828679 0.000000
O O5 0.623075 0.604324 0.090195
O O6 0.853341 0.565544 0.251735
O O7 0.572505 0.667024 0.789859
O O8 0.205531 0.198858 0.708647
O O9 0.176923 0.270983 0.447088
O O10 0.040831 0.392462 0.443365
O O11 0.000000 0.689853 0.000000
O O12 0.991860 0.734092 0.781529
O O13 0.104424 0.938326 0.226793
#
# Coordination Sequence:
#
# PCOD8051573 Si02
#       7
#     4   4   4   4   4   2   2
#     4  11  22  37  66 107 142 172 227 299 354 405
#     4  12  25  46  69 104 139 188 237 296 352 418
#     4  11  22  47  68  93 140 187 237 281 349 421
#     4   9  20  38  64 106 131 170 228 284 352 410
#     4  11  19  39  71 106 139 173 223 297 358 409
#     4  12  20  42  76 104 136 182 236 300 360 410
#     4  12  28  50  66  98 148 200 234 284 354 422
#
# _framework density 24.204087999999999
#
# number of rings (size 3 to 8) (size 9 to 14) (size 15 to 20)
#    0.000    1.000    6.667    1.000    0.000    4.000 
#   12.000    0.000    0.000    0.000    0.000    0.000 
#    0.000    0.000    0.000    0.000    0.000    0.000 
#
# Total GULP energy -148691.155150 kJ/mol
# GULP energy per Si atom -12390.929596 kJ/mol
# Density = 2.414900 g / cm^3
# Si number density = 24.204088 Si / 1000 Ang^3
#
#
#
# Elastic Constant Matrix: (Units=GPa)
#
#
# Indices 1 2 3 4 5 6 
#
# 1 41.7480 28.9407 31.6728 0.0000 -9.2484 0.0000
# 2 28.9407 131.8214 60.1905 0.0000 5.5433 0.0000
# 3 31.6728 60.1905 148.2299 0.0000 -5.2686 0.0000
# 4 0.0000 0.0000 0.0000 32.9254 0.0000 16.9529
# 5 -9.2484 5.5433 -5.2686 0.0000 26.1708 0.0000
# 6 0.0000 0.0000 0.0000 16.9529 0.0000 11.1028
#
#
#
# Elastic Compliance Matrix: (Units=1/GPa)
#
#
# Indices 1 2 3 4 5 6 
#
# 1 0.034256 -0.006023 -0.004430 0.000000 0.012490 0.000000
# 2 -0.006023 0.010573 -0.003184 0.000000 -0.005009 0.000000
# 3 -0.004430 -0.003184 0.009019 0.000000 0.000925 0.000000
# 4 0.000000 0.000000 0.000000 0.142043 0.000000 -0.216886
# 5 0.012490 -0.005009 0.000925 0.000000 0.043871 0.000000
# 6 0.000000 0.000000 0.000000 -0.216886 0.000000 0.421230
#
#
# Mechanical properties :
#
#
# Convention : Reuss Voigt Hill
#
# Bulk Modulus (GPa) = 37.63207 62.60081 50.11644
# Shear Modulus (GPa) = 7.17231 27.43950 17.30590
#
# Velocity S-wave (km/s) = 1.72328 3.37066 2.67685
# Velocity P-wave (km/s) = 4.42054 6.40846 5.50497
#
# Compressibility (1/GPa) = 0.02657308
#
# Stress axis : x y z
#
# Youngs Moduli (GPa) = 29.19162 94.58024 110.88032
#
# Poissons Ratio (x) = 0.56969 0.49119
# Poissons Ratio (y) = 0.17583 0.35308
# Poissons Ratio (z) = 0.12932 0.30117
#
# Static dielectric constant tensor:
#      x y z
#    x 3.909690 0.000000 -0.042530 
#    y 0.000000 4.582570 0.000000 
#    z -0.042530 0.000000 4.636490 
# 
# 
# High freq. dielectric constant tensor:
#      x y z
#    x 1.918420 0.000000 -0.015040 
#    y 0.000000 1.971820 0.000000 
#    z -0.015040 0.000000 1.968750 
# 
# From -- ./inp_files/57069.got.cif
#   From: 2010.03.12/outbox.cif.g09.slc.cpg/sg5_29_cif.got.tgz:57069.got - 2010.03.31 09:47:26.
