data_PCOD8051991
_publ_section_title
;
Structure prediction by ZEFSAII (Michael W. Deem and Ramdas Pophale) SiO2 
 PCOD8051991
Probable space group: C 2
;
_chemical_formula_sum "Si O2"
_cell_formula_units_Z 24
_cell_length_a 9.974227
_cell_length_b 17.614598
_cell_length_c 9.433489
_cell_angle_alpha 90.000000
_cell_angle_beta 40.934006
_cell_angle_gamma 90.000000
_cell_volume 1085.903254
_symmetry_space_group_name_H-M "C 2"
_symmetry_group_IT_number 5
_symmetry_cell_setting 'monoclinic'
loop_
_space_group_symop_operation_xyz
x,y,z
-x,y,-z
1/2+x,1/2+y,z
1/2-x,1/2+y,-z
loop_
_atom_site_type_symbol
_atom_site_label
_atom_site_fract_x
_atom_site_fract_y
_atom_site_fract_z
Si Si1 0.595571 0.629020 0.573192
Si Si2 0.977741 0.995363 0.866457
Si Si3 0.566073 0.915538 0.103938
Si Si4 0.799958 0.372445 0.562670
Si Si5 0.381588 0.739965 0.952568
Si Si6 0.447545 0.221613 0.209256
O O1 0.500000 0.613646 0.500000
O O2 0.570443 0.552216 0.679256
O O3 0.832135 0.645118 0.348449
O O4 0.491913 0.701579 0.731217
O O5 0.121928 0.922464 0.772538
O O6 0.745777 0.971161 0.013781
O O7 0.000000 0.037815 0.000000
O O8 0.365525 0.914439 0.364259
O O9 0.500000 0.941777 0.000000
O O10 0.643459 0.829516 0.046527
O O11 0.698399 0.290274 0.623315
O O12 0.000000 0.365461 0.500000
O O13 0.148618 0.712831 0.144217
O O14 0.500000 0.717165 0.000000
O O15 0.500000 0.226352 0.000000
#
# Coordination Sequence:
#
# PCOD8051991 Si02
#       6
#     4   4   4   4   4   4
#     4  12  27  47  72 106 143 189 244 291 360 433
#     4  12  27  49  72 104 144 188 236 301 357 426
#     4  11  25  45  75 109 143 180 237 299 355 421
#     4  12  23  44  79 109 133 187 246 293 357 427
#     4  11  24  47  73 109 143 182 240 301 353 423
#     4  12  23  45  80 106 139 191 242 298 353 425
#
# _framework density 22.101417999999999
#
# number of rings (size 3 to 8) (size 9 to 14) (size 15 to 20)
#    0.000    0.333    6.667    2.500    2.333    2.000 
#    3.000    0.000    0.000    0.000    0.000    0.000 
#    0.000    0.000    0.000    0.000    0.000    0.000 
#
# Total GULP energy -148764.118328 kJ/mol
# GULP energy per Si atom -12397.009861 kJ/mol
# Density = 2.205111 g / cm^3
# Si number density = 22.101418 Si / 1000 Ang^3
#
#
#
# Elastic Constant Matrix: (Units=GPa)
#
#
# Indices 1 2 3 4 5 6 
#
# 1 167.0882 47.7901 57.2526 -0.0003 0.7461 0.0003
# 2 47.7901 76.7389 43.5371 -0.0001 1.1774 0.0001
# 3 57.2526 43.5371 118.2581 -0.0002 -2.1167 0.0003
# 4 -0.0003 -0.0001 -0.0002 48.5074 0.0002 4.1014
# 5 0.7461 1.1774 -2.1167 0.0002 47.9075 -0.0002
# 6 0.0003 0.0001 0.0003 4.1014 -0.0002 23.2397
#
#
#
# Elastic Compliance Matrix: (Units=1/GPa)
#
#
# Indices 1 2 3 4 5 6 
#
# 1 0.007837 -0.003443 -0.002529 0.000000 -0.000149 0.000000
# 2 -0.003443 0.018006 -0.004973 0.000000 -0.000609 0.000000
# 3 -0.002529 -0.004973 0.011523 0.000000 0.000671 0.000000
# 4 0.000000 0.000000 0.000000 0.020928 0.000000 -0.003693
# 5 -0.000149 -0.000609 0.000671 0.000000 0.020920 0.000000
# 6 0.000000 0.000000 0.000000 -0.003693 0.000000 0.043682
#
#
# Mechanical properties :
#
#
# Convention : Reuss Voigt Hill
#
# Bulk Modulus (GPa) = 64.61731 73.24943 68.93337
# Shear Modulus (GPa) = 33.34535 38.16461 35.75498
#
# Velocity S-wave (km/s) = 3.88847 4.15998 4.02651
# Velocity P-wave (km/s) = 7.03281 7.50255 7.27148
#
# Compressibility (1/GPa) = 0.01547573
#
# Stress axis : x y z
#
# Youngs Moduli (GPa) = 127.59972 55.53607 86.78069
#
# Poissons Ratio (x) = 0.19124 0.21948
# Poissons Ratio (y) = 0.43938 0.43155
# Poissons Ratio (z) = 0.32271 0.27618
#
# Static dielectric constant tensor:
#      x y z
#    x 3.988440 0.000000 -0.048730 
#    y 0.000000 3.815840 0.000000 
#    z -0.048730 0.000000 4.229700 
# 
# 
# High freq. dielectric constant tensor:
#      x y z
#    x 1.876640 0.000000 -0.002580 
#    y 0.000000 1.864250 0.000000 
#    z -0.002580 0.000000 1.887710 
# 
# From -- ./inp_files/16671.got.cif
#   From: 2010.03.12/outbox.cif.g09.slc.cpg/sg5_9_cif.got.tgz:16671.got - 2010.03.31 09:47:26.
