data_PCOD8051360
_publ_section_title
;
Structure prediction by ZEFSAII (Michael W. Deem and Ramdas Pophale) SiO2 
 PCOD8051360
Probable space group: C 2
;
_chemical_formula_sum "Si O2"
_cell_formula_units_Z 26
_cell_length_a 7.970571
_cell_length_b 20.528842
_cell_length_c 9.040823
_cell_angle_alpha 90.000000
_cell_angle_beta 130.083436
_cell_angle_gamma 90.000000
_cell_volume 1131.838232
_symmetry_space_group_name_H-M "C 2"
_symmetry_group_IT_number 5
_symmetry_cell_setting 'monoclinic'
loop_
_space_group_symop_operation_xyz
x,y,z
-x,y,-z
1/2+x,1/2+y,z
1/2-x,1/2+y,-z
loop_
_atom_site_type_symbol
_atom_site_label
_atom_site_fract_x
_atom_site_fract_y
_atom_site_fract_z
Si Si1 0.614118 0.129810 0.811624
Si Si2 0.000000 0.547462 0.500000
Si Si3 0.195167 0.212630 0.504586
Si Si4 0.500000 0.034115 0.000000
Si Si5 0.248455 0.357474 0.591476
Si Si6 0.610578 0.747861 0.925416
Si Si7 0.500000 0.330747 0.000000
Si Si8 0.264304 0.473120 0.401248
O O1 0.672013 0.089082 0.696813
O O2 0.370632 0.156036 0.631544
O O3 0.625700 0.082540 0.960222
O O4 0.779016 0.187211 0.931550
O O5 0.849508 0.505171 0.522200
O O6 0.308355 0.281816 0.604183
O O7 0.000000 0.193785 0.500000
O O8 0.091393 0.219789 0.283815
O O9 0.361045 0.983631 0.823209
O O10 0.414401 0.377767 0.819482
O O11 0.290427 0.397118 0.463837
O O12 0.000000 0.367504 0.500000
O O13 0.788456 0.787369 0.929869
O O14 0.500000 0.788596 0.000000
O O15 0.500000 0.503903 0.500000
#
# Coordination Sequence:
#
# PCOD8051360 Si02
#       8
#     4   2   4   2   4   4   2   4
#     4  11  22  42  67 103 144 186 228 298 352 427
#     4  10  24  46  70  98 148 182 238 298 346 416
#     4  11  21  40  70 104 142 188 226 292 366 424
#     4  10  25  44  74 102 142 185 246 298 344 430
#     4  11  23  45  74  97 143 185 237 296 355 422
#     4  12  24  38  66 106 140 182 232 276 354 440
#     4  12  23  46  66 104 142 193 222 294 370 416
#     4  11  26  50  73 104 135 194 244 300 352 415
#
# _framework density 22.97148
#
# number of rings (size 3 to 8) (size 9 to 14) (size 15 to 20)
#    0.000    0.923    5.385    2.308    0.000    8.615 
#    2.769    0.000    0.000    0.000    0.000    0.000 
#    0.000    0.000    0.000    0.000    0.000    0.000 
#
# Total GULP energy -161070.753807 kJ/mol
# GULP energy per Si atom -12390.057985 kJ/mol
# Density = 2.291920 g / cm^3
# Si number density = 22.971480 Si / 1000 Ang^3
#
#
#
# Elastic Constant Matrix: (Units=GPa)
#
#
# Indices 1 2 3 4 5 6 
#
# 1 104.9819 30.7803 55.6540 0.0000 -15.6995 0.0000
# 2 30.7803 62.9196 39.0897 0.0000 -4.1585 0.0000
# 3 55.6540 39.0897 175.3334 0.0000 -12.1515 0.0000
# 4 0.0000 0.0000 0.0000 43.2320 0.0000 -1.2535
# 5 -15.6995 -4.1585 -12.1515 0.0000 39.1250 0.0000
# 6 0.0000 0.0000 0.0000 -1.2535 0.0000 3.2480
#
#
#
# Elastic Compliance Matrix: (Units=1/GPa)
#
#
# Indices 1 2 3 4 5 6 
#
# 1 0.012867 -0.004259 -0.002870 0.000000 0.003819 0.000000
# 2 -0.004259 0.019877 -0.003119 0.000000 -0.000565 0.000000
# 3 -0.002870 -0.003119 0.007365 0.000000 0.000804 0.000000
# 4 0.000000 0.000000 0.000000 0.023393 0.000000 0.009028
# 5 0.003819 -0.000565 0.000804 0.000000 0.027281 0.000000
# 6 0.000000 0.000000 0.000000 0.009028 0.000000 0.311364
#
#
# Mechanical properties :
#
#
# Convention : Reuss Voigt Hill
#
# Bulk Modulus (GPa) = 50.98447 66.03144 58.50795
# Shear Modulus (GPa) = 11.65011 31.63507 21.64259
#
# Velocity S-wave (km/s) = 2.25445 3.71502 3.07278
# Velocity P-wave (km/s) = 5.38699 6.87089 6.17369
#
# Compressibility (1/GPa) = 0.01961381
#
# Stress axis : x y z
#
# Youngs Moduli (GPa) = 77.71995 50.30924 135.76896
#
# Poissons Ratio (x) = 0.21427 0.38965
# Poissons Ratio (y) = 0.33101 0.42343
# Poissons Ratio (z) = 0.22305 0.15690
#
# Static dielectric constant tensor:
#      x y z
#    x 4.202320 0.000000 -0.217390 
#    y 0.000000 4.114350 0.000000 
#    z -0.217390 0.000000 4.697890 
# 
# 
# High freq. dielectric constant tensor:
#      x y z
#    x 1.905620 0.000000 -0.014560 
#    y 0.000000 1.888980 0.000000 
#    z -0.014560 0.000000 1.933530 
# 
# From -- ./inp_files/17113.got.cif
#   From: 2010.03.12/outbox.cif.g09.slc.cpg/sg5_9_cif.got.tgz:17113.got - 2010.03.31 09:47:26.
