data_PCOD8051798
_publ_section_title
;
Structure prediction by ZEFSAII (Michael W. Deem and Ramdas Pophale) SiO2 
 PCOD8051798
Probable space group: C 2
;
_chemical_formula_sum "Si O2"
_cell_formula_units_Z 28
_cell_length_a 17.470727
_cell_length_b 6.529926
_cell_length_c 16.386099
_cell_angle_alpha 90.000000
_cell_angle_beta 50.817174
_cell_angle_gamma 90.000000
_cell_volume 1449.010533
_symmetry_space_group_name_H-M "C 2"
_symmetry_group_IT_number 5
_symmetry_cell_setting 'monoclinic'
loop_
_space_group_symop_operation_xyz
x,y,z
-x,y,-z
1/2+x,1/2+y,z
1/2-x,1/2+y,-z
loop_
_atom_site_type_symbol
_atom_site_label
_atom_site_fract_x
_atom_site_fract_y
_atom_site_fract_z
Si Si1 0.500000 0.291021 0.500000
Si Si2 0.366629 0.932248 0.551104
Si Si3 0.522766 0.836044 0.685207
Si Si4 0.111236 0.093076 0.323497
Si Si5 0.500000 0.007600 0.000000
Si Si6 0.550776 0.148790 0.799509
Si Si7 0.843022 0.047434 0.305927
Si Si8 0.187789 0.378359 0.796807
O O1 0.522381 0.439058 0.408012
O O2 0.400747 0.155967 0.559415
O O3 0.444311 0.892394 0.427613
O O4 0.370086 0.757653 0.617322
O O5 0.255699 0.947144 0.589907
O O6 0.422324 0.705336 0.738025
O O7 0.612359 0.710829 0.663192
O O8 0.497927 0.032339 0.758980
O O9 0.209164 0.960761 0.237009
O O10 0.399574 0.872767 0.075835
O O11 0.514722 0.140990 0.073088
O O12 0.570526 0.383196 0.765279
O O13 0.655209 0.036174 0.747015
O O14 0.807890 0.150027 0.243929
#
# Coordination Sequence:
#
# PCOD8051798 Si02
#       8
#     2   4   4   4   2   4   4   4
#     4  12  22  36  60  84 126 174 212 230 298 374
#     4  12  23  37  57  88 127 173 202 236 306 373
#     4  11  25  35  56  94 129 156 200 260 303 364
#     4  12  22  40  60  89 127 168 206 248 301 380
#     4   8  18  44  68  82 116 156 212 266 306 368
#     4   9  21  40  60  88 119 151 208 259 309 359
#     4  11  23  37  62  92 121 168 205 256 302 371
#     4   9  20  39  65  89 114 158 217 250 301 373
#
# _framework density 19.323532
#
# number of rings (size 3 to 8) (size 9 to 14) (size 15 to 20)
#    0.857    0.571    5.714    0.000    4.000    0.571 
#    0.000    0.000    3.143    0.000    0.000    0.000 
#    0.000    0.000    0.000    0.000    0.000    0.000 
#
# Total GULP energy -173442.232657 kJ/mol
# GULP energy per Si atom -12388.730904 kJ/mol
# Density = 1.927955 g / cm^3
# Si number density = 19.323532 Si / 1000 Ang^3
#
#
#
# Elastic Constant Matrix: (Units=GPa)
#
#
# Indices 1 2 3 4 5 6 
#
# 1 91.2678 31.8125 34.0980 0.0013 -2.6580 -0.0008
# 2 31.8125 92.3348 24.3468 0.0023 0.6980 -0.0012
# 3 34.0980 24.3468 74.9648 0.0004 -8.5596 -0.0005
# 4 0.0013 0.0023 0.0004 18.6455 -0.0010 1.0949
# 5 -2.6580 0.6980 -8.5596 -0.0010 24.4328 0.0012
# 6 -0.0008 -0.0012 -0.0005 1.0949 0.0012 37.2883
#
#
#
# Elastic Compliance Matrix: (Units=1/GPa)
#
#
# Indices 1 2 3 4 5 6 
#
# 1 0.014153 -0.003467 -0.005338 0.000000 -0.000231 0.000000
# 2 -0.003467 0.012767 -0.002765 -0.000001 -0.001710 0.000000
# 3 -0.005338 -0.002765 0.017300 0.000001 0.005559 0.000000
# 4 0.000000 -0.000001 0.000001 0.053725 0.000002 -0.001578
# 5 -0.000231 -0.001710 0.005559 0.000002 0.042900 -0.000001
# 6 0.000000 0.000000 0.000000 -0.001578 -0.000001 0.026864
#
#
# Mechanical properties :
#
#
# Convention : Reuss Voigt Hill
#
# Bulk Modulus (GPa) = 47.43686 48.78688 48.11187
# Shear Modulus (GPa) = 25.26856 27.29397 26.28127
#
# Velocity S-wave (km/s) = 3.62008 3.76237 3.69191
# Velocity P-wave (km/s) = 6.48655 6.64651 6.56702
#
# Compressibility (1/GPa) = 0.02108065
#
# Stress axis : x y z
#
# Youngs Moduli (GPa) = 70.65789 78.32990 57.80280
#
# Poissons Ratio (x) = 0.27156 0.30854
# Poissons Ratio (y) = 0.24496 0.15980
# Poissons Ratio (z) = 0.37716 0.21655
#
# Static dielectric constant tensor:
#      x y z
#    x 3.387950 0.000000 -0.004830 
#    y 0.000000 3.597840 0.000000 
#    z -0.004830 0.000000 3.227970 
# 
# 
# High freq. dielectric constant tensor:
#      x y z
#    x 1.741170 0.000000 -0.004380 
#    y 0.000000 1.759120 0.000000 
#    z -0.004380 0.000000 1.720360 
# 
# From -- ./inp_files/55253.got.cif
#   From: 2010.03.12/outbox.cif.g09.slc.cpg/sg5_28_cif.got.tgz:55253.got - 2010.03.31 09:47:26.
