data_PCOD8051855
_publ_section_title
;
Structure prediction by ZEFSAII (Michael W. Deem and Ramdas Pophale) SiO2 
 PCOD8051855
Probable space group: C 2
;
_chemical_formula_sum "Si O2"
_cell_formula_units_Z 24
_cell_length_a 10.058238
_cell_length_b 9.075427
_cell_length_c 12.543161
_cell_angle_alpha 90.000000
_cell_angle_beta 88.551059
_cell_angle_gamma 90.000000
_cell_volume 1144.608817
_symmetry_space_group_name_H-M "C 2"
_symmetry_group_IT_number 5
_symmetry_cell_setting 'monoclinic'
loop_
_space_group_symop_operation_xyz
x,y,z
-x,y,-z
1/2+x,1/2+y,z
1/2-x,1/2+y,-z
loop_
_atom_site_type_symbol
_atom_site_label
_atom_site_fract_x
_atom_site_fract_y
_atom_site_fract_z
Si Si1 0.617845 0.461470 0.563760
Si Si2 0.374429 0.770000 0.552923
Si Si3 0.240888 0.436860 0.079498
Si Si4 0.249321 0.775941 0.137774
Si Si5 0.505995 0.432254 0.800280
Si Si6 0.965951 0.249689 0.789779
O O1 0.500000 0.383662 0.500000
O O2 0.645004 0.622755 0.516066
O O3 0.747533 0.368360 0.543183
O O4 0.577894 0.466921 0.687425
O O5 0.500000 0.857569 0.500000
O O6 0.405229 0.733894 0.674061
O O7 0.235158 0.612493 0.091498
O O8 0.379771 0.372275 0.122880
O O9 0.114649 0.369988 0.142726
O O10 0.232634 0.393274 0.956848
O O11 0.376770 0.791890 0.213106
O O12 0.114626 0.815759 0.205748
O O13 0.449729 0.588817 0.844985
#
# Coordination Sequence:
#
# PCOD8051855 Si02
#       6
#     4   4   4   4   4   4
#     4  11  24  44  68  96 134 173 223 271 333 392
#     4  11  24  45  67  96 134 173 224 275 328 396
#     4  11  24  45  67  99 136 175 226 273 330 396
#     4  11  26  42  71  98 135 176 225 272 334 396
#     4  11  23  44  66  97 135 175 216 276 331 391
#     4  11  23  44  67  96 136 174 220 275 332 389
#
# _framework density 20.967860000000002
#
# number of rings (size 3 to 8) (size 9 to 14) (size 15 to 20)
#    0.000    1.000    5.000    2.000    2.333    7.333 
#    3.000    0.000    0.000    0.000    0.000    0.000 
#    0.000    0.000    0.000    0.000    0.000    0.000 
#
# Total GULP energy -148782.809507 kJ/mol
# GULP energy per Si atom -12398.567459 kJ/mol
# Density = 2.092014 g / cm^3
# Si number density = 20.967860 Si / 1000 Ang^3
#
#
#
# Elastic Constant Matrix: (Units=GPa)
#
#
# Indices 1 2 3 4 5 6 
#
# 1 169.0448 77.1379 21.7273 0.0000 -3.0711 0.0000
# 2 77.1379 94.5928 33.9252 0.0000 -6.5688 0.0000
# 3 21.7273 33.9252 74.8294 0.0000 -9.0627 0.0000
# 4 0.0000 0.0000 0.0000 22.6321 0.0000 -3.1214
# 5 -3.0711 -6.5688 -9.0627 0.0000 33.5711 0.0000
# 6 0.0000 0.0000 0.0000 -3.1214 0.0000 40.8935
#
#
#
# Elastic Compliance Matrix: (Units=1/GPa)
#
#
# Indices 1 2 3 4 5 6 
#
# 1 0.009479 -0.008067 0.000847 0.000000 -0.000483 0.000000
# 2 -0.008067 0.019520 -0.006341 0.000000 0.001369 0.000000
# 3 0.000847 -0.006341 0.016388 0.000000 0.003261 0.000000
# 4 0.000000 0.000000 0.000000 0.044655 0.000000 0.003409
# 5 -0.000483 0.001369 0.003261 0.000000 0.030892 0.000000
# 6 0.000000 0.000000 0.000000 0.003409 0.000000 0.024714
#
#
# Mechanical properties :
#
#
# Convention : Reuss Voigt Hill
#
# Bulk Modulus (GPa) = 54.75639 67.11640 60.93639
# Shear Modulus (GPa) = 27.95505 33.13110 30.54307
#
# Velocity S-wave (km/s) = 3.65531 3.97935 3.82076
# Velocity P-wave (km/s) = 6.63221 7.29330 6.97060
#
# Compressibility (1/GPa) = 0.01826271
#
# Stress axis : x y z
#
# Youngs Moduli (GPa) = 105.49421 51.23063 61.02108
#
# Poissons Ratio (x) = 0.41329 -0.05166
# Poissons Ratio (y) = 0.85104 0.38695
# Poissons Ratio (z) = -0.08931 0.32487
#
# Static dielectric constant tensor:
#      x y z
#    x 4.284150 0.000000 0.025690 
#    y 0.000000 3.806750 0.000000 
#    z 0.025690 0.000000 3.835110 
# 
# 
# High freq. dielectric constant tensor:
#      x y z
#    x 1.841260 0.000000 0.005490 
#    y 0.000000 1.811460 0.000000 
#    z 0.005490 0.000000 1.827250 
# 
# From -- ./inp_files/38358.got.cif
#   From: 2010.03.12/outbox.cif.g09.slc.cpg/sg5_20_cif.got.tgz:38358.got - 2010.03.31 09:47:26.
