data_PCOD8051103
_publ_section_title
;
Structure prediction by ZEFSAII (Michael W. Deem and Ramdas Pophale) SiO2 
 PCOD8051103
Probable space group: C 2
;
_chemical_formula_sum "Si O2"
_cell_formula_units_Z 30
_cell_length_a 11.596346
_cell_length_b 17.165543
_cell_length_c 11.090780
_cell_angle_alpha 90.000000
_cell_angle_beta 141.569939
_cell_angle_gamma 90.000000
_cell_volume 1372.217868
_symmetry_space_group_name_H-M "C 2"
_symmetry_group_IT_number 5
_symmetry_cell_setting 'monoclinic'
loop_
_space_group_symop_operation_xyz
x,y,z
-x,y,-z
1/2+x,1/2+y,z
1/2-x,1/2+y,-z
loop_
_atom_site_type_symbol
_atom_site_label
_atom_site_fract_x
_atom_site_fract_y
_atom_site_fract_z
Si Si1 0.333138 0.944360 0.165254
Si Si2 0.205101 0.803701 0.204104
Si Si3 0.284452 0.235373 0.523979
Si Si4 0.137520 0.211600 0.869289
Si Si5 0.000000 0.827130 0.500000
Si Si6 0.181353 0.345184 0.074665
Si Si7 0.478761 0.563410 0.112252
Si Si8 0.110734 0.575032 0.471510
O O1 0.334860 0.876768 0.269784
O O2 0.500426 0.003885 0.322821
O O3 0.367934 0.911002 0.061553
O O4 0.131237 0.983709 0.998609
O O5 0.212432 0.784462 0.350676
O O6 0.270580 0.726154 0.185975
O O7 0.000000 0.827364 0.000000
O O8 0.396067 0.275767 0.511267
O O9 0.368686 0.147631 0.604756
O O10 0.076764 0.234319 0.306116
O O11 0.148165 0.120011 0.908952
O O12 0.243081 0.265774 0.054539
O O13 0.153042 0.875875 0.701538
O O14 0.000000 0.324976 0.000000
O O15 0.682522 0.543827 0.329994
O O16 0.500000 0.605895 0.000000
O O17 0.000000 0.602607 0.500000
#
# Coordination Sequence:
#
# PCOD8051103 Si02
#       8
#     4   4   4   4   2   4   4   4
#     4  11  26  45  68 101 142 183 231 289 359 421
#     4  11  25  44  68 107 144 187 237 291 362 422
#     4  11  23  43  71 105 134 179 240 292 349 419
#     4  10  23  43  71  99 138 182 234 294 346 416
#     4  12  24  40  74 100 138 176 240 286 342 430
#     4  11  24  45  66 101 135 186 228 287 354 414
#     4  11  23  41  67 100 136 179 237 289 344 424
#     4  11  24  41  70 100 134 183 233 288 355 413
#
# _framework density 21.862418000000002
#
# number of rings (size 3 to 8) (size 9 to 14) (size 15 to 20)
#    0.000    1.067    3.333    2.800    5.600    3.200 
#    2.400    0.000    0.000    0.000    0.000    0.000 
#    0.000    0.000    0.000    0.000    0.000    0.000 
#
# Total GULP energy -185956.365778 kJ/mol
# GULP energy per Si atom -12397.091052 kJ/mol
# Density = 2.181266 g / cm^3
# Si number density = 21.862418 Si / 1000 Ang^3
#
#
#
# Elastic Constant Matrix: (Units=GPa)
#
#
# Indices 1 2 3 4 5 6 
#
# 1 109.1362 39.6659 26.3258 0.0000 -21.8283 0.0000
# 2 39.6659 103.7290 43.3416 0.0000 -13.7678 0.0000
# 3 26.3258 43.3416 111.1079 0.0000 -9.8203 0.0000
# 4 0.0000 0.0000 0.0000 56.2708 0.0000 1.2606
# 5 -21.8283 -13.7678 -9.8203 0.0000 36.9531 0.0000
# 6 0.0000 0.0000 0.0000 1.2606 0.0000 16.6107
#
#
#
# Elastic Compliance Matrix: (Units=1/GPa)
#
#
# Indices 1 2 3 4 5 6 
#
# 1 0.011697 -0.003342 -0.000990 0.000000 0.005401 0.000000
# 2 -0.003342 0.012848 -0.004067 0.000000 0.001732 0.000000
# 3 -0.000990 -0.004067 0.010891 0.000000 0.000794 0.000000
# 4 0.000000 0.000000 0.000000 0.017801 0.000000 -0.001351
# 5 0.005401 0.001732 0.000794 0.000000 0.031108 0.000000
# 6 0.000000 0.000000 0.000000 -0.001351 0.000000 0.060305
#
#
# Mechanical properties :
#
#
# Convention : Reuss Voigt Hill
#
# Bulk Modulus (GPa) = 53.65561 60.29330 56.97446
# Shear Modulus (GPa) = 29.82213 36.27624 33.04918
#
# Velocity S-wave (km/s) = 3.69735 4.07787 3.89226
# Velocity P-wave (km/s) = 6.54392 7.05765 6.80563
#
# Compressibility (1/GPa) = 0.01863738
#
# Stress axis : x y z
#
# Youngs Moduli (GPa) = 85.49418 77.83548 91.81494
#
# Poissons Ratio (x) = 0.26014 0.09093
# Poissons Ratio (y) = 0.28574 0.37339
# Poissons Ratio (z) = 0.08467 0.31653
#
# Static dielectric constant tensor:
#      x y z
#    x 3.514470 0.000000 -0.002360 
#    y 0.000000 3.821920 0.000000 
#    z -0.002360 0.000000 4.218920 
# 
# 
# High freq. dielectric constant tensor:
#      x y z
#    x 1.865040 0.000000 0.009790 
#    y 0.000000 1.840240 0.000000 
#    z 0.009790 0.000000 1.871710 
# 
# From -- ./inp_files/40471.got.cif
#   From: 2010.03.12/outbox.cif.g09.slc.cpg/sg5_21_cif.got.tgz:40471.got - 2010.03.31 09:47:26.
