data_PCOD8051403
_publ_section_title
;
Structure prediction by ZEFSAII (Michael W. Deem and Ramdas Pophale) SiO2 
 PCOD8051403
Probable space group: C 2
;
_chemical_formula_sum "Si O2"
_cell_formula_units_Z 16
_cell_length_a 23.549940
_cell_length_b 4.773389
_cell_length_c 9.836860
_cell_angle_alpha 90.000000
_cell_angle_beta 35.418012
_cell_angle_gamma 90.000000
_cell_volume 640.847342
_symmetry_space_group_name_H-M "C 2"
_symmetry_group_IT_number 5
_symmetry_cell_setting 'monoclinic'
loop_
_space_group_symop_operation_xyz
x,y,z
-x,y,-z
1/2+x,1/2+y,z
1/2-x,1/2+y,-z
loop_
_atom_site_type_symbol
_atom_site_label
_atom_site_fract_x
_atom_site_fract_y
_atom_site_fract_z
Si Si1 0.688211 0.713930 0.660719
Si Si2 0.690407 0.002557 0.078961
Si Si3 0.000000 0.529308 0.000000
Si Si4 0.000000 0.769303 0.500000
Si Si5 0.097790 0.853524 0.049842
O O1 0.727619 0.450672 0.496322
O O2 0.591371 0.835177 0.776021
O O3 0.659489 0.612859 0.869233
O O4 0.592125 0.066993 0.357551
O O5 0.672618 0.112366 0.958696
O O6 0.782468 0.174407 0.966324
O O7 0.970461 0.724171 0.932746
O O8 0.971143 0.957019 0.689069
#
# Coordination Sequence:
#
# PCOD8051403 Si02
#       5
#     4   4   2   2   4
#     4  12  27  50  75 115 159 208 258 319 388 468
#     4  10  24  48  74 108 151 197 250 309 381 458
#     4  12  26  52  76 122 160 204 260 328 390 474
#     4   8  24  50  76 112 156 190 262 312 388 460
#     4  10  25  52  78 119 153 205 260 319 403 452
#
# _framework density 24.966947999999999
#
# number of rings (size 3 to 8) (size 9 to 14) (size 15 to 20)
#    1.500    0.000    2.500    0.750    3.500    3.000 
#   13.500    0.000    0.000    0.000    0.000    0.000 
#    0.000    0.000    0.000    0.000    0.000    0.000 
#
# Total GULP energy -99125.465136 kJ/mol
# GULP energy per Si atom -12390.683142 kJ/mol
# Density = 2.491012 g / cm^3
# Si number density = 24.966948 Si / 1000 Ang^3
#
#
#
# Elastic Constant Matrix: (Units=GPa)
#
#
# Indices 1 2 3 4 5 6 
#
# 1 108.3251 17.4038 39.5926 0.0033 13.1721 -0.0063
# 2 17.4038 113.4190 56.2804 0.0115 8.9087 -0.0065
# 3 39.5926 56.2804 198.3004 0.0074 -0.3135 0.0028
# 4 0.0033 0.0115 0.0074 18.9458 -0.0016 -18.4807
# 5 13.1721 8.9087 -0.3135 -0.0016 37.0460 0.0023
# 6 -0.0063 -0.0065 0.0028 -18.4807 0.0023 30.5574
#
#
#
# Elastic Compliance Matrix: (Units=1/GPa)
#
#
# Indices 1 2 3 4 5 6 
#
# 1 0.010460 -0.000324 -0.002002 0.000003 -0.003658 0.000004
# 2 -0.000324 0.010508 -0.002921 -0.000007 -0.002436 -0.000002
# 3 -0.002002 -0.002921 0.006274 -0.000005 0.001468 -0.000004
# 4 0.000003 -0.000007 -0.000005 0.128717 0.000001 0.077846
# 5 -0.003658 -0.002436 0.001468 0.000001 0.028892 -0.000003
# 6 0.000004 -0.000002 -0.000004 0.077846 -0.000003 0.079806
#
#
# Mechanical properties :
#
#
# Convention : Reuss Voigt Hill
#
# Bulk Modulus (GPa) = 59.71462 71.84422 65.77942
# Shear Modulus (GPa) = 17.81040 37.76103 27.78572
#
# Velocity S-wave (km/s) = 2.67378 3.89323 3.33963
# Velocity P-wave (km/s) = 5.78805 7.00342 6.42454
#
# Compressibility (1/GPa) = 0.01674632
#
# Stress axis : x y z
#
# Youngs Moduli (GPa) = 95.60037 95.16934 159.38657
#
# Poissons Ratio (x) = 0.03085 0.31913
# Poissons Ratio (y) = 0.03099 0.46562
# Poissons Ratio (z) = 0.19142 0.27802
#
# Static dielectric constant tensor:
#      x y z
#    x 4.297960 -0.000010 -0.173430 
#    y -0.000010 4.364220 0.000000 
#    z -0.173430 0.000000 4.605250 
# 
# 
# High freq. dielectric constant tensor:
#      x y z
#    x 1.983480 0.000000 -0.013640 
#    y 0.000000 1.993650 0.000000 
#    z -0.013640 0.000000 1.991380 
# 
# From -- ./inp_files/30163.got.cif
#   From: 2010.03.12/outbox.cif.g09.slc.cpg/sg5_16_cif.got.tgz:30163.got - 2010.03.31 09:47:26.
