data_PCOD8051416
_publ_section_title
;
Structure prediction by ZEFSAII (Michael W. Deem and Ramdas Pophale) SiO2 
 PCOD8051416
Probable space group: C 2
;
_chemical_formula_sum "Si O2"
_cell_formula_units_Z 24
_cell_length_a 11.943858
_cell_length_b 8.246836
_cell_length_c 9.550138
_cell_angle_alpha 90.000000
_cell_angle_beta 95.996072
_cell_angle_gamma 90.000000
_cell_volume 935.533006
_symmetry_space_group_name_H-M "C 2"
_symmetry_group_IT_number 5
_symmetry_cell_setting 'monoclinic'
loop_
_space_group_symop_operation_xyz
x,y,z
-x,y,-z
1/2+x,1/2+y,z
1/2-x,1/2+y,-z
loop_
_atom_site_type_symbol
_atom_site_label
_atom_site_fract_x
_atom_site_fract_y
_atom_site_fract_z
Si Si1 0.000000 0.531750 0.000000
Si Si2 0.500000 0.513342 0.500000
Si Si3 0.379647 0.757665 0.847824
Si Si4 0.242120 0.298634 0.691367
Si Si5 0.425519 0.539534 0.210355
Si Si6 0.730191 0.639609 0.418855
Si Si7 0.680086 0.285763 0.002322
O O1 0.951379 0.422797 0.866939
O O2 0.902320 0.641408 0.054132
O O3 0.456114 0.423280 0.351352
O O4 0.602435 0.620928 0.455680
O O5 0.286665 0.768409 0.710960
O O6 0.539769 0.601538 0.151258
O O7 0.309066 0.738688 0.983397
O O8 0.209375 0.478853 0.633364
O O9 0.299310 0.213673 0.560468
O O10 0.331112 0.315035 0.831365
O O11 0.136519 0.197739 0.734400
O O12 0.350953 0.446280 0.088079
#
# Coordination Sequence:
#
# PCOD8051416 Si02
#       7
#     2   2   4   4   4   4   4
#     4  12  30  42  74 118 152 200 262 306 394 454
#     4   8  20  46  68 104 138 204 248 304 378 452
#     4  11  27  49  77 108 156 202 255 325 378 462
#     4  11  26  46  78 112 151 211 259 318 388 467
#     4  10  24  49  79 107 155 202 255 316 395 450
#     4  10  25  46  76 105 153 210 259 316 392 453
#     4  12  29  47  76 116 153 199 259 328 378 463
#
# _framework density 25.653825999999999
#
# number of rings (size 3 to 8) (size 9 to 14) (size 15 to 20)
#    0.000    1.333    0.000    2.000   21.000    0.000 
#    0.000    0.000    0.000    0.000    0.000    0.000 
#    0.000    0.000    0.000    0.000    0.000    0.000 
#
# Total GULP energy -148658.259534 kJ/mol
# GULP energy per Si atom -12388.188294 kJ/mol
# Density = 2.559544 g / cm^3
# Si number density = 25.653826 Si / 1000 Ang^3
#
#
#
# Elastic Constant Matrix: (Units=GPa)
#
#
# Indices 1 2 3 4 5 6 
#
# 1 77.4252 36.9068 39.3947 0.0000 0.9863 0.0000
# 2 36.9068 123.7652 89.8460 0.0000 8.6208 0.0000
# 3 39.3947 89.8460 225.5600 0.0000 18.3802 0.0000
# 4 0.0000 0.0000 0.0000 47.9515 0.0000 10.7750
# 5 0.9863 8.6208 18.3802 0.0000 29.3005 0.0000
# 6 0.0000 0.0000 0.0000 10.7750 0.0000 32.1720
#
#
#
# Elastic Compliance Matrix: (Units=1/GPa)
#
#
# Indices 1 2 3 4 5 6 
#
# 1 0.015338 -0.003719 -0.001311 0.000000 0.001401 0.000000
# 2 -0.003719 0.012276 -0.004169 0.000000 -0.000871 0.000000
# 3 -0.001311 -0.004169 0.006555 0.000000 -0.002841 0.000000
# 4 0.000000 0.000000 0.000000 0.022552 0.000000 -0.007553
# 5 0.001401 -0.000871 -0.002841 0.000000 0.036120 0.000000
# 6 0.000000 0.000000 0.000000 -0.007553 0.000000 0.033613
#
#
# Mechanical properties :
#
#
# Convention : Reuss Voigt Hill
#
# Bulk Modulus (GPa) = 63.41647 84.33836 73.87742
# Shear Modulus (GPa) = 33.30885 39.25832 36.28359
#
# Velocity S-wave (km/s) = 3.60724 3.91616 3.76487
# Velocity P-wave (km/s) = 6.49025 7.30721 6.91081
#
# Compressibility (1/GPa) = 0.01576877
#
# Stress axis : x y z
#
# Youngs Moduli (GPa) = 65.19729 81.45769 152.56180
#
# Poissons Ratio (x) = 0.30297 0.20008
# Poissons Ratio (y) = 0.24249 0.63609
# Poissons Ratio (z) = 0.08551 0.33963
#
# Static dielectric constant tensor:
#      x y z
#    x 4.448290 0.000000 0.129890 
#    y 0.000000 4.307500 0.000000 
#    z 0.129890 0.000000 5.895940 
# 
# 
# High freq. dielectric constant tensor:
#      x y z
#    x 2.008710 0.000000 -0.001170 
#    y 0.000000 1.997580 0.000000 
#    z -0.001170 0.000000 2.062500 
# 
# From -- ./inp_files/22918.got.cif
#   From: 2010.03.12/outbox.cif.g09.slc.cpg/sg5_12_cif.got.tgz:22918.got - 2010.03.31 09:47:26.
