data_PCOD8051935
_publ_section_title
;
Structure prediction by ZEFSAII (Michael W. Deem and Ramdas Pophale) SiO2 
 PCOD8051935
Probable space group: C 2
;
_chemical_formula_sum "Si O2"
_cell_formula_units_Z 32
_cell_length_a 22.317432
_cell_length_b 11.822094
_cell_length_c 6.001219
_cell_angle_alpha 90.000000
_cell_angle_beta 72.504977
_cell_angle_gamma 90.000000
_cell_volume 1510.113181
_symmetry_space_group_name_H-M "C 2"
_symmetry_group_IT_number 5
_symmetry_cell_setting 'monoclinic'
loop_
_space_group_symop_operation_xyz
x,y,z
-x,y,-z
1/2+x,1/2+y,z
1/2-x,1/2+y,-z
loop_
_atom_site_type_symbol
_atom_site_label
_atom_site_fract_x
_atom_site_fract_y
_atom_site_fract_z
Si Si1 0.835551 0.095970 0.512956
Si Si2 0.533513 0.927565 0.212518
Si Si3 0.781836 0.706323 0.592263
Si Si4 0.263950 0.419803 0.883334
Si Si5 0.572680 0.503942 0.961824
Si Si6 0.847129 0.574120 0.874351
Si Si7 0.433239 0.692276 0.688765
Si Si8 0.154450 0.808431 0.873698
O O1 0.773602 0.152737 0.486505
O O2 0.875785 0.198925 0.577772
O O3 0.814854 0.996162 0.700781
O O4 0.882093 0.039353 0.287546
O O5 0.500000 0.926147 0.500000
O O6 0.565223 0.803980 0.158274
O O7 0.582796 0.027177 0.193035
O O8 0.500000 0.945865 0.000000
O O9 0.751532 0.795424 0.796242
O O10 0.820800 0.602379 0.657794
O O11 0.831190 0.780086 0.396732
O O12 0.197738 0.482983 0.960724
O O13 0.291729 0.395066 0.098072
O O14 0.587663 0.371292 0.985621
O O15 0.500000 0.520425 0.000000
O O16 0.587864 0.582590 0.152053
O O17 0.847257 0.692037 0.996787
O O18 0.500000 0.670222 0.500000
#
# Coordination Sequence:
#
# PCOD8051935 Si02
#       8
#     4   4   4   4   4   4   4   4
#     4  12  24  40  70 102 144 186 242 303 380 443
#     4  11  29  51  77 108 147 199 257 315 378 457
#     4  11  26  42  69 106 140 188 241 311 372 459
#     4  11  24  42  66 103 138 183 232 300 371 447
#     4  12  24  42  70 101 140 188 239 305 370 443
#     4  11  27  46  72 101 146 189 247 305 377 451
#     4  11  25  44  68 103 144 186 246 311 369 445
#     4  11  24  45  66 104 143 181 242 295 373 452
#
# _framework density 21.190466000000001
#
# number of rings (size 3 to 8) (size 9 to 14) (size 15 to 20)
#    0.000    0.750    5.000    1.125    7.000    0.500 
#    0.000    0.000    0.000    0.000    0.000    0.000 
#    0.000    0.000    0.000    0.000    0.000    0.000 
#
# Total GULP energy -198214.270329 kJ/mol
# GULP energy per Si atom -12388.391896 kJ/mol
# Density = 2.114224 g / cm^3
# Si number density = 21.190466 Si / 1000 Ang^3
#
#
#
# Elastic Constant Matrix: (Units=GPa)
#
#
# Indices 1 2 3 4 5 6 
#
# 1 112.2314 57.2870 39.9880 0.0000 19.7846 0.0000
# 2 57.2870 118.6616 36.5119 0.0000 3.8663 0.0000
# 3 39.9880 36.5119 94.9546 0.0000 7.0123 0.0000
# 4 0.0000 0.0000 0.0000 31.3170 0.0000 -3.1142
# 5 19.7846 3.8663 7.0123 0.0000 30.5405 0.0000
# 6 0.0000 0.0000 0.0000 -3.1142 0.0000 49.7039
#
#
#
# Elastic Compliance Matrix: (Units=1/GPa)
#
#
# Indices 1 2 3 4 5 6 
#
# 1 0.014351 -0.005662 -0.003289 0.000000 -0.007825 0.000000
# 2 -0.005662 0.011796 -0.002352 0.000000 0.002714 0.000000
# 3 -0.003289 -0.002352 0.012859 0.000000 -0.000524 0.000000
# 4 0.000000 0.000000 0.000000 0.032132 0.000000 0.002013
# 5 -0.007825 0.002714 -0.000524 0.000000 0.037589 0.000000
# 6 0.000000 0.000000 0.000000 0.002013 0.000000 0.020245
#
#
# Mechanical properties :
#
#
# Convention : Reuss Voigt Hill
#
# Bulk Modulus (GPa) = 60.96862 65.93570 63.45216
# Shear Modulus (GPa) = 31.83801 35.11632 33.47716
#
# Velocity S-wave (km/s) = 3.88037 4.07526 3.97901
# Velocity P-wave (km/s) = 6.99361 7.30253 7.14974
#
# Compressibility (1/GPa) = 0.01640188
#
# Stress axis : x y z
#
# Youngs Moduli (GPa) = 69.68020 84.77583 77.76362
#
# Poissons Ratio (x) = 0.47996 0.25576
# Poissons Ratio (y) = 0.39449 0.18290
# Poissons Ratio (z) = 0.22917 0.19939
#
# Static dielectric constant tensor:
#      x y z
#    x 4.075320 0.000000 0.149670 
#    y 0.000000 4.138450 0.000000 
#    z 0.149670 0.000000 4.443080 
# 
# 
# High freq. dielectric constant tensor:
#      x y z
#    x 1.831090 0.000000 0.009870 
#    y 0.000000 1.846000 0.000000 
#    z 0.009870 0.000000 1.833920 
# 
# From -- ./inp_files/10374.got.cif
#   From: 2010.03.12/outbox.cif.g09.slc.cpg/sg5_6_cif.got.tgz:10374.got - 2010.03.31 09:47:26.
