data_PCOD8051269
_publ_section_title
;
Structure prediction by ZEFSAII (Michael W. Deem and Ramdas Pophale) SiO2 
 PCOD8051269
Probable space group: C 2
;
_chemical_formula_sum "Si O2"
_cell_formula_units_Z 26
_cell_length_a 19.580028
_cell_length_b 9.037574
_cell_length_c 8.478579
_cell_angle_alpha 90.000000
_cell_angle_beta 128.729549
_cell_angle_gamma 90.000000
_cell_volume 1170.423124
_symmetry_space_group_name_H-M "C 2"
_symmetry_group_IT_number 5
_symmetry_cell_setting 'monoclinic'
loop_
_space_group_symop_operation_xyz
x,y,z
-x,y,-z
1/2+x,1/2+y,z
1/2-x,1/2+y,-z
loop_
_atom_site_type_symbol
_atom_site_label
_atom_site_fract_x
_atom_site_fract_y
_atom_site_fract_z
Si Si1 0.360935 0.074480 0.569801
Si Si2 0.616028 0.680212 0.029840
Si Si3 0.705920 0.304960 0.774012
Si Si4 0.140009 0.842283 0.021662
Si Si5 0.926501 0.263530 0.682126
Si Si6 0.500000 0.193746 0.000000
Si Si7 0.232054 0.105039 0.641769
O O1 0.354417 0.202585 0.427802
O O2 0.265305 0.065726 0.512667
O O3 0.397382 0.918542 0.556400
O O4 0.425970 0.099205 0.809773
O O5 0.528195 0.720540 0.804039
O O6 0.700465 0.731771 0.053025
O O7 0.636279 0.507776 0.082441
O O8 0.603846 0.763322 0.178802
O O9 0.737603 0.461314 0.755062
O O10 0.650454 0.331417 0.849941
O O11 0.043215 0.786182 0.921915
O O12 0.215167 0.746593 0.215152
O O13 0.870824 0.139550 0.512520
#
# Coordination Sequence:
#
# PCOD8051269 Si02
#       7
#     4   4   4   4   4   2   4
#     4  11  22  42  72 102 140 179 241 281 354 423
#     4  11  23  42  70 102 140 183 235 292 348 413
#     4  12  25  44  71 102 144 186 233 296 354 422
#     4  11  26  45  70  99 144 184 239 290 359 420
#     4  11  23  41  73 103 136 183 236 291 341 423
#     4  10  24  42  72 102 126 184 232 294 340 420
#     4  11  23  42  69 104 138 185 234 284 354 429
#
# _framework density 22.214189000000001
#
# number of rings (size 3 to 8) (size 9 to 14) (size 15 to 20)
#    0.000    0.923    3.077    3.692    8.615    0.615 
#    0.000    2.308    6.769    0.000    0.000    0.000 
#    0.000    0.000    0.000    0.000    0.000    0.000 
#
# Total GULP energy -161107.652395 kJ/mol
# GULP energy per Si atom -12392.896338 kJ/mol
# Density = 2.216363 g / cm^3
# Si number density = 22.214189 Si / 1000 Ang^3
#
#
#
# Elastic Constant Matrix: (Units=GPa)
#
#
# Indices 1 2 3 4 5 6 
#
# 1 91.3119 17.1073 17.3970 0.0000 -0.0398 0.0000
# 2 17.1073 126.6835 23.7950 0.0000 18.8613 0.0000
# 3 17.3970 23.7950 74.5026 0.0000 22.4784 0.0000
# 4 0.0000 0.0000 0.0000 26.6652 0.0000 2.6709
# 5 -0.0398 18.8613 22.4784 0.0000 39.8451 0.0000
# 6 0.0000 0.0000 0.0000 2.6709 0.0000 17.9297
#
#
#
# Elastic Compliance Matrix: (Units=1/GPa)
#
#
# Indices 1 2 3 4 5 6 
#
# 1 0.011787 -0.001376 -0.003029 0.000000 0.002372 0.000000
# 2 -0.001376 0.008860 -0.001497 0.000000 -0.003350 0.000000
# 3 -0.003029 -0.001497 0.017348 0.000000 -0.009081 0.000000
# 4 0.000000 0.000000 0.000000 0.038070 0.000000 -0.005671
# 5 0.002372 -0.003350 -0.009081 0.000000 0.031808 0.000000
# 6 0.000000 0.000000 0.000000 -0.005671 0.000000 0.056618
#
#
# Mechanical properties :
#
#
# Convention : Reuss Voigt Hill
#
# Bulk Modulus (GPa) = 38.18171 45.45517 41.81844
# Shear Modulus (GPa) = 27.02336 32.50126 29.76231
#
# Velocity S-wave (km/s) = 3.49161 3.82918 3.66428
# Velocity P-wave (km/s) = 5.78622 6.32904 6.06371
#
# Compressibility (1/GPa) = 0.02619055
#
# Stress axis : x y z
#
# Youngs Moduli (GPa) = 84.83699 112.87195 57.64489
#
# Poissons Ratio (x) = 0.15531 0.17458
# Poissons Ratio (y) = 0.11674 0.08632
# Poissons Ratio (z) = 0.25693 0.16902
#
# Static dielectric constant tensor:
#      x y z
#    x 4.096900 0.000000 0.328990 
#    y 0.000000 4.111500 0.000000 
#    z 0.328990 0.000000 3.896350 
# 
# 
# High freq. dielectric constant tensor:
#      x y z
#    x 1.866460 0.000000 0.022150 
#    y 0.000000 1.888880 0.000000 
#    z 0.022150 0.000000 1.867090 
# 
# From -- ./inp_files/28900.got.cif
#   From: 2010.03.12/outbox.cif.g09.slc.cpg/sg5_15_cif.got.tgz:28900.got - 2010.03.31 09:47:26.
