data_PCOD8051235
_publ_section_title
;
Structure prediction by ZEFSAII (Michael W. Deem and Ramdas Pophale) SiO2 
 PCOD8051235
Probable space group: C 2
;
_chemical_formula_sum "Si O2"
_cell_formula_units_Z 32
_cell_length_a 9.751635
_cell_length_b 9.858098
_cell_length_c 28.138956
_cell_angle_alpha 90.000000
_cell_angle_beta 31.922570
_cell_angle_gamma 90.000000
_cell_volume 1430.367360
_symmetry_space_group_name_H-M "C 2"
_symmetry_group_IT_number 5
_symmetry_cell_setting 'monoclinic'
loop_
_space_group_symop_operation_xyz
x,y,z
-x,y,-z
1/2+x,1/2+y,z
1/2-x,1/2+y,-z
loop_
_atom_site_type_symbol
_atom_site_label
_atom_site_fract_x
_atom_site_fract_y
_atom_site_fract_z
Si Si1 0.849463 0.983280 0.089674
Si Si2 0.171503 0.708683 0.204590
Si Si3 0.380110 0.182462 0.086093
Si Si4 0.562081 0.413859 0.404407
Si Si5 0.354431 0.641851 0.691792
Si Si6 0.263404 0.664324 0.283203
Si Si7 0.100461 0.420534 0.607582
Si Si8 0.115659 0.488023 0.838752
O O1 0.957299 0.838028 0.075596
O O2 0.560712 0.949063 0.154857
O O3 0.861424 0.088753 0.129634
O O4 0.000000 0.042743 0.000000
O O5 0.121500 0.697915 0.275224
O O6 0.296120 0.855561 0.158540
O O7 0.917961 0.695073 0.247822
O O8 0.071257 0.153078 0.182239
O O9 0.525639 0.085107 0.081123
O O10 0.500000 0.144646 0.000000
O O11 0.518915 0.530931 0.379097
O O12 0.684202 0.279074 0.344568
O O13 0.277203 0.390888 0.509617
O O14 0.744699 0.476164 0.392080
O O15 0.526097 0.772514 0.647139
O O16 0.346381 0.576433 0.747162
O O17 0.139293 0.519379 0.335703
#
# Coordination Sequence:
#
# PCOD8051235 Si02
#       8
#     4   4   4   4   4   4   4   4
#     4  10  24  41  62  92 126 166 216 269 321 375
#     4  11  22  40  66  92 124 174 211 261 328 384
#     4  11  25  44  66  98 131 174 221 268 321 384
#     4  11  23  44  64  98 129 165 220 272 322 393
#     4  11  22  41  64  92 126 169 212 261 328 385
#     4  12  22  43  68  93 135 173 212 271 325 380
#     4  11  25  40  69  94 127 173 216 265 334 391
#     4  11  23  41  62  91 129 166 214 270 314 385
#
# _framework density 22.371876
#
# number of rings (size 3 to 8) (size 9 to 14) (size 15 to 20)
#    0.000    1.000    3.750    3.000    3.500    0.500 
#    0.000    0.000    0.000    0.000    0.000    0.000 
#    0.000    0.000    0.000    0.000    0.000    0.000 
#
# Total GULP energy -198320.983070 kJ/mol
# GULP energy per Si atom -12395.061442 kJ/mol
# Density = 2.232096 g / cm^3
# Si number density = 22.371876 Si / 1000 Ang^3
#
#
#
# Elastic Constant Matrix: (Units=GPa)
#
#
# Indices 1 2 3 4 5 6 
#
# 1 48.5033 24.4541 16.9154 -0.0027 19.5161 0.0023
# 2 24.4541 131.0545 38.4585 -0.0015 20.7547 0.0022
# 3 16.9154 38.4585 124.5330 0.0027 16.0782 -0.0016
# 4 -0.0027 -0.0015 0.0027 37.4194 0.0026 10.2542
# 5 19.5161 20.7547 16.0782 0.0026 36.5312 -0.0021
# 6 0.0023 0.0022 -0.0016 10.2542 -0.0021 31.1354
#
#
#
# Elastic Compliance Matrix: (Units=1/GPa)
#
#
# Indices 1 2 3 4 5 6 
#
# 1 0.027511 -0.002774 -0.001258 0.000004 -0.012568 -0.000004
# 2 -0.002774 0.009213 -0.002103 0.000001 -0.002826 -0.000001
# 3 -0.001258 -0.002103 0.009128 -0.000001 -0.002151 0.000001
# 4 0.000004 0.000001 -0.000001 0.029375 -0.000005 -0.009675
# 5 -0.012568 -0.002826 -0.002151 -0.000005 0.036640 0.000005
# 6 -0.000004 -0.000001 0.000001 -0.009675 0.000005 0.035304
#
#
# Mechanical properties :
#
#
# Convention : Reuss Voigt Hill
#
# Bulk Modulus (GPa) = 29.77781 51.52743 40.65262
# Shear Modulus (GPa) = 29.30213 35.96804 32.63508
#
# Velocity S-wave (km/s) = 3.62301 4.01401 3.82351
# Velocity P-wave (km/s) = 5.55345 6.67572 6.14028
#
# Compressibility (1/GPa) = 0.03358206
#
# Stress axis : x y z
#
# Youngs Moduli (GPa) = 36.34879 108.54320 109.55232
#
# Poissons Ratio (x) = 0.30111 0.13777
# Poissons Ratio (y) = 0.10084 0.23044
# Poissons Ratio (z) = 0.04571 0.22831
#
# Static dielectric constant tensor:
#      x y z
#    x 3.905720 0.000000 0.107720 
#    y 0.000000 4.195520 -0.000030 
#    z 0.107720 -0.000030 4.328520 
# 
# 
# High freq. dielectric constant tensor:
#      x y z
#    x 1.869920 0.000000 0.013080 
#    y 0.000000 1.892520 0.000000 
#    z 0.013080 0.000000 1.885790 
# 
# From -- ./inp_files/71748.got.cif
#   From: 2010.03.12/outbox.cif.g09.slc.cpg/sg5_36_cif.got.tgz:71748.got - 2010.03.31 09:47:26.
