data_PCOD8051964
_publ_section_title
;
Structure prediction by ZEFSAII (Michael W. Deem and Ramdas Pophale) SiO2 
 PCOD8051964
Probable space group: C 2
;
_chemical_formula_sum "Si O2"
_cell_formula_units_Z 32
_cell_length_a 14.520904
_cell_length_b 8.144440
_cell_length_c 22.205860
_cell_angle_alpha 90.000000
_cell_angle_beta 147.402448
_cell_angle_gamma 90.000000
_cell_volume 1414.807984
_symmetry_space_group_name_H-M "C 2"
_symmetry_group_IT_number 5
_symmetry_cell_setting 'monoclinic'
loop_
_space_group_symop_operation_xyz
x,y,z
-x,y,-z
1/2+x,1/2+y,z
1/2-x,1/2+y,-z
loop_
_atom_site_type_symbol
_atom_site_label
_atom_site_fract_x
_atom_site_fract_y
_atom_site_fract_z
Si Si1 0.704997 0.654360 0.704051
Si Si2 0.955827 0.000974 0.654610
Si Si3 0.572361 0.990025 0.265353
Si Si4 0.623890 0.138226 0.415947
Si Si5 0.534198 0.619026 0.210953
Si Si6 0.244736 0.480982 0.977339
Si Si7 0.950554 0.670052 0.042750
Si Si8 0.103104 0.492810 0.615872
O O1 0.606005 0.517709 0.688488
O O2 0.765051 0.580896 0.673742
O O3 0.575120 0.804552 0.621018
O O4 0.872207 0.720825 0.829694
O O5 0.885205 0.816247 0.619446
O O6 0.796820 0.117294 0.549325
O O7 0.035516 0.052503 0.763068
O O8 0.573922 0.809220 0.238511
O O9 0.606216 0.998386 0.354897
O O10 0.382648 0.062866 0.143365
O O11 0.460872 0.117784 0.368810
O O12 0.409926 0.588657 0.085363
O O13 0.699704 0.515197 0.287806
O O14 0.304816 0.304315 0.983513
O O15 0.123942 0.494844 0.972355
O O16 0.000000 0.663098 0.000000
O O17 0.000000 0.533999 0.500000
#
# Coordination Sequence:
#
# PCOD8051964 Si02
#       8
#     4   4   4   4   4   4   4   4
#     4  11  25  44  69 103 138 186 233 292 360 419
#     4  12  26  45  70 101 141 187 230 298 349 433
#     4  11  26  44  71 103 140 185 229 295 353 426
#     4  12  27  45  69 103 141 185 237 285 367 426
#     4  12  23  45  71  99 142 182 233 290 352 421
#     4  11  24  44  75 101 148 187 239 298 363 431
#     4  11  24  46  71 108 142 195 241 303 364 436
#     4  12  25  43  67 100 136 185 233 292 355 427
#
# _framework density 22.617912
#
# number of rings (size 3 to 8) (size 9 to 14) (size 15 to 20)
#    0.000    0.500    3.750    4.500    5.250    0.000 
#    0.000    0.625    0.000    0.000    0.000    0.000 
#    0.000    0.000    0.000    0.000    0.000    0.000 
#
# Total GULP energy -198280.611985 kJ/mol
# GULP energy per Si atom -12392.538249 kJ/mol
# Density = 2.256643 g / cm^3
# Si number density = 22.617912 Si / 1000 Ang^3
#
#
#
# Elastic Constant Matrix: (Units=GPa)
#
#
# Indices 1 2 3 4 5 6 
#
# 1 137.3863 24.1701 22.3333 0.0004 -1.0373 0.0005
# 2 24.1701 85.4478 3.1954 0.0041 -1.7012 0.0052
# 3 22.3333 3.1954 67.1902 0.0010 4.1727 0.0015
# 4 0.0004 0.0041 0.0010 -178.1012 0.0009 -217.0684
# 5 -1.0373 -1.7012 4.1727 0.0009 35.2083 0.0011
# 6 0.0005 0.0052 0.0015 -217.0684 0.0011 -194.3506
#
#
#
# Elastic Compliance Matrix: (Units=1/GPa)
#
#
# Indices 1 2 3 4 5 6 
#
# 1 0.008091 -0.002182 -0.002613 0.000000 0.000443 0.000000
# 2 -0.002182 0.012327 0.000107 0.000000 0.000519 0.000000
# 3 -0.002613 0.000107 0.015868 0.000000 -0.001952 0.000000
# 4 0.000000 0.000000 0.000000 0.015542 0.000000 -0.017359
# 5 0.000443 0.000519 -0.001952 0.000000 0.028672 0.000000
# 6 0.000000 0.000000 0.000000 -0.017359 0.000000 0.014243
#
#
# Mechanical properties :
#
#
# Convention : Reuss Voigt Hill
#
# Bulk Modulus (GPa) = 37.16255 43.26910 40.21583
# Shear Modulus (GPa) = 44.21331 -51.42699 -3.60684
#
# Velocity S-wave (km/s) = 4.42610 -4.77354 -1.26418
# Velocity P-wave (km/s) = 6.52585 3.34816 3.96084
#
# Compressibility (1/GPa) = 0.02690881
#
# Stress axis : x y z
#
# Youngs Moduli (GPa) = 123.59818 81.12532 63.02061
#
# Poissons Ratio (x) = 0.17702 0.16467
# Poissons Ratio (y) = 0.26970 -0.00673
# Poissons Ratio (z) = 0.32296 -0.00867
#
# Static dielectric constant tensor:
#      x y z
#    x 4.167940 0.000000 0.532860 
#    y 0.000000 3.906290 0.000020 
#    z 0.532860 0.000020 41.448050 
# 
# 
# High freq. dielectric constant tensor:
#      x y z
#    x 1.893150 0.000000 0.003930 
#    y 0.000000 1.880200 0.000000 
#    z 0.003930 0.000000 1.909110 
# 
# From -- ./inp_files/68782.got.cif
#   From: 2010.03.12/outbox.cif.g09.slc.cpg/sg5_35_cif.got.tgz:68782.got - 2010.03.31 09:47:26.
