data_PCOD8051137
_publ_section_title
;
Structure prediction by ZEFSAII (Michael W. Deem and Ramdas Pophale) SiO2 
 PCOD8051137
Probable space group: C 2
;
_chemical_formula_sum "Si O2"
_cell_formula_units_Z 22
_cell_length_a 10.518358
_cell_length_b 15.846933
_cell_length_c 8.002222
_cell_angle_alpha 90.000000
_cell_angle_beta 41.306439
_cell_angle_gamma 90.000000
_cell_volume 880.449291
_symmetry_space_group_name_H-M "C 2"
_symmetry_group_IT_number 5
_symmetry_cell_setting 'monoclinic'
loop_
_space_group_symop_operation_xyz
x,y,z
-x,y,-z
1/2+x,1/2+y,z
1/2-x,1/2+y,-z
loop_
_atom_site_type_symbol
_atom_site_label
_atom_site_fract_x
_atom_site_fract_y
_atom_site_fract_z
Si Si1 0.500000 0.189420 0.500000
Si Si2 0.500000 0.956227 0.500000
Si Si3 0.000000 0.098106 0.500000
Si Si4 0.817702 0.976219 0.417211
Si Si5 0.136155 0.676822 0.012135
Si Si6 0.787720 0.329827 0.254953
Si Si7 0.670423 0.372418 0.020098
O O1 0.670028 0.245599 0.413225
O O2 0.418098 0.140045 0.746988
O O3 0.653902 0.014250 0.452221
O O4 0.373058 0.895360 0.740216
O O5 0.857477 0.153433 0.754603
O O6 0.868794 0.044054 0.505035
O O7 0.709155 0.893707 0.595071
O O8 0.003036 0.939312 0.135293
O O9 0.114032 0.777411 0.029844
O O10 0.000000 0.638374 0.000000
O O11 0.685907 0.379986 0.204425
O O12 0.000000 0.298997 0.000000
#
# Coordination Sequence:
#
# PCOD8051137 Si02
#       7
#     2   2   2   4   4   4   4
#     4  10  23  44  71 110 148 192 250 316 363 452
#     4  12  25  36  73 115 141 184 252 326 373 428
#     4  12  28  48  76 103 157 210 252 294 386 464
#     4  12  23  45  70 109 145 191 248 315 365 448
#     4  11  25  46  74 109 153 203 248 313 381 455
#     4  11  19  37  73 104 139 186 240 298 370 430
#     4  11  22  42  72 110 146 182 253 316 370 439
#
# _framework density 24.987241000000001
#
# number of rings (size 3 to 8) (size 9 to 14) (size 15 to 20)
#    0.000    0.727    7.273    2.182    0.000    5.091 
#    0.000    5.455    0.000    0.000    0.000    0.000 
#    0.000    0.000    0.000    0.000    0.000    0.000 
#
# Total GULP energy -136331.843088 kJ/mol
# GULP energy per Si atom -12393.803917 kJ/mol
# Density = 2.493037 g / cm^3
# Si number density = 24.987241 Si / 1000 Ang^3
#
#
#
# Elastic Constant Matrix: (Units=GPa)
#
#
# Indices 1 2 3 4 5 6 
#
# 1 165.7116 14.7290 45.1971 -0.0001 -2.0321 0.0000
# 2 14.7290 39.7894 25.5210 0.0000 -0.7398 0.0000
# 3 45.1971 25.5210 192.6487 -0.0001 -1.3494 0.0000
# 4 -0.0001 0.0000 -0.0001 31.6833 0.0000 -2.9780
# 5 -2.0321 -0.7398 -1.3494 0.0000 53.7212 0.0000
# 6 0.0000 0.0000 0.0000 -2.9780 0.0000 -1.0562
#
#
#
# Elastic Compliance Matrix: (Units=1/GPa)
#
#
# Indices 1 2 3 4 5 6 
#
# 1 0.006538 -0.001567 -0.001325 0.000000 0.000192 0.000000
# 2 -0.001567 0.027846 -0.003320 0.000000 0.000241 0.000000
# 3 -0.001325 -0.003320 0.005942 0.000000 0.000053 0.000000
# 4 0.000000 0.000000 0.000000 0.024950 0.000000 -0.070346
# 5 0.000192 0.000241 0.000053 0.000000 0.018627 -0.000001
# 6 0.000000 0.000000 0.000000 -0.070346 -0.000001 -0.748424
#
#
# Mechanical properties :
#
#
# Convention : Reuss Voigt Hill
#
# Bulk Modulus (GPa) = 35.83856 63.22710 49.53283
# Shear Modulus (GPa) = -7.77849 37.71652 14.96901
#
# Velocity S-wave (km/s) = -1.76628 3.88935 2.45024
# Velocity P-wave (km/s) = 3.19597 6.74745 5.27932
#
# Compressibility (1/GPa) = 0.02790291
#
# Stress axis : x y z
#
# Youngs Moduli (GPa) = 152.96265 35.91186 168.30031
#
# Poissons Ratio (x) = 0.05626 0.22298
# Poissons Ratio (y) = 0.23964 0.55869
# Poissons Ratio (z) = 0.20266 0.11921
#
# Static dielectric constant tensor:
#      x y z
#    x 4.834610 0.000000 0.131030 
#    y 0.000000 3.905130 0.000000 
#    z 0.131030 0.000000 4.849750 
# 
# 
# High freq. dielectric constant tensor:
#      x y z
#    x 2.012360 0.000000 0.000800 
#    y 0.000000 1.955390 0.000000 
#    z 0.000800 0.000000 2.022900 
# 
# From -- ./inp_files/21161.got.cif
#   From: 2010.03.12/outbox.cif.g09.slc.cpg/sg5_11_cif.got.tgz:21161.got - 2010.03.31 09:47:26.
