data_PCOD8051571
_publ_section_title
;
Structure prediction by ZEFSAII (Michael W. Deem and Ramdas Pophale) SiO2 
 PCOD8051571
Probable space group: C 2
;
_chemical_formula_sum "Si O2"
_cell_formula_units_Z 28
_cell_length_a 11.978802
_cell_length_b 13.379215
_cell_length_c 8.875233
_cell_angle_alpha 90.000000
_cell_angle_beta 115.074003
_cell_angle_gamma 90.000000
_cell_volume 1288.360750
_symmetry_space_group_name_H-M "C 2"
_symmetry_group_IT_number 5
_symmetry_cell_setting 'monoclinic'
loop_
_space_group_symop_operation_xyz
x,y,z
-x,y,-z
1/2+x,1/2+y,z
1/2-x,1/2+y,-z
loop_
_atom_site_type_symbol
_atom_site_label
_atom_site_fract_x
_atom_site_fract_y
_atom_site_fract_z
Si Si1 0.734114 0.363590 0.818857
Si Si2 0.114690 0.252180 0.872025
Si Si3 0.015875 0.559987 0.840854
Si Si4 0.288939 0.544098 0.990326
Si Si5 0.894724 0.373989 0.636111
Si Si6 0.736327 0.376588 0.264793
Si Si7 0.007588 0.776676 0.182604
O O1 0.769099 0.368321 0.662803
O O2 0.613583 0.297528 0.786916
O O3 0.859380 0.319222 0.965335
O O4 0.706332 0.475277 0.859089
O O5 0.228040 0.285442 0.827998
O O6 0.982688 0.278063 0.720079
O O7 0.115906 0.135353 0.924139
O O8 0.156140 0.593148 0.894932
O O9 0.975106 0.472917 0.707656
O O10 0.944621 0.663021 0.768826
O O11 0.000000 0.518831 0.000000
O O12 0.307129 0.476424 0.850529
O O13 0.855174 0.387018 0.440071
O O14 0.620358 0.345699 0.302758
O O15 0.000000 0.801870 0.000000
#
# Coordination Sequence:
#
# PCOD8051571 Si02
#       7
#     4   4   4   4   4   4   4
#     4  11  22  41  65  95 131 179 225 273 331 413
#     4  11  21  42  69 100 127 176 232 278 330 402
#     4  11  19  37  72  96 125 177 233 269 319 421
#     4  11  21  40  69  97 124 176 240 265 331 408
#     4  12  24  42  66 103 142 168 219 289 351 387
#     4  11  25  43  68 100 139 179 220 290 342 393
#     4  11  21  43  68  94 127 178 232 274 323 406
#
# _framework density 21.733042000000001
#
# number of rings (size 3 to 8) (size 9 to 14) (size 15 to 20)
#    0.000    0.857    8.571    1.714    0.000    0.571 
#    7.714    1.429    3.143    0.000    0.000    0.000 
#    0.000    0.000    0.000    0.000    0.000    0.000 
#
# Total GULP energy -173471.584276 kJ/mol
# GULP energy per Si atom -12390.827448 kJ/mol
# Density = 2.168358 g / cm^3
# Si number density = 21.733042 Si / 1000 Ang^3
#
#
#
# Elastic Constant Matrix: (Units=GPa)
#
#
# Indices 1 2 3 4 5 6 
#
# 1 79.0430 29.4879 17.4909 0.0000 3.3030 0.0000
# 2 29.4879 158.5810 58.6825 0.0000 9.6012 0.0000
# 3 17.4909 58.6825 85.1987 0.0000 7.6121 0.0000
# 4 0.0000 0.0000 0.0000 17.0070 0.0000 0.1433
# 5 3.3030 9.6012 7.6121 0.0000 26.8680 0.0000
# 6 0.0000 0.0000 0.0000 0.1433 0.0000 14.6505
#
#
#
# Elastic Compliance Matrix: (Units=1/GPa)
#
#
# Indices 1 2 3 4 5 6 
#
# 1 0.013730 -0.002005 -0.001386 0.000000 -0.000579 0.000000
# 2 -0.002005 0.008808 -0.005536 0.000000 -0.001333 0.000000
# 3 -0.001386 -0.005536 0.016049 0.000000 -0.002398 0.000000
# 4 0.000000 0.000000 0.000000 0.058804 0.000000 -0.000575
# 5 -0.000579 -0.001333 -0.002398 0.000000 0.038446 0.000000
# 6 0.000000 0.000000 0.000000 -0.000575 0.000000 0.068263
#
#
# Mechanical properties :
#
#
# Convention : Reuss Voigt Hill
#
# Bulk Modulus (GPa) = 48.23197 59.34946 53.79072
# Shear Modulus (GPa) = 21.84689 26.18252 24.01471
#
# Velocity S-wave (km/s) = 3.17399 3.47469 3.32774
# Velocity P-wave (km/s) = 5.97272 6.59285 6.29043
#
# Compressibility (1/GPa) = 0.02073314
#
# Stress axis : x y z
#
# Youngs Moduli (GPa) = 72.83168 113.53223 62.30863
#
# Poissons Ratio (x) = 0.22766 0.08635
# Poissons Ratio (y) = 0.14604 0.34494
# Poissons Ratio (z) = 0.10094 0.62852
#
# Static dielectric constant tensor:
#      x y z
#    x 3.987670 0.000000 0.069430 
#    y 0.000000 3.785700 0.000000 
#    z 0.069430 0.000000 3.679700 
# 
# 
# High freq. dielectric constant tensor:
#      x y z
#    x 1.859580 0.000000 0.001010 
#    y 0.000000 1.851320 0.000000 
#    z 0.001010 0.000000 1.822260 
# 
# From -- ./inp_files/20417.got.cif
#   From: 2010.03.12/outbox.cif.g09.slc.cpg/sg5_11_cif.got.tgz:20417.got - 2010.03.31 09:47:26.
