data_PCOD8051442
_publ_section_title
;
Structure prediction by ZEFSAII (Michael W. Deem and Ramdas Pophale) SiO2 
 PCOD8051442
Probable space group: C 2
;
_chemical_formula_sum "Si O2"
_cell_formula_units_Z 24
_cell_length_a 22.783377
_cell_length_b 11.337787
_cell_length_c 11.342836
_cell_angle_alpha 90.000000
_cell_angle_beta 21.020065
_cell_angle_gamma 90.000000
_cell_volume 1050.976986
_symmetry_space_group_name_H-M "C 2"
_symmetry_group_IT_number 5
_symmetry_cell_setting 'monoclinic'
loop_
_space_group_symop_operation_xyz
x,y,z
-x,y,-z
1/2+x,1/2+y,z
1/2-x,1/2+y,-z
loop_
_atom_site_type_symbol
_atom_site_label
_atom_site_fract_x
_atom_site_fract_y
_atom_site_fract_z
Si Si1 0.498956 0.361440 0.285611
Si Si2 0.234913 0.022114 0.972740
Si Si3 0.610650 0.166605 0.907135
Si Si4 0.667426 0.737373 0.968170
Si Si5 0.041994 0.081645 0.792232
Si Si6 0.042404 0.484833 0.232713
O O1 0.352848 0.282408 0.609734
O O2 0.424630 0.469838 0.352748
O O3 0.610230 0.413695 0.183246
O O4 0.607281 0.281081 0.996581
O O5 0.151435 0.150648 0.111876
O O6 0.378434 0.019329 0.606960
O O7 0.297697 0.015477 0.988298
O O8 0.794797 0.158657 0.515659
O O9 0.500000 0.182155 0.000000
O O10 0.553051 0.051478 0.088434
O O11 0.612732 0.660414 0.957949
O O12 0.540851 0.844494 0.217768
O O13 0.000000 0.034481 0.000000
#
# Coordination Sequence:
#
# PCOD8051442 Si02
#       6
#     4   4   4   4   4   4
#     4  11  23  45  71  98 133 180 231 284 344 413
#     4  10  25  43  71  98 139 176 228 292 338 415
#     4  12  25  44  69  99 139 185 227 283 346 411
#     4  11  23  45  67 102 133 178 227 285 351 400
#     4  11  25  44  67  99 136 179 232 282 340 410
#     4  11  24  44  67 104 134 182 227 280 351 404
#
# _framework density 22.835896000000002
#
# number of rings (size 3 to 8) (size 9 to 14) (size 15 to 20)
#    0.000    1.000    3.333    2.500    4.667    1.333 
#    3.000    0.000    0.000    0.000    0.000    0.000 
#    0.000    0.000    0.000    0.000    0.000    0.000 
#
# Total GULP energy -148837.041208 kJ/mol
# GULP energy per Si atom -12403.086767 kJ/mol
# Density = 2.278392 g / cm^3
# Si number density = 22.835896 Si / 1000 Ang^3
#
#
#
# Elastic Constant Matrix: (Units=GPa)
#
#
# Indices 1 2 3 4 5 6 
#
# 1 81.4529 23.5511 -0.9068 0.0000 -9.8878 0.0000
# 2 23.5511 128.6393 5.5872 0.0000 -7.6740 0.0000
# 3 -0.9068 5.5872 73.2566 0.0000 -13.2793 0.0000
# 4 0.0000 0.0000 0.0000 37.9051 0.0000 -8.6749
# 5 -9.8878 -7.6740 -13.2793 0.0000 34.8321 0.0000
# 6 0.0000 0.0000 0.0000 -8.6749 0.0000 19.7624
#
#
#
# Elastic Compliance Matrix: (Units=1/GPa)
#
#
# Indices 1 2 3 4 5 6 
#
# 1 0.013394 -0.002276 0.001007 0.000000 0.003685 0.000000
# 2 -0.002276 0.008270 -0.000479 0.000000 0.000993 0.000000
# 3 0.001007 -0.000479 0.014752 0.000000 0.005804 0.000000
# 4 0.000000 0.000000 0.000000 0.029328 0.000000 0.012874
# 5 0.003685 0.000993 0.005804 0.000000 0.032187 0.000000
# 6 0.000000 0.000000 0.000000 0.012874 0.000000 0.056252
#
#
# Mechanical properties :
#
#
# Convention : Reuss Voigt Hill
#
# Bulk Modulus (GPa) = 30.37606 37.75686 34.06646
# Shear Modulus (GPa) = 29.64692 35.50775 32.57734
#
# Velocity S-wave (km/s) = 3.60705 3.94751 3.78111
# Velocity P-wave (km/s) = 5.53882 6.11122 5.83205
#
# Compressibility (1/GPa) = 0.03292066
#
# Stress axis : x y z
#
# Youngs Moduli (GPa) = 74.66246 120.91277 67.78832
#
# Poissons Ratio (x) = 0.27520 -0.06828
# Poissons Ratio (y) = 0.16993 0.03246
# Poissons Ratio (z) = -0.07521 0.05790
#
# Static dielectric constant tensor:
#      x y z
#    x 4.096190 0.000000 -0.167350 
#    y 0.000000 4.383860 0.000000 
#    z -0.167350 0.000000 3.968860 
# 
# 
# High freq. dielectric constant tensor:
#      x y z
#    x 1.899890 0.000000 -0.009220 
#    y 0.000000 1.915180 0.000000 
#    z -0.009220 0.000000 1.902030 
# 
# From -- ./inp_files/35344.got.cif
#   From: 2010.03.12/outbox.cif.g09.slc.cpg/sg5_18_cif.got.tgz:35344.got - 2010.03.31 09:47:26.
