data_PCOD8051641
_publ_section_title
;
Structure prediction by ZEFSAII (Michael W. Deem and Ramdas Pophale) SiO2 
 PCOD8051641
Probable space group: C 2
;
_chemical_formula_sum "Si O2"
_cell_formula_units_Z 24
_cell_length_a 9.206864
_cell_length_b 11.524120
_cell_length_c 12.931010
_cell_angle_alpha 90.000000
_cell_angle_beta 118.425342
_cell_angle_gamma 90.000000
_cell_volume 1206.583085
_symmetry_space_group_name_H-M "C 2"
_symmetry_group_IT_number 5
_symmetry_cell_setting 'monoclinic'
loop_
_space_group_symop_operation_xyz
x,y,z
-x,y,-z
1/2+x,1/2+y,z
1/2-x,1/2+y,-z
loop_
_atom_site_type_symbol
_atom_site_label
_atom_site_fract_x
_atom_site_fract_y
_atom_site_fract_z
Si Si1 0.879576 0.635710 0.607599
Si Si2 0.274993 0.082985 0.351047
Si Si3 0.344862 0.821185 0.371954
Si Si4 0.937057 0.487251 0.819294
Si Si5 0.667252 0.112876 0.027182
Si Si6 0.528351 0.734064 0.799889
O O1 0.772299 0.591080 0.474508
O O2 0.806975 0.756644 0.624233
O O3 0.069736 0.655798 0.640311
O O4 0.864658 0.535024 0.687846
O O5 0.108471 0.134558 0.248537
O O6 0.288113 0.949484 0.320577
O O7 0.500000 0.830290 0.500000
O O8 0.393006 0.751305 0.285976
O O9 0.947520 0.349420 0.816895
O O10 0.812761 0.519169 0.871519
O O11 0.120969 0.542983 0.905517
O O12 0.828675 0.191803 0.072058
O O13 0.500000 0.187991 0.000000
#
# Coordination Sequence:
#
# PCOD8051641 Si02
#       6
#     4   4   4   4   4   4
#     4  11  21  42  59  91 133 158 197 262 304 361
#     4  11  25  37  62 100 124 159 214 246 312 381
#     4  12  21  40  65  89 129 167 201 255 311 370
#     4   9  20  42  64  84 130 158 202 265 298 364
#     4   8  21  43  60  93 121 160 211 254 309 366
#     4  12  21  42  68  89 122 170 206 257 316 362
#
# _framework density 19.890879999999999
#
# number of rings (size 3 to 8) (size 9 to 14) (size 15 to 20)
#    1.000    0.333    6.667    0.000    0.000    1.333 
#   12.000    0.000    0.000    0.000    0.000    0.000 
#    0.000    0.000    0.000    0.000    0.000    0.000 
#
# Total GULP energy -148727.128179 kJ/mol
# GULP energy per Si atom -12393.927348 kJ/mol
# Density = 1.984561 g / cm^3
# Si number density = 19.890880 Si / 1000 Ang^3
#
#
#
# Elastic Constant Matrix: (Units=GPa)
#
#
# Indices 1 2 3 4 5 6 
#
# 1 71.3281 51.2570 4.2506 0.0000 17.1852 0.0000
# 2 51.2570 114.6455 23.4298 0.0000 21.7629 0.0000
# 3 4.2506 23.4298 50.4345 0.0000 17.1352 0.0000
# 4 0.0000 0.0000 0.0000 30.5524 0.0000 7.0055
# 5 17.1852 21.7629 17.1352 0.0000 34.8895 0.0000
# 6 0.0000 0.0000 0.0000 7.0055 0.0000 31.7768
#
#
#
# Elastic Compliance Matrix: (Units=1/GPa)
#
#
# Indices 1 2 3 4 5 6 
#
# 1 0.022490 -0.009673 0.005175 0.000000 -0.007586 0.000000
# 2 -0.009673 0.014447 -0.005345 0.000000 -0.001622 0.000000
# 3 0.005175 -0.005345 0.025936 0.000000 -0.011953 0.000000
# 4 0.000000 0.000000 0.000000 0.034473 0.000000 -0.007600
# 5 -0.007586 -0.001622 -0.011953 0.000000 0.039281 0.000000
# 6 0.000000 0.000000 0.000000 -0.007600 0.000000 0.033145
#
#
# Mechanical properties :
#
#
# Convention : Reuss Voigt Hill
#
# Bulk Modulus (GPa) = 23.15470 43.80922 33.48196
# Shear Modulus (GPa) = 24.52746 29.94178 27.23462
#
# Velocity S-wave (km/s) = 3.51536 3.88403 3.70429
# Velocity P-wave (km/s) = 5.30501 6.49514 5.93001
#
# Compressibility (1/GPa) = 0.04318778
#
# Stress axis : x y z
#
# Youngs Moduli (GPa) = 44.46439 69.21624 38.55696
#
# Poissons Ratio (x) = 0.66951 -0.19955
# Poissons Ratio (y) = 0.43009 0.20610
# Poissons Ratio (z) = -0.23012 0.36998
#
# Static dielectric constant tensor:
#      x y z
#    x 3.460390 0.000000 -0.032710 
#    y 0.000000 3.429800 0.000000 
#    z -0.032710 0.000000 3.731970 
# 
# 
# High freq. dielectric constant tensor:
#      x y z
#    x 1.757210 0.000000 -0.003710 
#    y 0.000000 1.760690 0.000000 
#    z -0.003710 0.000000 1.783690 
# 
# From -- ./inp_files/50170.got.cif
#   From: 2010.03.12/outbox.cif.g09.slc.cpg/sg5_26_cif.got.tgz:50170.got - 2010.03.31 09:47:26.
