data_PCOD8051881
_publ_section_title
;
Structure prediction by ZEFSAII (Michael W. Deem and Ramdas Pophale) SiO2 
 PCOD8051881
Probable space group: C 2
;
_chemical_formula_sum "Si O2"
_cell_formula_units_Z 16
_cell_length_a 16.816987
_cell_length_b 9.252324
_cell_length_c 8.623095
_cell_angle_alpha 90.000000
_cell_angle_beta 34.106352
_cell_angle_gamma 90.000000
_cell_volume 752.344236
_symmetry_space_group_name_H-M "C 2"
_symmetry_group_IT_number 5
_symmetry_cell_setting 'monoclinic'
loop_
_space_group_symop_operation_xyz
x,y,z
-x,y,-z
1/2+x,1/2+y,z
1/2-x,1/2+y,-z
loop_
_atom_site_type_symbol
_atom_site_label
_atom_site_fract_x
_atom_site_fract_y
_atom_site_fract_z
Si Si1 0.389574 0.142090 0.787036
Si Si2 0.098228 0.656058 0.715844
Si Si3 0.646279 0.846104 0.684940
Si Si4 0.850026 0.341685 0.689225
O O1 0.500000 0.231445 0.500000
O O2 0.491900 0.087941 0.760321
O O3 0.329856 0.004836 0.786660
O O4 0.267502 0.244541 0.040891
O O5 0.222080 0.759250 0.449994
O O6 0.167553 0.515714 0.687956
O O7 0.000000 0.741395 0.000000
O O8 0.659297 0.823408 0.479762
O O9 0.500000 0.788867 0.000000
O O10 0.000000 0.278212 0.500000
#
# Coordination Sequence:
#
# PCOD8051881 Si02
#       4
#     4   4   4   4
#     4  11  24  44  69  95 135 175 215 272 329 388
#     4  11  23  45  66  95 135 175 219 269 322 390
#     4  11  25  44  69  97 135 173 220 273 325 389
#     4  11  24  46  66  99 135 172 219 272 329 390
#
# _framework density 21.266860999999999
#
# number of rings (size 3 to 8) (size 9 to 14) (size 15 to 20)
#    0.000    1.000    7.500    0.000    3.500    2.000 
#    4.500    0.000    0.000    0.000    0.000    0.000 
#    0.000    0.000    0.000    0.000    0.000    0.000 
#
# Total GULP energy -99111.875341 kJ/mol
# GULP energy per Si atom -12388.984418 kJ/mol
# Density = 2.121846 g / cm^3
# Si number density = 21.266861 Si / 1000 Ang^3
#
#
#
# Elastic Constant Matrix: (Units=GPa)
#
#
# Indices 1 2 3 4 5 6 
#
# 1 63.9883 26.9768 34.2474 0.0000 3.3995 0.0000
# 2 26.9768 86.2391 81.1427 0.0000 -15.0236 0.0000
# 3 34.2474 81.1427 212.0977 0.0000 -2.9397 0.0000
# 4 0.0000 0.0000 0.0000 43.7336 0.0000 -0.7013
# 5 3.3995 -15.0236 -2.9397 0.0000 40.8217 0.0000
# 6 0.0000 0.0000 0.0000 -0.7013 0.0000 22.5429
#
#
#
# Elastic Compliance Matrix: (Units=1/GPa)
#
#
# Indices 1 2 3 4 5 6 
#
# 1 0.018687 -0.005627 -0.000916 0.000000 -0.003693 0.000000
# 2 -0.005627 0.021513 -0.007212 0.000000 0.007867 0.000000
# 3 -0.000916 -0.007212 0.007594 0.000000 -0.002031 0.000000
# 4 0.000000 0.000000 0.000000 0.022877 0.000000 0.000712
# 5 -0.003693 0.007867 -0.002031 0.000000 0.027553 0.000000
# 6 0.000000 0.000000 0.000000 0.000712 0.000000 0.044382
#
#
# Mechanical properties :
#
#
# Convention : Reuss Voigt Hill
#
# Bulk Modulus (GPa) = 49.30429 71.89542 60.59985
# Shear Modulus (GPa) = 28.26829 36.08352 32.17591
#
# Velocity S-wave (km/s) = 3.64980 4.12357 3.89390
# Velocity P-wave (km/s) = 6.40276 7.52007 6.98380
#
# Compressibility (1/GPa) = 0.02028221
#
# Stress axis : x y z
#
# Youngs Moduli (GPa) = 53.51453 46.48442 131.68638
#
# Poissons Ratio (x) = 0.26158 0.12058
# Poissons Ratio (y) = 0.30114 0.94978
# Poissons Ratio (z) = 0.04900 0.33527
#
# Static dielectric constant tensor:
#      x y z
#    x 3.929020 0.000000 0.168130 
#    y 0.000000 3.540970 0.000000 
#    z 0.168130 0.000000 4.239680 
# 
# 
# High freq. dielectric constant tensor:
#      x y z
#    x 1.833570 0.000000 0.012640 
#    y 0.000000 1.806650 0.000000 
#    z 0.012640 0.000000 1.862510 
# 
# From -- ./inp_files/13615.got.cif
#   From: 2010.03.12/outbox.cif.g09.slc.cpg/sg5_7_cif.got.tgz:13615.got - 2010.03.31 09:47:26.
