data_PCOD8051248
_publ_section_title
;
Structure prediction by ZEFSAII (Michael W. Deem and Ramdas Pophale) SiO2 
 PCOD8051248
Probable space group: C 2
;
_chemical_formula_sum "Si O2"
_cell_formula_units_Z 30
_cell_length_a 16.843035
_cell_length_b 15.022889
_cell_length_c 10.950152
_cell_angle_alpha 90.000000
_cell_angle_beta 147.315804
_cell_angle_gamma 90.000000
_cell_volume 1496.216016
_symmetry_space_group_name_H-M "C 2"
_symmetry_group_IT_number 5
_symmetry_cell_setting 'monoclinic'
loop_
_space_group_symop_operation_xyz
x,y,z
-x,y,-z
1/2+x,1/2+y,z
1/2-x,1/2+y,-z
loop_
_atom_site_type_symbol
_atom_site_label
_atom_site_fract_x
_atom_site_fract_y
_atom_site_fract_z
Si Si1 0.615797 0.411500 0.884672
Si Si2 0.000000 0.624148 0.500000
Si Si3 0.647288 0.873887 0.617073
Si Si4 0.780099 0.536241 0.902571
Si Si5 0.348276 0.533200 0.530986
Si Si6 0.979336 0.197735 0.604805
Si Si7 0.407331 0.016309 0.620720
Si Si8 0.795392 0.719057 0.062908
O O1 0.686695 0.476284 0.875399
O O2 0.451938 0.449058 0.700007
O O3 0.607345 0.306842 0.838555
O O4 0.712042 0.413191 0.131516
O O5 0.063069 0.569760 0.466787
O O6 0.138917 0.682366 0.725348
O O7 0.500000 0.898953 0.500000
O O8 0.650573 0.768347 0.593536
O O9 0.646720 0.918428 0.484469
O O10 0.715933 0.520280 0.686471
O O11 0.792233 0.640162 0.957608
O O12 0.946948 0.503107 0.111591
O O13 0.441763 0.624198 0.656011
O O14 0.221253 0.555714 0.462867
O O15 0.000000 0.147461 0.500000
O O16 0.123867 0.249514 0.844648
#
# Coordination Sequence:
#
# PCOD8051248 Si02
#       8
#     4   2   4   4   4   4   4   4
#     4  12  22  38  70  98 128 169 216 275 319 380
#     4  10  24  42  66  88 132 176 222 262 338 392
#     4  11  19  40  67  88 118 174 226 249 309 405
#     4  11  21  42  65  91 133 178 218 253 331 403
#     4  12  25  38  63 103 135 161 218 282 325 368
#     4  11  19  40  68  94 125 170 225 256 316 397
#     4  11  23  43  64  90 132 177 214 267 332 393
#     4  11  21  39  68  97 124 176 219 266 314 400
#
# _framework density 20.050581999999999
#
# number of rings (size 3 to 8) (size 9 to 14) (size 15 to 20)
#    0.000    0.800    7.333    1.600    1.867    0.533 
#    4.800    0.000    0.000    0.000    0.000    0.000 
#    0.000    0.000    0.000    0.000    0.000    0.000 
#
# Total GULP energy -185840.339068 kJ/mol
# GULP energy per Si atom -12389.355938 kJ/mol
# Density = 2.000495 g / cm^3
# Si number density = 20.050582 Si / 1000 Ang^3
#
#
#
# Elastic Constant Matrix: (Units=GPa)
#
#
# Indices 1 2 3 4 5 6 
#
# 1 70.6133 41.1830 34.8636 0.0000 12.5749 0.0000
# 2 41.1830 93.1065 36.8906 0.0000 -11.3224 0.0000
# 3 34.8636 36.8906 145.4674 0.0000 -6.8041 0.0000
# 4 0.0000 0.0000 0.0000 32.2291 0.0000 -8.0118
# 5 12.5749 -11.3224 -6.8041 0.0000 17.6250 0.0000
# 6 0.0000 0.0000 0.0000 -8.0118 0.0000 13.4958
#
#
#
# Elastic Compliance Matrix: (Units=1/GPa)
#
#
# Indices 1 2 3 4 5 6 
#
# 1 0.033363 -0.017109 -0.005382 0.000000 -0.036872 0.000000
# 2 -0.017109 0.021524 -0.000143 0.000000 0.025979 0.000000
# 3 -0.005382 -0.000143 0.008530 0.000000 0.007041 0.000000
# 4 0.000000 0.000000 0.000000 0.036400 0.000000 0.021609
# 5 -0.036872 0.025979 0.007041 0.000000 0.102452 0.000000
# 6 0.000000 0.000000 0.000000 0.021609 0.000000 0.086925
#
#
# Mechanical properties :
#
#
# Convention : Reuss Voigt Hill
#
# Bulk Modulus (GPa) = 55.09759 59.45129 57.27444
# Shear Modulus (GPa) = 14.68380 25.75331 20.21855
#
# Velocity S-wave (km/s) = 2.70911 3.58776 3.17894
# Velocity P-wave (km/s) = 6.10939 6.84673 6.48854
#
# Compressibility (1/GPa) = 0.01814961
#
# Stress axis : x y z
#
# Youngs Moduli (GPa) = 29.97300 46.46007 117.23558
#
# Poissons Ratio (x) = 0.79488 0.63095
# Poissons Ratio (y) = 0.51280 0.01675
# Poissons Ratio (z) = 0.16131 0.00664
#
# Static dielectric constant tensor:
#      x y z
#    x 3.564650 0.000000 0.039190 
#    y 0.000000 3.801100 0.000000 
#    z 0.039190 0.000000 4.147480 
# 
# 
# High freq. dielectric constant tensor:
#      x y z
#    x 1.738280 0.000000 -0.005850 
#    y 0.000000 1.789570 0.000000 
#    z -0.005850 0.000000 1.807070 
# 
# From -- ./inp_files/44919.got.cif
#   From: 2010.03.12/outbox.cif.g09.slc.cpg/sg5_23_cif.got.tgz:44919.got - 2010.03.31 09:47:26.
