data_PCOD8051666
_publ_section_title
;
Structure prediction by ZEFSAII (Michael W. Deem and Ramdas Pophale) SiO2 
 PCOD8051666
Probable space group: C 2
;
_chemical_formula_sum "Si O2"
_cell_formula_units_Z 28
_cell_length_a 17.688062
_cell_length_b 8.675312
_cell_length_c 14.215037
_cell_angle_alpha 90.000000
_cell_angle_beta 142.287295
_cell_angle_gamma 90.000000
_cell_volume 1334.300308
_symmetry_space_group_name_H-M "C 2"
_symmetry_group_IT_number 5
_symmetry_cell_setting 'monoclinic'
loop_
_space_group_symop_operation_xyz
x,y,z
-x,y,-z
1/2+x,1/2+y,z
1/2-x,1/2+y,-z
loop_
_atom_site_type_symbol
_atom_site_label
_atom_site_fract_x
_atom_site_fract_y
_atom_site_fract_z
Si Si1 0.905298 0.921160 0.092869
Si Si2 0.080905 0.379316 0.665570
Si Si3 0.913761 0.388001 0.993891
Si Si4 0.405746 0.851019 0.658193
Si Si5 0.197506 0.068277 0.179389
Si Si6 0.667883 0.523091 0.372910
Si Si7 0.252353 0.637061 0.074692
O O1 0.047397 0.914322 0.264478
O O2 0.829928 0.062075 0.066720
O O3 0.847174 0.757405 0.066054
O O4 0.895391 0.954917 0.970418
O O5 0.164321 0.527769 0.721462
O O6 0.160282 0.230270 0.769596
O O7 0.000000 0.322839 0.500000
O O8 0.990841 0.424947 0.661548
O O9 0.840153 0.242980 0.879254
O O10 0.813273 0.507045 0.929736
O O11 0.000000 0.466571 0.000000
O O12 0.010217 0.338842 0.167709
O O13 0.359758 0.677826 0.596305
O O14 0.282606 0.953178 0.543029
O O15 0.194682 0.043103 0.288415
#
# Coordination Sequence:
#
# PCOD8051666 Si02
#       7
#     4   4   4   4   4   4   4
#     4  11  22  43  69 100 135 185 239 287 350 432
#     4  11  23  45  70 101 144 184 236 293 357 422
#     4  12  24  45  71 103 139 184 245 297 347 427
#     4  12  26  45  68 101 147 184 234 301 357 417
#     4  11  21  44  75  97 132 192 238 283 350 425
#     4  12  25  44  70 101 143 189 230 293 365 421
#     4  11  25  41  70 100 137 185 234 299 354 417
#
# _framework density 20.984780000000001
#
# number of rings (size 3 to 8) (size 9 to 14) (size 15 to 20)
#    0.000    0.571    5.714    3.000    2.000    3.429 
#    0.000    0.714    0.000    0.000    0.000    0.000 
#    0.000    0.000    0.000    0.000    0.000    0.000 
#
# Total GULP energy -173564.699592 kJ/mol
# GULP energy per Si atom -12397.478542 kJ/mol
# Density = 2.093702 g / cm^3
# Si number density = 20.984780 Si / 1000 Ang^3
#
#
#
# Elastic Constant Matrix: (Units=GPa)
#
#
# Indices 1 2 3 4 5 6 
#
# 1 102.5528 29.9253 33.8063 0.0000 16.8544 0.0000
# 2 29.9253 80.4750 35.8892 0.0000 12.1268 0.0000
# 3 33.8063 35.8892 85.2093 0.0000 17.6424 0.0000
# 4 0.0000 0.0000 0.0000 51.1315 0.0000 11.2702
# 5 16.8544 12.1268 17.6424 0.0000 37.2215 0.0000
# 6 0.0000 0.0000 0.0000 11.2702 0.0000 33.1203
#
#
#
# Elastic Compliance Matrix: (Units=1/GPa)
#
#
# Indices 1 2 3 4 5 6 
#
# 1 0.012036 -0.002662 -0.003000 0.000000 -0.003161 0.000000
# 2 -0.002662 0.016044 -0.005399 0.000000 -0.001463 0.000000
# 3 -0.003000 -0.005399 0.016138 0.000000 -0.004532 0.000000
# 4 0.000000 0.000000 0.000000 0.021143 0.000000 -0.007195
# 5 -0.003161 -0.001463 -0.004532 0.000000 0.030922 0.000000
# 6 0.000000 0.000000 0.000000 -0.007195 0.000000 0.032641
#
#
# Mechanical properties :
#
#
# Convention : Reuss Voigt Hill
#
# Bulk Modulus (GPa) = 45.25232 51.94208 48.59720
# Shear Modulus (GPa) = 31.56343 35.53575 33.54959
#
# Velocity S-wave (km/s) = 3.88249 4.11957 4.00279
# Velocity P-wave (km/s) = 6.45829 6.88722 6.67620
#
# Compressibility (1/GPa) = 0.02209832
#
# Stress axis : x y z
#
# Youngs Moduli (GPa) = 83.08327 62.32833 61.96501
#
# Poissons Ratio (x) = 0.16589 0.18588
# Poissons Ratio (y) = 0.22113 0.33453
# Poissons Ratio (z) = 0.24923 0.33649
#
# Static dielectric constant tensor:
#      x y z
#    x 3.866000 0.000000 0.322460 
#    y 0.000000 3.729780 0.000000 
#    z 0.322460 0.000000 3.851300 
# 
# 
# High freq. dielectric constant tensor:
#      x y z
#    x 1.834800 0.000000 0.011590 
#    y 0.000000 1.812660 0.000000 
#    z 0.011590 0.000000 1.829410 
# 
# From -- ./inp_files/55767.got.cif
#   From: 2010.03.12/outbox.cif.g09.slc.cpg/sg5_28_cif.got.tgz:55767.got - 2010.03.31 09:47:26.
