data_PCOD8051697
_publ_section_title
;
Structure prediction by ZEFSAII (Michael W. Deem and Ramdas Pophale) SiO2 
 PCOD8051697
Probable space group: C 2
;
_chemical_formula_sum "Si O2"
_cell_formula_units_Z 32
_cell_length_a 14.056307
_cell_length_b 22.190139
_cell_length_c 8.605660
_cell_angle_alpha 90.000000
_cell_angle_beta 29.583796
_cell_angle_gamma 90.000000
_cell_volume 1325.180382
_symmetry_space_group_name_H-M "C 2"
_symmetry_group_IT_number 5
_symmetry_cell_setting 'monoclinic'
loop_
_space_group_symop_operation_xyz
x,y,z
-x,y,-z
1/2+x,1/2+y,z
1/2-x,1/2+y,-z
loop_
_atom_site_type_symbol
_atom_site_label
_atom_site_fract_x
_atom_site_fract_y
_atom_site_fract_z
Si Si1 0.150724 0.519730 0.158856
Si Si2 0.415368 0.149684 0.876146
Si Si3 0.205139 0.457694 0.758552
Si Si4 0.456910 0.785192 0.239907
Si Si5 0.792143 0.161079 0.517651
Si Si6 0.036891 0.041628 0.777397
Si Si7 0.914279 0.860596 0.279694
Si Si8 0.153357 0.777219 0.151098
O O1 0.078389 0.587400 0.226760
O O2 0.000000 0.493032 0.500000
O O3 0.174981 0.474301 0.980686
O O4 0.365891 0.520163 0.913402
O O5 0.632231 0.168857 0.611063
O O6 0.324060 0.205401 0.910191
O O7 0.293094 0.135637 0.202024
O O8 0.260165 0.516865 0.579525
O O9 0.371175 0.408669 0.479275
O O10 0.000000 0.430610 0.000000
O O11 0.387707 0.724318 0.419722
O O12 0.288477 0.833509 0.488247
O O13 0.500000 0.770634 0.000000
O O14 0.645111 0.805459 0.071798
O O15 0.952395 0.113922 0.233027
O O16 0.000000 0.015545 0.000000
O O17 0.072409 0.811652 0.113521
O O18 0.000000 0.890613 0.000000
O O19 0.000000 0.789456 0.500000
#
# Coordination Sequence:
#
# PCOD8051697 Si02
#       8
#     4   4   4   4   4   4   4   4
#     4  12  26  46  76 112 153 197 259 318 391 467
#     4  11  22  41  69 114 156 201 245 316 391 473
#     4  12  27  51  78 106 150 202 257 325 386 452
#     4  12  24  46  74 113 154 204 261 322 390 459
#     4  11  22  39  72 108 158 202 243 315 394 463
#     4  12  25  45  73 111 150 201 253 314 389 458
#     4  12  28  52  79 112 153 208 264 327 386 461
#     4  12  25  44  77 112 156 203 257 318 394 469
#
# _framework density 24.147655
#
# number of rings (size 3 to 8) (size 9 to 14) (size 15 to 20)
#    0.000    0.250    3.750    5.625    0.000    4.000 
#    0.000    0.000    2.750    0.000    0.000    0.000 
#    0.000    0.000    0.000    0.000    0.000    0.000 
#
# Total GULP energy -198401.182603 kJ/mol
# GULP energy per Si atom -12400.073913 kJ/mol
# Density = 2.409269 g / cm^3
# Si number density = 24.147655 Si / 1000 Ang^3
#
#
#
# Elastic Constant Matrix: (Units=GPa)
#
#
# Indices 1 2 3 4 5 6 
#
# 1 135.2304 27.7172 58.0601 0.0000 -9.4243 0.0001
# 2 27.7172 103.9933 40.1279 0.0000 6.3112 -0.0001
# 3 58.0601 40.1279 136.1673 0.0009 12.2107 0.0004
# 4 0.0000 0.0000 0.0009 40.9305 -0.0001 -0.5175
# 5 -9.4243 6.3112 12.2107 -0.0001 53.9249 -0.0003
# 6 0.0001 -0.0001 0.0004 -0.5175 -0.0003 24.4928
#
#
#
# Elastic Compliance Matrix: (Units=1/GPa)
#
#
# Indices 1 2 3 4 5 6 
#
# 1 0.009522 -0.001175 -0.003956 0.000000 0.002697 0.000000
# 2 -0.001175 0.011011 -0.002664 0.000000 -0.000891 0.000000
# 3 -0.003956 -0.002664 0.010054 0.000000 -0.002656 0.000000
# 4 0.000000 0.000000 0.000000 0.024438 0.000000 0.000516
# 5 0.002697 -0.000891 -0.002656 0.000000 0.019721 0.000000
# 6 0.000000 0.000000 0.000000 0.000516 0.000000 0.040839
#
#
# Mechanical properties :
#
#
# Convention : Reuss Voigt Hill
#
# Bulk Modulus (GPa) = 66.67833 69.68903 68.18368
# Shear Modulus (GPa) = 36.71757 40.50202 38.60979
#
# Velocity S-wave (km/s) = 3.90365 4.09989 4.00297
# Velocity P-wave (km/s) = 6.92753 7.16479 7.04716
#
# Compressibility (1/GPa) = 0.01499738
#
# Stress axis : x y z
#
# Youngs Moduli (GPa) = 105.02049 90.81625 99.46518
#
# Poissons Ratio (x) = 0.10673 0.39344
# Poissons Ratio (y) = 0.12342 0.26497
# Poissons Ratio (z) = 0.41542 0.24193
#
# Static dielectric constant tensor:
#      x y z
#    x 4.318260 0.000000 -0.063730 
#    y 0.000000 4.277310 0.000000 
#    z -0.063730 0.000000 4.509150 
# 
# 
# High freq. dielectric constant tensor:
#      x y z
#    x 1.958360 0.000000 0.002920 
#    y 0.000000 1.953100 0.000000 
#    z 0.002920 0.000000 1.972970 
# 
# From -- ./inp_files/25570.got.cif
#   From: 2010.03.12/outbox.cif.g09.slc.cpg/sg5_13_cif.got.tgz:25570.got - 2010.03.31 09:47:26.
