data_PCOD8051352
_publ_section_title
;
Structure prediction by ZEFSAII (Michael W. Deem and Ramdas Pophale) SiO2 
 PCOD8051352
Probable space group: C 2
;
_chemical_formula_sum "Si O2"
_cell_formula_units_Z 22
_cell_length_a 11.593445
_cell_length_b 11.631124
_cell_length_c 14.018433
_cell_angle_alpha 90.000000
_cell_angle_beta 147.906682
_cell_angle_gamma 90.000000
_cell_volume 1004.322749
_symmetry_space_group_name_H-M "C 2"
_symmetry_group_IT_number 5
_symmetry_cell_setting 'monoclinic'
loop_
_space_group_symop_operation_xyz
x,y,z
-x,y,-z
1/2+x,1/2+y,z
1/2-x,1/2+y,-z
loop_
_atom_site_type_symbol
_atom_site_label
_atom_site_fract_x
_atom_site_fract_y
_atom_site_fract_z
Si Si1 0.163896 0.889150 0.247027
Si Si2 0.526814 0.634582 0.129043
Si Si3 0.704891 0.203876 0.044303
Si Si4 0.000000 0.498136 0.000000
Si Si5 0.249987 0.356839 0.327965
Si Si6 0.033459 0.348783 0.372543
O O1 0.342784 0.923004 0.290715
O O2 0.274329 0.828842 0.416543
O O3 0.059014 0.010877 0.202904
O O4 0.984374 0.799417 0.082996
O O5 0.303329 0.695207 0.007243
O O6 0.723707 0.719338 0.295842
O O7 0.500000 0.612267 0.000000
O O8 0.627392 0.077935 0.016073
O O9 0.905634 0.231566 0.256677
O O10 0.152340 0.416949 0.167575
O O11 0.500000 0.389810 0.500000
O O12 0.134424 0.401215 0.345462
#
# Coordination Sequence:
#
# PCOD8051352 Si02
#       6
#     4   4   4   2   4   4
#     4  11  24  47  73 102 138 174 239 286 343 413
#     4  11  26  43  74 101 138 184 229 288 353 400
#     4  11  25  46  73  99 137 182 232 285 346 412
#     4  12  26  48  70  98 140 184 232 282 346 414
#     4  11  28  46  67 101 144 182 234 282 350 406
#     4  10  24  46  69 103 131 181 233 281 346 409
#
# _framework density 21.905308999999999
#
# number of rings (size 3 to 8) (size 9 to 14) (size 15 to 20)
#    0.000    1.091    2.727    1.091   15.273    1.455 
#    3.273    0.000    0.000    0.000    0.000    0.000 
#    0.000    0.000    0.000    0.000    0.000    0.000 
#
# Total GULP energy -136318.900498 kJ/mol
# GULP energy per Si atom -12392.627318 kJ/mol
# Density = 2.185545 g / cm^3
# Si number density = 21.905309 Si / 1000 Ang^3
#
#
#
# Elastic Constant Matrix: (Units=GPa)
#
#
# Indices 1 2 3 4 5 6 
#
# 1 104.4364 35.9854 66.3060 -0.0155 10.0131 0.0045
# 2 35.9854 114.0383 60.0079 -0.0189 -4.2736 0.0077
# 3 66.3060 60.0079 158.3708 -0.0348 -5.8014 0.0149
# 4 -0.0155 -0.0189 -0.0348 -0.0105 -0.0047 10.2852
# 5 10.0131 -4.2736 -5.8014 -0.0047 36.3300 0.0045
# 6 0.0045 0.0077 0.0149 10.2852 0.0045 24.8936
#
#
#
# Elastic Compliance Matrix: (Units=1/GPa)
#
#
# Indices 1 2 3 4 5 6 
#
# 1 0.014100 -0.001790 -0.005407 0.000011 -0.004960 -0.000003
# 2 -0.001790 0.011194 -0.003446 -0.000020 0.001260 0.000007
# 3 -0.005407 -0.003446 0.009982 -0.000060 0.002679 0.000020
# 4 0.000011 -0.000020 -0.000060 -0.234741 -0.000058 0.096987
# 5 -0.004960 0.001260 0.002679 -0.000058 0.029469 0.000017
# 6 -0.000003 0.000007 0.000020 0.096987 0.000017 0.000099
#
#
# Mechanical properties :
#
#
# Convention : Reuss Voigt Hill
#
# Bulk Modulus (GPa) = 71.47684 77.93824 74.70754
# Shear Modulus (GPa) = -34.73504 26.54570 -4.09467
#
# Velocity S-wave (km/s) = -3.98639 3.48492 -1.36869
# Velocity P-wave (km/s) = 3.39298 7.20068 5.62859
#
# Compressibility (1/GPa) = 0.01399055
#
# Stress axis : x y z
#
# Youngs Moduli (GPa) = 70.91975 89.33027 100.18172
#
# Poissons Ratio (x) = 0.15992 0.54167
# Poissons Ratio (y) = 0.12696 0.34522
# Poissons Ratio (z) = 0.38346 0.30783
#
# Static dielectric constant tensor:
#      x y z
#    x 4.254730 -0.000010 0.089350 
#    y -0.000010 3.771460 0.000030 
#    z 0.089350 0.000030 4.307610 
# 
# 
# High freq. dielectric constant tensor:
#      x y z
#    x 1.881810 0.000000 0.002140 
#    y 0.000000 1.842240 0.000000 
#    z 0.002140 0.000000 1.862470 
# 
# From -- ./inp_files/52909.got.cif
#   From: 2010.03.12/outbox.cif.g09.slc.cpg/sg5_27_cif.got.tgz:52909.got - 2010.03.31 09:47:26.
