data_PCOD8051864
_publ_section_title
;
Structure prediction by ZEFSAII (Michael W. Deem and Ramdas Pophale) SiO2 
 PCOD8051864
Probable space group: C 2
;
_chemical_formula_sum "Si O2"
_cell_formula_units_Z 20
_cell_length_a 9.375780
_cell_length_b 22.154496
_cell_length_c 8.148848
_cell_angle_alpha 90.000000
_cell_angle_beta 31.173585
_cell_angle_gamma 90.000000
_cell_volume 876.167471
_symmetry_space_group_name_H-M "C 2"
_symmetry_group_IT_number 5
_symmetry_cell_setting 'monoclinic'
loop_
_space_group_symop_operation_xyz
x,y,z
-x,y,-z
1/2+x,1/2+y,z
1/2-x,1/2+y,-z
loop_
_atom_site_type_symbol
_atom_site_label
_atom_site_fract_x
_atom_site_fract_y
_atom_site_fract_z
Si Si1 0.242251 0.685440 0.638546
Si Si2 0.122141 0.818718 0.700125
Si Si3 0.626445 0.879850 0.055088
Si Si4 0.888773 0.006935 0.794043
Si Si5 0.607774 0.071682 0.577197
O O1 0.500000 0.677568 0.500000
O O2 0.231118 0.751001 0.564580
O O3 0.237856 0.635893 0.499476
O O4 0.000000 0.674771 0.000000
O O5 0.379885 0.863569 0.422068
O O6 0.000000 0.829495 0.000000
O O7 0.873116 0.830865 0.817612
O O8 0.500000 0.882864 0.000000
O O9 0.762440 0.943094 0.972644
O O10 0.000000 0.006776 0.500000
O O11 0.148847 0.021990 0.653939
O O12 0.644757 0.055698 0.052740
O O13 0.500000 0.075224 0.500000
#
# Coordination Sequence:
#
# PCOD8051864 Si02
#       5
#     4   4   4   4   4
#     4  11  23  44  70  96 132 180 221 260 326 409
#     4  11  24  44  69 100 135 174 222 272 327 391
#     4  12  25  43  68  98 134 177 223 271 327 390
#     4  12  25  46  69  94 135 182 222 263 328 410
#     4  12  26  43  69 104 133 167 221 284 335 376
#
# _framework density 22.826688999999998
#
# number of rings (size 3 to 8) (size 9 to 14) (size 15 to 20)
#    0.000    0.400    0.000   11.400    0.000    4.800 
#    0.000    3.000    0.000    0.000    0.000    0.000 
#    0.000    0.000    0.000    0.000    0.000    0.000 
#
# Total GULP energy -124032.163234 kJ/mol
# GULP energy per Si atom -12403.216323 kJ/mol
# Density = 2.277473 g / cm^3
# Si number density = 22.826689 Si / 1000 Ang^3
#
#
#
# Elastic Constant Matrix: (Units=GPa)
#
#
# Indices 1 2 3 4 5 6 
#
# 1 143.2619 92.0388 54.8269 0.0000 -36.9443 0.0000
# 2 92.0388 147.0529 81.3076 0.0000 -0.7312 0.0000
# 3 54.8269 81.3076 165.3848 0.0000 -26.3080 0.0000
# 4 0.0000 0.0000 0.0000 41.9293 0.0000 -9.1369
# 5 -36.9443 -0.7312 -26.3080 0.0000 42.7940 0.0000
# 6 0.0000 0.0000 0.0000 -9.1369 0.0000 40.0920
#
#
#
# Elastic Compliance Matrix: (Units=1/GPa)
#
#
# Indices 1 2 3 4 5 6 
#
# 1 0.019456 -0.013948 0.003371 0.000000 0.018630 0.000000
# 2 -0.013948 0.019688 -0.007667 0.000000 -0.016418 0.000000
# 3 0.003371 -0.007667 0.010131 0.000000 0.009007 0.000000
# 4 0.000000 0.000000 0.000000 0.025096 0.000000 0.005719
# 5 0.018630 -0.016418 0.009007 0.000000 0.044708 0.000000
# 6 0.000000 0.000000 0.000000 0.005719 0.000000 0.026246
#
#
# Mechanical properties :
#
#
# Convention : Reuss Voigt Hill
#
# Bulk Modulus (GPa) = 78.20767 101.33846 89.77307
# Shear Modulus (GPa) = 26.87099 40.13148 33.50124
#
# Velocity S-wave (km/s) = 3.43472 4.19751 3.83513
# Velocity P-wave (km/s) = 7.07571 8.24520 7.68274
#
# Compressibility (1/GPa) = 0.01278647
#
# Stress axis : x y z
#
# Youngs Moduli (GPa) = 51.39929 50.79299 98.70795
#
# Poissons Ratio (x) = 0.70848 -0.33276
# Poissons Ratio (y) = 0.71693 0.75676
# Poissons Ratio (z) = -0.17328 0.38941
#
# Static dielectric constant tensor:
#      x y z
#    x 4.068690 0.000000 -0.386920 
#    y 0.000000 4.419230 0.000000 
#    z -0.386920 0.000000 4.531400 
# 
# 
# High freq. dielectric constant tensor:
#      x y z
#    x 1.899590 0.000000 -0.022320 
#    y 0.000000 1.906110 0.000000 
#    z -0.022320 0.000000 1.923280 
# 
# From -- ./inp_files/17284.got.cif
#   From: 2010.03.12/outbox.cif.g09.slc.cpg/sg5_9_cif.got.tgz:17284.got - 2010.03.31 09:47:26.
