data_PCOD8051028
_publ_section_title
;
Structure prediction by ZEFSAII (Michael W. Deem and Ramdas Pophale) SiO2 
 PCOD8051028
Probable space group: C 2
;
_chemical_formula_sum "Si O2"
_cell_formula_units_Z 32
_cell_length_a 9.466380
_cell_length_b 10.111495
_cell_length_c 15.206826
_cell_angle_alpha 90.000000
_cell_angle_beta 106.622357
_cell_angle_gamma 90.000000
_cell_volume 1394.758592
_symmetry_space_group_name_H-M "C 2"
_symmetry_group_IT_number 5
_symmetry_cell_setting 'monoclinic'
loop_
_space_group_symop_operation_xyz
x,y,z
-x,y,-z
1/2+x,1/2+y,z
1/2-x,1/2+y,-z
loop_
_atom_site_type_symbol
_atom_site_label
_atom_site_fract_x
_atom_site_fract_y
_atom_site_fract_z
Si Si1 0.732004 0.646060 0.081181
Si Si2 0.131307 0.383566 0.473586
Si Si3 0.899110 0.866216 0.206947
Si Si4 0.809463 0.905985 0.665606
Si Si5 0.923780 0.151476 0.123883
Si Si6 0.896209 0.429941 0.208535
Si Si7 0.500319 0.615883 0.600080
Si Si8 0.217411 0.488114 0.312682
O O1 0.841224 0.765792 0.123939
O O2 0.582924 0.658818 0.108863
O O3 0.808000 0.505742 0.116160
O O4 0.703364 0.656422 0.972495
O O5 0.241643 0.329397 0.569159
O O6 0.216146 0.467378 0.417264
O O7 0.000000 0.465463 0.500000
O O8 0.051211 0.266359 0.406578
O O9 0.793217 0.865565 0.273869
O O10 0.063419 0.818535 0.264887
O O11 0.903473 0.014811 0.170730
O O12 0.685185 0.947938 0.713029
O O13 0.887095 0.037917 0.641786
O O14 0.908556 0.275817 0.186551
O O15 0.053845 0.505464 0.244979
O O16 0.500000 0.560538 0.500000
O O17 0.666436 0.610676 0.672748
#
# Coordination Sequence:
#
# PCOD8051028 Si02
#       8
#     4   4   4   4   4   4   4   4
#     4  11  25  48  74 108 142 187 233 299 368 433
#     4  11  23  41  68  97 136 190 230 292 348 405
#     4  11  25  45  75 105 144 188 238 295 360 427
#     4  11  24  43  68 104 141 186 242 288 354 417
#     4  11  25  49  74 106 148 182 231 301 371 428
#     4  12  25  45  77 106 144 188 239 295 359 428
#     4  10  23  41  69  92 137 185 235 288 351 400
#     4  11  24  41  67 101 140 181 240 285 345 417
#
# _framework density 22.943038999999999
#
# number of rings (size 3 to 8) (size 9 to 14) (size 15 to 20)
#    0.000    1.000    5.000    0.750    5.250    3.000 
#    0.000    1.250   11.000    0.000    0.000    0.000 
#    0.000    0.000    0.000    0.000    0.000    0.000 
#
# Total GULP energy -198307.569769 kJ/mol
# GULP energy per Si atom -12394.223111 kJ/mol
# Density = 2.289082 g / cm^3
# Si number density = 22.943039 Si / 1000 Ang^3
#
#
#
# Elastic Constant Matrix: (Units=GPa)
#
#
# Indices 1 2 3 4 5 6 
#
# 1 114.1426 13.6352 36.2799 0.0000 9.8374 0.0000
# 2 13.6352 77.4052 16.6963 0.0000 4.9732 0.0000
# 3 36.2799 16.6963 118.9778 0.0000 19.1387 0.0000
# 4 0.0000 0.0000 0.0000 42.2351 0.0000 5.5460
# 5 9.8374 4.9732 19.1387 0.0000 48.8106 0.0000
# 6 0.0000 0.0000 0.0000 5.5460 0.0000 21.0553
#
#
#
# Elastic Compliance Matrix: (Units=1/GPa)
#
#
# Indices 1 2 3 4 5 6 
#
# 1 0.009823 -0.001094 -0.002712 0.000000 -0.000805 0.000000
# 2 -0.001094 0.013464 -0.001463 0.000000 -0.000578 0.000000
# 3 -0.002712 -0.001463 0.009953 0.000000 -0.003207 0.000000
# 4 0.000000 0.000000 0.000000 0.024525 0.000000 -0.006460
# 5 -0.000805 -0.000578 -0.003207 0.000000 0.021966 0.000000
# 6 0.000000 0.000000 0.000000 -0.006460 0.000000 0.049195
#
#
# Mechanical properties :
#
#
# Convention : Reuss Voigt Hill
#
# Bulk Modulus (GPa) = 44.04802 49.30540 46.67671
# Shear Modulus (GPa) = 34.00597 38.68114 36.34356
#
# Velocity S-wave (km/s) = 3.85410 4.11050 3.98437
# Velocity P-wave (km/s) = 6.24868 6.63817 6.44637
#
# Compressibility (1/GPa) = 0.02270250
#
# Stress axis : x y z
#
# Youngs Moduli (GPa) = 101.80071 74.27008 100.47008
#
# Poissons Ratio (x) = 0.08122 0.27252
# Poissons Ratio (y) = 0.11133 0.14699
# Poissons Ratio (z) = 0.27613 0.10866
#
# Static dielectric constant tensor:
#      x y z
#    x 4.528260 0.000000 0.246610 
#    y 0.000000 3.704040 0.000000 
#    z 0.246610 0.000000 4.552830 
# 
# 
# High freq. dielectric constant tensor:
#      x y z
#    x 1.923190 0.000000 0.008080 
#    y 0.000000 1.876980 0.000000 
#    z 0.008080 0.000000 1.926450 
# 
# From -- ./inp_files/50528.got.cif
#   From: 2010.03.12/outbox.cif.g09.slc.cpg/sg5_26_cif.got.tgz:50528.got - 2010.03.31 09:47:26.
