data_PCOD8051302
_publ_section_title
;
Structure prediction by ZEFSAII (Michael W. Deem and Ramdas Pophale) SiO2 
 PCOD8051302
Probable space group: C 2
;
_chemical_formula_sum "Si O2"
_cell_formula_units_Z 32
_cell_length_a 11.647713
_cell_length_b 14.630215
_cell_length_c 16.937761
_cell_angle_alpha 90.000000
_cell_angle_beta 149.994796
_cell_angle_gamma 90.000000
_cell_volume 1443.396637
_symmetry_space_group_name_H-M "C 2"
_symmetry_group_IT_number 5
_symmetry_cell_setting 'monoclinic'
loop_
_space_group_symop_operation_xyz
x,y,z
-x,y,-z
1/2+x,1/2+y,z
1/2-x,1/2+y,-z
loop_
_atom_site_type_symbol
_atom_site_label
_atom_site_fract_x
_atom_site_fract_y
_atom_site_fract_z
Si Si1 0.843340 0.080240 0.732424
Si Si2 0.846343 0.226991 0.128202
Si Si3 0.336615 0.042230 0.024415
Si Si4 0.326003 0.295857 0.672217
Si Si5 0.414643 0.841151 0.322234
Si Si6 0.259647 0.094063 0.634506
Si Si7 0.683305 0.846709 0.046732
Si Si8 0.575903 0.035240 0.426350
O O1 0.739786 0.017244 0.599811
O O2 0.651381 0.092555 0.685239
O O3 0.901051 0.180427 0.729899
O O4 0.077917 0.036027 0.908653
O O5 0.816784 0.282191 0.191729
O O6 0.822698 0.297151 0.041623
O O7 0.660419 0.142417 0.017254
O O8 0.546445 0.029656 0.210507
O O9 0.361828 0.955435 0.982126
O O10 0.273739 0.356052 0.719984
O O11 0.328301 0.193216 0.707326
O O12 0.132080 0.292027 0.490244
O O13 0.559469 0.327838 0.768868
O O14 0.493782 0.940042 0.339537
O O15 0.282566 0.090800 0.553872
O O16 0.000000 0.063665 0.500000
O O17 0.500000 0.804695 0.000000
#
# Coordination Sequence:
#
# PCOD8051302 Si02
#       8
#     4   4   4   4   4   4   4   4
#     4   9  21  42  69  99 133 179 228 281 356 409
#     4  10  24  44  66 102 134 176 234 283 345 408
#     4  10  24  45  68  98 142 181 229 288 353 414
#     4  11  23  43  69  98 134 180 229 282 343 418
#     4  11  22  42  69 102 131 175 234 285 337 410
#     4  12  25  43  69 100 137 182 235 285 349 410
#     4  12  26  46  68 100 138 185 231 286 357 416
#     4  11  22  40  71  99 136 178 231 286 344 416
#
# _framework density 22.169927999999999
#
# number of rings (size 3 to 8) (size 9 to 14) (size 15 to 20)
#    0.750    0.500    2.500    4.500    1.750    4.000 
#    0.000    2.500    0.000    0.000    0.000    0.000 
#    0.000    0.000    0.000    0.000    0.000    0.000 
#
# Total GULP energy -198243.130909 kJ/mol
# GULP energy per Si atom -12390.195682 kJ/mol
# Density = 2.211947 g / cm^3
# Si number density = 22.169928 Si / 1000 Ang^3
#
#
#
# Elastic Constant Matrix: (Units=GPa)
#
#
# Indices 1 2 3 4 5 6 
#
# 1 122.5795 17.7451 58.2845 0.0106 13.9082 -0.0103
# 2 17.7451 80.9627 23.7572 0.0012 -5.1241 0.0071
# 3 58.2845 23.7572 128.4789 0.0038 20.6842 0.0079
# 4 0.0106 0.0012 0.0038 33.7205 0.0135 1.0436
# 5 13.9082 -5.1241 20.6842 0.0135 39.3035 -0.0072
# 6 -0.0103 0.0071 0.0079 1.0436 -0.0072 21.3376
#
#
#
# Elastic Compliance Matrix: (Units=1/GPa)
#
#
# Indices 1 2 3 4 5 6 
#
# 1 0.010561 -0.001150 -0.004318 -0.000002 -0.001614 0.000007
# 2 -0.001150 0.013576 -0.002556 -0.000001 0.003522 -0.000003
# 3 -0.004318 -0.002556 0.010950 0.000002 -0.004568 -0.000007
# 4 -0.000002 -0.000001 0.000002 0.029701 -0.000011 -0.001453
# 5 -0.001614 0.003522 -0.004568 -0.000011 0.028877 0.000010
# 6 0.000007 -0.000003 -0.000007 -0.001453 0.000010 0.046937
#
#
# Mechanical properties :
#
#
# Convention : Reuss Voigt Hill
#
# Bulk Modulus (GPa) = 52.52205 59.06607 55.79406
# Shear Modulus (GPa) = 30.67547 34.35461 32.51504
#
# Velocity S-wave (km/s) = 3.72378 3.94077 3.83381
# Velocity P-wave (km/s) = 6.49853 6.88524 6.69468
#
# Compressibility (1/GPa) = 0.01903962
#
# Stress axis : x y z
#
# Youngs Moduli (GPa) = 94.68848 73.65821 91.32028
#
# Poissons Ratio (x) = 0.08468 0.39437
# Poissons Ratio (y) = 0.10886 0.23340
# Poissons Ratio (z) = 0.40891 0.18826
#
# Static dielectric constant tensor:
#      x y z
#    x 3.675260 -0.000020 0.225710 
#    y -0.000020 3.954230 0.000010 
#    z 0.225710 0.000010 4.010650 
# 
# 
# High freq. dielectric constant tensor:
#      x y z
#    x 1.851940 0.000000 0.012160 
#    y 0.000000 1.871150 0.000000 
#    z 0.012160 0.000000 1.875070 
# 
# From -- ./inp_files/60724.got.cif
#   From: 2010.03.12/outbox.cif.g09.slc.cpg/sg5_31_cif.got.tgz:60724.got - 2010.03.31 09:47:26.
