data_PCOD8051099
_publ_section_title
;
Structure prediction by ZEFSAII (Michael W. Deem and Ramdas Pophale) SiO2 
 PCOD8051099
Probable space group: C 2
;
_chemical_formula_sum "Si O2"
_cell_formula_units_Z 28
_cell_length_a 17.514810
_cell_length_b 5.216964
_cell_length_c 14.990402
_cell_angle_alpha 90.000000
_cell_angle_beta 119.937966
_cell_angle_gamma 90.000000
_cell_volume 1186.966106
_symmetry_space_group_name_H-M "C 2"
_symmetry_group_IT_number 5
_symmetry_cell_setting 'monoclinic'
loop_
_space_group_symop_operation_xyz
x,y,z
-x,y,-z
1/2+x,1/2+y,z
1/2-x,1/2+y,-z
loop_
_atom_site_type_symbol
_atom_site_label
_atom_site_fract_x
_atom_site_fract_y
_atom_site_fract_z
Si Si1 0.129469 0.753920 0.736675
Si Si2 0.000625 0.631743 0.798672
Si Si3 0.648375 0.942848 0.389652
Si Si4 0.961615 0.143831 0.071861
Si Si5 0.319664 0.220544 0.423320
Si Si6 0.767230 0.325318 0.959487
Si Si7 0.473451 0.585744 0.577346
O O1 0.163794 0.612777 0.666750
O O2 0.213645 0.869869 0.836992
O O3 0.076185 0.557909 0.769535
O O4 0.063016 0.981481 0.672576
O O5 0.906165 0.666805 0.693188
O O6 0.991258 0.398401 0.862624
O O7 0.026530 0.902241 0.856552
O O8 0.727262 0.871992 0.368709
O O9 0.573100 0.736999 0.369718
O O10 0.694137 0.999104 0.511699
O O11 0.860275 0.198156 0.994674
O O12 0.000000 0.063641 0.000000
O O13 0.406430 0.367615 0.505770
O O14 0.782736 0.606964 0.010958
O O15 0.500000 0.738860 0.500000
#
# Coordination Sequence:
#
# PCOD8051099 Si02
#       7
#     4   4   4   4   4   4   4
#     4  11  24  47  71 106 140 193 249 298 374 439
#     4  12  26  46  80 105 150 189 250 299 369 441
#     4  12  25  44  71 104 149 192 248 307 364 439
#     4  12  27  51  75 112 145 196 240 308 375 442
#     4  11  25  45  67 105 147 192 247 304 368 432
#     4  12  25  49  76 106 146 185 243 309 363 436
#     4  10  23  43  69 100 144 195 242 297 367 440
#
# _framework density 23.589552000000001
#
# number of rings (size 3 to 8) (size 9 to 14) (size 15 to 20)
#    0.000    0.571    5.714    1.286    4.000    0.000 
#    2.571    0.000    0.000    0.000    0.000    0.000 
#    0.000    0.000    0.000    0.000    0.000    0.000 
#
# Total GULP energy -173505.034089 kJ/mol
# GULP energy per Si atom -12393.216721 kJ/mol
# Density = 2.353586 g / cm^3
# Si number density = 23.589552 Si / 1000 Ang^3
#
#
#
# Elastic Constant Matrix: (Units=GPa)
#
#
# Indices 1 2 3 4 5 6 
#
# 1 110.2331 15.6930 62.5798 0.0003 -11.6198 0.0002
# 2 15.6930 78.9871 31.3450 -0.0039 -0.2565 0.0007
# 3 62.5798 31.3450 149.9075 0.0014 11.3455 -0.0001
# 4 0.0003 -0.0039 0.0014 -41.1042 -0.0004 31.6396
# 5 -11.6198 -0.2565 11.3455 -0.0004 44.7082 0.0000
# 6 0.0002 0.0007 -0.0001 31.6396 0.0000 17.1209
#
#
#
# Elastic Compliance Matrix: (Units=1/GPa)
#
#
# Indices 1 2 3 4 5 6 
#
# 1 0.012825 -0.000289 -0.005654 0.000000 0.004767 0.000000
# 2 -0.000289 0.013842 -0.002829 -0.000001 0.000722 0.000001
# 3 -0.005654 -0.002829 0.009926 0.000000 -0.004005 0.000000
# 4 0.000000 -0.000001 0.000000 -0.010043 0.000000 0.018559
# 5 0.004767 0.000722 -0.004005 0.000000 0.024626 0.000000
# 6 0.000000 0.000001 0.000000 0.018559 0.000000 0.024111
#
#
# Mechanical properties :
#
#
# Convention : Reuss Voigt Hill
#
# Bulk Modulus (GPa) = 52.49285 62.04035 57.26660
# Shear Modulus (GPa) = 50.41273 19.44564 34.92918
#
# Velocity S-wave (km/s) = 4.62787 2.87423 3.85217
# Velocity P-wave (km/s) = 7.13142 6.11326 6.64188
#
# Compressibility (1/GPa) = 0.01905021
#
# Stress axis : x y z
#
# Youngs Moduli (GPa) = 77.97128 72.24150 100.74818
#
# Poissons Ratio (x) = 0.02086 0.56966
# Poissons Ratio (y) = 0.02251 0.28497
# Poissons Ratio (z) = 0.44088 0.20434
#
# Static dielectric constant tensor:
#      x y z
#    x 4.730160 0.000000 0.107970 
#    y 0.000000 3.882350 0.000000 
#    z 0.107970 0.000000 4.808780 
# 
# 
# High freq. dielectric constant tensor:
#      x y z
#    x 1.944430 0.000000 0.007950 
#    y 0.000000 1.904000 0.000000 
#    z 0.007950 0.000000 1.955280 
# 
# From -- ./inp_files/55505.got.cif
#   From: 2010.03.12/outbox.cif.g09.slc.cpg/sg5_28_cif.got.tgz:55505.got - 2010.03.31 09:47:26.
