data_PCOD8051115
_publ_section_title
;
Structure prediction by ZEFSAII (Michael W. Deem and Ramdas Pophale) SiO2 
 PCOD8051115
Probable space group: C 2
;
_chemical_formula_sum "Si O2"
_cell_formula_units_Z 26
_cell_length_a 14.611243
_cell_length_b 9.401728
_cell_length_c 15.742428
_cell_angle_alpha 90.000000
_cell_angle_beta 31.042506
_cell_angle_gamma 90.000000
_cell_volume 1115.171500
_symmetry_space_group_name_H-M "C 2"
_symmetry_group_IT_number 5
_symmetry_cell_setting 'monoclinic'
loop_
_space_group_symop_operation_xyz
x,y,z
-x,y,-z
1/2+x,1/2+y,z
1/2-x,1/2+y,-z
loop_
_atom_site_type_symbol
_atom_site_label
_atom_site_fract_x
_atom_site_fract_y
_atom_site_fract_z
Si Si1 0.423991 0.756690 0.795450
Si Si2 0.209620 0.545887 0.057534
Si Si3 0.500000 0.272792 0.500000
Si Si4 0.152878 0.671294 0.673673
Si Si5 0.799161 0.885824 0.505256
Si Si6 0.330761 0.814530 0.681638
Si Si7 0.299250 0.603055 0.170711
O O1 0.617887 0.802892 0.670985
O O2 0.403689 0.744458 0.710267
O O3 0.286032 0.874567 0.942739
O O4 0.380935 0.602945 0.870345
O O5 0.200248 0.609744 0.159620
O O6 0.035451 0.606226 0.149898
O O7 0.444480 0.367005 0.463471
O O8 0.677049 0.185401 0.334956
O O9 0.133608 0.820088 0.637650
O O10 0.259914 0.555478 0.530059
O O11 0.247864 0.692547 0.688572
O O12 0.500000 0.884346 0.500000
O O13 0.187007 0.938423 0.810904
O O14 0.500000 0.663870 0.000000
#
# Coordination Sequence:
#
# PCOD8051115 Si02
#       7
#     4   4   2   4   4   4   4
#     4  10  23  44  69 100 139 184 226 294 346 421
#     4  10  23  44  64 101 137 177 233 285 351 413
#     4  12  24  44  72 100 144 184 230 302 348 410
#     4  11  25  43  68 100 136 180 232 287 348 420
#     4  11  25  43  68  99 137 177 233 284 353 413
#     4  11  23  42  71 101 139 180 240 283 354 415
#     4  11  24  42  71 105 139 185 235 283 353 420
#
# _framework density 23.314799000000001
#
# number of rings (size 3 to 8) (size 9 to 14) (size 15 to 20)
#    0.000    1.231    3.846    0.923    7.538    1.231 
#    2.769    0.000    0.000    0.000    0.000    0.000 
#    0.000    0.000    0.000    0.000    0.000    0.000 
#
# Total GULP energy -161185.596809 kJ/mol
# GULP energy per Si atom -12398.892062 kJ/mol
# Density = 2.326173 g / cm^3
# Si number density = 23.314799 Si / 1000 Ang^3
#
#
#
# Elastic Constant Matrix: (Units=GPa)
#
#
# Indices 1 2 3 4 5 6 
#
# 1 123.8376 33.8307 11.6187 0.0000 -0.1283 0.0000
# 2 33.8307 70.2946 13.4354 -0.0001 5.4984 0.0001
# 3 11.6187 13.4354 81.2706 -0.0004 0.0717 0.0003
# 4 0.0000 -0.0001 -0.0004 37.0036 0.0003 2.2941
# 5 -0.1283 5.4984 0.0717 0.0003 36.8026 -0.0002
# 6 0.0000 0.0001 0.0003 2.2941 -0.0002 33.8745
#
#
#
# Elastic Compliance Matrix: (Units=1/GPa)
#
#
# Indices 1 2 3 4 5 6 
#
# 1 0.009344 -0.004436 -0.000603 0.000000 0.000697 0.000000
# 2 -0.004436 0.016975 -0.002170 0.000000 -0.002547 0.000000
# 3 -0.000603 -0.002170 0.012749 0.000000 0.000297 0.000000
# 4 0.000000 0.000000 0.000000 0.027138 0.000000 -0.001838
# 5 0.000697 -0.002547 0.000297 0.000000 0.027554 0.000000
# 6 0.000000 0.000000 0.000000 -0.001838 0.000000 0.029645
#
#
# Mechanical properties :
#
#
# Convention : Reuss Voigt Hill
#
# Bulk Modulus (GPa) = 40.56792 43.68583 42.12688
# Shear Modulus (GPa) = 34.23682 35.97067 35.10374
#
# Velocity S-wave (km/s) = 3.83620 3.93214 3.88447
# Velocity P-wave (km/s) = 6.08768 6.27644 6.18278
#
# Compressibility (1/GPa) = 0.02465002
#
# Stress axis : x y z
#
# Youngs Moduli (GPa) = 107.01650 58.91050 78.43607
#
# Poissons Ratio (x) = 0.26135 0.04730
# Poissons Ratio (y) = 0.47477 0.17019
# Poissons Ratio (z) = 0.06454 0.12782
#
# Static dielectric constant tensor:
#      x y z
#    x 4.110070 0.000000 -0.050280 
#    y 0.000000 4.037280 0.000000 
#    z -0.050280 0.000000 4.014520 
# 
# 
# High freq. dielectric constant tensor:
#      x y z
#    x 1.926690 0.000000 -0.006900 
#    y 0.000000 1.907590 0.000000 
#    z -0.006900 0.000000 1.917050 
# 
# From -- ./inp_files/62222.got.cif
#   From: 2010.03.12/outbox.cif.g09.slc.cpg/sg5_32_cif.got.tgz:62222.got - 2010.03.31 09:47:26.
