data_PCOD8051253
_publ_section_title
;
Structure prediction by ZEFSAII (Michael W. Deem and Ramdas Pophale) SiO2 
 PCOD8051253
Probable space group: C 2
;
_chemical_formula_sum "Si O2"
_cell_formula_units_Z 22
_cell_length_a 21.828416
_cell_length_b 7.916375
_cell_length_c 6.752522
_cell_angle_alpha 90.000000
_cell_angle_beta 64.668783
_cell_angle_gamma 90.000000
_cell_volume 1054.655802
_symmetry_space_group_name_H-M "C 2"
_symmetry_group_IT_number 5
_symmetry_cell_setting 'monoclinic'
loop_
_space_group_symop_operation_xyz
x,y,z
-x,y,-z
1/2+x,1/2+y,z
1/2-x,1/2+y,-z
loop_
_atom_site_type_symbol
_atom_site_label
_atom_site_fract_x
_atom_site_fract_y
_atom_site_fract_z
Si Si1 0.819507 0.846760 0.521496
Si Si2 0.693302 0.629363 0.747263
Si Si3 0.561945 0.818881 0.800521
Si Si4 0.574873 0.195915 0.921164
Si Si5 0.000000 0.200716 0.500000
Si Si6 0.111039 0.959598 0.187107
O O1 0.759457 0.738341 0.699205
O O2 0.874461 0.743461 0.322921
O O3 0.861122 0.933837 0.634831
O O4 0.782731 0.981258 0.431649
O O5 0.631959 0.721182 0.720394
O O6 0.668632 0.560802 0.990522
O O7 0.542568 0.823244 0.591766
O O8 0.571077 0.993777 0.910859
O O9 0.500000 0.724516 0.000000
O O10 0.500000 0.273901 0.000000
O O11 0.598311 0.277482 0.098253
O O12 0.954369 0.078846 0.700559
#
# Coordination Sequence:
#
# PCOD8051253 Si02
#       6
#     4   4   4   4   2   4
#     4  11  24  44  65  95 134 180 224 277 339 404
#     4  11  24  42  65  95 132 178 223 280 336 398
#     4  11  23  42  67  99 136 173 223 283 332 398
#     4  10  24  42  66  99 134 171 223 276 340 395
#     4  12  22  42  76 100 132 182 230 274 344 396
#     4  11  24  41  69  96 132 181 227 273 333 412
#
# _framework density 20.859887000000001
#
# number of rings (size 3 to 8) (size 9 to 14) (size 15 to 20)
#    0.000    1.091    3.636    2.182    2.545    7.273 
#    3.273    0.000    0.000    0.000    0.000    0.000 
#    0.000    0.000    0.000    0.000    0.000    0.000 
#
# Total GULP energy -136326.523428 kJ/mol
# GULP energy per Si atom -12393.320312 kJ/mol
# Density = 2.081241 g / cm^3
# Si number density = 20.859887 Si / 1000 Ang^3
#
#
#
# Elastic Constant Matrix: (Units=GPa)
#
#
# Indices 1 2 3 4 5 6 
#
# 1 60.0589 3.4509 8.3857 0.0000 -22.5795 0.0000
# 2 3.4509 68.7557 16.2372 0.0000 -14.1720 0.0000
# 3 8.3857 16.2372 82.2584 0.0000 -7.0468 0.0000
# 4 0.0000 0.0000 0.0000 -742.6702 0.0000 3.4225
# 5 -22.5795 -14.1720 -7.0468 0.0000 33.5547 0.0000
# 6 0.0000 0.0000 0.0000 3.4225 0.0000 36.6208
#
#
#
# Elastic Compliance Matrix: (Units=1/GPa)
#
#
# Indices 1 2 3 4 5 6 
#
# 1 0.022746 0.002509 -0.001438 0.000000 0.016064 0.000000
# 2 0.002509 0.016780 -0.002868 0.000000 0.008173 0.000000
# 3 -0.001438 -0.002868 0.012915 0.000000 0.000533 0.000000
# 4 0.000000 0.000000 0.000000 -0.001346 0.000000 0.000126
# 5 0.016064 0.008173 0.000533 0.000000 0.044176 0.000000
# 6 0.000000 0.000000 0.000000 0.000126 0.000000 0.027295
#
#
# Mechanical properties :
#
#
# Convention : Reuss Voigt Hill
#
# Bulk Modulus (GPa) = 20.47157 29.69116 25.08136
# Shear Modulus (GPa) = 35.10172 -122.29897 -43.59863
#
# Velocity S-wave (km/s) = 4.10657 -7.66525 -4.57669
# Velocity P-wave (km/s) = 5.68510 8.00480 3.98475
#
# Compressibility (1/GPa) = 0.04884824
#
# Stress axis : x y z
#
# Youngs Moduli (GPa) = 43.96322 59.59367 77.42816
#
# Poissons Ratio (x) = -0.14952 0.11134
# Poissons Ratio (y) = -0.11031 0.22206
# Poissons Ratio (z) = 0.06322 0.17091
#
# Static dielectric constant tensor:
#      x y z
#    x 3.776380 0.000000 -0.400140 
#    y 0.000000 3.810550 0.000000 
#    z -0.400140 0.000000 5.043260 
# 
# 
# High freq. dielectric constant tensor:
#      x y z
#    x 1.820260 0.000000 -0.010150 
#    y 0.000000 1.810990 0.000000 
#    z -0.010150 0.000000 1.830190 
# 
# From -- ./inp_files/9226.got.cif
#   From: 2010.03.12/outbox.cif.g09.slc.cpg/sg5_5_cif.got.tgz:9226.got - 2010.03.31 09:47:26.
