data_PCOD8051642
_publ_section_title
;
Structure prediction by ZEFSAII (Michael W. Deem and Ramdas Pophale) SiO2 
 PCOD8051642
Probable space group: C 2
;
_chemical_formula_sum "Si O2"
_cell_formula_units_Z 26
_cell_length_a 6.455496
_cell_length_b 23.375866
_cell_length_c 9.236563
_cell_angle_alpha 90.000000
_cell_angle_beta 76.024509
_cell_angle_gamma 90.000000
_cell_volume 1352.564914
_symmetry_space_group_name_H-M "C 2"
_symmetry_group_IT_number 5
_symmetry_cell_setting 'monoclinic'
loop_
_space_group_symop_operation_xyz
x,y,z
-x,y,-z
1/2+x,1/2+y,z
1/2-x,1/2+y,-z
loop_
_atom_site_type_symbol
_atom_site_label
_atom_site_fract_x
_atom_site_fract_y
_atom_site_fract_z
Si Si1 0.000000 0.276150 0.500000
Si Si2 0.592676 0.106623 0.824818
Si Si3 0.328012 0.327834 0.647313
Si Si4 0.073818 0.717311 0.644738
Si Si5 0.447569 0.530397 0.845416
Si Si6 0.361076 0.928224 0.154841
Si Si7 0.402182 0.006955 0.675026
O O1 0.898304 0.315397 0.391500
O O2 0.818803 0.236579 0.599976
O O3 0.560284 0.170114 0.770565
O O4 0.840322 0.085827 0.786098
O O5 0.461300 0.065232 0.744028
O O6 0.500000 0.103447 0.000000
O O7 0.500000 0.348778 0.500000
O O8 0.419960 0.270920 0.710722
O O9 0.295126 0.377828 0.767919
O O10 0.000000 0.693242 0.500000
O O11 0.274519 0.480366 0.884793
O O12 0.644605 0.507530 0.716041
O O13 0.500000 0.548136 0.000000
O O14 0.512080 0.950501 0.258715
O O15 0.500000 0.903238 0.000000
O O16 0.500000 0.006432 0.500000
#
# Coordination Sequence:
#
# PCOD8051642 Si02
#       7
#     2   4   4   4   4   4   4
#     4   8  18  40  60  84 116 158 196 246 298 350
#     4  11  22  39  61  88 123 157 199 251 301 361
#     4   9  21  39  61  87 121 157 204 248 294 356
#     4   9  20  40  62  86 119 154 203 252 296 353
#     4  11  21  42  60  84 124 164 192 241 315 354
#     4  11  23  39  60  91 124 158 198 248 300 365
#     4  11  24  38  62  94 119 154 203 247 298 365
#
# _framework density 19.222735
#
# number of rings (size 3 to 8) (size 9 to 14) (size 15 to 20)
#    0.000    2.154    3.077    1.385    3.231    6.769 
#    2.769    0.000    0.000    0.000    0.000    0.000 
#    0.000    0.000    0.000    0.000    0.000    0.000 
#
# Total GULP energy -161190.323673 kJ/mol
# GULP energy per Si atom -12399.255667 kJ/mol
# Density = 1.917898 g / cm^3
# Si number density = 19.222735 Si / 1000 Ang^3
#
#
#
# Elastic Constant Matrix: (Units=GPa)
#
#
# Indices 1 2 3 4 5 6 
#
# 1 116.3041 35.1803 34.0771 0.0000 -5.3606 0.0000
# 2 35.1803 114.6624 50.3170 0.0000 1.6056 0.0000
# 3 34.0771 50.3170 120.8686 0.0000 -10.5708 0.0000
# 4 0.0000 0.0000 0.0000 53.8479 0.0000 -0.5776
# 5 -5.3606 1.6056 -10.5708 0.0000 28.3024 0.0000
# 6 0.0000 0.0000 0.0000 -0.5776 0.0000 21.9619
#
#
#
# Elastic Compliance Matrix: (Units=1/GPa)
#
#
# Indices 1 2 3 4 5 6 
#
# 1 0.009854 -0.002295 -0.001704 0.000000 0.001360 0.000000
# 2 -0.002295 0.011357 -0.004316 0.000000 -0.002691 0.000000
# 3 -0.001704 -0.004316 0.010900 0.000000 0.003993 0.000000
# 4 0.000000 0.000000 0.000000 0.018576 0.000000 0.000489
# 5 0.001360 -0.002691 0.003993 0.000000 0.037234 0.000000
# 6 0.000000 0.000000 0.000000 0.000489 0.000000 0.045546
#
#
# Mechanical properties :
#
#
# Convention : Reuss Voigt Hill
#
# Bulk Modulus (GPa) = 64.59432 65.66487 65.12959
# Shear Modulus (GPa) = 32.20434 36.30648 34.25541
#
# Velocity S-wave (km/s) = 4.09751 4.35066 4.22598
# Velocity P-wave (km/s) = 7.48747 7.71180 7.60046
#
# Compressibility (1/GPa) = 0.01548124
#
# Stress axis : x y z
#
# Youngs Moduli (GPa) = 101.47919 88.05071 91.74351
#
# Poissons Ratio (x) = 0.20205 0.15633
# Poissons Ratio (y) = 0.23287 0.39599
# Poissons Ratio (z) = 0.17292 0.38005
#
# Static dielectric constant tensor:
#      x y z
#    x 3.808590 0.000000 -0.018270 
#    y 0.000000 3.403120 0.000000 
#    z -0.018270 0.000000 3.028200 
# 
# 
# High freq. dielectric constant tensor:
#      x y z
#    x 1.762660 0.000000 -0.000130 
#    y 0.000000 1.739960 0.000000 
#    z -0.000130 0.000000 1.736530 
# 
# From -- ./inp_files/13009.got.cif
#   From: 2010.03.12/outbox.cif.g09.slc.cpg/sg5_7_cif.got.tgz:13009.got - 2010.03.31 09:47:26.
