data_PCOD8051371
_publ_section_title
;
Structure prediction by ZEFSAII (Michael W. Deem and Ramdas Pophale) SiO2 
 PCOD8051371
Probable space group: C 2
;
_chemical_formula_sum "Si O2"
_cell_formula_units_Z 30
_cell_length_a 19.507968
_cell_length_b 14.407930
_cell_length_c 14.049415
_cell_angle_alpha 90.000000
_cell_angle_beta 20.415094
_cell_angle_gamma 90.000000
_cell_volume 1377.437618
_symmetry_space_group_name_H-M "C 2"
_symmetry_group_IT_number 5
_symmetry_cell_setting 'monoclinic'
loop_
_space_group_symop_operation_xyz
x,y,z
-x,y,-z
1/2+x,1/2+y,z
1/2-x,1/2+y,-z
loop_
_atom_site_type_symbol
_atom_site_label
_atom_site_fract_x
_atom_site_fract_y
_atom_site_fract_z
Si Si1 0.404524 0.512000 0.334689
Si Si2 0.600436 0.398294 0.466710
Si Si3 0.941804 0.359712 0.683271
Si Si4 0.500000 0.807577 0.000000
Si Si5 0.323131 0.049118 0.800428
Si Si6 0.731656 0.197475 0.493991
Si Si7 0.675948 0.357776 0.699741
Si Si8 0.121040 0.726201 0.165708
O O1 0.421886 0.474010 0.420104
O O2 0.300664 0.611486 0.467474
O O3 0.284710 0.444028 0.421646
O O4 0.623542 0.520656 0.005045
O O5 0.500000 0.439525 0.500000
O O6 0.833781 0.371013 0.163097
O O7 0.478168 0.304292 0.640334
O O8 0.869356 0.462303 0.811532
O O9 0.000000 0.377227 0.500000
O O10 0.124969 0.329533 0.507163
O O11 0.779216 0.279395 0.895146
O O12 0.406145 0.743043 0.204410
O O13 0.500000 0.071820 0.500000
O O14 0.266101 0.145601 0.925196
O O15 0.624592 0.270703 0.701735
O O16 0.549342 0.168229 0.665526
O O17 0.500000 0.380032 0.000000
#
# Coordination Sequence:
#
# PCOD8051371 Si02
#       8
#     4   4   4   2   4   4   4   4
#     4  12  25  46  68 108 141 181 243 290 368 425
#     4  11  25  46  74 101 145 192 238 304 359 435
#     4  11  23  42  70  97 136 183 232 282 353 426
#     4  10  24  46  74 104 136 190 250 298 372 416
#     4  11  23  39  65 101 131 174 232 286 339 419
#     4  11  25  43  68 102 140 184 236 300 356 424
#     4  12  24  45  70  99 145 186 227 301 357 427
#     4  11  22  44  68 102 137 179 237 293 350 416
#
# _framework density 21.779571000000001
#
# number of rings (size 3 to 8) (size 9 to 14) (size 15 to 20)
#    0.000    0.800    4.000    4.400    8.400    0.000 
#    3.600    2.667    0.000    0.000    0.000    0.000 
#    0.000    0.000    0.000    0.000    0.000    0.000 
#
# Total GULP energy -185901.894799 kJ/mol
# GULP energy per Si atom -12393.459653 kJ/mol
# Density = 2.173000 g / cm^3
# Si number density = 21.779571 Si / 1000 Ang^3
#
#
#
# Elastic Constant Matrix: (Units=GPa)
#
#
# Indices 1 2 3 4 5 6 
#
# 1 113.0487 36.2755 41.9561 0.0135 -2.6328 0.0022
# 2 36.2755 129.5296 40.7133 0.0113 8.9343 -0.0055
# 3 41.9561 40.7133 95.1289 0.0297 -17.0373 0.0102
# 4 0.0135 0.0113 0.0297 6.5027 -0.0149 -20.7100
# 5 -2.6328 8.9343 -17.0373 -0.0149 33.2107 -0.0075
# 6 0.0022 -0.0055 0.0102 -20.7100 -0.0075 20.1108
#
#
#
# Elastic Compliance Matrix: (Units=1/GPa)
#
#
# Indices 1 2 3 4 5 6 
#
# 1 0.010944 -0.001661 -0.004273 0.000001 -0.000878 0.000001
# 2 -0.001661 0.009926 -0.004423 -0.000002 -0.005071 0.000001
# 3 -0.004273 -0.004423 0.015903 0.000023 0.009010 0.000018
# 4 0.000001 -0.000002 0.000023 -0.067456 -0.000033 -0.069466
# 5 -0.000878 -0.005071 0.009010 -0.000033 0.036028 -0.000027
# 6 0.000001 0.000001 0.000018 -0.069466 -0.000027 -0.021812
#
#
# Mechanical properties :
#
#
# Convention : Reuss Voigt Hill
#
# Bulk Modulus (GPa) = 62.27587 63.95521 63.11554
# Shear Modulus (GPa) = 520.76012 26.54900 273.65456
#
# Velocity S-wave (km/s) = 15.47979 3.49519 11.22141
# Velocity P-wave (km/s) = 18.65889 6.76143 14.03338
#
# Compressibility (1/GPa) = 0.01605758
#
# Stress axis : x y z
#
# Youngs Moduli (GPa) = 91.37189 100.74874 62.87950
#
# Poissons Ratio (x) = 0.16738 0.26869
# Poissons Ratio (y) = 0.15180 0.27815
# Poissons Ratio (z) = 0.39044 0.44566
#
# Static dielectric constant tensor:
#      x y z
#    x 4.155830 0.000010 -0.191570 
#    y 0.000010 3.881700 0.000010 
#    z -0.191570 0.000010 4.019410 
# 
# 
# High freq. dielectric constant tensor:
#      x y z
#    x 1.851490 0.000000 -0.019950 
#    y 0.000000 1.858380 0.000000 
#    z -0.019950 0.000000 1.859670 
# 
# From -- ./inp_files/57130.got.cif
#   From: 2010.03.12/outbox.cif.g09.slc.cpg/sg5_29_cif.got.tgz:57130.got - 2010.03.31 09:47:26.
