data_PCOD8051861
_publ_section_title
;
Structure prediction by ZEFSAII (Michael W. Deem and Ramdas Pophale) SiO2 
 PCOD8051861
Probable space group: C 2
;
_chemical_formula_sum "Si O2"
_cell_formula_units_Z 24
_cell_length_a 13.887817
_cell_length_b 13.418001
_cell_length_c 8.519280
_cell_angle_alpha 90.000000
_cell_angle_beta 43.682297
_cell_angle_gamma 90.000000
_cell_volume 1096.448839
_symmetry_space_group_name_H-M "C 2"
_symmetry_group_IT_number 5
_symmetry_cell_setting 'monoclinic'
loop_
_space_group_symop_operation_xyz
x,y,z
-x,y,-z
1/2+x,1/2+y,z
1/2-x,1/2+y,-z
loop_
_atom_site_type_symbol
_atom_site_label
_atom_site_fract_x
_atom_site_fract_y
_atom_site_fract_z
Si Si1 0.069341 0.705800 0.250339
Si Si2 0.670623 0.592692 0.955286
Si Si3 0.126418 0.879823 0.962940
Si Si4 0.406863 0.039959 0.259664
Si Si5 0.131026 0.138057 0.645167
Si Si6 0.890709 0.342296 0.487125
O O1 0.072964 0.815673 0.172160
O O2 0.000000 0.716360 0.500000
O O3 0.974722 0.635914 0.257362
O O4 0.224512 0.660146 0.068900
O O5 0.716000 0.476894 0.909847
O O6 0.516852 0.585869 0.211489
O O7 0.675192 0.634930 0.774254
O O8 0.236618 0.817733 0.732736
O O9 0.000000 0.914116 0.000000
O O10 0.248932 0.078228 0.404854
O O11 0.402902 0.947019 0.382227
O O12 0.500000 0.009325 0.000000
O O13 0.094017 0.252343 0.651682
O O14 0.000000 0.338324 0.500000
#
# Coordination Sequence:
#
# PCOD8051861 Si02
#       6
#     4   4   4   4   4   4
#     4  12  24  43  71 104 139 181 234 292 340 411
#     4  11  23  45  68  96 140 179 223 285 351 406
#     4  12  23  45  71  97 135 186 226 283 352 411
#     4  12  25  45  71 105 140 184 236 287 341 413
#     4  11  23  44  69  96 135 184 224 282 345 412
#     4  12  25  45  70 101 138 182 230 288 349 410
#
# _framework density 21.888846999999998
#
# number of rings (size 3 to 8) (size 9 to 14) (size 15 to 20)
#    0.000    0.333    5.000    5.000    2.333    0.000 
#    0.000    2.500    0.000    0.000    0.000    0.000 
#    0.000    0.000    0.000    0.000    0.000    0.000 
#
# Total GULP energy -148772.004608 kJ/mol
# GULP energy per Si atom -12397.667051 kJ/mol
# Density = 2.183903 g / cm^3
# Si number density = 21.888847 Si / 1000 Ang^3
#
#
#
# Elastic Constant Matrix: (Units=GPa)
#
#
# Indices 1 2 3 4 5 6 
#
# 1 80.1703 48.6450 41.2289 0.0000 -12.0382 0.0000
# 2 48.6450 130.4392 13.1446 0.0000 15.1148 0.0000
# 3 41.2289 13.1446 117.2521 0.0000 -15.6866 0.0000
# 4 0.0000 0.0000 0.0000 35.2366 0.0000 -5.1812
# 5 -12.0382 15.1148 -15.6866 0.0000 32.3352 0.0000
# 6 0.0000 0.0000 0.0000 -5.1812 0.0000 16.0483
#
#
#
# Elastic Compliance Matrix: (Units=1/GPa)
#
#
# Indices 1 2 3 4 5 6 
#
# 1 0.022093 -0.008808 -0.005486 0.000000 0.009681 0.000000
# 2 -0.008808 0.011876 0.000625 0.000000 -0.008528 0.000000
# 3 -0.005486 0.000625 0.010775 0.000000 0.002893 0.000000
# 4 0.000000 0.000000 0.000000 0.029794 0.000000 0.009619
# 5 0.009681 -0.008528 0.002893 0.000000 0.039920 0.000000
# 6 0.000000 0.000000 0.000000 0.009619 0.000000 0.065418
#
#
# Mechanical properties :
#
#
# Convention : Reuss Voigt Hill
#
# Bulk Modulus (GPa) = 57.45248 59.32205 58.38727
# Shear Modulus (GPa) = 23.47255 31.71356 27.59305
#
# Velocity S-wave (km/s) = 3.27823 3.81050 3.55434
# Velocity P-wave (km/s) = 6.37443 6.82057 6.60127
#
# Compressibility (1/GPa) = 0.01740569
#
# Stress axis : x y z
#
# Youngs Moduli (GPa) = 45.26365 84.20049 92.81172
#
# Poissons Ratio (x) = 0.74165 0.50914
# Poissons Ratio (y) = 0.39869 -0.05800
# Poissons Ratio (z) = 0.24831 -0.05262
#
# Static dielectric constant tensor:
#      x y z
#    x 3.939740 0.000000 -0.162150 
#    y 0.000000 3.936590 0.000000 
#    z -0.162150 0.000000 4.665770 
# 
# 
# High freq. dielectric constant tensor:
#      x y z
#    x 1.850650 0.000000 -0.019900 
#    y 0.000000 1.872510 0.000000 
#    z -0.019900 0.000000 1.875220 
# 
# From -- ./inp_files/24492.got.cif
#   From: 2010.03.12/outbox.cif.g09.slc.cpg/sg5_13_cif.got.tgz:24492.got - 2010.03.31 09:47:26.
