data_PCOD8051815
_publ_section_title
;
Structure prediction by ZEFSAII (Michael W. Deem and Ramdas Pophale) SiO2 
 PCOD8051815
Probable space group: C 2
;
_chemical_formula_sum "Si O2"
_cell_formula_units_Z 28
_cell_length_a 11.766255
_cell_length_b 8.583328
_cell_length_c 16.142782
_cell_angle_alpha 90.000000
_cell_angle_beta 129.949063
_cell_angle_gamma 90.000000
_cell_volume 1249.827263
_symmetry_space_group_name_H-M "C 2"
_symmetry_group_IT_number 5
_symmetry_cell_setting 'monoclinic'
loop_
_space_group_symop_operation_xyz
x,y,z
-x,y,-z
1/2+x,1/2+y,z
1/2-x,1/2+y,-z
loop_
_atom_site_type_symbol
_atom_site_label
_atom_site_fract_x
_atom_site_fract_y
_atom_site_fract_z
Si Si1 0.361685 0.897720 0.108949
Si Si2 0.339086 0.428292 0.465820
Si Si3 0.876557 0.617410 0.740707
Si Si4 0.390022 0.534477 0.114125
Si Si5 0.809414 0.902349 0.800688
Si Si6 0.015418 0.860878 0.693022
Si Si7 0.145704 0.643227 0.615381
O O1 0.389910 0.718649 0.104289
O O2 0.279340 0.935229 0.157030
O O3 0.524057 0.975967 0.180251
O O4 0.265189 0.966702 0.989623
O O5 0.500000 0.446821 0.500000
O O6 0.234796 0.564134 0.383967
O O7 0.368285 0.433232 0.578671
O O8 0.269469 0.257224 0.410211
O O9 0.796678 0.715134 0.777120
O O10 0.981692 0.744893 0.750884
O O11 0.520927 0.462460 0.117229
O O12 0.401311 0.498573 0.218394
O O13 0.737399 0.996390 0.689597
O O14 0.115734 0.765643 0.676039
O O15 0.000000 0.578023 0.500000
#
# Coordination Sequence:
#
# PCOD8051815 Si02
#       7
#     4   4   4   4   4   4   4
#     4  12  26  46  69  95 135 169 223 283 321 397
#     4   9  21  38  64  93 135 169 214 266 327 390
#     4  11  23  41  65 101 129 172 225 266 330 395
#     4  11  25  45  67  97 129 176 223 269 338 388
#     4  11  24  43  69  97 134 172 220 270 330 393
#     4   9  20  40  63  92 134 170 215 270 323 388
#     4   9  19  39  63  93 133 175 209 267 327 387
#
# _framework density 22.403095
#
# number of rings (size 3 to 8) (size 9 to 14) (size 15 to 20)
#    0.000    2.000    1.429    3.000    4.000    6.286 
#    0.000    0.000    0.000    0.000    0.000    0.000 
#    0.000    0.000    0.000    0.000    0.000    0.000 
#
# Total GULP energy -173469.511823 kJ/mol
# GULP energy per Si atom -12390.679416 kJ/mol
# Density = 2.235210 g / cm^3
# Si number density = 22.403095 Si / 1000 Ang^3
#
#
#
# Elastic Constant Matrix: (Units=GPa)
#
#
# Indices 1 2 3 4 5 6 
#
# 1 35.8889 14.3370 17.3776 0.0000 -4.0085 0.0000
# 2 14.3370 148.0318 66.9598 0.0000 8.0338 0.0000
# 3 17.3776 66.9598 138.9510 0.0000 -0.6916 0.0000
# 4 0.0000 0.0000 0.0000 50.3273 0.0000 3.0660
# 5 -4.0085 8.0338 -0.6916 0.0000 23.3349 0.0000
# 6 0.0000 0.0000 0.0000 3.0660 0.0000 24.9802
#
#
#
# Elastic Compliance Matrix: (Units=1/GPa)
#
#
# Indices 1 2 3 4 5 6 
#
# 1 0.030699 -0.002006 -0.002843 0.000000 0.005880 0.000000
# 2 -0.002006 0.008999 -0.004104 0.000000 -0.003565 0.000000
# 3 -0.002843 -0.004104 0.009536 0.000000 0.001207 0.000000
# 4 0.000000 0.000000 0.000000 0.020020 0.000000 -0.002457
# 5 0.005880 -0.003565 0.001207 0.000000 0.045127 0.000000
# 6 0.000000 0.000000 0.000000 -0.002457 0.000000 0.040333
#
#
# Mechanical properties :
#
#
# Convention : Reuss Voigt Hill
#
# Bulk Modulus (GPa) = 31.92053 57.80228 44.86141
# Shear Modulus (GPa) = 27.31308 34.67496 30.99402
#
# Velocity S-wave (km/s) = 3.49544 3.93845 3.72354
# Velocity P-wave (km/s) = 5.52902 6.82194 6.20922
#
# Compressibility (1/GPa) = 0.03132780
#
# Stress axis : x y z
#
# Youngs Moduli (GPa) = 32.57473 111.12070 104.86766
#
# Poissons Ratio (x) = 0.22293 0.29816
# Poissons Ratio (y) = 0.06535 0.43033
# Poissons Ratio (z) = 0.09262 0.45599
#
# Static dielectric constant tensor:
#      x y z
#    x 4.034190 0.000000 -0.340120 
#    y 0.000000 4.315630 0.000000 
#    z -0.340120 0.000000 4.577540 
# 
# 
# High freq. dielectric constant tensor:
#      x y z
#    x 1.857210 0.000000 -0.007810 
#    y 0.000000 1.891370 0.000000 
#    z -0.007810 0.000000 1.894000 
# 
# From -- ./inp_files/61461.got.cif
#   From: 2010.03.12/outbox.cif.g09.slc.cpg/sg5_31_cif.got.tgz:61461.got - 2010.03.31 09:47:26.
