data_PCOD8051456
_publ_section_title
;
Structure prediction by ZEFSAII (Michael W. Deem and Ramdas Pophale) SiO2 
 PCOD8051456
Probable space group: C 2
;
_chemical_formula_sum "Si O2"
_cell_formula_units_Z 26
_cell_length_a 12.899542
_cell_length_b 19.462895
_cell_length_c 9.211699
_cell_angle_alpha 90.000000
_cell_angle_beta 147.725454
_cell_angle_gamma 90.000000
_cell_volume 1234.934275
_symmetry_space_group_name_H-M "C 2"
_symmetry_group_IT_number 5
_symmetry_cell_setting 'monoclinic'
loop_
_space_group_symop_operation_xyz
x,y,z
-x,y,-z
1/2+x,1/2+y,z
1/2-x,1/2+y,-z
loop_
_atom_site_type_symbol
_atom_site_label
_atom_site_fract_x
_atom_site_fract_y
_atom_site_fract_z
Si Si1 0.403652 0.375000 0.039419
Si Si2 0.000000 0.337356 0.500000
Si Si3 0.764764 0.135252 0.021831
Si Si4 0.282388 0.101777 0.718730
Si Si5 0.877613 0.229603 0.592305
Si Si6 0.037716 0.747274 0.378671
Si Si7 0.012779 0.024691 0.842124
O O1 0.431651 0.308049 0.169200
O O2 0.482040 0.445377 0.203478
O O3 0.500000 0.359637 0.000000
O O4 0.172916 0.386551 0.754217
O O5 0.083288 0.293343 0.465134
O O6 0.821507 0.106412 0.247677
O O7 0.921571 0.189786 0.145543
O O8 0.787445 0.066886 0.950871
O O9 0.554870 0.171692 0.767325
O O10 0.286357 0.180965 0.673426
O O11 0.166260 0.057216 0.461187
O O12 0.500000 0.072678 0.000000
O O13 0.769213 0.250312 0.615181
O O14 0.000000 0.763485 0.500000
O O15 0.000000 0.027060 0.000000
#
# Coordination Sequence:
#
# PCOD8051456 Si02
#       7
#     4   2   4   4   4   4   4
#     4  11  24  47  69  94 138 187 235 282 343 423
#     4  12  20  40  74 100 126 176 240 282 326 426
#     4  11  23  41  66  98 134 182 226 288 342 418
#     4  11  21  40  70 100 131 183 232 282 344 421
#     4  11  20  37  66 100 131 164 235 278 341 405
#     4  12  26  39  67 104 142 179 223 296 348 403
#     4  10  25  45  67  98 144 181 230 291 344 405
#
# _framework density 21.053750999999998
#
# number of rings (size 3 to 8) (size 9 to 14) (size 15 to 20)
#    0.000    0.923    6.154    1.385    4.308    1.231 
#    6.923    0.000    3.385    0.000    0.000    0.000 
#    0.000    0.000    0.000    0.000    0.000    0.000 
#
# Total GULP energy -161066.112787 kJ/mol
# GULP energy per Si atom -12389.700984 kJ/mol
# Density = 2.100583 g / cm^3
# Si number density = 21.053751 Si / 1000 Ang^3
#
#
#
# Elastic Constant Matrix: (Units=GPa)
#
#
# Indices 1 2 3 4 5 6 
#
# 1 139.3366 33.6999 36.3577 0.0000 5.6027 0.0000
# 2 33.6999 100.1141 30.1545 0.0000 -9.0541 0.0000
# 3 36.3577 30.1545 84.3900 0.0000 7.6829 0.0000
# 4 0.0000 0.0000 0.0000 21.1076 0.0000 -3.2987
# 5 5.6027 -9.0541 7.6829 0.0000 35.7476 0.0000
# 6 0.0000 0.0000 0.0000 -3.2987 0.0000 -14.5293
#
#
#
# Elastic Compliance Matrix: (Units=1/GPa)
#
#
# Indices 1 2 3 4 5 6 
#
# 1 0.008466 -0.002130 -0.002771 0.000000 -0.001271 0.000000
# 2 -0.002130 0.012250 -0.003848 0.000000 0.004264 0.000000
# 3 -0.002771 -0.003848 0.014756 0.000000 -0.003712 0.000000
# 4 0.000000 0.000000 0.000000 0.045753 0.000000 -0.010388
# 5 -0.001271 0.004264 -0.003712 0.000000 0.030051 0.000000
# 6 0.000000 0.000000 0.000000 -0.010388 0.000000 -0.066468
#
#
# Mechanical properties :
#
#
# Convention : Reuss Voigt Hill
#
# Bulk Modulus (GPa) = 55.63120 58.25165 56.94142
# Shear Modulus (GPa) = 73.20965 23.37374 48.29170
#
# Velocity S-wave (km/s) = 5.90324 3.33557 4.79449
# Velocity P-wave (km/s) = 8.54079 6.52402 7.59960
#
# Compressibility (1/GPa) = 0.01797553
#
# Stress axis : x y z
#
# Youngs Moduli (GPa) = 118.11764 81.63135 67.76836
#
# Poissons Ratio (x) = 0.17390 0.18776
# Poissons Ratio (y) = 0.25162 0.26075
# Poissons Ratio (z) = 0.32725 0.31409
#
# Static dielectric constant tensor:
#      x y z
#    x 4.113650 0.000000 0.117400 
#    y 0.000000 3.809990 0.000000 
#    z 0.117400 0.000000 3.657180 
# 
# 
# High freq. dielectric constant tensor:
#      x y z
#    x 1.845100 0.000000 0.010220 
#    y 0.000000 1.810550 0.000000 
#    z 0.010220 0.000000 1.808690 
# 
# From -- ./inp_files/21870.got.cif
#   From: 2010.03.12/outbox.cif.g09.slc.cpg/sg5_11_cif.got.tgz:21870.got - 2010.03.31 09:47:26.
