data_PCOD8051333
_publ_section_title
;
Structure prediction by ZEFSAII (Michael W. Deem and Ramdas Pophale) SiO2 
 PCOD8051333
Probable space group: C 2
;
_chemical_formula_sum "Si O2"
_cell_formula_units_Z 24
_cell_length_a 10.601599
_cell_length_b 9.283750
_cell_length_c 10.975243
_cell_angle_alpha 90.000000
_cell_angle_beta 86.934938
_cell_angle_gamma 90.000000
_cell_volume 1078.666608
_symmetry_space_group_name_H-M "C 2"
_symmetry_group_IT_number 5
_symmetry_cell_setting 'monoclinic'
loop_
_space_group_symop_operation_xyz
x,y,z
-x,y,-z
1/2+x,1/2+y,z
1/2-x,1/2+y,-z
loop_
_atom_site_type_symbol
_atom_site_label
_atom_site_fract_x
_atom_site_fract_y
_atom_site_fract_z
Si Si1 0.593788 0.391110 0.590406
Si Si2 0.296146 0.887419 0.382424
Si Si3 0.992023 0.592988 0.301267
Si Si4 0.721832 0.036663 0.854798
Si Si5 0.216289 0.100293 0.747035
Si Si6 0.351573 0.756389 0.011409
O O1 0.500000 0.471381 0.500000
O O2 0.727538 0.381982 0.514886
O O3 0.525457 0.242284 0.627036
O O4 0.623244 0.470527 0.715111
O O5 0.218965 0.966522 0.273438
O O6 0.320693 0.724150 0.345066
O O7 0.430336 0.969177 0.390463
O O8 0.919353 0.591824 0.173958
O O9 0.137083 0.557477 0.269304
O O10 0.714708 0.911022 0.959002
O O11 0.802032 0.177360 0.891164
O O12 0.183357 0.141440 0.884775
O O13 0.500000 0.782407 0.000000
#
# Coordination Sequence:
#
# PCOD8051333 Si02
#       6
#     4   4   4   4   4   4
#     4  12  24  41  72  97 141 176 225 281 338 399
#     4   9  22  45  63 100 133 174 222 275 332 401
#     4  10  24  45  67  97 141 171 234 274 332 413
#     4   9  25  45  68  99 138 175 229 278 339 396
#     4  11  25  44  67 100 133 182 225 280 343 394
#     4  11  26  44  69  99 139 174 233 280 339 407
#
# _framework density 22.249693000000001
#
# number of rings (size 3 to 8) (size 9 to 14) (size 15 to 20)
#    1.000    0.667    1.667    1.000    7.000    0.000 
#    6.000    0.000    0.000    0.000    0.000    0.000 
#    0.000    0.000    0.000    0.000    0.000    0.000 
#
# Total GULP energy -148684.608299 kJ/mol
# GULP energy per Si atom -12390.384025 kJ/mol
# Density = 2.219905 g / cm^3
# Si number density = 22.249693 Si / 1000 Ang^3
#
#
#
# Elastic Constant Matrix: (Units=GPa)
#
#
# Indices 1 2 3 4 5 6 
#
# 1 72.9377 12.1559 -0.7219 0.0000 10.9645 0.0000
# 2 12.1559 54.4182 6.9848 0.0000 20.1223 0.0000
# 3 -0.7219 6.9848 46.9518 0.0000 4.2304 0.0000
# 4 0.0000 0.0000 0.0000 28.0045 0.0000 -0.2190
# 5 10.9645 20.1223 4.2304 0.0000 36.4261 0.0000
# 6 0.0000 0.0000 0.0000 -0.2190 0.0000 20.5386
#
#
#
# Elastic Compliance Matrix: (Units=1/GPa)
#
#
# Indices 1 2 3 4 5 6 
#
# 1 0.014572 -0.002143 0.000840 0.000000 -0.003300 0.000000
# 2 -0.002143 0.023659 -0.002459 0.000000 -0.012139 0.000000
# 3 0.000840 -0.002459 0.021806 0.000000 -0.001427 0.000000
# 4 0.000000 0.000000 0.000000 0.035712 0.000000 0.000381
# 5 -0.003300 -0.012139 -0.001427 0.000000 0.035318 0.000000
# 6 0.000000 0.000000 0.000000 0.000381 0.000000 0.048693
#
#
# Mechanical properties :
#
#
# Convention : Reuss Voigt Hill
#
# Bulk Modulus (GPa) = 19.04251 23.46060 21.25156
# Shear Modulus (GPa) = 24.41572 27.38644 25.90108
#
# Velocity S-wave (km/s) = 3.31622 3.51218 3.41561
# Velocity P-wave (km/s) = 4.82081 5.19753 5.01271
#
# Compressibility (1/GPa) = 0.05251408
#
# Stress axis : x y z
#
# Youngs Moduli (GPa) = 68.62550 42.26695 45.85955
#
# Poissons Ratio (x) = 0.09056 -0.03853
# Poissons Ratio (y) = 0.14704 0.11276
# Poissons Ratio (z) = -0.05765 0.10393
#
# Static dielectric constant tensor:
#      x y z
#    x 3.762690 0.000000 -0.007620 
#    y 0.000000 3.951360 0.000000 
#    z -0.007620 0.000000 3.942190 
# 
# 
# High freq. dielectric constant tensor:
#      x y z
#    x 1.861420 0.000000 0.003010 
#    y 0.000000 1.873460 0.000000 
#    z 0.003010 0.000000 1.875200 
# 
# From -- ./inp_files/38335.got.cif
#   From: 2010.03.12/outbox.cif.g09.slc.cpg/sg5_20_cif.got.tgz:38335.got - 2010.03.31 09:47:26.
