data_PCOD8051944
_publ_section_title
;
Structure prediction by ZEFSAII (Michael W. Deem and Ramdas Pophale) SiO2 
 PCOD8051944
Probable space group: C 2
;
_chemical_formula_sum "Si O2"
_cell_formula_units_Z 18
_cell_length_a 7.892138
_cell_length_b 9.603989
_cell_length_c 10.963739
_cell_angle_alpha 90.000000
_cell_angle_beta 67.069583
_cell_angle_gamma 90.000000
_cell_volume 765.340329
_symmetry_space_group_name_H-M "C 2"
_symmetry_group_IT_number 5
_symmetry_cell_setting 'monoclinic'
loop_
_space_group_symop_operation_xyz
x,y,z
-x,y,-z
1/2+x,1/2+y,z
1/2-x,1/2+y,-z
loop_
_atom_site_type_symbol
_atom_site_label
_atom_site_fract_x
_atom_site_fract_y
_atom_site_fract_z
Si Si1 0.496689 0.527840 0.247116
Si Si2 0.206279 0.669715 0.480965
Si Si3 0.500000 0.388875 0.000000
Si Si4 0.694302 0.943561 0.673000
Si Si5 0.601076 0.796452 0.098024
O O1 0.310258 0.554658 0.372042
O O2 0.429614 0.471296 0.136707
O O3 0.630239 0.424983 0.285990
O O4 0.602677 0.670598 0.192536
O O5 0.295338 0.823776 0.436677
O O6 0.209012 0.602082 0.616321
O O7 0.000000 0.677987 0.500000
O O8 0.316290 0.311721 0.006889
O O9 0.507357 0.924819 0.805350
O O10 0.500000 0.760340 0.000000
#
# Coordination Sequence:
#
# PCOD8051944 Si02
#       5
#     4   4   2   4   4
#     4  11  24  43  69 102 143 188 236 288 352 428
#     4  11  24  43  70 101 143 185 240 291 354 419
#     4  12  24  42  72 100 142 192 230 284 362 418
#     4  11  25  46  72 101 146 186 237 295 355 419
#     4  11  24  44  69 105 144 185 235 291 353 424
#
# _framework density 23.518947000000001
#
# number of rings (size 3 to 8) (size 9 to 14) (size 15 to 20)
#    0.000    0.889    3.333    3.333    0.000    8.889 
#    0.000    0.000    0.000    0.000    0.000    0.000 
#    0.000    0.000    0.000    0.000    0.000    0.000 
#
# Total GULP energy -111497.939106 kJ/mol
# GULP energy per Si atom -12388.659901 kJ/mol
# Density = 2.346542 g / cm^3
# Si number density = 23.518947 Si / 1000 Ang^3
#
#
#
# Elastic Constant Matrix: (Units=GPa)
#
#
# Indices 1 2 3 4 5 6 
#
# 1 115.9477 16.2289 29.5206 0.0000 -15.9512 0.0000
# 2 16.2289 67.1961 29.1892 0.0000 6.4098 0.0000
# 3 29.5206 29.1892 93.6042 0.0000 -5.2902 0.0000
# 4 0.0000 0.0000 0.0000 19.8210 0.0000 13.3834
# 5 -15.9512 6.4098 -5.2902 0.0000 53.8702 0.0000
# 6 0.0000 0.0000 0.0000 13.3834 0.0000 27.5115
#
#
#
# Elastic Compliance Matrix: (Units=1/GPa)
#
#
# Indices 1 2 3 4 5 6 
#
# 1 0.009867 -0.001591 -0.002453 0.000000 0.002870 0.000000
# 2 -0.001591 0.017837 -0.005236 0.000000 -0.003108 0.000000
# 3 -0.002453 -0.005236 0.013157 0.000000 0.001189 0.000000
# 4 0.000000 0.000000 0.000000 0.075129 0.000000 -0.036548
# 5 0.002870 -0.003108 0.001189 0.000000 0.019899 0.000000
# 6 0.000000 0.000000 0.000000 -0.036548 0.000000 0.054128
#
#
# Mechanical properties :
#
#
# Convention : Reuss Voigt Hill
#
# Bulk Modulus (GPa) = 44.84359 47.40283 46.12321
# Shear Modulus (GPa) = 23.14695 33.69448 28.42072
#
# Velocity S-wave (km/s) = 3.14057 3.78915 3.48000
# Velocity P-wave (km/s) = 5.67973 6.27235 5.98338
#
# Compressibility (1/GPa) = 0.02229973
#
# Stress axis : x y z
#
# Youngs Moduli (GPa) = 101.35054 56.06324 76.00508
#
# Poissons Ratio (x) = 0.08920 0.18647
# Poissons Ratio (y) = 0.16125 0.39797
# Poissons Ratio (z) = 0.24865 0.29355
#
# Static dielectric constant tensor:
#      x y z
#    x 4.010130 0.000000 0.021660 
#    y 0.000000 4.242000 0.000000 
#    z 0.021660 0.000000 4.723960 
# 
# 
# High freq. dielectric constant tensor:
#      x y z
#    x 1.928720 0.000000 -0.007620 
#    y 0.000000 1.910810 0.000000 
#    z -0.007620 0.000000 1.951030 
# 
# From -- ./inp_files/34713.got.cif
#   From: 2010.03.12/outbox.cif.g09.slc.cpg/sg5_18_cif.got.tgz:34713.got - 2010.03.31 09:47:26.
