data_PCOD8051990
_publ_section_title
;
Structure prediction by ZEFSAII (Michael W. Deem and Ramdas Pophale) SiO2 
 PCOD8051990
Probable space group: C 2
;
_chemical_formula_sum "Si O2"
_cell_formula_units_Z 32
_cell_length_a 27.900751
_cell_length_b 11.315426
_cell_length_c 8.488208
_cell_angle_alpha 90.000000
_cell_angle_beta 147.453852
_cell_angle_gamma 90.000000
_cell_volume 1441.676838
_symmetry_space_group_name_H-M "C 2"
_symmetry_group_IT_number 5
_symmetry_cell_setting 'monoclinic'
loop_
_space_group_symop_operation_xyz
x,y,z
-x,y,-z
1/2+x,1/2+y,z
1/2-x,1/2+y,-z
loop_
_atom_site_type_symbol
_atom_site_label
_atom_site_fract_x
_atom_site_fract_y
_atom_site_fract_z
Si Si1 0.028034 0.211760 0.749062
Si Si2 0.765836 0.667603 0.736680
Si Si3 0.034557 0.433068 0.260764
Si Si4 0.078281 0.638813 0.611475
Si Si5 0.734298 0.907327 0.782076
Si Si6 0.231357 0.151986 0.289687
Si Si7 0.418723 0.564303 0.661503
Si Si8 0.332152 0.328991 0.353152
O O1 0.000000 0.256496 0.500000
O O2 0.028965 0.324714 0.866843
O O3 0.954336 0.111973 0.591660
O O4 0.126473 0.158699 0.026358
O O5 0.780560 0.809053 0.799275
O O6 0.779608 0.635038 0.592115
O O7 0.669009 0.633520 0.530128
O O8 0.839562 0.600715 0.047479
O O9 0.036868 0.527717 0.406570
O O10 0.130933 0.377605 0.500959
O O11 0.000000 0.488918 0.000000
O O12 0.108103 0.730651 0.562962
O O13 0.000000 0.695678 0.500000
O O14 0.749026 0.039213 0.762682
O O15 0.771410 0.899570 0.061523
O O16 0.269739 0.269389 0.312695
O O17 0.399237 0.424511 0.613264
O O18 0.500000 0.595841 0.000000
#
# Coordination Sequence:
#
# PCOD8051990 Si02
#       8
#     4   4   4   4   4   4   4   4
#     4  12  25  43  74 110 144 189 255 296 366 441
#     4  11  26  47  74 106 150 186 253 306 369 442
#     4  12  24  44  73 105 144 185 244 307 368 434
#     4  11  27  47  70 103 145 198 240 310 369 438
#     4  11  24  47  73 102 146 191 236 310 376 424
#     4  12  26  46  75 112 142 201 244 304 376 441
#     4  12  25  47  71 104 149 193 240 304 366 438
#     4  11  27  46  72 102 151 188 248 299 377 436
#
# _framework density 22.196375
#
# number of rings (size 3 to 8) (size 9 to 14) (size 15 to 20)
#    0.000    0.500    3.750    3.750    7.000    5.000 
#    0.000    0.000    0.000    0.000    0.000    0.000 
#    0.000    0.000    0.000    0.000    0.000    0.000 
#
# Total GULP energy -198462.587318 kJ/mol
# GULP energy per Si atom -12403.911707 kJ/mol
# Density = 2.214586 g / cm^3
# Si number density = 22.196375 Si / 1000 Ang^3
#
#
#
# Elastic Constant Matrix: (Units=GPa)
#
#
# Indices 1 2 3 4 5 6 
#
# 1 123.5403 40.5871 32.2801 0.0000 0.9048 0.0000
# 2 40.5871 107.0422 20.3416 0.0000 -3.6175 0.0000
# 3 32.2801 20.3416 95.6701 0.0000 -4.1097 0.0000
# 4 0.0000 0.0000 0.0000 29.9685 0.0000 -1.0864
# 5 0.9048 -3.6175 -4.1097 0.0000 38.0182 0.0000
# 6 0.0000 0.0000 0.0000 -1.0864 0.0000 29.5351
#
#
#
# Elastic Compliance Matrix: (Units=1/GPa)
#
#
# Indices 1 2 3 4 5 6 
#
# 1 0.009871 -0.003263 -0.002673 0.000000 -0.000834 0.000000
# 2 -0.003263 0.010833 -0.001160 0.000000 0.000983 0.000000
# 3 -0.002673 -0.001160 0.011653 0.000000 0.001213 0.000000
# 4 0.000000 0.000000 0.000000 0.033413 0.000000 0.001229
# 5 -0.000834 0.000983 0.001213 0.000000 0.026548 0.000000
# 6 0.000000 0.000000 0.000000 0.001229 0.000000 0.033903
#
#
# Mechanical properties :
#
#
# Convention : Reuss Voigt Hill
#
# Bulk Modulus (GPa) = 55.04931 56.96336 56.00634
# Shear Modulus (GPa) = 34.13718 35.04060 34.58889
#
# Velocity S-wave (km/s) = 3.92594 3.97755 3.95183
# Velocity P-wave (km/s) = 6.73836 6.84205 6.79040
#
# Compressibility (1/GPa) = 0.01816553
#
# Stress axis : x y z
#
# Youngs Moduli (GPa) = 101.30688 92.31004 85.81387
#
# Poissons Ratio (x) = 0.30122 0.22935
# Poissons Ratio (y) = 0.33057 0.09955
# Poissons Ratio (z) = 0.27075 0.10709
#
# Static dielectric constant tensor:
#      x y z
#    x 4.242120 0.000000 -0.042430 
#    y 0.000000 3.911560 0.000000 
#    z -0.042430 0.000000 4.124560 
# 
# 
# High freq. dielectric constant tensor:
#      x y z
#    x 1.883610 0.000000 -0.002110 
#    y 0.000000 1.873460 0.000000 
#    z -0.002110 0.000000 1.882110 
# 
# From -- ./inp_files/32639.got.cif
#   From: 2010.03.12/outbox.cif.g09.slc.cpg/sg5_17_cif.got.tgz:32639.got - 2010.03.31 09:47:26.
