data_PCOD8051951
_publ_section_title
;
Structure prediction by ZEFSAII (Michael W. Deem and Ramdas Pophale) SiO2 
 PCOD8051951
Probable space group: C 2
;
_chemical_formula_sum "Si O2"
_cell_formula_units_Z 22
_cell_length_a 17.834112
_cell_length_b 11.921855
_cell_length_c 14.162192
_cell_angle_alpha 90.000000
_cell_angle_beta 19.358267
_cell_angle_gamma 90.000000
_cell_volume 998.102859
_symmetry_space_group_name_H-M "C 2"
_symmetry_group_IT_number 5
_symmetry_cell_setting 'monoclinic'
loop_
_space_group_symop_operation_xyz
x,y,z
-x,y,-z
1/2+x,1/2+y,z
1/2-x,1/2+y,-z
loop_
_atom_site_type_symbol
_atom_site_label
_atom_site_fract_x
_atom_site_fract_y
_atom_site_fract_z
Si Si1 0.409611 0.577340 0.969126
Si Si2 0.500000 0.760582 0.000000
Si Si3 0.269530 0.889667 0.593482
Si Si4 0.479694 0.944745 0.885212
Si Si5 0.500000 0.954091 0.500000
Si Si6 0.000000 0.034594 0.500000
Si Si7 0.697184 0.639311 0.450437
O O1 0.569934 0.479594 0.821115
O O2 0.512046 0.626723 0.752518
O O3 0.348979 0.674987 0.117746
O O4 0.165447 0.527147 0.237001
O O5 0.394747 0.845612 0.203139
O O6 0.471971 0.921942 0.281684
O O7 0.190727 0.761945 0.671873
O O8 0.356504 0.882622 0.597165
O O9 0.589561 0.059388 0.789908
O O10 0.209333 0.952445 0.223158
O O11 0.932148 0.115016 0.493808
#
# Coordination Sequence:
#
# PCOD8051951 Si02
#       7
#     4   2   4   4   2   2   4
#     4  11  25  44  68  96 125 174 217 262 317 378
#     4  12  20  50  66  90 128 174 214 266 316 372
#     4  11  24  44  66  95 133 168 213 264 320 382
#     4  11  25  44  68  96 125 174 217 262 317 378
#     4  12  23  43  64 100 128 167 217 260 324 378
#     4  12  23  43  64 100 128 167 217 260 324 378
#     4  11  24  44  66  95 133 168 213 264 320 382
#
# _framework density 22.041817000000002
#
# number of rings (size 3 to 8) (size 9 to 14) (size 15 to 20)
#    0.000    0.727    5.455    1.636    0.000    5.091 
#    0.000    0.000    0.000    0.000    0.000    0.000 
#    0.000    0.000    0.000    0.000    0.000    0.000 
#
# Total GULP energy -136275.635222 kJ/mol
# GULP energy per Si atom -12388.694111 kJ/mol
# Density = 2.199165 g / cm^3
# Si number density = 22.041817 Si / 1000 Ang^3
#
#
#
# Elastic Constant Matrix: (Units=GPa)
#
#
# Indices 1 2 3 4 5 6 
#
# 1 117.5417 38.2390 23.7962 0.0034 10.6858 -0.0016
# 2 38.2390 160.2822 39.1035 0.0098 2.4031 0.0005
# 3 23.7962 39.1035 119.5446 0.0173 10.6446 -0.0047
# 4 0.0034 0.0098 0.0173 20.2039 -0.0099 6.5167
# 5 10.6858 2.4031 10.6446 -0.0099 22.9011 0.0002
# 6 -0.0016 0.0005 -0.0047 6.5167 0.0002 34.3778
#
#
#
# Elastic Compliance Matrix: (Units=1/GPa)
#
#
# Indices 1 2 3 4 5 6 
#
# 1 0.009709 -0.002033 -0.000921 -0.000002 -0.003889 0.000001
# 2 -0.002033 0.007208 -0.002055 -0.000001 0.001148 0.000000
# 3 -0.000921 -0.002055 0.009559 -0.000010 -0.003798 0.000003
# 4 -0.000002 -0.000001 -0.000010 0.052719 0.000028 -0.009993
# 5 -0.003889 0.001148 -0.003798 0.000028 0.047125 -0.000006
# 6 0.000001 0.000000 0.000003 -0.009993 -0.000006 0.030983
#
#
# Mechanical properties :
#
#
# Convention : Reuss Voigt Hill
#
# Bulk Modulus (GPa) = 60.76604 66.62731 63.69668
# Shear Modulus (GPa) = 28.93375 35.24522 32.08948
#
# Velocity S-wave (km/s) = 3.62702 4.00311 3.81969
# Velocity P-wave (km/s) = 6.72077 7.18748 6.95804
#
# Compressibility (1/GPa) = 0.01645656
#
# Stress axis : x y z
#
# Youngs Moduli (GPa) = 102.99580 138.72897 104.61428
#
# Poissons Ratio (x) = 0.28207 0.09638
# Poissons Ratio (y) = 0.20942 0.21502
# Poissons Ratio (z) = 0.09489 0.28513
#
# Static dielectric constant tensor:
#      x y z
#    x 4.171510 0.000000 0.325050 
#    y 0.000000 4.114840 0.000010 
#    z 0.325050 0.000010 3.832010 
# 
# 
# High freq. dielectric constant tensor:
#      x y z
#    x 1.880790 0.000000 0.025050 
#    y 0.000000 1.878580 0.000000 
#    z 0.025050 0.000000 1.850080 
# 
# From -- ./inp_files/6518.got.cif
#   From: 2010.03.12/outbox.cif.g09.slc.cpg/sg5_4_cif.got.tgz:6518.got - 2010.03.31 09:47:26.
