data_PCOD8051667
_publ_section_title
;
Structure prediction by ZEFSAII (Michael W. Deem and Ramdas Pophale) SiO2 
 PCOD8051667
Probable space group: C 2
;
_chemical_formula_sum "Si O2"
_cell_formula_units_Z 22
_cell_length_a 19.664887
_cell_length_b 9.910223
_cell_length_c 4.899015
_cell_angle_alpha 90.000000
_cell_angle_beta 99.222692
_cell_angle_gamma 90.000000
_cell_volume 942.394766
_symmetry_space_group_name_H-M "C 2"
_symmetry_group_IT_number 5
_symmetry_cell_setting 'monoclinic'
loop_
_space_group_symop_operation_xyz
x,y,z
-x,y,-z
1/2+x,1/2+y,z
1/2-x,1/2+y,-z
loop_
_atom_site_type_symbol
_atom_site_label
_atom_site_fract_x
_atom_site_fract_y
_atom_site_fract_z
Si Si1 0.680626 0.339540 0.365103
Si Si2 0.588228 0.293621 0.793063
Si Si3 0.500000 0.899868 0.000000
Si Si4 0.389040 0.690925 0.029793
Si Si5 0.000000 0.567477 0.500000
Si Si6 0.697400 0.640779 0.496928
Si Si7 0.000000 0.983799 0.000000
O O1 0.650525 0.339906 0.647938
O O2 0.713055 0.491549 0.376302
O O3 0.735953 0.220650 0.354127
O O4 0.618547 0.304260 0.119462
O O5 0.562649 0.147541 0.682106
O O6 0.519936 0.389600 0.752371
O O7 0.439595 0.816044 0.110375
O O8 0.533027 0.983639 0.271018
O O9 0.358539 0.637486 0.294854
O O10 0.330141 0.729873 0.775426
O O11 0.432531 0.574246 0.899005
#
# Coordination Sequence:
#
# PCOD8051667 Si02
#       7
#     4   4   2   4   2   4   2
#     4  12  26  45  70 103 149 196 254 297 371 438
#     4  12  25  44  72 106 137 190 243 309 367 437
#     4  11  25  46  68 110 147 185 234 310 388 447
#     4  11  25  43  76 102 143 190 245 309 370 436
#     4  12  26  44  70 108 150 182 238 308 392 440
#     4  12  25  47  68 109 145 202 251 303 365 449
#     4  11  21  44  76 106 137 175 254 316 352 427
#
# _framework density 23.344778000000002
#
# number of rings (size 3 to 8) (size 9 to 14) (size 15 to 20)
#    0.000    0.364    3.636    4.909    0.000    8.000 
#    0.000    0.000    0.000    0.000    0.000    0.000 
#    0.000    0.000    0.000    0.000    0.000    0.000 
#
# Total GULP energy -136327.320554 kJ/mol
# GULP energy per Si atom -12393.392778 kJ/mol
# Density = 2.329164 g / cm^3
# Si number density = 23.344778 Si / 1000 Ang^3
#
#
#
# Elastic Constant Matrix: (Units=GPa)
#
#
# Indices 1 2 3 4 5 6 
#
# 1 96.9441 56.9204 30.2743 0.0000 -9.6898 0.0000
# 2 56.9204 137.9745 44.3105 0.0000 5.5869 0.0000
# 3 30.2743 44.3105 114.0410 0.0000 3.5712 0.0000
# 4 0.0000 0.0000 0.0000 39.0556 0.0000 -1.8903
# 5 -9.6898 5.5869 3.5712 0.0000 36.3319 0.0000
# 6 0.0000 0.0000 0.0000 -1.8903 0.0000 22.9649
#
#
#
# Elastic Compliance Matrix: (Units=1/GPa)
#
#
# Indices 1 2 3 4 5 6 
#
# 1 0.014730 -0.005682 -0.001859 0.000000 0.004985 0.000000
# 2 -0.005682 0.010506 -0.002483 0.000000 -0.002887 0.000000
# 3 -0.001859 -0.002483 0.010262 0.000000 -0.001123 0.000000
# 4 0.000000 0.000000 0.000000 0.025707 0.000000 0.002116
# 5 0.004985 -0.002887 -0.001123 0.000000 0.029408 0.000000
# 6 0.000000 0.000000 0.000000 0.002116 0.000000 0.043719
#
#
# Mechanical properties :
#
#
# Convention : Reuss Voigt Hill
#
# Bulk Modulus (GPa) = 64.72266 67.99664 66.35965
# Shear Modulus (GPa) = 31.34212 34.16745 32.75479
#
# Velocity S-wave (km/s) = 3.66809 3.82985 3.74985
# Velocity P-wave (km/s) = 6.76201 6.98193 6.87285
#
# Compressibility (1/GPa) = 0.01545054
#
# Stress axis : x y z
#
# Youngs Moduli (GPa) = 67.88917 95.18319 97.44378
#
# Poissons Ratio (x) = 0.54079 0.18113
# Poissons Ratio (y) = 0.38572 0.24200
# Poissons Ratio (z) = 0.12620 0.23638
#
# Static dielectric constant tensor:
#      x y z
#    x 4.032060 0.000000 -0.047140 
#    y 0.000000 4.351480 0.000000 
#    z -0.047140 0.000000 4.127740 
# 
# 
# High freq. dielectric constant tensor:
#      x y z
#    x 1.913550 0.000000 -0.004850 
#    y 0.000000 1.927540 0.000000 
#    z -0.004850 0.000000 1.933600 
# 
# From -- ./inp_files/9248.got.cif
#   From: 2010.03.12/outbox.cif.g09.slc.cpg/sg5_5_cif.got.tgz:9248.got - 2010.03.31 09:47:26.
