data_PCOD8051346
_publ_section_title
;
Structure prediction by ZEFSAII (Michael W. Deem and Ramdas Pophale) SiO2 
 PCOD8051346
Probable space group: C 2
;
_chemical_formula_sum "Si O2"
_cell_formula_units_Z 26
_cell_length_a 18.087498
_cell_length_b 7.613959
_cell_length_c 11.445522
_cell_angle_alpha 90.000000
_cell_angle_beta 47.083533
_cell_angle_gamma 90.000000
_cell_volume 1154.361080
_symmetry_space_group_name_H-M "C 2"
_symmetry_group_IT_number 5
_symmetry_cell_setting 'monoclinic'
loop_
_space_group_symop_operation_xyz
x,y,z
-x,y,-z
1/2+x,1/2+y,z
1/2-x,1/2+y,-z
loop_
_atom_site_type_symbol
_atom_site_label
_atom_site_fract_x
_atom_site_fract_y
_atom_site_fract_z
Si Si1 0.853089 0.178720 0.794658
Si Si2 0.685829 0.256223 0.413460
Si Si3 0.661140 0.036206 0.668043
Si Si4 0.831228 0.113741 0.070807
Si Si5 0.050364 0.418167 0.140244
Si Si6 0.144971 0.732485 0.911629
Si Si7 0.000000 0.922937 0.500000
O O1 0.912248 0.356267 0.771057
O O2 0.766220 0.226328 0.797106
O O3 0.800805 0.092077 0.966381
O O4 0.930462 0.041205 0.657002
O O5 0.696582 0.136632 0.515269
O O6 0.745375 0.435186 0.375427
O O7 0.732870 0.151192 0.253932
O O8 0.570010 0.301130 0.507056
O O9 0.617578 0.171431 0.810870
O O10 0.570553 0.905786 0.730720
O O11 0.888878 0.935131 0.044511
O O12 0.907156 0.280242 0.002476
O O13 0.088766 0.613866 0.068907
#
# Coordination Sequence:
#
# PCOD8051346 Si02
#       7
#     4   4   4   4   4   4   2
#     4  10  24  45  78 104 149 188 248 308 356 433
#     4  12  28  48  74 109 152 196 247 304 370 444
#     4  12  26  47  71 110 158 189 241 311 370 438
#     4  10  25  46  77 105 144 198 246 300 365 434
#     4  10  25  45  71 111 147 185 249 304 362 438
#     4  12  22  47  77 112 145 198 242 306 368 439
#     4  12  26  48  76 114 144 198 252 304 368 436
#
# _framework density 22.523282999999999
#
# number of rings (size 3 to 8) (size 9 to 14) (size 15 to 20)
#    0.923    0.000    3.077    2.308    6.462    2.462 
#    5.538    0.000    0.000    0.000    0.000    0.000 
#    0.000    0.000    0.000    0.000    0.000    0.000 
#
# Total GULP energy -161191.944095 kJ/mol
# GULP energy per Si atom -12399.380315 kJ/mol
# Density = 2.247202 g / cm^3
# Si number density = 22.523283 Si / 1000 Ang^3
#
#
#
# Elastic Constant Matrix: (Units=GPa)
#
#
# Indices 1 2 3 4 5 6 
#
# 1 89.7914 17.9991 -0.9369 0.0001 -3.8403 -0.0001
# 2 17.9991 115.6935 13.2505 0.0002 -3.2341 -0.0002
# 3 -0.9369 13.2505 55.6850 0.0001 23.1819 -0.0001
# 4 0.0001 0.0002 0.0001 38.4822 0.0000 6.0480
# 5 -3.8403 -3.2341 23.1819 0.0000 36.9350 0.0000
# 6 -0.0001 -0.0002 -0.0001 6.0480 0.0000 28.1961
#
#
#
# Elastic Compliance Matrix: (Units=1/GPa)
#
#
# Indices 1 2 3 4 5 6 
#
# 1 0.011538 -0.001800 0.000255 0.000000 0.000882 0.000000
# 2 -0.001800 0.009394 -0.003425 0.000000 0.002785 0.000000
# 3 0.000255 -0.003425 0.025573 0.000000 -0.016324 0.000000
# 4 0.000000 0.000000 0.000000 0.026893 0.000000 -0.005768
# 5 0.000882 0.002785 -0.016324 0.000000 0.037656 0.000000
# 6 0.000000 0.000000 0.000000 -0.005768 0.000000 0.036703
#
#
# Mechanical properties :
#
#
# Convention : Reuss Voigt Hill
#
# Bulk Modulus (GPa) = 27.34767 35.75504 31.55136
# Shear Modulus (GPa) = 29.43182 36.11312 32.77247
#
# Velocity S-wave (km/s) = 3.61879 4.00855 3.81865
# Velocity P-wave (km/s) = 5.44327 6.11014 5.78632
#
# Compressibility (1/GPa) = 0.03656619
#
# Stress axis : x y z
#
# Youngs Moduli (GPa) = 86.66976 106.45518 39.10335
#
# Poissons Ratio (x) = 0.19158 -0.00998
# Poissons Ratio (y) = 0.15597 0.13393
# Poissons Ratio (z) = -0.02212 0.36461
#
# Static dielectric constant tensor:
#      x y z
#    x 3.970460 0.000000 0.036070 
#    y 0.000000 4.010920 0.000000 
#    z 0.036070 0.000000 3.917140 
# 
# 
# High freq. dielectric constant tensor:
#      x y z
#    x 1.888650 0.000000 0.001940 
#    y 0.000000 1.888670 0.000000 
#    z 0.001940 0.000000 1.882350 
# 
# From -- ./inp_files/46098.got.cif
#   From: 2010.03.12/outbox.cif.g09.slc.cpg/sg5_24_cif.got.tgz:46098.got - 2010.03.31 09:47:26.
