data_PCOD8051918
_publ_section_title
;
Structure prediction by ZEFSAII (Michael W. Deem and Ramdas Pophale) SiO2 
 PCOD8051918
Probable space group: C 2
;
_chemical_formula_sum "Si O2"
_cell_formula_units_Z 18
_cell_length_a 7.390011
_cell_length_b 12.200839
_cell_length_c 8.507051
_cell_angle_alpha 90.000000
_cell_angle_beta 113.939902
_cell_angle_gamma 90.000000
_cell_volume 701.045993
_symmetry_space_group_name_H-M "C 2"
_symmetry_group_IT_number 5
_symmetry_cell_setting 'monoclinic'
loop_
_space_group_symop_operation_xyz
x,y,z
-x,y,-z
1/2+x,1/2+y,z
1/2-x,1/2+y,-z
loop_
_atom_site_type_symbol
_atom_site_label
_atom_site_fract_x
_atom_site_fract_y
_atom_site_fract_z
Si Si1 0.093573 0.371910 0.205484
Si Si2 0.355286 0.677552 0.583466
Si Si3 0.500000 0.442867 0.000000
Si Si4 0.653903 0.065097 0.790600
Si Si5 0.009231 0.792038 0.276503
O O1 0.014714 0.261250 0.264408
O O2 0.332552 0.365071 0.288845
O O3 0.030316 0.480445 0.281855
O O4 0.000000 0.375229 0.000000
O O5 0.500000 0.628501 0.500000
O O6 0.259021 0.580292 0.654871
O O7 0.176675 0.753872 0.456052
O O8 0.687235 0.519892 0.024822
O O9 0.594766 0.367558 0.169141
O O10 0.584586 0.181822 0.831001
#
# Coordination Sequence:
#
# PCOD8051918 Si02
#       5
#     4   4   2   4   4
#     4  11  23  48  81 113 154 209 262 327 391 472
#     4  11  27  50  79 115 166 206 265 330 395 473
#     4  12  26  44  76 110 152 204 260 310 394 468
#     4  11  26  45  76 115 152 205 265 317 395 465
#     4  11  27  47  76 115 154 206 260 328 390 465
#
# _framework density 25.675916999999998
#
# number of rings (size 3 to 8) (size 9 to 14) (size 15 to 20)
#    0.000    0.889    2.222    4.000    7.778    7.111 
#    0.000    4.444    0.000    0.000    0.000    0.000 
#    0.000    0.000    0.000    0.000    0.000    0.000 
#
# Total GULP energy -111516.059141 kJ/mol
# GULP energy per Si atom -12390.673238 kJ/mol
# Density = 2.561748 g / cm^3
# Si number density = 25.675917 Si / 1000 Ang^3
#
#
#
# Elastic Constant Matrix: (Units=GPa)
#
#
# Indices 1 2 3 4 5 6 
#
# 1 120.7279 66.0267 39.0153 0.0000 7.2276 0.0000
# 2 66.0267 151.0830 41.9944 0.0000 -7.2800 0.0000
# 3 39.0153 41.9944 105.1097 0.0000 -1.5560 0.0000
# 4 0.0000 0.0000 0.0000 37.6987 0.0000 -5.8569
# 5 7.2276 -7.2800 -1.5560 0.0000 41.4430 0.0000
# 6 0.0000 0.0000 0.0000 -5.8569 0.0000 57.4796
#
#
#
# Elastic Compliance Matrix: (Units=1/GPa)
#
#
# Indices 1 2 3 4 5 6 
#
# 1 0.011804 -0.004580 -0.002595 0.000000 -0.002960 0.000000
# 2 -0.004580 0.009282 -0.001974 0.000000 0.002355 0.000000
# 3 -0.002595 -0.001974 0.011274 0.000000 0.000529 0.000000
# 4 0.000000 0.000000 0.000000 0.026953 0.000000 0.002746
# 5 -0.002960 0.002355 0.000529 0.000000 0.025079 0.000000
# 6 0.000000 0.000000 0.000000 0.002746 0.000000 0.017677
#
#
# Mechanical properties :
#
#
# Convention : Reuss Voigt Hill
#
# Bulk Modulus (GPa) = 71.11434 74.55483 72.83459
# Shear Modulus (GPa) = 39.98245 42.64987 41.31616
#
# Velocity S-wave (km/s) = 3.95041 4.08006 4.01576
# Velocity P-wave (km/s) = 6.96884 7.16211 7.06613
#
# Compressibility (1/GPa) = 0.01406186
#
# Stress axis : x y z
#
# Youngs Moduli (GPa) = 84.71860 107.73013 88.70201
#
# Poissons Ratio (x) = 0.49338 0.23022
# Poissons Ratio (y) = 0.38799 0.17508
# Poissons Ratio (z) = 0.21989 0.21264
#
# Static dielectric constant tensor:
#      x y z
#    x 4.813620 0.000000 -0.010670 
#    y 0.000000 4.802480 0.000000 
#    z -0.010670 0.000000 4.538350 
# 
# 
# High freq. dielectric constant tensor:
#      x y z
#    x 2.031670 0.000000 0.006200 
#    y 0.000000 2.029690 0.000000 
#    z 0.006200 0.000000 2.011520 
# 
# From -- ./inp_files/14192.got.cif
#   From: 2010.03.12/outbox.cif.g09.slc.cpg/sg5_8_cif.got.tgz:14192.got - 2010.03.31 09:47:26.
