data_PCOD8051884
_publ_section_title
;
Structure prediction by ZEFSAII (Michael W. Deem and Ramdas Pophale) SiO2 
 PCOD8051884
Probable space group: C 2
;
_chemical_formula_sum "Si O2"
_cell_formula_units_Z 24
_cell_length_a 14.650482
_cell_length_b 8.895992
_cell_length_c 8.891589
_cell_angle_alpha 90.000000
_cell_angle_beta 106.284608
_cell_angle_gamma 90.000000
_cell_volume 1112.353732
_symmetry_space_group_name_H-M "C 2"
_symmetry_group_IT_number 5
_symmetry_cell_setting 'monoclinic'
loop_
_space_group_symop_operation_xyz
x,y,z
-x,y,-z
1/2+x,1/2+y,z
1/2-x,1/2+y,-z
loop_
_atom_site_type_symbol
_atom_site_label
_atom_site_fract_x
_atom_site_fract_y
_atom_site_fract_z
Si Si1 0.596674 0.175080 0.975508
Si Si2 0.719713 0.626254 0.305700
Si Si3 0.278192 0.813565 0.205890
Si Si4 0.605738 0.826254 0.023335
Si Si5 0.904746 0.770289 0.370060
Si Si6 0.606673 0.603295 0.543356
O O1 0.594960 0.199479 0.796018
O O2 0.610447 0.005331 0.038348
O O3 0.500000 0.241155 0.000000
O O4 0.680278 0.265910 0.088718
O O5 0.762623 0.486822 0.234979
O O6 0.813489 0.706634 0.419337
O O7 0.641288 0.570465 0.389053
O O8 0.674747 0.749659 0.174891
O O9 0.363384 0.783272 0.129416
O O10 0.312802 0.719160 0.364957
O O11 0.500000 0.764147 0.000000
O O12 0.000000 0.719345 0.500000
O O13 0.896633 0.951063 0.360387
O O14 0.500000 0.674015 0.500000
#
# Coordination Sequence:
#
# PCOD8051884 Si02
#       6
#     4   4   4   4   4   4
#     4  11  26  44  70 103 133 182 229 287 344 402
#     4  12  25  45  69 102 136 184 228 285 345 408
#     4  12  24  44  70 104 134 182 232 282 346 406
#     4  11  23  45  69 102 136 174 229 284 343 403
#     4  11  25  47  67  98 142 181 231 280 342 414
#     4  11  27  45  68 100 142 186 226 281 343 412
#
# _framework density 21.575869999999998
#
# number of rings (size 3 to 8) (size 9 to 14) (size 15 to 20)
#    0.000    0.667    3.333    3.000    9.333    1.333 
#    3.000    0.000    0.000    0.000    0.000    0.000 
#    0.000    0.000    0.000    0.000    0.000    0.000 
#
# Total GULP energy -148796.966787 kJ/mol
# GULP energy per Si atom -12399.747232 kJ/mol
# Density = 2.152676 g / cm^3
# Si number density = 21.575870 Si / 1000 Ang^3
#
#
#
# Elastic Constant Matrix: (Units=GPa)
#
#
# Indices 1 2 3 4 5 6 
#
# 1 167.0885 49.5829 60.5695 0.0000 3.0352 0.0000
# 2 49.5829 103.5069 50.2455 0.0000 17.9355 0.0000
# 3 60.5695 50.2455 103.9956 0.0000 10.0849 0.0000
# 4 0.0000 0.0000 0.0000 25.8681 0.0000 3.2778
# 5 3.0352 17.9355 10.0849 0.0000 48.4109 0.0000
# 6 0.0000 0.0000 0.0000 3.2778 0.0000 41.1275
#
#
#
# Elastic Compliance Matrix: (Units=1/GPa)
#
#
# Indices 1 2 3 4 5 6 
#
# 1 0.007952 -0.002218 -0.003665 0.000000 0.001087 0.000000
# 2 -0.002218 0.013841 -0.005012 0.000000 -0.003944 0.000000
# 3 -0.003665 -0.005012 0.014258 0.000000 -0.000883 0.000000
# 4 0.000000 0.000000 0.000000 0.039052 0.000000 -0.003112
# 5 0.001087 -0.003944 -0.000883 0.000000 0.022234 0.000000
# 6 0.000000 0.000000 0.000000 -0.003112 0.000000 0.024563
#
#
# Mechanical properties :
#
#
# Convention : Reuss Voigt Hill
#
# Bulk Modulus (GPa) = 70.13339 77.26519 73.69929
# Shear Modulus (GPa) = 33.68282 37.36083 35.52182
#
# Velocity S-wave (km/s) = 3.95541 4.16577 4.06195
# Velocity P-wave (km/s) = 7.31002 7.68289 7.49877
#
# Compressibility (1/GPa) = 0.01425854
#
# Stress axis : x y z
#
# Youngs Moduli (GPa) = 125.75486 72.25114 70.13713
#
# Poissons Ratio (x) = 0.16029 0.25705
# Poissons Ratio (y) = 0.27898 0.35156
# Poissons Ratio (z) = 0.46089 0.36216
#
# Static dielectric constant tensor:
#      x y z
#    x 4.464580 0.000000 -0.084180 
#    y 0.000000 3.796980 0.000000 
#    z -0.084180 0.000000 3.515240 
# 
# 
# High freq. dielectric constant tensor:
#      x y z
#    x 1.877440 0.000000 -0.002450 
#    y 0.000000 1.848180 0.000000 
#    z -0.002450 0.000000 1.840700 
# 
# From -- ./inp_files/22899.got.cif
#   From: 2010.03.12/outbox.cif.g09.slc.cpg/sg5_12_cif.got.tgz:22899.got - 2010.03.31 09:47:26.
