data_PCOD8051781
_publ_section_title
;
Structure prediction by ZEFSAII (Michael W. Deem and Ramdas Pophale) SiO2 
 PCOD8051781
Probable space group: C 2
;
_chemical_formula_sum "Si O2"
_cell_formula_units_Z 28
_cell_length_a 14.898774
_cell_length_b 10.233729
_cell_length_c 9.509175
_cell_angle_alpha 90.000000
_cell_angle_beta 56.334665
_cell_angle_gamma 90.000000
_cell_volume 1206.706867
_symmetry_space_group_name_H-M "C 2"
_symmetry_group_IT_number 5
_symmetry_cell_setting 'monoclinic'
loop_
_space_group_symop_operation_xyz
x,y,z
-x,y,-z
1/2+x,1/2+y,z
1/2-x,1/2+y,-z
loop_
_atom_site_type_symbol
_atom_site_label
_atom_site_fract_x
_atom_site_fract_y
_atom_site_fract_z
Si Si1 0.793257 0.029260 0.895787
Si Si2 0.600167 0.246829 0.680733
Si Si3 0.681985 0.633184 0.590229
Si Si4 0.881265 0.971558 0.115076
Si Si5 0.952443 0.506638 0.890519
Si Si6 0.965982 0.254869 0.690251
Si Si7 0.109319 0.938192 0.443253
O O1 0.861925 0.159515 0.797446
O O2 0.822123 0.913877 0.757838
O O3 0.824538 0.959783 0.014328
O O4 0.667729 0.067016 0.989990
O O5 0.724066 0.230957 0.528434
O O6 0.600286 0.332368 0.822886
O O7 0.556324 0.318722 0.577851
O O8 0.532578 0.116415 0.759966
O O9 0.696069 0.569065 0.731364
O O10 0.566650 0.700293 0.688143
O O11 0.689776 0.517005 0.471786
O O12 0.000000 0.034907 0.000000
O O13 0.939225 0.390641 0.790672
O O14 0.000000 0.459909 0.000000
O O15 0.000000 0.284223 0.500000
O O16 0.000000 0.022659 0.500000
#
# Coordination Sequence:
#
# PCOD8051781 Si02
#       7
#     4   4   4   4   4   4   4
#     4  12  25  49  75 116 142 192 253 313 372 438
#     4  11  28  47  73 103 154 196 245 296 374 447
#     4  11  23  45  74 105 143 194 245 297 362 445
#     4  11  24  45  78 109 140 193 249 307 372 433
#     4  12  32  49  71 114 159 194 243 318 378 428
#     4  12  27  49  79 106 150 197 253 304 370 456
#     4  11  22  46  75 103 136 197 246 295 360 448
#
# _framework density 23.203645999999999
#
# number of rings (size 3 to 8) (size 9 to 14) (size 15 to 20)
#    0.000    0.571    4.286    2.143   10.000    4.000 
#    0.000    0.000    0.000    0.000    0.000    0.000 
#    0.000    0.000    0.000    0.000    0.000    0.000 
#
# Total GULP energy -173498.455819 kJ/mol
# GULP energy per Si atom -12392.746844 kJ/mol
# Density = 2.315083 g / cm^3
# Si number density = 23.203646 Si / 1000 Ang^3
#
#
#
# Elastic Constant Matrix: (Units=GPa)
#
#
# Indices 1 2 3 4 5 6 
#
# 1 111.7349 29.5110 61.8640 0.0000 -8.1787 0.0000
# 2 29.5110 99.9289 63.4629 0.0000 4.7747 0.0000
# 3 61.8640 63.4629 162.3591 0.0000 17.2135 0.0000
# 4 0.0000 0.0000 0.0000 33.4610 0.0000 -3.9247
# 5 -8.1787 4.7747 17.2135 0.0000 52.1422 0.0000
# 6 0.0000 0.0000 0.0000 -3.9247 0.0000 19.2095
#
#
#
# Elastic Compliance Matrix: (Units=1/GPa)
#
#
# Indices 1 2 3 4 5 6 
#
# 1 0.011970 -0.000759 -0.004633 0.000000 0.003476 0.000000
# 2 -0.000759 0.013373 -0.004970 0.000000 0.000297 0.000000
# 3 -0.004633 -0.004970 0.010255 0.000000 -0.003657 0.000000
# 4 0.000000 0.000000 0.000000 0.030619 0.000000 0.006256
# 5 0.003476 0.000297 -0.003657 0.000000 0.020904 0.000000
# 6 0.000000 0.000000 0.000000 0.006256 0.000000 0.053336
#
#
# Mechanical properties :
#
#
# Convention : Reuss Voigt Hill
#
# Bulk Modulus (GPa) = 67.22688 75.96651 71.59670
# Shear Modulus (GPa) = 30.09566 35.57488 32.83527
#
# Velocity S-wave (km/s) = 3.60533 3.91981 3.76585
# Velocity P-wave (km/s) = 6.80930 7.30045 7.05915
#
# Compressibility (1/GPa) = 0.01487500
#
# Stress axis : x y z
#
# Youngs Moduli (GPa) = 83.54462 74.77675 97.51645
#
# Poissons Ratio (x) = 0.05674 0.45177
# Poissons Ratio (y) = 0.06339 0.48462
# Poissons Ratio (z) = 0.38704 0.37162
#
# Static dielectric constant tensor:
#      x y z
#    x 4.202970 0.000000 0.121550 
#    y 0.000000 4.206430 0.000000 
#    z 0.121550 0.000000 4.554440 
# 
# 
# High freq. dielectric constant tensor:
#      x y z
#    x 1.922660 0.000000 0.003660 
#    y 0.000000 1.898000 0.000000 
#    z 0.003660 0.000000 1.945030 
# 
# From -- ./inp_files/23754.got.cif
#   From: 2010.03.12/outbox.cif.g09.slc.cpg/sg5_12_cif.got.tgz:23754.got - 2010.03.31 09:47:26.
