data_PCOD8051138
_publ_section_title
;
Structure prediction by ZEFSAII (Michael W. Deem and Ramdas Pophale) SiO2 
 PCOD8051138
Probable space group: C 2
;
_chemical_formula_sum "Si O2"
_cell_formula_units_Z 32
_cell_length_a 10.700589
_cell_length_b 8.640054
_cell_length_c 28.867135
_cell_angle_alpha 90.000000
_cell_angle_beta 148.595111
_cell_angle_gamma 90.000000
_cell_volume 1390.702645
_symmetry_space_group_name_H-M "C 2"
_symmetry_group_IT_number 5
_symmetry_cell_setting 'monoclinic'
loop_
_space_group_symop_operation_xyz
x,y,z
-x,y,-z
1/2+x,1/2+y,z
1/2-x,1/2+y,-z
loop_
_atom_site_type_symbol
_atom_site_label
_atom_site_fract_x
_atom_site_fract_y
_atom_site_fract_z
Si Si1 0.926777 0.319480 0.527748
Si Si2 0.176517 0.372741 0.199565
Si Si3 0.590098 0.362494 0.273722
Si Si4 0.924043 0.824299 0.910652
Si Si5 0.317497 0.032893 0.027705
Si Si6 0.001281 0.961973 0.448738
Si Si7 0.020871 0.507704 0.245286
Si Si8 0.598949 0.591046 0.863548
O O1 0.670860 0.375920 0.465498
O O2 0.000000 0.385314 0.500000
O O3 0.125760 0.371554 0.628364
O O4 0.905801 0.135989 0.518206
O O5 0.457540 0.410057 0.279929
O O6 0.081555 0.472283 0.211610
O O7 0.130213 0.190335 0.192135
O O8 0.047219 0.426918 0.111092
O O9 0.488920 0.190470 0.234349
O O10 0.510729 0.470366 0.206883
O O11 0.796960 0.711646 0.907115
O O12 0.719245 0.912772 0.815573
O O13 0.094209 0.959858 0.987127
O O14 0.105587 0.711955 0.938333
O O15 0.228668 0.004561 0.946749
O O16 0.000000 0.886754 0.500000
O O17 0.730156 0.949716 0.345162
#
# Coordination Sequence:
#
# PCOD8051138 Si02
#       8
#     4   4   4   4   4   4   4   4
#     4  10  23  44  72 105 142 180 228 288 351 428
#     4  11  24  42  63  94 135 174 225 285 337 410
#     4  11  24  42  69 101 132 180 230 279 353 409
#     4  11  25  43  66  92 135 175 228 287 336 408
#     4  12  24  41  65  93 128 180 225 281 344 398
#     4  10  23  46  71 102 143 183 227 288 351 424
#     4  10  25  44  66 101 135 176 231 284 346 412
#     4  11  25  43  65  93 135 176 232 281 343 410
#
# _framework density 23.009951000000001
#
# number of rings (size 3 to 8) (size 9 to 14) (size 15 to 20)
#    0.000    1.250    2.500    1.875    3.500    6.500 
#    2.250    1.250    0.000    0.000    0.000    0.000 
#    0.000    0.000    0.000    0.000    0.000    0.000 
#
# Total GULP energy -198243.115697 kJ/mol
# GULP energy per Si atom -12390.194731 kJ/mol
# Density = 2.295758 g / cm^3
# Si number density = 23.009951 Si / 1000 Ang^3
#
#
#
# Elastic Constant Matrix: (Units=GPa)
#
#
# Indices 1 2 3 4 5 6 
#
# 1 65.5675 37.8059 29.2021 0.0000 -1.7699 0.0000
# 2 37.8059 103.6590 60.9616 0.0000 7.8126 0.0000
# 3 29.2021 60.9616 84.8513 -0.0001 2.4118 0.0000
# 4 0.0000 0.0000 -0.0001 35.3218 0.0000 4.4898
# 5 -1.7699 7.8126 2.4118 0.0000 37.5560 0.0000
# 6 0.0000 0.0000 0.0000 4.4898 0.0000 24.7453
#
#
#
# Elastic Compliance Matrix: (Units=1/GPa)
#
#
# Indices 1 2 3 4 5 6 
#
# 1 0.019887 -0.005826 -0.002725 0.000000 0.002324 0.000000
# 2 -0.005826 0.018692 -0.011327 0.000000 -0.003436 0.000000
# 3 -0.002725 -0.011327 0.020835 0.000000 0.000890 0.000000
# 4 0.000000 0.000000 0.000000 0.028979 0.000000 -0.005258
# 5 0.002324 -0.003436 0.000890 0.000000 0.027394 0.000000
# 6 0.000000 0.000000 0.000000 -0.005258 0.000000 0.041366
#
#
# Mechanical properties :
#
#
# Convention : Reuss Voigt Hill
#
# Bulk Modulus (GPa) = 50.86486 56.66856 53.76671
# Shear Modulus (GPa) = 24.57482 27.93184 26.25333
#
# Velocity S-wave (km/s) = 3.27158 3.48789 3.38147
# Velocity P-wave (km/s) = 6.03528 6.39545 6.21797
#
# Compressibility (1/GPa) = 0.01965994
#
# Stress axis : x y z
#
# Youngs Moduli (GPa) = 50.28456 53.49943 47.99548
#
# Poissons Ratio (x) = 0.31168 0.13077
# Poissons Ratio (y) = 0.29295 0.54362
# Poissons Ratio (z) = 0.13701 0.60596
#
# Static dielectric constant tensor:
#      x y z
#    x 4.211410 0.000000 0.205440 
#    y 0.000000 4.365470 0.000000 
#    z 0.205440 0.000000 4.257020 
# 
# 
# High freq. dielectric constant tensor:
#      x y z
#    x 1.906830 0.000000 0.014460 
#    y 0.000000 1.909650 0.000000 
#    z 0.014460 0.000000 1.914140 
# 
# From -- ./inp_files/71774.got.cif
#   From: 2010.03.12/outbox.cif.g09.slc.cpg/sg5_36_cif.got.tgz:71774.got - 2010.03.31 09:47:26.
