data_PCOD8051606
_publ_section_title
;
Structure prediction by ZEFSAII (Michael W. Deem and Ramdas Pophale) SiO2 
 PCOD8051606
Probable space group: C 2
;
_chemical_formula_sum "Si O2"
_cell_formula_units_Z 28
_cell_length_a 13.566977
_cell_length_b 12.698371
_cell_length_c 8.906578
_cell_angle_alpha 90.000000
_cell_angle_beta 124.239167
_cell_angle_gamma 90.000000
_cell_volume 1268.492454
_symmetry_space_group_name_H-M "C 2"
_symmetry_group_IT_number 5
_symmetry_cell_setting 'monoclinic'
loop_
_space_group_symop_operation_xyz
x,y,z
-x,y,-z
1/2+x,1/2+y,z
1/2-x,1/2+y,-z
loop_
_atom_site_type_symbol
_atom_site_label
_atom_site_fract_x
_atom_site_fract_y
_atom_site_fract_z
Si Si1 0.547522 0.153940 0.384369
Si Si2 0.633401 0.934690 0.119135
Si Si3 0.912351 0.209255 0.051952
Si Si4 0.183761 0.629970 0.993186
Si Si5 0.708038 0.265384 0.289567
Si Si6 0.422784 0.623940 0.565850
Si Si7 0.765947 0.474749 0.476778
O O1 0.500000 0.204199 0.500000
O O2 0.435622 0.108212 0.199943
O O3 0.612468 0.241914 0.339224
O O4 0.636563 0.057858 0.497572
O O5 0.684696 0.916975 0.330412
O O6 0.500000 0.981898 0.000000
O O7 0.631132 0.826715 0.024516
O O8 0.715301 0.024885 0.115145
O O9 0.990823 0.202757 0.268713
O O10 0.791601 0.143236 0.967573
O O11 0.000000 0.162411 0.000000
O O12 0.163140 0.731835 0.084752
O O13 0.824202 0.196574 0.408914
O O14 0.742698 0.388198 0.327686
O O15 0.500000 0.570462 0.500000
O O16 0.361306 0.531542 0.608504
#
# Coordination Sequence:
#
# PCOD8051606 Si02
#       7
#     4   4   4   4   4   4   4
#     4  11  26  43  72 102 136 175 235 290 340 409
#     4  11  20  44  72  98 136 187 231 275 353 416
#     4  11  26  42  68 101 137 182 233 283 338 412
#     4  12  23  47  72 101 141 186 229 291 345 418
#     4  11  23  44  71 100 139 180 231 283 345 416
#     4  11  22  45  68 101 141 181 226 284 347 413
#     4  11  24  42  73  99 139 182 230 285 347 409
#
# _framework density 22.073447000000002
#
# number of rings (size 3 to 8) (size 9 to 14) (size 15 to 20)
#    0.000    0.857    5.714    2.143    6.000    2.286 
#    2.571    0.000    0.000    0.000    0.000    0.000 
#    0.000    0.000    0.000    0.000    0.000    0.000 
#
# Total GULP energy -173566.531817 kJ/mol
# GULP energy per Si atom -12397.609415 kJ/mol
# Density = 2.202321 g / cm^3
# Si number density = 22.073447 Si / 1000 Ang^3
#
#
#
# Elastic Constant Matrix: (Units=GPa)
#
#
# Indices 1 2 3 4 5 6 
#
# 1 155.3356 34.5261 17.0338 0.0000 -8.3331 0.0000
# 2 34.5261 81.0357 9.6131 0.0000 1.8868 0.0000
# 3 17.0338 9.6131 63.4190 0.0000 -2.3210 0.0000
# 4 0.0000 0.0000 0.0000 39.5392 0.0000 -2.8344
# 5 -8.3331 1.8868 -2.3210 0.0000 32.7056 0.0000
# 6 0.0000 0.0000 0.0000 -2.8344 0.0000 20.9258
#
#
#
# Elastic Compliance Matrix: (Units=1/GPa)
#
#
# Indices 1 2 3 4 5 6 
#
# 1 0.007371 -0.003014 -0.001452 0.000000 0.001949 0.000000
# 2 -0.003014 0.013823 -0.001347 0.000000 -0.001661 0.000000
# 3 -0.001452 -0.001347 0.016394 0.000000 0.000871 0.000000
# 4 0.000000 0.000000 0.000000 0.025539 0.000000 0.003459
# 5 0.001949 -0.001661 0.000871 0.000000 0.031230 0.000000
# 6 0.000000 0.000000 0.000000 0.003459 0.000000 0.048257
#
#
# Mechanical properties :
#
#
# Convention : Reuss Voigt Hill
#
# Bulk Modulus (GPa) = 38.51495 46.90403 42.70949
# Shear Modulus (GPa) = 30.69505 34.54193 32.61849
#
# Velocity S-wave (km/s) = 3.73310 3.96013 3.84829
# Velocity P-wave (km/s) = 6.00565 6.49656 6.25592
#
# Compressibility (1/GPa) = 0.02596394
#
# Stress axis : x y z
#
# Youngs Moduli (GPa) = 135.66150 72.34478 60.99770
#
# Poissons Ratio (x) = 0.21803 0.08855
# Poissons Ratio (y) = 0.40885 0.08214
# Poissons Ratio (z) = 0.19694 0.09742
#
# Static dielectric constant tensor:
#      x y z
#    x 4.306160 0.000000 0.039360 
#    y 0.000000 3.814140 0.000000 
#    z 0.039360 0.000000 4.034520 
# 
# 
# High freq. dielectric constant tensor:
#      x y z
#    x 1.880470 0.000000 0.005540 
#    y 0.000000 1.843600 0.000000 
#    z 0.005540 0.000000 1.871120 
# 
# From -- ./inp_files/23724.got.cif
#   From: 2010.03.12/outbox.cif.g09.slc.cpg/sg5_12_cif.got.tgz:23724.got - 2010.03.31 09:47:26.
