data_PCOD8051531
_publ_section_title
;
Structure prediction by ZEFSAII (Michael W. Deem and Ramdas Pophale) SiO2 
 PCOD8051531
Probable space group: C 2
;
_chemical_formula_sum "Si O2"
_cell_formula_units_Z 18
_cell_length_a 21.290002
_cell_length_b 5.033700
_cell_length_c 8.087569
_cell_angle_alpha 90.000000
_cell_angle_beta 62.487029
_cell_angle_gamma 90.000000
_cell_volume 768.703323
_symmetry_space_group_name_H-M "C 2"
_symmetry_group_IT_number 5
_symmetry_cell_setting 'monoclinic'
loop_
_space_group_symop_operation_xyz
x,y,z
-x,y,-z
1/2+x,1/2+y,z
1/2-x,1/2+y,-z
loop_
_atom_site_type_symbol
_atom_site_label
_atom_site_fract_x
_atom_site_fract_y
_atom_site_fract_z
Si Si1 0.000000 0.551890 0.500000
Si Si2 0.297597 0.332326 0.707552
Si Si3 0.631932 0.842508 0.516845
Si Si4 0.902167 0.809749 0.870211
Si Si5 0.131752 0.312923 0.893752
O O1 0.060749 0.357823 0.494887
O O2 0.028297 0.748643 0.322824
O O3 0.315865 0.626920 0.625558
O O4 0.331997 0.277765 0.843917
O O5 0.214798 0.289761 0.825750
O O6 0.327545 0.124224 0.536026
O O7 0.612950 0.762413 0.726136
O O8 0.896907 0.601792 0.025636
O O9 0.908839 0.100615 0.941819
#
# Coordination Sequence:
#
# PCOD8051531 Si02
#       5
#     2   4   4   4   4
#     4  10  26  48  62  92 132 186 218 250 332 386
#     4  11  22  42  67  98 131 168 206 265 337 385
#     4  11  24  42  68  93 134 171 211 265 318 393
#     4  11  24  41  66  92 133 169 214 268 314 389
#     4  12  23  41  68 102 124 163 220 275 321 370
#
# _framework density 23.416056000000001
#
# number of rings (size 3 to 8) (size 9 to 14) (size 15 to 20)
#    0.000    0.889    0.000    8.000    0.000    8.889 
#    0.000    4.444    0.000    0.000    0.000    0.000 
#    0.000    0.000    0.000    0.000    0.000    0.000 
#
# Total GULP energy -111678.088374 kJ/mol
# GULP energy per Si atom -12408.676486 kJ/mol
# Density = 2.336276 g / cm^3
# Si number density = 23.416056 Si / 1000 Ang^3
#
#
#
# Elastic Constant Matrix: (Units=GPa)
#
#
# Indices 1 2 3 4 5 6 
#
# 1 26.3710 28.5713 15.5040 0.0000 -8.9169 0.0000
# 2 28.5713 104.4298 27.3912 0.0000 7.8938 0.0000
# 3 15.5040 27.3912 108.9266 0.0000 7.4733 0.0000
# 4 0.0000 0.0000 0.0000 52.6823 0.0000 2.8457
# 5 -8.9169 7.8938 7.4733 0.0000 32.4202 0.0000
# 6 0.0000 0.0000 0.0000 2.8457 0.0000 21.5178
#
#
#
# Elastic Compliance Matrix: (Units=1/GPa)
#
#
# Indices 1 2 3 4 5 6 
#
# 1 0.072841 -0.020063 -0.007145 0.000000 0.026566 0.000000
# 2 -0.020063 0.015899 -0.000506 0.000000 -0.009272 0.000000
# 3 -0.007145 -0.000506 0.010619 0.000000 -0.004290 0.000000
# 4 0.000000 0.000000 0.000000 0.019118 0.000000 -0.002528
# 5 0.026566 -0.009272 -0.004290 0.000000 0.041398 0.000000
# 6 0.000000 0.000000 0.000000 -0.002528 0.000000 0.046808
#
#
# Mechanical properties :
#
#
# Convention : Reuss Voigt Hill
#
# Bulk Modulus (GPa) = 22.76344 42.51783 32.64064
# Shear Modulus (GPa) = 18.06653 32.54145 25.30399
#
# Velocity S-wave (km/s) = 2.78068 3.73192 3.29085
# Velocity P-wave (km/s) = 4.47795 6.06355 5.33004
#
# Compressibility (1/GPa) = 0.04393010
#
# Stress axis : x y z
#
# Youngs Moduli (GPa) = 13.72852 62.89890 94.16976
#
# Poissons Ratio (x) = 1.26193 0.67288
# Poissons Ratio (y) = 0.27543 0.04766
# Poissons Ratio (z) = 0.09810 0.03184
#
# Static dielectric constant tensor:
#      x y z
#    x 4.121950 0.000000 0.033090 
#    y 0.000000 4.247450 0.000000 
#    z 0.033090 0.000000 4.302920 
# 
# 
# High freq. dielectric constant tensor:
#      x y z
#    x 1.917950 0.000000 0.002850 
#    y 0.000000 1.937210 0.000000 
#    z 0.002850 0.000000 1.937570 
# 
# From -- ./inp_files/28131.got.cif
#   From: 2010.03.12/outbox.cif.g09.slc.cpg/sg5_15_cif.got.tgz:28131.got - 2010.03.31 09:47:26.
