data_PCOD8051157
_publ_section_title
;
Structure prediction by ZEFSAII (Michael W. Deem and Ramdas Pophale) SiO2 
 PCOD8051157
Probable space group: C 2
;
_chemical_formula_sum "Si O2"
_cell_formula_units_Z 32
_cell_length_a 18.218648
_cell_length_b 14.747365
_cell_length_c 11.365938
_cell_angle_alpha 90.000000
_cell_angle_beta 150.647162
_cell_angle_gamma 90.000000
_cell_volume 1496.915105
_symmetry_space_group_name_H-M "C 2"
_symmetry_group_IT_number 5
_symmetry_cell_setting 'monoclinic'
loop_
_space_group_symop_operation_xyz
x,y,z
-x,y,-z
1/2+x,1/2+y,z
1/2-x,1/2+y,-z
loop_
_atom_site_type_symbol
_atom_site_label
_atom_site_fract_x
_atom_site_fract_y
_atom_site_fract_z
Si Si1 0.923072 0.725270 0.164648
Si Si2 0.622056 0.100500 0.583094
Si Si3 0.965061 0.058327 0.586272
Si Si4 0.126322 0.561791 0.078875
Si Si5 0.342015 0.707482 0.042275
Si Si6 0.512610 0.874914 0.877635
Si Si7 0.037104 0.916948 0.872424
Si Si8 0.255990 0.445786 0.633378
O O1 0.995094 0.812849 0.204473
O O2 0.048104 0.691520 0.429522
O O3 0.877015 0.647561 0.009807
O O4 0.772909 0.750819 0.025268
O O5 0.500000 0.052648 0.500000
O O6 0.666879 0.038973 0.533930
O O7 0.768811 0.129272 0.859640
O O8 0.788219 0.054935 0.366634
O O9 0.000000 0.038712 0.500000
O O10 0.022050 0.158313 0.700916
O O11 0.053221 0.979578 0.780275
O O12 0.000000 0.574119 0.000000
O O13 0.099077 0.468592 0.968733
O O14 0.397334 0.788812 0.039530
O O15 0.352925 0.876096 0.586761
O O16 0.500000 0.866253 0.000000
O O17 0.901504 0.960460 0.756948
O O18 0.190641 0.912844 0.162786
#
# Coordination Sequence:
#
# PCOD8051157 Si02
#       8
#     4   4   4   4   4   4   4   4
#     4  11  25  44  70 101 140 185 234 292 358 421
#     4  10  23  45  71  98 137 184 234 292 355 423
#     4  12  26  45  73 105 150 185 242 296 356 426
#     4  11  25  45  70 101 140 190 235 293 359 423
#     4  11  26  45  68 106 139 185 238 292 359 421
#     4  11  26  45  71 102 141 186 241 290 362 424
#     4  11  27  43  70 106 141 185 239 289 362 417
#     4  11  24  48  68 100 139 184 238 290 353 427
#
# _framework density 21.377298
#
# number of rings (size 3 to 8) (size 9 to 14) (size 15 to 20)
#    0.000    1.000    3.750    1.500    8.750    2.500 
#    0.000    0.000    0.000    0.000    0.000    0.000 
#    0.000    0.000    0.000    0.000    0.000    0.000 
#
# Total GULP energy -198424.982400 kJ/mol
# GULP energy per Si atom -12401.561400 kJ/mol
# Density = 2.132864 g / cm^3
# Si number density = 21.377298 Si / 1000 Ang^3
#
#
#
# Elastic Constant Matrix: (Units=GPa)
#
#
# Indices 1 2 3 4 5 6 
#
# 1 118.7520 66.9924 55.9657 0.0000 -6.2885 0.0000
# 2 66.9924 119.2884 30.9581 0.0000 -0.3918 0.0000
# 3 55.9657 30.9581 137.4225 0.0000 -1.0679 0.0000
# 4 0.0000 0.0000 0.0000 13.6663 0.0000 -0.6402
# 5 -6.2885 -0.3918 -1.0679 0.0000 36.3688 0.0000
# 6 0.0000 0.0000 0.0000 -0.6402 0.0000 34.0100
#
#
#
# Elastic Compliance Matrix: (Units=1/GPa)
#
#
# Indices 1 2 3 4 5 6 
#
# 1 0.014555 -0.007044 -0.004322 0.000000 0.002314 0.000000
# 2 -0.007044 0.012313 0.000087 0.000000 -0.001083 0.000000
# 3 -0.004322 0.000087 0.009014 0.000000 -0.000482 0.000000
# 4 0.000000 0.000000 0.000000 0.073237 0.000000 0.001379
# 5 0.002314 -0.001083 -0.000482 0.000000 0.027870 0.000000
# 6 0.000000 0.000000 0.000000 0.001379 0.000000 0.029429
#
#
# Mechanical properties :
#
#
# Convention : Reuss Voigt Hill
#
# Bulk Modulus (GPa) = 75.06943 75.92169 75.49556
# Shear Modulus (GPa) = 25.85057 31.57881 28.71469
#
# Velocity S-wave (km/s) = 3.48120 3.84762 3.66899
# Velocity P-wave (km/s) = 7.16596 7.43849 7.30350
#
# Compressibility (1/GPa) = 0.01332100
#
# Stress axis : x y z
#
# Youngs Moduli (GPa) = 68.70685 81.21363 110.93963
#
# Poissons Ratio (x) = 0.57211 0.47953
# Poissons Ratio (y) = 0.48400 -0.00961
# Poissons Ratio (z) = 0.29698 -0.00703
#
# Static dielectric constant tensor:
#      x y z
#    x 3.843740 0.000000 -0.095280 
#    y 0.000000 3.694880 0.000000 
#    z -0.095280 0.000000 4.112560 
# 
# 
# High freq. dielectric constant tensor:
#      x y z
#    x 1.841250 0.000000 -0.008660 
#    y 0.000000 1.828160 0.000000 
#    z -0.008660 0.000000 1.858070 
# 
# From -- ./inp_files/44993.got.cif
#   From: 2010.03.12/outbox.cif.g09.slc.cpg/sg5_23_cif.got.tgz:44993.got - 2010.03.31 09:47:26.
