data_PCOD8051541
_publ_section_title
;
Structure prediction by ZEFSAII (Michael W. Deem and Ramdas Pophale) SiO2 
 PCOD8051541
Probable space group: C 2
;
_chemical_formula_sum "Si O2"
_cell_formula_units_Z 28
_cell_length_a 19.408423
_cell_length_b 5.928151
_cell_length_c 13.700611
_cell_angle_alpha 90.000000
_cell_angle_beta 127.773395
_cell_angle_gamma 90.000000
_cell_volume 1246.000142
_symmetry_space_group_name_H-M "C 2"
_symmetry_group_IT_number 5
_symmetry_cell_setting 'monoclinic'
loop_
_space_group_symop_operation_xyz
x,y,z
-x,y,-z
1/2+x,1/2+y,z
1/2-x,1/2+y,-z
loop_
_atom_site_type_symbol
_atom_site_label
_atom_site_fract_x
_atom_site_fract_y
_atom_site_fract_z
Si Si1 0.898193 0.293500 0.770185
Si Si2 0.570412 0.726167 0.427163
Si Si3 0.500000 0.072846 0.500000
Si Si4 0.651736 0.404509 0.141865
Si Si5 0.405919 0.427526 0.291008
Si Si6 0.227445 0.055270 0.671117
Si Si7 0.293242 0.472426 0.018339
Si Si8 0.000000 0.583990 0.000000
O O1 0.922714 0.283346 0.679295
O O2 0.800208 0.383936 0.696557
O O3 0.974338 0.441988 0.882781
O O4 0.902069 0.057123 0.829427
O O5 0.477307 0.618539 0.371651
O O6 0.651533 0.564828 0.523859
O O7 0.573437 0.939548 0.501941
O O8 0.446509 0.201427 0.369974
O O9 0.729671 0.297620 0.272482
O O10 0.688057 0.531920 0.078440
O O11 0.584872 0.221210 0.041431
O O12 0.314023 0.473130 0.263785
O O13 0.381883 0.420302 0.155747
O O14 0.255829 0.722064 0.021003
#
# Coordination Sequence:
#
# PCOD8051541 Si02
#       8
#     4   4   2   4   4   4   4   2
#     4  11  28  45  77 100 151 196 255 312 397 459
#     4  12  28  46  72 112 143 199 256 320 389 472
#     4  12  26  46  76 100 154 194 256 330 382 482
#     4  11  26  47  73 101 150 194 253 321 380 465
#     4  12  26  47  74 108 150 194 254 315 398 461
#     4  11  24  49  66 106 142 190 249 312 377 463
#     4  12  29  47  80 116 153 202 261 320 395 469
#     4  10  26  50  66 106 142 198 246 320 380 470
#
# _framework density 22.471909
#
# number of rings (size 3 to 8) (size 9 to 14) (size 15 to 20)
#    0.000    0.571    4.286    1.286   16.000    1.143 
#    0.000    0.000    0.000    0.000    0.000    0.000 
#    0.000    0.000    0.000    0.000    0.000    0.000 
#
# Total GULP energy -173492.194059 kJ/mol
# GULP energy per Si atom -12392.299576 kJ/mol
# Density = 2.242076 g / cm^3
# Si number density = 22.471909 Si / 1000 Ang^3
#
#
#
# Elastic Constant Matrix: (Units=GPa)
#
#
# Indices 1 2 3 4 5 6 
#
# 1 105.8714 35.8717 28.1530 0.0000 -14.2862 0.0000
# 2 35.8717 97.8885 34.3725 0.0000 1.9365 0.0000
# 3 28.1530 34.3725 125.7793 0.0000 1.2150 0.0000
# 4 0.0000 0.0000 0.0000 25.9235 0.0000 -12.9335
# 5 -14.2862 1.9365 1.2150 0.0000 45.5083 0.0000
# 6 0.0000 0.0000 0.0000 -12.9335 0.0000 15.8106
#
#
#
# Elastic Compliance Matrix: (Units=1/GPa)
#
#
# Indices 1 2 3 4 5 6 
#
# 1 0.011682 -0.003790 -0.001616 0.000000 0.003872 0.000000
# 2 -0.003790 0.012537 -0.002562 0.000000 -0.001655 0.000000
# 3 -0.001616 -0.002562 0.009018 0.000000 -0.000639 0.000000
# 4 0.000000 0.000000 0.000000 0.065174 0.000000 0.053314
# 5 0.003872 -0.001655 -0.000639 0.000000 0.023277 0.000000
# 6 0.000000 0.000000 0.000000 0.053314 0.000000 0.106861
#
#
# Mechanical properties :
#
#
# Convention : Reuss Voigt Hill
#
# Bulk Modulus (GPa) = 57.80017 58.48151 58.14084
# Shear Modulus (GPa) = 19.97990 32.85796 26.41893
#
# Velocity S-wave (km/s) = 2.98502 3.82799 3.43248
# Velocity P-wave (km/s) = 6.13656 6.75417 6.45276
#
# Compressibility (1/GPa) = 0.01730099
#
# Stress axis : x y z
#
# Youngs Moduli (GPa) = 85.60339 79.76533 110.88343
#
# Poissons Ratio (x) = 0.30230 0.17924
# Poissons Ratio (y) = 0.32442 0.28405
# Poissons Ratio (z) = 0.13837 0.20434
#
# Static dielectric constant tensor:
#      x y z
#    x 3.930590 0.000000 0.073450 
#    y 0.000000 4.248480 0.000000 
#    z 0.073450 0.000000 4.322060 
# 
# 
# High freq. dielectric constant tensor:
#      x y z
#    x 1.882490 0.000000 0.002690 
#    y 0.000000 1.888730 0.000000 
#    z 0.002690 0.000000 1.905670 
# 
# From -- ./inp_files/56581.got.cif
#   From: 2010.03.12/outbox.cif.g09.slc.cpg/sg5_29_cif.got.tgz:56581.got - 2010.03.31 09:47:26.
