data_PCOD8051325
_publ_section_title
;
Structure prediction by ZEFSAII (Michael W. Deem and Ramdas Pophale) SiO2 
 PCOD8051325
Probable space group: C 2
;
_chemical_formula_sum "Si O2"
_cell_formula_units_Z 28
_cell_length_a 5.513244
_cell_length_b 13.517447
_cell_length_c 18.322263
_cell_angle_alpha 90.000000
_cell_angle_beta 63.610808
_cell_angle_gamma 90.000000
_cell_volume 1223.178772
_symmetry_space_group_name_H-M "C 2"
_symmetry_group_IT_number 5
_symmetry_cell_setting 'monoclinic'
loop_
_space_group_symop_operation_xyz
x,y,z
-x,y,-z
1/2+x,1/2+y,z
1/2-x,1/2+y,-z
loop_
_atom_site_type_symbol
_atom_site_label
_atom_site_fract_x
_atom_site_fract_y
_atom_site_fract_z
Si Si1 0.395775 0.807640 0.168510
Si Si2 0.891373 0.098394 0.832783
Si Si3 0.885240 0.468862 0.758173
Si Si4 0.500000 0.757156 0.000000
Si Si5 0.000000 0.634464 0.000000
Si Si6 0.824237 0.939416 0.450480
Si Si7 0.346107 0.306529 0.315879
Si Si8 0.646597 0.596092 0.331685
O O1 0.593312 0.717401 0.161969
O O2 0.475737 0.911840 0.193136
O O3 0.389972 0.823831 0.081804
O O4 0.107975 0.770889 0.237060
O O5 0.635901 0.067582 0.917723
O O6 0.857840 0.072606 0.753370
O O7 0.149559 0.035642 0.825530
O O8 0.798688 0.389511 0.710898
O O9 0.079281 0.538729 0.683056
O O10 0.243639 0.694827 0.005735
O O11 0.500000 0.932797 0.500000
O O12 0.923828 0.851000 0.384196
O O13 0.000000 0.924439 0.500000
O O14 0.892732 0.046949 0.406866
O O15 0.151989 0.211349 0.351755
#
# Coordination Sequence:
#
# PCOD8051325 Si02
#       8
#     4   4   4   2   2   4   4   4
#     4  11  23  43  78 106 153 202 255 307 380 432
#     4  11  23  43  78 106 153 202 255 307 380 432
#     4  12  23  44  75 113 144 196 257 310 360 456
#     4  10  24  44  73 109 158 204 256 319 370 435
#     4  10  24  44  73 109 158 204 256 319 370 435
#     4  12  29  52  78 112 156 193 247 320 384 459
#     4  12  25  47  77 109 148 199 248 306 379 456
#     4  12  25  47  77 109 148 199 248 306 379 456
#
# _framework density 22.891175
#
# number of rings (size 3 to 8) (size 9 to 14) (size 15 to 20)
#    0.000    0.571    5.714    1.714    4.000    0.571 
#    0.000    8.571    0.000    0.000    0.000    0.000 
#    0.000    0.000    0.000    0.000    0.000    0.000 
#
# Total GULP energy -173546.321812 kJ/mol
# GULP energy per Si atom -12396.165844 kJ/mol
# Density = 2.283907 g / cm^3
# Si number density = 22.891175 Si / 1000 Ang^3
#
#
#
# Elastic Constant Matrix: (Units=GPa)
#
#
# Indices 1 2 3 4 5 6 
#
# 1 111.0862 21.9205 46.2196 0.0000 1.4935 -0.0001
# 2 21.9205 103.2126 31.1881 0.0000 0.2655 0.0000
# 3 46.2196 31.1881 145.9997 0.0000 10.4933 0.0000
# 4 0.0000 0.0000 0.0000 15.3381 0.0000 -54.4525
# 5 1.4935 0.2655 10.4933 0.0000 43.7695 0.0000
# 6 -0.0001 0.0000 0.0000 -54.4525 0.0000 -118.0874
#
#
#
# Elastic Compliance Matrix: (Units=1/GPa)
#
#
# Indices 1 2 3 4 5 6 
#
# 1 0.010538 -0.001307 -0.003085 0.000000 0.000388 0.000000
# 2 -0.001307 0.010529 -0.001866 0.000000 0.000428 0.000000
# 3 -0.003085 -0.001866 0.008360 0.000000 -0.001888 0.000000
# 4 0.000000 0.000000 0.000000 0.024724 0.000000 -0.011401
# 5 0.000388 0.000428 -0.001888 0.000000 0.023284 0.000000
# 6 0.000000 0.000000 0.000000 -0.011401 0.000000 -0.003211
#
#
# Mechanical properties :
#
#
# Convention : Reuss Voigt Hill
#
# Bulk Modulus (GPa) = 59.13115 62.10611 60.61863
# Shear Modulus (GPa) = 54.12621 5.60207 29.86414
#
# Velocity S-wave (km/s) = 4.86789 1.56607 3.61586
# Velocity P-wave (km/s) = 7.58173 5.51906 6.63109
#
# Compressibility (1/GPa) = 0.01691156
#
# Stress axis : x y z
#
# Youngs Moduli (GPa) = 94.89288 94.97455 119.61403
#
# Poissons Ratio (x) = 0.12413 0.36899
# Poissons Ratio (y) = 0.12402 0.22323
# Poissons Ratio (z) = 0.29273 0.17724
#
# Static dielectric constant tensor:
#      x y z
#    x 4.870860 0.000000 -0.733880 
#    y 0.000000 3.995730 0.000000 
#    z -0.733880 0.000000 5.459030 
# 
# 
# High freq. dielectric constant tensor:
#      x y z
#    x 1.908340 0.000000 -0.000780 
#    y 0.000000 1.900480 0.000000 
#    z -0.000780 0.000000 1.912580 
# 
# From -- ./inp_files/58849.got.cif
#   From: 2010.03.12/outbox.cif.g09.slc.cpg/sg5_30_cif.got.tgz:58849.got - 2010.03.31 09:47:26.
