data_PCOD8051630
_publ_section_title
;
Structure prediction by ZEFSAII (Michael W. Deem and Ramdas Pophale) SiO2 
 PCOD8051630
Probable space group: C 2
;
_chemical_formula_sum "Si O2"
_cell_formula_units_Z 30
_cell_length_a 11.758952
_cell_length_b 15.144161
_cell_length_c 9.078518
_cell_angle_alpha 90.000000
_cell_angle_beta 65.689791
_cell_angle_gamma 90.000000
_cell_volume 1473.344927
_symmetry_space_group_name_H-M "C 2"
_symmetry_group_IT_number 5
_symmetry_cell_setting 'monoclinic'
loop_
_space_group_symop_operation_xyz
x,y,z
-x,y,-z
1/2+x,1/2+y,z
1/2-x,1/2+y,-z
loop_
_atom_site_type_symbol
_atom_site_label
_atom_site_fract_x
_atom_site_fract_y
_atom_site_fract_z
Si Si1 0.299798 0.516830 0.356551
Si Si2 0.586630 0.924419 0.640683
Si Si3 0.289143 0.632786 0.630959
Si Si4 0.000000 0.269238 0.500000
Si Si5 0.488590 0.389879 0.681544
Si Si6 0.479552 0.210816 0.178980
Si Si7 0.133365 0.547533 0.182631
Si Si8 0.763149 0.467491 0.164508
O O1 0.201045 0.447743 0.474281
O O2 0.309179 0.604734 0.450805
O O3 0.431027 0.465644 0.279870
O O4 0.256739 0.548613 0.218112
O O5 0.537646 0.828099 0.620761
O O6 0.633893 0.924100 0.783340
O O7 0.477849 0.996251 0.675342
O O8 0.384692 0.710426 0.618019
O O9 0.147505 0.657453 0.738161
O O10 0.313548 0.548470 0.721311
O O11 0.500000 0.398659 0.500000
O O12 0.533708 0.293981 0.707508
O O13 0.345228 0.397010 0.811717
O O14 0.592817 0.147562 0.169034
O O15 0.500000 0.241239 0.000000
O O16 0.163132 0.495147 0.018782
#
# Coordination Sequence:
#
# PCOD8051630 Si02
#       8
#     4   4   4   2   4   4   4   4
#     4  11  23  42  71  97 125 174 224 259 330 392
#     4  11  21  40  67  97 122 169 222 258 318 384
#     4  11  23  42  67  92 134 173 214 266 324 390
#     4  12  24  38  68 100 132 162 220 278 316 378
#     4  12  26  43  67 100 133 166 222 279 326 389
#     4  12  26  42  66  99 133 171 222 274 327 385
#     4  12  23  44  68  94 129 174 219 272 315 398
#     4  11  24  45  69  90 134 179 212 261 339 391
#
# _framework density 20.361830999999999
#
# number of rings (size 3 to 8) (size 9 to 14) (size 15 to 20)
#    0.000    0.533    8.000    2.000    3.733    0.000 
#    0.000    0.000    2.933    0.000    0.000    0.000 
#    0.000    0.000    0.000    0.000    0.000    0.000 
#
# Total GULP energy -186068.719690 kJ/mol
# GULP energy per Si atom -12404.581313 kJ/mol
# Density = 2.031549 g / cm^3
# Si number density = 20.361831 Si / 1000 Ang^3
#
#
#
# Elastic Constant Matrix: (Units=GPa)
#
#
# Indices 1 2 3 4 5 6 
#
# 1 96.2705 35.7062 28.5911 0.0000 14.4836 0.0000
# 2 35.7062 83.5200 24.5713 0.0000 6.8344 0.0000
# 3 28.5911 24.5713 66.1529 0.0000 11.7533 0.0000
# 4 0.0000 0.0000 0.0000 28.6558 0.0000 2.3502
# 5 14.4836 6.8344 11.7533 0.0000 29.0074 0.0000
# 6 0.0000 0.0000 0.0000 2.3502 0.0000 37.9702
#
#
#
# Elastic Compliance Matrix: (Units=1/GPa)
#
#
# Indices 1 2 3 4 5 6 
#
# 1 0.013752 -0.004492 -0.003495 0.000000 -0.004392 0.000000
# 2 -0.004492 0.014950 -0.003647 0.000000 0.000198 0.000000
# 3 -0.003495 -0.003647 0.018878 0.000000 -0.005045 0.000000
# 4 0.000000 0.000000 0.000000 0.035075 0.000000 -0.002171
# 5 -0.004392 0.000198 -0.005045 0.000000 0.038664 0.000000
# 6 0.000000 0.000000 0.000000 -0.002171 0.000000 0.026471
#
#
# Mechanical properties :
#
#
# Convention : Reuss Voigt Hill
#
# Bulk Modulus (GPa) = 41.12990 47.07560 44.10275
# Shear Modulus (GPa) = 27.90780 29.59834 28.75307
#
# Velocity S-wave (km/s) = 3.70617 3.81677 3.76188
# Velocity P-wave (km/s) = 6.20948 6.52636 6.36989
#
# Compressibility (1/GPa) = 0.02431321
#
# Stress axis : x y z
#
# Youngs Moduli (GPa) = 72.71648 66.88906 52.97221
#
# Poissons Ratio (x) = 0.30044 0.18513
# Poissons Ratio (y) = 0.32662 0.19318
# Poissons Ratio (z) = 0.25414 0.24393
#
# Static dielectric constant tensor:
#      x y z
#    x 4.017790 0.000000 0.140770 
#    y 0.000000 3.571630 0.000000 
#    z 0.140770 0.000000 3.534890 
# 
# 
# High freq. dielectric constant tensor:
#      x y z
#    x 1.810680 0.000000 0.002860 
#    y 0.000000 1.789170 0.000000 
#    z 0.002860 0.000000 1.785290 
# 
# From -- ./inp_files/20603.got.cif
#   From: 2010.03.12/outbox.cif.g09.slc.cpg/sg5_11_cif.got.tgz:20603.got - 2010.03.31 09:47:26.
