data_PCOD8051917
_publ_section_title
;
Structure prediction by ZEFSAII (Michael W. Deem and Ramdas Pophale) SiO2 
 PCOD8051917
Probable space group: C 2
;
_chemical_formula_sum "Si O2"
_cell_formula_units_Z 20
_cell_length_a 12.725494
_cell_length_b 12.583989
_cell_length_c 5.552804
_cell_angle_alpha 90.000000
_cell_angle_beta 108.179512
_cell_angle_gamma 90.000000
_cell_volume 844.825825
_symmetry_space_group_name_H-M "C 2"
_symmetry_group_IT_number 5
_symmetry_cell_setting 'monoclinic'
loop_
_space_group_symop_operation_xyz
x,y,z
-x,y,-z
1/2+x,1/2+y,z
1/2-x,1/2+y,-z
loop_
_atom_site_type_symbol
_atom_site_label
_atom_site_fract_x
_atom_site_fract_y
_atom_site_fract_z
Si Si1 0.770975 0.479430 0.934335
Si Si2 0.614452 0.354709 0.490265
Si Si3 0.890455 0.064568 0.792611
Si Si4 0.764148 0.188662 0.334677
Si Si5 0.063755 0.316451 0.801463
O O1 0.700335 0.384445 0.762363
O O2 0.795315 0.576676 0.768567
O O3 0.708782 0.529045 0.112885
O O4 0.886039 0.433144 0.111651
O O5 0.500000 0.300367 0.500000
O O6 0.574090 0.463309 0.338994
O O7 0.672853 0.274464 0.346595
O O8 0.852621 0.165679 0.608817
O O9 0.000000 0.106049 0.000000
O O10 0.835199 0.232509 0.159229
O O11 0.000000 0.324067 0.500000
O O12 0.000000 0.283379 0.000000
#
# Coordination Sequence:
#
# PCOD8051917 Si02
#       5
#     4   4   4   4   4
#     4  11  26  48  72 107 154 195 254 319 373 456
#     4  11  23  48  75 109 152 199 250 318 383 448
#     4  11  24  45  77 108 147 200 258 314 376 448
#     4  11  28  45  76 112 149 197 260 314 374 459
#     4  12  29  52  79 110 157 204 251 317 387 446
#
# _framework density 23.673515999999999
#
# number of rings (size 3 to 8) (size 9 to 14) (size 15 to 20)
#    0.000    0.800    4.000    1.200   11.200    0.000 
#    3.600    0.000    0.000    0.000    0.000    0.000 
#    0.000    0.000    0.000    0.000    0.000    0.000 
#
# Total GULP energy -123995.291056 kJ/mol
# GULP energy per Si atom -12399.529106 kJ/mol
# Density = 2.361963 g / cm^3
# Si number density = 23.673516 Si / 1000 Ang^3
#
#
#
# Elastic Constant Matrix: (Units=GPa)
#
#
# Indices 1 2 3 4 5 6 
#
# 1 136.2098 60.2120 42.8651 0.0000 -28.1855 0.0000
# 2 60.2120 111.8747 41.8063 0.0000 2.6755 0.0000
# 3 42.8651 41.8063 124.0188 0.0000 -6.4295 0.0000
# 4 0.0000 0.0000 0.0000 41.9350 0.0000 -0.8091
# 5 -28.1855 2.6755 -6.4295 0.0000 45.2492 0.0000
# 6 0.0000 0.0000 0.0000 -0.8091 0.0000 25.8510
#
#
#
# Elastic Compliance Matrix: (Units=1/GPa)
#
#
# Indices 1 2 3 4 5 6 
#
# 1 0.012174 -0.006079 -0.001760 0.000000 0.007693 0.000000
# 2 -0.006079 0.013317 -0.002645 0.000000 -0.004950 0.000000
# 3 -0.001760 -0.002645 0.009585 0.000000 0.000422 0.000000
# 4 0.000000 0.000000 0.000000 0.023861 0.000000 0.000747
# 5 0.007693 -0.004950 0.000422 0.000000 0.027244 0.000000
# 6 0.000000 0.000000 0.000000 0.000747 0.000000 0.038707
#
#
# Mechanical properties :
#
#
# Convention : Reuss Voigt Hill
#
# Bulk Modulus (GPa) = 70.87372 73.54114 72.20743
# Shear Modulus (GPa) = 33.20984 37.75501 35.48243
#
# Velocity S-wave (km/s) = 3.74950 3.99785 3.87566
# Velocity P-wave (km/s) = 6.98197 7.24173 7.11304
#
# Compressibility (1/GPa) = 0.01410960
#
# Stress axis : x y z
#
# Youngs Moduli (GPa) = 82.13953 75.09304 104.32985
#
# Poissons Ratio (x) = 0.45647 0.18362
# Poissons Ratio (y) = 0.49930 0.27592
# Poissons Ratio (z) = 0.14456 0.19860
#
# Static dielectric constant tensor:
#      x y z
#    x 4.110970 0.000000 -0.035390 
#    y 0.000000 4.517190 0.000000 
#    z -0.035390 0.000000 4.476760 
# 
# 
# High freq. dielectric constant tensor:
#      x y z
#    x 1.928040 0.000000 -0.009960 
#    y 0.000000 1.948400 0.000000 
#    z -0.009960 0.000000 1.948590 
# 
# From -- ./inp_files/4701.got.cif
#   From: 2010.03.12/outbox.cif.g09.slc.cpg/sg5_3_cif.got.tgz:4701.got - 2010.03.31 09:47:26.
