data_PCOD8051633
_publ_section_title
;
Structure prediction by ZEFSAII (Michael W. Deem and Ramdas Pophale) SiO2 
 PCOD8051633
Probable space group: C 2
;
_chemical_formula_sum "Si O2"
_cell_formula_units_Z 32
_cell_length_a 14.393860
_cell_length_b 16.178031
_cell_length_c 12.741705
_cell_angle_alpha 90.000000
_cell_angle_beta 31.088690
_cell_angle_gamma 90.000000
_cell_volume 1532.098501
_symmetry_space_group_name_H-M "C 2"
_symmetry_group_IT_number 5
_symmetry_cell_setting 'monoclinic'
loop_
_space_group_symop_operation_xyz
x,y,z
-x,y,-z
1/2+x,1/2+y,z
1/2-x,1/2+y,-z
loop_
_atom_site_type_symbol
_atom_site_label
_atom_site_fract_x
_atom_site_fract_y
_atom_site_fract_z
Si Si1 0.045336 0.840710 0.834322
Si Si2 0.193315 0.576659 0.347772
Si Si3 0.257294 0.962552 0.896000
Si Si4 0.620195 0.609176 0.147405
Si Si5 0.954839 0.663273 0.923535
Si Si6 0.229412 0.543127 0.547572
Si Si7 0.947353 0.227008 0.160285
Si Si8 0.618661 0.875650 0.617110
O O1 0.253781 0.856356 0.605849
O O2 0.922159 0.911430 0.903939
O O3 0.995774 0.752100 0.833412
O O4 0.000000 0.837680 0.000000
O O5 0.186975 0.531470 0.465314
O O6 0.304872 0.660013 0.255694
O O7 0.000000 0.608423 0.500000
O O8 0.260780 0.505393 0.201668
O O9 0.250685 0.035113 0.986688
O O10 0.427391 0.902775 0.751914
O O11 0.426799 0.580530 0.379304
O O12 0.601364 0.672421 0.067930
O O13 0.739080 0.650151 0.123587
O O14 0.078021 0.598995 0.743805
O O15 0.000000 0.656953 0.000000
O O16 0.204158 0.447933 0.608960
O O17 0.885707 0.294864 0.304264
O O18 0.000000 0.272569 0.000000
#
# Coordination Sequence:
#
# PCOD8051633 Si02
#       8
#     4   4   4   4   4   4   4   4
#     4  11  25  40  66 103 136 172 227 290 356 408
#     4  11  21  40  70 105 135 182 232 292 354 419
#     4  12  23  39  71 101 140 177 226 288 353 412
#     4  11  22  44  70  99 134 181 237 289 346 424
#     4  11  25  47  69  93 137 192 234 287 349 427
#     4  11  23  40  70 100 134 184 238 290 351 426
#     4  11  25  42  69 103 147 184 231 297 361 423
#     4  12  24  44  63 101 146 181 229 292 350 422
#
# _framework density 20.886385000000001
#
# number of rings (size 3 to 8) (size 9 to 14) (size 15 to 20)
#    0.000    0.750    5.000    3.000    1.750    1.000 
#    2.250    2.500    0.000    0.000    0.000    0.000 
#    0.000    0.000    0.000    0.000    0.000    0.000 
#
# Total GULP energy -198248.898072 kJ/mol
# GULP energy per Si atom -12390.556129 kJ/mol
# Density = 2.083885 g / cm^3
# Si number density = 20.886385 Si / 1000 Ang^3
#
#
#
# Elastic Constant Matrix: (Units=GPa)
#
#
# Indices 1 2 3 4 5 6 
#
# 1 112.4957 44.5216 46.2397 -0.0177 -29.7651 0.0103
# 2 44.5216 135.6945 50.3879 -0.0102 -1.9311 -0.0001
# 3 46.2397 50.3879 109.9100 -0.0291 -13.5400 0.0133
# 4 -0.0177 -0.0102 -0.0291 16.8290 -0.0109 6.6148
# 5 -29.7651 -1.9311 -13.5400 -0.0109 32.0206 0.0077
# 6 0.0103 -0.0001 0.0133 6.6148 0.0077 32.7780
#
#
#
# Elastic Compliance Matrix: (Units=1/GPa)
#
#
# Indices 1 2 3 4 5 6 
#
# 1 0.014796 -0.003529 -0.003100 0.000020 0.012230 -0.000010
# 2 -0.003529 0.009771 -0.003509 -0.000009 -0.004175 0.000005
# 3 -0.003100 -0.003509 0.012269 0.000021 0.002095 -0.000009
# 4 0.000020 -0.000009 0.000021 0.064541 0.000052 -0.013025
# 5 0.012230 -0.004175 0.002095 0.000052 0.043233 -0.000025
# 6 -0.000010 0.000005 -0.000009 -0.013025 -0.000025 0.033137
#
#
# Mechanical properties :
#
#
# Convention : Reuss Voigt Hill
#
# Bulk Modulus (GPa) = 60.38820 71.15541 65.77181
# Shear Modulus (GPa) = 24.56467 30.78892 27.67680
#
# Velocity S-wave (km/s) = 3.43317 3.84358 3.64416
# Velocity P-wave (km/s) = 6.68513 7.33753 7.01891
#
# Compressibility (1/GPa) = 0.01655953
#
# Stress axis : x y z
#
# Youngs Moduli (GPa) = 67.58415 102.34230 81.50368
#
# Poissons Ratio (x) = 0.36121 0.25267
# Poissons Ratio (y) = 0.23854 0.28600
# Poissons Ratio (z) = 0.20952 0.35912
#
# Static dielectric constant tensor:
#      x y z
#    x 3.724230 0.000000 -0.157210 
#    y 0.000000 4.211820 0.000100 
#    z -0.157210 0.000100 3.411590 
# 
# 
# High freq. dielectric constant tensor:
#      x y z
#    x 1.803380 0.000000 -0.015400 
#    y 0.000000 1.837080 0.000000 
#    z -0.015400 0.000000 1.820280 
# 
# From -- ./inp_files/43368.got.cif
#   From: 2010.03.12/outbox.cif.g09.slc.cpg/sg5_22_cif.got.tgz:43368.got - 2010.03.31 09:47:26.
