data_PCOD8051431
_publ_section_title
;
Structure prediction by ZEFSAII (Michael W. Deem and Ramdas Pophale) SiO2 
 PCOD8051431
Probable space group: C 2
;
_chemical_formula_sum "Si O2"
_cell_formula_units_Z 22
_cell_length_a 21.258987
_cell_length_b 8.416541
_cell_length_c 9.991730
_cell_angle_alpha 90.000000
_cell_angle_beta 144.496396
_cell_angle_gamma 90.000000
_cell_volume 1038.267433
_symmetry_space_group_name_H-M "C 2"
_symmetry_group_IT_number 5
_symmetry_cell_setting 'monoclinic'
loop_
_space_group_symop_operation_xyz
x,y,z
-x,y,-z
1/2+x,1/2+y,z
1/2-x,1/2+y,-z
loop_
_atom_site_type_symbol
_atom_site_label
_atom_site_fract_x
_atom_site_fract_y
_atom_site_fract_z
Si Si1 0.579391 0.671710 0.332072
Si Si2 0.813199 0.460632 0.338910
Si Si3 0.221897 0.957571 0.757808
Si Si4 0.174860 0.754421 0.926872
Si Si5 0.153169 0.206851 0.159614
Si Si6 0.500000 0.106373 0.500000
O O1 0.625889 0.839878 0.459737
O O2 0.622713 0.524887 0.496487
O O3 0.618141 0.664525 0.247518
O O4 0.448557 0.666619 0.113833
O O5 0.764726 0.609420 0.333066
O O6 0.899016 0.501220 0.371994
O O7 0.704782 0.386953 0.085221
O O8 0.194476 0.807549 0.806084
O O9 0.314161 0.891380 0.814764
O O10 0.258433 0.096754 0.920500
O O11 0.046143 0.712563 0.704140
#
# Coordination Sequence:
#
# PCOD8051431 Si02
#       6
#     4   4   4   4   4   2
#     4  10  25  40  67  91 125 170 209 259 315 363
#     4  11  24  41  62  94 127 161 210 256 311 380
#     4  11  21  43  62  91 129 161 207 262 307 377
#     4  11  23  39  60  94 123 164 202 253 318 369
#     4  11  22  44  64  93 124 167 216 257 306 378
#     4  12  22  38  62  88 128 162 194 256 316 366
#
# _framework density 21.189146999999998
#
# number of rings (size 3 to 8) (size 9 to 14) (size 15 to 20)
#    0.000    1.091    3.636    2.182    2.545    0.000 
#    0.000    0.000    0.000    8.727    0.000    0.000 
#    0.000    0.000    0.000    0.000    0.000    0.000 
#
# Total GULP energy -136278.909909 kJ/mol
# GULP energy per Si atom -12388.991810 kJ/mol
# Density = 2.114092 g / cm^3
# Si number density = 21.189147 Si / 1000 Ang^3
#
#
#
# Elastic Constant Matrix: (Units=GPa)
#
#
# Indices 1 2 3 4 5 6 
#
# 1 60.2419 41.0926 29.8097 0.0000 5.8781 0.0000
# 2 41.0926 96.6332 51.7014 0.0000 3.9811 0.0000
# 3 29.8097 51.7014 153.2966 0.0000 7.5187 0.0000
# 4 0.0000 0.0000 0.0000 29.2744 0.0000 -3.5689
# 5 5.8781 3.9811 7.5187 0.0000 30.8583 0.0000
# 6 0.0000 0.0000 0.0000 -3.5689 0.0000 25.6375
#
#
#
# Elastic Compliance Matrix: (Units=1/GPa)
#
#
# Indices 1 2 3 4 5 6 
#
# 1 0.023927 -0.009322 -0.001360 0.000000 -0.003024 0.000000
# 2 -0.009322 0.016270 -0.003703 0.000000 0.000579 0.000000
# 3 -0.001360 -0.003703 0.008097 0.000000 -0.001236 0.000000
# 4 0.000000 0.000000 0.000000 0.034749 0.000000 0.004837
# 5 -0.003024 0.000579 -0.001236 0.000000 0.033209 0.000000
# 6 0.000000 0.000000 0.000000 0.004837 0.000000 0.039679
#
#
# Mechanical properties :
#
#
# Convention : Reuss Voigt Hill
#
# Bulk Modulus (GPa) = 51.22158 61.70879 56.46519
# Shear Modulus (GPa) = 26.14928 29.65857 27.90393
#
# Velocity S-wave (km/s) = 3.51677 3.74532 3.63284
# Velocity P-wave (km/s) = 6.38093 6.92021 6.65603
#
# Compressibility (1/GPa) = 0.01952302
#
# Stress axis : x y z
#
# Youngs Moduli (GPa) = 41.79380 61.46295 123.49786
#
# Poissons Ratio (x) = 0.57298 0.16801
# Poissons Ratio (y) = 0.38962 0.45730
# Poissons Ratio (z) = 0.05686 0.22759
#
# Static dielectric constant tensor:
#      x y z
#    x 3.614400 0.000000 0.078920 
#    y 0.000000 3.968220 0.000000 
#    z 0.078920 0.000000 4.315230 
# 
# 
# High freq. dielectric constant tensor:
#      x y z
#    x 1.806300 0.000000 0.001780 
#    y 0.000000 1.839010 0.000000 
#    z 0.001780 0.000000 1.853300 
# 
# From -- ./inp_files/22893.got.cif
#   From: 2010.03.12/outbox.cif.g09.slc.cpg/sg5_12_cif.got.tgz:22893.got - 2010.03.31 09:47:26.
