data_PCOD8051534
_publ_section_title
;
Structure prediction by ZEFSAII (Michael W. Deem and Ramdas Pophale) SiO2 
 PCOD8051534
Probable space group: C 2
;
_chemical_formula_sum "Si O2"
_cell_formula_units_Z 20
_cell_length_a 22.599575
_cell_length_b 7.047356
_cell_length_c 7.391446
_cell_angle_alpha 90.000000
_cell_angle_beta 43.951237
_cell_angle_gamma 90.000000
_cell_volume 817.041448
_symmetry_space_group_name_H-M "C 2"
_symmetry_group_IT_number 5
_symmetry_cell_setting 'monoclinic'
loop_
_space_group_symop_operation_xyz
x,y,z
-x,y,-z
1/2+x,1/2+y,z
1/2-x,1/2+y,-z
loop_
_atom_site_type_symbol
_atom_site_label
_atom_site_fract_x
_atom_site_fract_y
_atom_site_fract_z
Si Si1 0.065364 0.402200 0.053956
Si Si2 0.500000 0.256174 0.000000
Si Si3 0.633390 0.574442 0.700225
Si Si4 0.333686 0.466774 0.969703
Si Si5 0.716461 0.061072 0.913133
Si Si6 0.000000 0.172669 0.500000
O O1 0.993489 0.301742 0.334636
O O2 0.036762 0.616879 0.073370
O O3 0.081508 0.275006 0.836682
O O4 0.153980 0.396565 0.975799
O O5 0.573976 0.397998 0.766951
O O6 0.706208 0.598524 0.393723
O O7 0.674732 0.535111 0.805479
O O8 0.248729 0.517738 0.043974
O O9 0.416786 0.543548 0.686029
O O10 0.343816 0.242270 0.944917
#
# Coordination Sequence:
#
# PCOD8051534 Si02
#       6
#     4   2   4   4   4   2
#     4  11  26  49  73 114 144 202 246 305 375 441
#     4  12  26  48  78 110 148 196 250 294 390 430
#     4  11  26  50  74 113 148 190 253 315 353 457
#     4  11  25  48  74 112 147 201 242 310 371 440
#     4  12  26  48  76 106 153 194 251 305 376 432
#     4  10  26  48  72 108 156 182 260 302 360 452
#
# _framework density 24.478560999999999
#
# number of rings (size 3 to 8) (size 9 to 14) (size 15 to 20)
#    0.000    0.800    2.000    4.200    8.400    2.400 
#    7.200    0.000    0.000    0.000    0.000    0.000 
#    0.000    0.000    0.000    0.000    0.000    0.000 
#
# Total GULP energy -123992.921394 kJ/mol
# GULP energy per Si atom -12399.292139 kJ/mol
# Density = 2.442285 g / cm^3
# Si number density = 24.478561 Si / 1000 Ang^3
#
#
#
# Elastic Constant Matrix: (Units=GPa)
#
#
# Indices 1 2 3 4 5 6 
#
# 1 128.2386 22.5713 24.5222 0.0000 -5.9113 0.0000
# 2 22.5713 143.5522 37.8331 0.0000 -14.0265 0.0000
# 3 24.5222 37.8331 101.9355 0.0000 0.3759 0.0000
# 4 0.0000 0.0000 0.0000 31.8113 0.0000 -8.0686
# 5 -5.9113 -14.0265 0.3759 0.0000 27.6036 0.0000
# 6 0.0000 0.0000 0.0000 -8.0686 0.0000 46.0603
#
#
#
# Elastic Compliance Matrix: (Units=1/GPa)
#
#
# Indices 1 2 3 4 5 6 
#
# 1 0.008323 -0.000707 -0.001745 0.000000 0.001447 0.000000
# 2 -0.000707 0.008241 -0.002903 0.000000 0.004075 0.000000
# 3 -0.001745 -0.002903 0.011315 0.000000 -0.002003 0.000000
# 4 0.000000 0.000000 0.000000 0.032897 0.000000 0.005763
# 5 0.001447 0.004075 -0.002003 0.000000 0.038635 0.000000
# 6 0.000000 0.000000 0.000000 0.005763 0.000000 0.022720
#
#
# Mechanical properties :
#
#
# Convention : Reuss Voigt Hill
#
# Bulk Modulus (GPa) = 58.25149 60.39772 59.32460
# Shear Modulus (GPa) = 36.08425 40.34836 38.21630
#
# Velocity S-wave (km/s) = 3.84359 4.06435 3.95551
# Velocity P-wave (km/s) = 6.59895 6.83758 6.71933
#
# Compressibility (1/GPa) = 0.01716694
#
# Stress axis : x y z
#
# Youngs Moduli (GPa) = 120.15129 121.34847 88.37925
#
# Poissons Ratio (x) = 0.08584 0.15422
# Poissons Ratio (y) = 0.08499 0.25660
# Poissons Ratio (z) = 0.20966 0.35232
#
# Static dielectric constant tensor:
#      x y z
#    x 4.706040 0.000000 -0.045430 
#    y 0.000000 4.722120 0.000000 
#    z -0.045430 0.000000 4.058010 
# 
# 
# High freq. dielectric constant tensor:
#      x y z
#    x 1.995590 0.000000 -0.004530 
#    y 0.000000 1.993860 0.000000 
#    z -0.004530 0.000000 1.950510 
# 
# From -- ./inp_files/30409.got.cif
#   From: 2010.03.12/outbox.cif.g09.slc.cpg/sg5_16_cif.got.tgz:30409.got - 2010.03.31 09:47:26.
