data_PCOD8051019
_publ_section_title
;
Structure prediction by ZEFSAII (Michael W. Deem and Ramdas Pophale) SiO2 
 PCOD8051019
Probable space group: C 2
;
_chemical_formula_sum "Si O2"
_cell_formula_units_Z 18
_cell_length_a 8.854273
_cell_length_b 21.062842
_cell_length_c 5.140238
_cell_angle_alpha 90.000000
_cell_angle_beta 62.499996
_cell_angle_gamma 90.000000
_cell_volume 850.319256
_symmetry_space_group_name_H-M "C 2"
_symmetry_group_IT_number 5
_symmetry_cell_setting 'monoclinic'
loop_
_space_group_symop_operation_xyz
x,y,z
-x,y,-z
1/2+x,1/2+y,z
1/2-x,1/2+y,-z
loop_
_atom_site_type_symbol
_atom_site_label
_atom_site_fract_x
_atom_site_fract_y
_atom_site_fract_z
Si Si1 0.093302 0.902200 0.171209
Si Si2 0.196564 0.616555 0.324711
Si Si3 0.600940 0.820017 0.173730
Si Si4 0.307662 0.198435 0.170455
Si Si5 0.500000 0.524554 0.000000
O O1 0.000000 0.876713 0.500000
O O2 0.285270 0.877936 0.021523
O O3 0.000000 0.869541 0.000000
O O4 0.081033 0.979065 0.159979
O O5 0.229643 0.670082 0.515246
O O6 0.000000 0.590532 0.500000
O O7 0.229067 0.644756 0.014021
O O8 0.341850 0.563380 0.247824
O O9 0.500000 0.848818 0.500000
O O10 0.692833 0.758983 0.217294
O O11 0.500000 0.797015 0.000000
O O12 0.500000 0.222315 0.000000
#
# Coordination Sequence:
#
# PCOD8051019 Si02
#       5
#     4   4   4   4   2
#     4  10  24  45  65  95 130 189 222 271 341 394
#     4  10  23  41  66 102 134 172 227 276 338 405
#     4  12  25  41  67 104 135 175 229 286 337 408
#     4  10  23  42  65  96 136 176 212 280 344 402
#     4  10  26  42  74  94 138 186 224 278 332 414
#
# _framework density 21.168517999999999
#
# number of rings (size 3 to 8) (size 9 to 14) (size 15 to 20)
#    0.667    0.889    0.000    3.333    7.778    3.556 
#    0.000    0.000    0.000    0.000    0.000    0.000 
#    0.000    0.000    0.000    0.000    0.000    0.000 
#
# Total GULP energy -111560.167752 kJ/mol
# GULP energy per Si atom -12395.574195 kJ/mol
# Density = 2.112034 g / cm^3
# Si number density = 21.168518 Si / 1000 Ang^3
#
#
#
# Elastic Constant Matrix: (Units=GPa)
#
#
# Indices 1 2 3 4 5 6 
#
# 1 119.3001 63.0137 59.0654 0.0000 -4.1449 0.0000
# 2 63.0137 87.4904 35.2686 0.0000 -25.2751 0.0000
# 3 59.0654 35.2686 151.3325 0.0000 -5.5541 0.0000
# 4 0.0000 0.0000 0.0000 44.6844 0.0000 5.6466
# 5 -4.1449 -25.2751 -5.5541 0.0000 45.6508 0.0000
# 6 0.0000 0.0000 0.0000 5.6466 0.0000 5.3579
#
#
#
# Elastic Compliance Matrix: (Units=1/GPa)
#
#
# Indices 1 2 3 4 5 6 
#
# 1 0.016319 -0.011808 -0.003820 0.000000 -0.005521 0.000000
# 2 -0.011808 0.023556 -0.000444 0.000000 0.011916 0.000000
# 3 -0.003820 -0.000444 0.008217 0.000000 0.000407 0.000000
# 4 0.000000 0.000000 0.000000 0.025817 0.000000 -0.027208
# 5 -0.005521 0.011916 0.000407 0.000000 0.028051 0.000000
# 6 0.000000 0.000000 0.000000 -0.027208 0.000000 0.215313
#
#
# Mechanical properties :
#
#
# Convention : Reuss Voigt Hill
#
# Bulk Modulus (GPa) = 62.70379 74.75761 68.73070
# Shear Modulus (GPa) = 14.09511 32.52366 23.30938
#
# Velocity S-wave (km/s) = 2.58321 3.92397 3.32193
# Velocity P-wave (km/s) = 6.21151 7.47811 6.87405
#
# Compressibility (1/GPa) = 0.01594800
#
# Stress axis : x y z
#
# Youngs Moduli (GPa) = 61.27894 42.45222 121.69594
#
# Poissons Ratio (x) = 0.50130 0.46486
# Poissons Ratio (y) = 0.72361 0.05398
# Poissons Ratio (z) = 0.23408 0.01883
#
# Static dielectric constant tensor:
#      x y z
#    x 3.988080 0.000000 -0.066640 
#    y 0.000000 3.454170 0.000000 
#    z -0.066640 0.000000 3.786780 
# 
# 
# High freq. dielectric constant tensor:
#      x y z
#    x 1.837640 0.000000 0.002420 
#    y 0.000000 1.811510 0.000000 
#    z 0.002420 0.000000 1.844830 
# 
# From -- ./inp_files/2311.got.cif
#   From: 2010.03.12/outbox.cif.g09.slc.cpg/sg5_2_cif.got.tgz:2311.got - 2010.03.31 09:47:26.
