data_PCOD8051682
_publ_section_title
;
Structure prediction by ZEFSAII (Michael W. Deem and Ramdas Pophale) SiO2 
 PCOD8051682
Probable space group: C 2
;
_chemical_formula_sum "Si O2"
_cell_formula_units_Z 32
_cell_length_a 15.094155
_cell_length_b 8.625881
_cell_length_c 26.275901
_cell_angle_alpha 90.000000
_cell_angle_beta 153.979412
_cell_angle_gamma 90.000000
_cell_volume 1500.830543
_symmetry_space_group_name_H-M "C 2"
_symmetry_group_IT_number 5
_symmetry_cell_setting 'monoclinic'
loop_
_space_group_symop_operation_xyz
x,y,z
-x,y,-z
1/2+x,1/2+y,z
1/2-x,1/2+y,-z
loop_
_atom_site_type_symbol
_atom_site_label
_atom_site_fract_x
_atom_site_fract_y
_atom_site_fract_z
Si Si1 0.320008 0.858790 0.869576
Si Si2 0.064643 0.996506 0.278571
Si Si3 0.357825 0.859922 0.506828
Si Si4 0.321895 0.997774 0.763940
Si Si5 0.435341 0.859950 0.721421
Si Si6 0.857782 0.996551 0.506810
Si Si7 0.820004 0.997658 0.869574
Si Si8 0.821926 0.858673 0.763952
O O1 0.266456 0.678225 0.845261
O O2 0.123062 0.956726 0.782229
O O3 0.387877 0.903419 0.847847
O O4 0.500000 0.904488 0.000000
O O5 0.270149 0.938541 0.410992
O O6 0.037360 0.913098 0.210035
O O7 0.076743 0.178228 0.276166
O O8 0.315570 0.678239 0.482108
O O9 0.592930 0.898513 0.631092
O O10 0.250098 0.928250 0.500057
O O11 0.355618 0.178223 0.791908
O O12 0.092874 0.957932 0.631091
O O13 0.462591 0.943353 0.789941
O O14 0.229838 0.917928 0.589004
O O15 0.623051 0.899736 0.782227
O O16 0.887868 0.953026 0.847842
O O17 0.000000 0.951962 0.000000
#
# Coordination Sequence:
#
# PCOD8051682 Si02
#       8
#     4   4   4   4   4   4   4   4
#     4  11  25  45  68  93 124 165 214 268 320 374
#     4  12  25  41  65  96 130 171 211 258 316 377
#     4  11  22  38  64  96 131 168 209 258 315 377
#     4  11  24  42  66  96 129 168 211 260 316 377
#     4  12  25  41  65  96 130 171 211 258 316 377
#     4  11  22  38  64  96 131 168 209 258 315 377
#     4  11  25  45  68  93 124 165 214 268 320 374
#     4  11  24  42  66  96 129 168 211 260 316 377
#
# _framework density 21.321528000000001
#
# number of rings (size 3 to 8) (size 9 to 14) (size 15 to 20)
#    0.000    0.750    2.500    5.250    0.000    9.000 
#    0.000    0.000    0.000    0.000    0.000    0.000 
#    0.000    0.000    0.000    0.000    0.000    0.000 
#
# Total GULP energy -198545.807127 kJ/mol
# GULP energy per Si atom -12409.112945 kJ/mol
# Density = 2.127300 g / cm^3
# Si number density = 21.321528 Si / 1000 Ang^3
#
#
#
# Elastic Constant Matrix: (Units=GPa)
#
#
# Indices 1 2 3 4 5 6 
#
# 1 95.3646 9.8535 16.5637 -0.0011 -33.7551 -0.0004
# 2 9.8535 88.2720 41.0938 -0.0028 -5.2274 -0.0008
# 3 16.5637 41.0938 96.6130 -0.0017 -28.8581 -0.0010
# 4 -0.0011 -0.0028 -0.0017 27.0093 -0.0002 -8.5860
# 5 -33.7551 -5.2274 -28.8581 -0.0002 32.5264 -0.0001
# 6 -0.0004 -0.0008 -0.0010 -8.5860 -0.0001 39.0610
#
#
#
# Elastic Compliance Matrix: (Units=1/GPa)
#
#
# Indices 1 2 3 4 5 6 
#
# 1 0.017872 -0.002939 0.004878 0.000001 0.022402 0.000001
# 2 -0.002939 0.015036 -0.008273 0.000001 -0.007974 0.000000
# 3 0.004878 -0.008273 0.019250 0.000001 0.020811 0.000001
# 4 0.000001 0.000001 0.000001 0.039806 0.000002 0.008750
# 5 0.022402 -0.007974 0.020811 0.000002 0.071175 0.000001
# 6 0.000001 0.000000 0.000001 0.008750 0.000001 0.027524
#
#
# Mechanical properties :
#
#
# Convention : Reuss Voigt Hill
#
# Bulk Modulus (GPa) = 25.32420 46.14129 35.73274
# Shear Modulus (GPa) = 23.09519 33.90191 28.49855
#
# Velocity S-wave (km/s) = 3.29475 3.99185 3.65993
# Velocity P-wave (km/s) = 5.13585 6.55241 5.88689
#
# Compressibility (1/GPa) = 0.03948792
#
# Stress axis : x y z
#
# Youngs Moduli (GPa) = 55.95323 66.50670 51.94922
#
# Poissons Ratio (x) = 0.19547 -0.25339
# Poissons Ratio (y) = 0.16445 0.42980
# Poissons Ratio (z) = -0.27292 0.55024
#
# Static dielectric constant tensor:
#      x y z
#    x 3.958980 0.000000 -0.079500 
#    y 0.000000 3.855650 0.000000 
#    z -0.079500 0.000000 3.923190 
# 
# 
# High freq. dielectric constant tensor:
#      x y z
#    x 1.848640 0.000000 -0.013830 
#    y 0.000000 1.847260 0.000000 
#    z -0.013830 0.000000 1.832930 
# 
# From -- ./inp_files/68750.got.cif
#   From: 2010.03.12/outbox.cif.g09.slc.cpg/sg5_35_cif.got.tgz:68750.got - 2010.03.31 09:47:26.
