data_PCOD8051799
_publ_section_title
;
Structure prediction by ZEFSAII (Michael W. Deem and Ramdas Pophale) SiO2 
 PCOD8051799
Probable space group: C 2
;
_chemical_formula_sum "Si O2"
_cell_formula_units_Z 30
_cell_length_a 5.169755
_cell_length_b 23.699356
_cell_length_c 12.320533
_cell_angle_alpha 90.000000
_cell_angle_beta 96.520133
_cell_angle_gamma 90.000000
_cell_volume 1499.746543
_symmetry_space_group_name_H-M "C 2"
_symmetry_group_IT_number 5
_symmetry_cell_setting 'monoclinic'
loop_
_space_group_symop_operation_xyz
x,y,z
-x,y,-z
1/2+x,1/2+y,z
1/2-x,1/2+y,-z
loop_
_atom_site_type_symbol
_atom_site_label
_atom_site_fract_x
_atom_site_fract_y
_atom_site_fract_z
Si Si1 0.519878 0.606080 0.266769
Si Si2 0.727226 0.310543 0.924746
Si Si3 0.500000 0.106206 0.000000
Si Si4 0.386203 0.517108 0.108382
Si Si5 0.162866 0.191201 0.112168
Si Si6 0.561935 0.940921 0.630387
Si Si7 0.522277 0.068424 0.374372
Si Si8 0.623086 0.409792 0.755877
O O1 0.583794 0.551708 0.193439
O O2 0.478082 0.664148 0.196831
O O3 0.795830 0.613191 0.338335
O O4 0.291825 0.593897 0.341990
O O5 0.730985 0.252988 0.851642
O O6 0.627927 0.356759 0.835139
O O7 0.500000 0.302654 0.000000
O O8 0.000000 0.325813 0.000000
O O9 0.673385 0.065556 0.081052
O O10 0.371380 0.144241 0.086955
O O11 0.288636 0.462163 0.164807
O O12 0.500000 0.496502 0.000000
O O13 0.000000 0.206612 0.000000
O O14 0.500000 0.934932 0.500000
O O15 0.347344 0.901560 0.677549
O O16 0.847987 0.919367 0.680962
O O17 0.520137 0.004813 0.671275
O O18 0.500000 0.062370 0.500000
#
# Coordination Sequence:
#
# PCOD8051799 Si02
#       8
#     4   4   2   4   4   4   4   4
#     4  12  21  38  61  91 123 167 209 255 316 376
#     4  11  25  44  64  91 132 178 219 261 311 382
#     4  12  20  36  56  84 136 164 210 246 298 368
#     4  12  24  32  56  92 132 164 196 251 313 382
#     4  11  23  38  62  91 126 176 219 255 298 382
#     4  11  23  42  66  92 126 164 217 267 328 393
#     4  11  23  39  60  91 128 163 205 265 324 386
#     4  12  25  41  63  95 131 168 212 266 327 384
#
# _framework density 20.00338
#
# number of rings (size 3 to 8) (size 9 to 14) (size 15 to 20)
#    0.000    0.533    6.000    2.800    2.800    2.133 
#    0.000    0.000    0.000    3.200    0.000    0.000 
#    0.000    0.000    0.000    0.000    0.000    0.000 
#
# Total GULP energy -185834.348116 kJ/mol
# GULP energy per Si atom -12388.956541 kJ/mol
# Density = 1.995785 g / cm^3
# Si number density = 20.003380 Si / 1000 Ang^3
#
#
#
# Elastic Constant Matrix: (Units=GPa)
#
#
# Indices 1 2 3 4 5 6 
#
# 1 122.2087 29.2241 40.3408 0.0000 -6.8724 0.0000
# 2 29.2241 131.1060 46.6811 0.0000 -0.1292 0.0000
# 3 40.3408 46.6811 80.5132 0.0000 -13.5756 0.0000
# 4 0.0000 0.0000 0.0000 222.1038 0.0000 209.1573
# 5 -6.8724 -0.1292 -13.5756 0.0000 31.7007 0.0000
# 6 0.0000 0.0000 0.0000 209.1573 0.0000 280.1642
#
#
#
# Elastic Compliance Matrix: (Units=1/GPa)
#
#
# Indices 1 2 3 4 5 6 
#
# 1 0.009837 -0.000564 -0.004572 0.000000 0.000172 0.000000
# 2 -0.000564 0.009836 -0.005857 0.000000 -0.002590 0.000000
# 3 -0.004572 -0.005857 0.019332 0.000000 0.007264 0.000000
# 4 0.000000 0.000000 0.000000 0.015161 0.000000 -0.011319
# 5 0.000172 -0.002590 0.007264 0.000000 0.034682 0.000000
# 6 0.000000 0.000000 0.000000 -0.011319 0.000000 0.012019
#
#
# Mechanical properties :
#
#
# Convention : Reuss Voigt Hill
#
# Bulk Modulus (GPa) = 58.76397 62.92443 60.84420
# Shear Modulus (GPa) = 38.90219 121.29921 80.10070
#
# Velocity S-wave (km/s) = 4.41475 7.79558 6.33486
# Velocity P-wave (km/s) = 7.44496 10.60911 9.16462
#
# Compressibility (1/GPa) = 0.01701723
#
# Stress axis : x y z
#
# Youngs Moduli (GPa) = 101.66013 101.66678 51.72828
#
# Poissons Ratio (x) = 0.05739 0.23652
# Poissons Ratio (y) = 0.05738 0.30297
# Poissons Ratio (z) = 0.46482 0.59545
#
# Static dielectric constant tensor:
#      x y z
#    x 0.644040 0.000000 -2.460550 
#    y 0.000000 3.678710 0.000000 
#    z -2.460550 0.000000 1.662470 
# 
# 
# High freq. dielectric constant tensor:
#      x y z
#    x 1.791200 0.000000 -0.001700 
#    y 0.000000 1.764000 0.000000 
#    z -0.001700 0.000000 1.780830 
# 
# From -- ./inp_files/33965.got.cif
#   From: 2010.03.12/outbox.cif.g09.slc.cpg/sg5_17_cif.got.tgz:33965.got - 2010.03.31 09:47:26.
