data_PCOD8051162
_publ_section_title
;
Structure prediction by ZEFSAII (Michael W. Deem and Ramdas Pophale) SiO2 
 PCOD8051162
Probable space group: C 2
;
_chemical_formula_sum "Si O2"
_cell_formula_units_Z 20
_cell_length_a 10.496812
_cell_length_b 9.416900
_cell_length_c 9.582200
_cell_angle_alpha 90.000000
_cell_angle_beta 64.927786
_cell_angle_gamma 90.000000
_cell_volume 857.927633
_symmetry_space_group_name_H-M "C 2"
_symmetry_group_IT_number 5
_symmetry_cell_setting 'monoclinic'
loop_
_space_group_symop_operation_xyz
x,y,z
-x,y,-z
1/2+x,1/2+y,z
1/2-x,1/2+y,-z
loop_
_atom_site_type_symbol
_atom_site_label
_atom_site_fract_x
_atom_site_fract_y
_atom_site_fract_z
Si Si1 0.163121 0.143230 0.170517
Si Si2 0.401715 0.136165 0.279671
Si Si3 0.047769 0.362447 0.633246
Si Si4 0.850855 0.819917 0.879263
Si Si5 0.848829 0.803167 0.566438
O O1 0.254725 0.118749 0.267278
O O2 0.013537 0.213116 0.282180
O O3 0.140346 0.990632 0.109174
O O4 0.236804 0.255671 0.035493
O O5 0.493790 0.257362 0.159815
O O6 0.376583 0.166991 0.455678
O O7 0.494391 0.990510 0.240744
O O8 0.217872 0.379059 0.553766
O O9 0.000000 0.391395 0.500000
O O10 0.806448 0.767480 0.744889
O O11 0.000000 0.890777 0.500000
#
# Coordination Sequence:
#
# PCOD8051162 Si02
#       5
#     4   4   4   4   4
#     4  12  26  46  71 104 145 188 240 291 351 428
#     4  11  24  48  71 103 144 186 234 298 351 425
#     4  12  24  45  78 109 138 189 243 292 358 424
#     4  11  25  47  69 103 146 189 228 296 356 415
#     4  10  23  45  73 102 142 183 232 296 354 415
#
# _framework density 23.311987999999999
#
# number of rings (size 3 to 8) (size 9 to 14) (size 15 to 20)
#    0.000    0.800    4.000    3.600    0.000    6.400 
#   14.400    0.000    0.000    0.000    0.000    0.000 
#    0.000    0.000    0.000    0.000    0.000    0.000 
#
# Total GULP energy -123900.222652 kJ/mol
# GULP energy per Si atom -12390.022265 kJ/mol
# Density = 2.325893 g / cm^3
# Si number density = 23.311988 Si / 1000 Ang^3
#
#
#
# Elastic Constant Matrix: (Units=GPa)
#
#
# Indices 1 2 3 4 5 6 
#
# 1 146.3733 47.1199 39.0883 0.0000 -23.0971 0.0000
# 2 47.1199 176.4841 42.1610 0.0000 -17.3689 0.0000
# 3 39.0883 42.1610 88.0717 0.0000 -2.6203 0.0000
# 4 0.0000 0.0000 0.0000 35.3901 0.0000 -0.9675
# 5 -23.0971 -17.3689 -2.6203 0.0000 32.4420 0.0000
# 6 0.0000 0.0000 0.0000 -0.9675 0.0000 32.0929
#
#
#
# Elastic Compliance Matrix: (Units=1/GPa)
#
#
# Indices 1 2 3 4 5 6 
#
# 1 0.008921 -0.001052 -0.003291 0.000000 0.005522 0.000000
# 2 -0.001052 0.006868 -0.002740 0.000000 0.002707 0.000000
# 3 -0.003291 -0.002740 0.014047 0.000000 -0.002676 0.000000
# 4 0.000000 0.000000 0.000000 0.028280 0.000000 0.000853
# 5 0.005522 0.002707 -0.002676 0.000000 0.035989 0.000000
# 6 0.000000 0.000000 0.000000 0.000853 0.000000 0.031185
#
#
# Mechanical properties :
#
#
# Convention : Reuss Voigt Hill
#
# Bulk Modulus (GPa) = 63.82117 74.18529 69.00323
# Shear Modulus (GPa) = 34.55882 38.82232 36.69057
#
# Velocity S-wave (km/s) = 3.85443 4.08528 3.97154
# Velocity P-wave (km/s) = 6.87352 7.35830 7.12004
#
# Compressibility (1/GPa) = 0.01566878
#
# Stress axis : x y z
#
# Youngs Moduli (GPa) = 112.09721 145.59889 71.18733
#
# Poissons Ratio (x) = 0.15318 0.23430
# Poissons Ratio (y) = 0.11793 0.19508
# Poissons Ratio (z) = 0.36895 0.39900
#
# Static dielectric constant tensor:
#      x y z
#    x 4.462560 0.000000 -0.071030 
#    y 0.000000 4.235030 0.000000 
#    z -0.071030 0.000000 4.140110 
# 
# 
# High freq. dielectric constant tensor:
#      x y z
#    x 1.931620 0.000000 0.004060 
#    y 0.000000 1.918040 0.000000 
#    z 0.004060 0.000000 1.914990 
# 
# From -- ./inp_files/38159.got.cif
#   From: 2010.03.12/outbox.cif.g09.slc.cpg/sg5_20_cif.got.tgz:38159.got - 2010.03.31 09:47:26.
