data_PCOD8051737
_publ_section_title
;
Structure prediction by ZEFSAII (Michael W. Deem and Ramdas Pophale) SiO2 
 PCOD8051737
Probable space group: C 2
;
_chemical_formula_sum "Si O2"
_cell_formula_units_Z 30
_cell_length_a 7.541021
_cell_length_b 11.891919
_cell_length_c 19.578205
_cell_angle_alpha 90.000000
_cell_angle_beta 49.555137
_cell_angle_gamma 90.000000
_cell_volume 1336.155732
_symmetry_space_group_name_H-M "C 2"
_symmetry_group_IT_number 5
_symmetry_cell_setting 'monoclinic'
loop_
_space_group_symop_operation_xyz
x,y,z
-x,y,-z
1/2+x,1/2+y,z
1/2-x,1/2+y,-z
loop_
_atom_site_type_symbol
_atom_site_label
_atom_site_fract_x
_atom_site_fract_y
_atom_site_fract_z
Si Si1 0.434536 0.144700 0.619383
Si Si2 0.541877 0.384304 0.340200
Si Si3 0.389014 0.132751 0.862911
Si Si4 0.500000 0.791758 0.000000
Si Si5 0.200034 0.464167 0.851361
Si Si6 0.745239 0.784842 0.301631
Si Si7 0.295723 0.497312 0.211415
Si Si8 0.634885 0.604904 0.567255
O O1 0.381598 0.277609 0.634416
O O2 0.345663 0.089165 0.710364
O O3 0.303528 0.089786 0.589316
O O4 0.714731 0.125358 0.539269
O O5 0.745400 0.420952 0.238091
O O6 0.313954 0.354915 0.351919
O O7 0.500680 0.486640 0.403594
O O8 0.224087 0.211886 0.949597
O O9 0.535586 0.208542 0.773843
O O10 0.242719 0.037220 0.857210
O O11 0.555868 0.078296 0.877955
O O12 0.531674 0.871214 0.926511
O O13 0.429005 0.492566 0.839094
O O14 0.526493 0.710633 0.376320
O O15 0.687652 0.873575 0.254788
#
# Coordination Sequence:
#
# PCOD8051737 Si02
#       8
#     4   4   4   2   4   4   4   4
#     4  11  23  40  65  98 135 180 232 291 328 405
#     4  11  22  45  65  90 137 178 220 285 337 405
#     4  12  25  46  72 102 135 180 232 281 353 420
#     4  12  26  48  70 108 138 170 242 290 332 438
#     4  11  25  49  70 100 142 176 226 292 348 413
#     4  11  22  43  66  94 132 181 225 275 349 412
#     4  11  23  47  72  99 139 188 228 282 355 409
#     4  11  25  39  63 101 134 181 236 276 345 406
#
# _framework density 22.452473000000001
#
# number of rings (size 3 to 8) (size 9 to 14) (size 15 to 20)
#    0.000    0.800    8.000    0.000    5.600    0.533 
#    2.400    1.333    0.000    0.000    0.000    0.000 
#    0.000    0.000    0.000    0.000    0.000    0.000 
#
# Total GULP energy -185973.175674 kJ/mol
# GULP energy per Si atom -12398.211712 kJ/mol
# Density = 2.240137 g / cm^3
# Si number density = 22.452473 Si / 1000 Ang^3
#
#
#
# Elastic Constant Matrix: (Units=GPa)
#
#
# Indices 1 2 3 4 5 6 
#
# 1 43.0467 33.3775 27.7556 0.0000 -9.1782 -0.0002
# 2 33.3775 154.1334 46.3498 0.0000 -9.9094 -0.0001
# 3 27.7556 46.3498 116.6401 -0.0001 -22.1123 0.0000
# 4 0.0000 0.0000 -0.0001 37.5166 -0.0001 0.1688
# 5 -9.1782 -9.9094 -22.1123 -0.0001 20.1034 0.0001
# 6 -0.0002 -0.0001 0.0000 0.1688 0.0001 34.8300
#
#
#
# Elastic Compliance Matrix: (Units=1/GPa)
#
#
# Indices 1 2 3 4 5 6 
#
# 1 0.031361 -0.005103 -0.004040 0.000000 0.007359 0.000000
# 2 -0.005103 0.008203 -0.002174 0.000000 -0.000677 0.000000
# 3 -0.004040 -0.002174 0.012440 0.000000 0.010767 0.000000
# 4 0.000000 0.000000 0.000000 0.026655 0.000000 -0.000129
# 5 0.007359 -0.000677 0.010767 0.000000 0.064611 0.000000
# 6 0.000000 0.000000 0.000000 -0.000129 0.000000 0.028712
#
#
# Mechanical properties :
#
#
# Convention : Reuss Voigt Hill
#
# Bulk Modulus (GPa) = 34.04769 58.75400 46.40085
# Shear Modulus (GPa) = 24.46108 32.24581 28.35344
#
# Velocity S-wave (km/s) = 3.30428 3.79381 3.55747
# Velocity P-wave (km/s) = 5.45481 6.73911 6.13068
#
# Compressibility (1/GPa) = 0.02937057
#
# Stress axis : x y z
#
# Youngs Moduli (GPa) = 31.88634 121.90446 80.38858
#
# Poissons Ratio (x) = 0.62213 0.32474
# Poissons Ratio (y) = 0.16273 0.17474
# Poissons Ratio (z) = 0.12881 0.26499
#
# Static dielectric constant tensor:
#      x y z
#    x 3.730730 0.000000 -0.169930 
#    y 0.000000 4.304580 0.000000 
#    z -0.169930 0.000000 4.264550 
# 
# 
# High freq. dielectric constant tensor:
#      x y z
#    x 1.858950 0.000000 -0.010490 
#    y 0.000000 1.904390 0.000000 
#    z -0.010490 0.000000 1.884400 
# 
# From -- ./inp_files/50301.got.cif
#   From: 2010.03.12/outbox.cif.g09.slc.cpg/sg5_26_cif.got.tgz:50301.got - 2010.03.31 09:47:26.
