data_PCOD8051151
_publ_section_title
;
Structure prediction by ZEFSAII (Michael W. Deem and Ramdas Pophale) SiO2 
 PCOD8051151
Probable space group: C 2
;
_chemical_formula_sum "Si O2"
_cell_formula_units_Z 24
_cell_length_a 24.598371
_cell_length_b 8.779268
_cell_length_c 11.707202
_cell_angle_alpha 90.000000
_cell_angle_beta 26.847141
_cell_angle_gamma 90.000000
_cell_volume 1141.781560
_symmetry_space_group_name_H-M "C 2"
_symmetry_group_IT_number 5
_symmetry_cell_setting 'monoclinic'
loop_
_space_group_symop_operation_xyz
x,y,z
-x,y,-z
1/2+x,1/2+y,z
1/2-x,1/2+y,-z
loop_
_atom_site_type_symbol
_atom_site_label
_atom_site_fract_x
_atom_site_fract_y
_atom_site_fract_z
Si Si1 0.131464 0.966090 0.259685
Si Si2 0.581992 0.212399 0.534135
Si Si3 0.307953 0.128295 0.092220
Si Si4 0.631154 0.586512 0.797033
Si Si5 0.752639 0.889004 0.609706
Si Si6 0.735605 0.450411 0.815686
O O1 0.114769 0.808435 0.360149
O O2 0.000000 0.047978 0.500000
O O3 0.230941 0.075356 0.127790
O O4 0.173940 0.930247 0.053481
O O5 0.630893 0.304277 0.553654
O O6 0.642545 0.046760 0.409449
O O7 0.441354 0.180136 0.807186
O O8 0.239555 0.276809 0.272807
O O9 0.313843 0.993849 0.172820
O O10 0.658691 0.765169 0.740313
O O11 0.719888 0.491865 0.550533
O O12 0.640998 0.531336 0.909053
O O13 0.500000 0.552646 0.000000
#
# Coordination Sequence:
#
# PCOD8051151 Si02
#       6
#     4   4   4   4   4   4
#     4  11  23  42  65  95 133 168 212 269 322 386
#     4  10  23  45  67  94 134 171 218 268 321 388
#     4  11  23  43  67  93 130 174 212 270 327 382
#     4  11  24  42  66  95 133 171 217 269 321 382
#     4  10  24  42  66  98 128 171 221 265 325 383
#     4  11  23  41  66  96 127 174 216 262 325 382
#
# _framework density 21.019781999999999
#
# number of rings (size 3 to 8) (size 9 to 14) (size 15 to 20)
#    0.000    1.333    1.667    3.000    2.333    4.000 
#    9.000    0.833    0.000    0.000    0.000    0.000 
#    0.000    0.000    0.000    0.000    0.000    0.000 
#
# Total GULP energy -148795.179095 kJ/mol
# GULP energy per Si atom -12399.598258 kJ/mol
# Density = 2.097194 g / cm^3
# Si number density = 21.019782 Si / 1000 Ang^3
#
#
#
# Elastic Constant Matrix: (Units=GPa)
#
#
# Indices 1 2 3 4 5 6 
#
# 1 89.3340 41.0484 34.4626 0.0000 0.0750 0.0000
# 2 41.0484 151.5984 54.8685 0.0000 1.9631 0.0000
# 3 34.4626 54.8685 71.0661 0.0000 -8.7025 0.0000
# 4 0.0000 0.0000 0.0000 11.0358 0.0000 13.0585
# 5 0.0750 1.9631 -8.7025 0.0000 34.9714 0.0000
# 6 0.0000 0.0000 0.0000 13.0585 0.0000 23.0955
#
#
#
# Elastic Compliance Matrix: (Units=1/GPa)
#
#
# Indices 1 2 3 4 5 6 
#
# 1 0.014202 -0.001770 -0.005685 0.000000 -0.001346 0.000000
# 2 -0.001770 0.009565 -0.006799 0.000000 -0.002225 0.000000
# 3 -0.005685 -0.006799 0.022821 0.000000 0.006073 0.000000
# 4 0.000000 0.000000 0.000000 0.273800 0.000000 -0.154810
# 5 -0.001346 -0.002225 0.006073 0.000000 0.030234 0.000000
# 6 0.000000 0.000000 0.000000 -0.154810 0.000000 0.130830
#
#
# Mechanical properties :
#
#
# Convention : Reuss Voigt Hill
#
# Bulk Modulus (GPa) = 55.31099 63.63971 59.47535
# Shear Modulus (GPa) = 9.69016 25.92847 17.80932
#
# Velocity S-wave (km/s) = 2.14942 3.51597 2.91394
# Velocity P-wave (km/s) = 5.70359 6.84285 6.29903
#
# Compressibility (1/GPa) = 0.01807959
#
# Stress axis : x y z
#
# Youngs Moduli (GPa) = 70.41457 104.54333 43.81877
#
# Poissons Ratio (x) = 0.18509 0.24910
# Poissons Ratio (y) = 0.12467 0.29793
# Poissons Ratio (z) = 0.40029 0.71081
#
# Static dielectric constant tensor:
#      x y z
#    x 4.197260 0.000000 0.010040 
#    y 0.000000 4.194370 0.000000 
#    z 0.010040 0.000000 3.615960 
# 
# 
# High freq. dielectric constant tensor:
#      x y z
#    x 1.841470 0.000000 -0.000750 
#    y 0.000000 1.838490 0.000000 
#    z -0.000750 0.000000 1.807990 
# 
# From -- ./inp_files/38337.got.cif
#   From: 2010.03.12/outbox.cif.g09.slc.cpg/sg5_20_cif.got.tgz:38337.got - 2010.03.31 09:47:26.
