data_PCOD8051517
_publ_section_title
;
Structure prediction by ZEFSAII (Michael W. Deem and Ramdas Pophale) SiO2 
 PCOD8051517
Probable space group: C 2
;
_chemical_formula_sum "Si O2"
_cell_formula_units_Z 26
_cell_length_a 21.007839
_cell_length_b 8.291974
_cell_length_c 10.019747
_cell_angle_alpha 90.000000
_cell_angle_beta 42.079602
_cell_angle_gamma 90.000000
_cell_volume 1169.704447
_symmetry_space_group_name_H-M "C 2"
_symmetry_group_IT_number 5
_symmetry_cell_setting 'monoclinic'
loop_
_space_group_symop_operation_xyz
x,y,z
-x,y,-z
1/2+x,1/2+y,z
1/2-x,1/2+y,-z
loop_
_atom_site_type_symbol
_atom_site_label
_atom_site_fract_x
_atom_site_fract_y
_atom_site_fract_z
Si Si1 0.306777 0.261930 0.564113
Si Si2 0.675154 0.024183 0.234810
Si Si3 0.114742 0.105076 0.506519
Si Si4 0.714579 0.225437 0.919182
Si Si5 0.397089 0.790243 0.205771
Si Si6 0.102642 0.657434 0.834394
Si Si7 0.500000 0.791395 0.500000
O O1 0.342188 0.111082 0.596069
O O2 0.371279 0.414353 0.504835
O O3 0.191834 0.277640 0.760716
O O4 0.326058 0.245766 0.376381
O O5 0.772803 0.919545 0.090229
O O6 0.588201 0.908467 0.333698
O O7 0.683421 0.161359 0.111014
O O8 0.184819 0.156456 0.280055
O O9 0.136347 0.194251 0.611526
O O10 0.014119 0.172235 0.606792
O O11 0.639075 0.167377 0.927885
O O12 0.410675 0.979569 0.207183
O O13 0.500000 0.717525 0.000000
O O14 0.000000 0.742961 0.000000
#
# Coordination Sequence:
#
# PCOD8051517 Si02
#       7
#     4   4   4   4   4   4   2
#     4  12  24  47  70 105 141 187 237 297 359 419
#     4  11  27  44  73  97 144 188 237 293 358 417
#     4  11  24  43  70 100 140 180 239 295 350 422
#     4  11  23  45  68  98 136 186 236 287 351 418
#     4  11  24  42  74 100 141 184 237 290 358 416
#     4  11  25  43  71 101 140 185 235 288 355 419
#     4  10  26  46  68 100 140 186 242 294 360 414
#
# _framework density 22.227837000000001
#
# number of rings (size 3 to 8) (size 9 to 14) (size 15 to 20)
#    0.000    0.923    3.077    2.769    8.615    2.462 
#    5.538    0.000    0.000    0.000    0.000    0.000 
#    0.000    0.000    0.000    0.000    0.000    0.000 
#
# Total GULP energy -161103.963747 kJ/mol
# GULP energy per Si atom -12392.612596 kJ/mol
# Density = 2.217725 g / cm^3
# Si number density = 22.227837 Si / 1000 Ang^3
#
#
#
# Elastic Constant Matrix: (Units=GPa)
#
#
# Indices 1 2 3 4 5 6 
#
# 1 116.2475 53.5944 39.6087 0.0000 -4.5393 0.0000
# 2 53.5944 117.5604 24.2165 0.0000 0.7431 0.0000
# 3 39.6087 24.2165 85.0550 0.0000 -0.7091 0.0000
# 4 0.0000 0.0000 0.0000 31.1623 0.0000 -3.0884
# 5 -4.5393 0.7431 -0.7091 0.0000 39.2404 0.0000
# 6 0.0000 0.0000 0.0000 -3.0884 0.0000 28.0420
#
#
#
# Elastic Compliance Matrix: (Units=1/GPa)
#
#
# Indices 1 2 3 4 5 6 
#
# 1 0.012332 -0.004728 -0.004385 0.000000 0.001437 0.000000
# 2 -0.004728 0.010851 -0.000894 0.000000 -0.000769 0.000000
# 3 -0.004385 -0.000894 0.014052 0.000000 -0.000236 0.000000
# 4 0.000000 0.000000 0.000000 0.032444 0.000000 0.003573
# 5 0.001437 -0.000769 -0.000236 0.000000 0.025660 0.000000
# 6 0.000000 0.000000 0.000000 0.003573 0.000000 0.036054
#
#
# Mechanical properties :
#
#
# Convention : Reuss Voigt Hill
#
# Bulk Modulus (GPa) = 58.06890 61.52245 59.79567
# Shear Modulus (GPa) = 31.81727 33.11851 32.46789
#
# Velocity S-wave (km/s) = 3.78751 3.86418 3.82604
# Velocity P-wave (km/s) = 6.73113 6.90271 6.81746
#
# Compressibility (1/GPa) = 0.01722092
#
# Stress axis : x y z
#
# Youngs Moduli (GPa) = 81.08837 92.15988 71.16626
#
# Poissons Ratio (x) = 0.43573 0.31205
# Poissons Ratio (y) = 0.38338 0.06363
# Poissons Ratio (z) = 0.35556 0.08239
#
# Static dielectric constant tensor:
#      x y z
#    x 4.578810 0.000000 -0.241970 
#    y 0.000000 4.144490 0.000000 
#    z -0.241970 0.000000 3.945810 
# 
# 
# High freq. dielectric constant tensor:
#      x y z
#    x 1.882890 0.000000 -0.001420 
#    y 0.000000 1.876550 0.000000 
#    z -0.001420 0.000000 1.866300 
# 
# From -- ./inp_files/28902.got.cif
#   From: 2010.03.12/outbox.cif.g09.slc.cpg/sg5_15_cif.got.tgz:28902.got - 2010.03.31 09:47:26.
