data_PCOD8051448
_publ_section_title
;
Structure prediction by ZEFSAII (Michael W. Deem and Ramdas Pophale) SiO2 
 PCOD8051448
Probable space group: C 2
;
_chemical_formula_sum "Si O2"
_cell_formula_units_Z 24
_cell_length_a 27.010542
_cell_length_b 7.316207
_cell_length_c 13.443018
_cell_angle_alpha 90.000000
_cell_angle_beta 24.649096
_cell_angle_gamma 90.000000
_cell_volume 1107.935158
_symmetry_space_group_name_H-M "C 2"
_symmetry_group_IT_number 5
_symmetry_cell_setting 'monoclinic'
loop_
_space_group_symop_operation_xyz
x,y,z
-x,y,-z
1/2+x,1/2+y,z
1/2-x,1/2+y,-z
loop_
_atom_site_type_symbol
_atom_site_label
_atom_site_fract_x
_atom_site_fract_y
_atom_site_fract_z
Si Si1 0.298469 0.931180 0.615013
Si Si2 0.611269 0.638197 0.228702
Si Si3 0.726457 0.800045 0.679084
Si Si4 0.675651 0.265380 0.029666
Si Si5 0.865028 0.971782 0.257615
Si Si6 0.067772 0.419515 0.138476
O O1 0.252665 0.849042 0.800681
O O2 0.215991 0.860079 0.674310
O O3 0.295131 0.153277 0.623092
O O4 0.433908 0.872714 0.351751
O O5 0.500000 0.694363 0.500000
O O6 0.735108 0.666811 0.058199
O O7 0.601044 0.425186 0.218585
O O8 0.613023 0.759052 0.126755
O O9 0.820537 0.928386 0.450247
O O10 0.646061 0.688551 0.745423
O O11 0.645295 0.926288 0.896481
O O12 0.580056 0.115917 0.168645
O O13 0.000000 0.905277 0.000000
#
# Coordination Sequence:
#
# PCOD8051448 Si02
#       6
#     4   4   4   4   4   4
#     4  10  26  43  69 104 135 181 236 282 354 405
#     4  12  25  46  70 103 140 187 230 286 352 408
#     4  10  26  42  70 101 140 183 233 286 352 403
#     4  12  26  44  70 103 139 180 236 288 345 416
#     4  10  25  44  67  99 140 182 234 278 351 413
#     4  12  26  45  73 101 147 178 236 293 343 414
#
# _framework density 21.661916999999999
#
# number of rings (size 3 to 8) (size 9 to 14) (size 15 to 20)
#    1.000    0.000    5.000    0.000    7.000    3.333 
#    0.000    0.000    0.000    0.000    0.000    0.000 
#    0.000    0.000    0.000    0.000    0.000    0.000 
#
# Total GULP energy -148790.732326 kJ/mol
# GULP energy per Si atom -12399.227694 kJ/mol
# Density = 2.161261 g / cm^3
# Si number density = 21.661917 Si / 1000 Ang^3
#
#
#
# Elastic Constant Matrix: (Units=GPa)
#
#
# Indices 1 2 3 4 5 6 
#
# 1 102.2745 36.2341 56.2759 0.0000 -10.9514 0.0000
# 2 36.2341 100.8641 14.6215 0.0000 5.7319 0.0000
# 3 56.2759 14.6215 130.5502 0.0000 3.7292 0.0000
# 4 0.0000 0.0000 0.0000 30.0607 0.0000 10.0726
# 5 -10.9514 5.7319 3.7292 0.0000 34.7037 0.0000
# 6 0.0000 0.0000 0.0000 10.0726 0.0000 31.9028
#
#
#
# Elastic Compliance Matrix: (Units=1/GPa)
#
#
# Indices 1 2 3 4 5 6 
#
# 1 0.015837 -0.005127 -0.006439 0.000000 0.006537 0.000000
# 2 -0.005127 0.011822 0.000991 0.000000 -0.003677 0.000000
# 3 -0.006439 0.000991 0.010419 0.000000 -0.003315 0.000000
# 4 0.000000 0.000000 0.000000 0.037202 0.000000 -0.011746
# 5 0.006537 -0.003677 -0.003315 0.000000 0.031842 0.000000
# 6 0.000000 0.000000 0.000000 -0.011746 0.000000 0.035054
#
#
# Mechanical properties :
#
#
# Convention : Reuss Voigt Hill
#
# Bulk Modulus (GPa) = 59.07629 60.88353 59.97991
# Shear Modulus (GPa) = 29.59129 34.43726 32.01428
#
# Velocity S-wave (km/s) = 3.70002 3.99151 3.84852
# Velocity P-wave (km/s) = 6.75165 7.02923 6.89184
#
# Compressibility (1/GPa) = 0.01692727
#
# Stress axis : x y z
#
# Youngs Moduli (GPa) = 63.14203 84.59148 95.97490
#
# Poissons Ratio (x) = 0.43373 0.61802
# Poissons Ratio (y) = 0.32375 -0.09514
# Poissons Ratio (z) = 0.40660 -0.08385
#
# Static dielectric constant tensor:
#      x y z
#    x 3.859080 0.000000 0.037660 
#    y 0.000000 3.773050 0.000000 
#    z 0.037660 0.000000 3.669910 
# 
# 
# High freq. dielectric constant tensor:
#      x y z
#    x 1.851310 0.000000 0.007050 
#    y 0.000000 1.845720 0.000000 
#    z 0.007050 0.000000 1.850560 
# 
# From -- ./inp_files/47233.got.cif
#   From: 2010.03.12/outbox.cif.g09.slc.cpg/sg5_24_cif.got.tgz:47233.got - 2010.03.31 09:47:26.
