data_PCOD8051722
_publ_section_title
;
Structure prediction by ZEFSAII (Michael W. Deem and Ramdas Pophale) SiO2 
 PCOD8051722
Probable space group: C 2
;
_chemical_formula_sum "Si O2"
_cell_formula_units_Z 28
_cell_length_a 8.821359
_cell_length_b 14.088603
_cell_length_c 12.289010
_cell_angle_alpha 90.000000
_cell_angle_beta 124.539733
_cell_angle_gamma 90.000000
_cell_volume 1258.076060
_symmetry_space_group_name_H-M "C 2"
_symmetry_group_IT_number 5
_symmetry_cell_setting 'monoclinic'
loop_
_space_group_symop_operation_xyz
x,y,z
-x,y,-z
1/2+x,1/2+y,z
1/2-x,1/2+y,-z
loop_
_atom_site_type_symbol
_atom_site_label
_atom_site_fract_x
_atom_site_fract_y
_atom_site_fract_z
Si Si1 0.498832 0.791170 0.763254
Si Si2 0.498923 0.435031 0.755884
Si Si3 0.403803 0.281424 0.857377
Si Si4 0.480837 0.133780 0.721341
Si Si5 0.103809 0.107299 0.155261
Si Si6 0.846610 0.791072 0.525565
Si Si7 0.401907 0.969917 0.848021
O O1 0.686191 0.766177 0.777048
O O2 0.443881 0.714097 0.830735
O O3 0.352060 0.801570 0.607944
O O4 0.523812 0.888949 0.840116
O O5 0.467744 0.389716 0.863352
O O6 0.453530 0.544658 0.762469
O O7 0.360409 0.376016 0.620740
O O8 0.703616 0.426108 0.792961
O O9 0.505451 0.227334 0.802126
O O10 0.500000 0.237460 0.000000
O O11 0.678139 0.092950 0.768699
O O12 0.367274 0.180189 0.574006
O O13 0.373787 0.055541 0.749973
O O14 0.000000 0.082387 0.000000
O O15 0.000000 0.813672 0.500000
O O16 0.500000 0.004422 0.000000
#
# Coordination Sequence:
#
# PCOD8051722 Si02
#       7
#     4   4   4   4   4   4   4
#     4  12  24  42  70  93 135 178 215 265 324 386
#     4  11  24  41  66  93 134 170 216 274 319 389
#     4  11  22  42  66  99 131 169 217 273 328 384
#     4  11  24  41  66  93 134 170 216 274 319 389
#     4  12  23  41  66 100 130 171 218 272 334 383
#     4  11  23  49  64  92 132 176 224 262 319 389
#     4  12  23  41  66 100 130 171 218 272 334 383
#
# _framework density 22.256205000000001
#
# number of rings (size 3 to 8) (size 9 to 14) (size 15 to 20)
#    0.000    0.571    2.857    6.429    0.000    3.429 
#    0.000    0.000    0.000    0.000    0.000    0.000 
#    0.000    0.000    0.000    0.000    0.000    0.000 
#
# Total GULP energy -173528.084320 kJ/mol
# GULP energy per Si atom -12394.863166 kJ/mol
# Density = 2.220555 g / cm^3
# Si number density = 22.256205 Si / 1000 Ang^3
#
#
#
# Elastic Constant Matrix: (Units=GPa)
#
#
# Indices 1 2 3 4 5 6 
#
# 1 104.4237 19.4579 28.2765 0.0000 5.8677 0.0000
# 2 19.4579 94.9886 42.4380 0.0000 -7.2624 0.0000
# 3 28.2765 42.4380 100.9821 0.0000 1.5359 0.0000
# 4 0.0000 0.0000 0.0000 34.3279 0.0000 -16.7813
# 5 5.8677 -7.2624 1.5359 0.0000 34.5170 0.0000
# 6 0.0000 0.0000 0.0000 -16.7813 0.0000 47.1535
#
#
#
# Elastic Compliance Matrix: (Units=1/GPa)
#
#
# Indices 1 2 3 4 5 6 
#
# 1 0.010569 -0.001237 -0.002410 0.000000 -0.001950 0.000000
# 2 -0.001237 0.013418 -0.005342 0.000000 0.003271 0.000000
# 3 -0.002410 -0.005342 0.012842 0.000000 -0.001286 0.000000
# 4 0.000000 0.000000 0.000000 0.035266 0.000000 0.012551
# 5 -0.001950 0.003271 -0.001286 0.000000 0.030048 0.000000
# 6 0.000000 0.000000 0.000000 0.012551 0.000000 0.025674
#
#
# Mechanical properties :
#
#
# Convention : Reuss Voigt Hill
#
# Bulk Modulus (GPa) = 53.04965 53.41545 53.23255
# Shear Modulus (GPa) = 32.87748 37.21449 35.04598
#
# Velocity S-wave (km/s) = 3.84764 4.09356 3.97251
# Velocity P-wave (km/s) = 6.60506 6.81141 6.70903
#
# Compressibility (1/GPa) = 0.01885026
#
# Stress axis : x y z
#
# Youngs Moduli (GPa) = 94.61588 74.52749 77.86867
#
# Poissons Ratio (x) = 0.09222 0.18765
# Poissons Ratio (y) = 0.11708 0.41599
# Poissons Ratio (z) = 0.22800 0.39814
#
# Static dielectric constant tensor:
#      x y z
#    x 5.779730 0.000000 -0.403340 
#    y 0.000000 4.058700 0.000000 
#    z -0.403340 0.000000 4.390480 
# 
# 
# High freq. dielectric constant tensor:
#      x y z
#    x 1.885570 0.000000 -0.014570 
#    y 0.000000 1.884850 0.000000 
#    z -0.014570 0.000000 1.871790 
# 
# From -- ./inp_files/36500.got.cif
#   From: 2010.03.12/outbox.cif.g09.slc.cpg/sg5_19_cif.got.tgz:36500.got - 2010.03.31 09:47:26.
