data_PCOD8051725
_publ_section_title
;
Structure prediction by ZEFSAII (Michael W. Deem and Ramdas Pophale) SiO2 
 PCOD8051725
Probable space group: C 2
;
_chemical_formula_sum "Si O2"
_cell_formula_units_Z 32
_cell_length_a 12.301555
_cell_length_b 10.902889
_cell_length_c 12.448963
_cell_angle_alpha 90.000000
_cell_angle_beta 117.525438
_cell_angle_gamma 90.000000
_cell_volume 1480.687040
_symmetry_space_group_name_H-M "C 2"
_symmetry_group_IT_number 5
_symmetry_cell_setting 'monoclinic'
loop_
_space_group_symop_operation_xyz
x,y,z
-x,y,-z
1/2+x,1/2+y,z
1/2-x,1/2+y,-z
loop_
_atom_site_type_symbol
_atom_site_label
_atom_site_fract_x
_atom_site_fract_y
_atom_site_fract_z
Si Si1 0.140006 0.428590 0.704889
Si Si2 0.726078 0.332317 0.437576
Si Si3 0.027517 0.025496 0.394401
Si Si4 0.574520 0.770285 0.323766
Si Si5 0.999780 0.688141 0.623181
Si Si6 0.117432 0.251978 0.107357
Si Si7 0.347296 0.390486 0.186282
Si Si8 0.640471 0.489363 0.042285
O O1 0.175847 0.352340 0.614175
O O2 0.063838 0.554579 0.649004
O O3 0.267265 0.441338 0.825426
O O4 0.047639 0.350692 0.735419
O O5 0.633979 0.445859 0.389615
O O6 0.804521 0.343962 0.583629
O O7 0.643265 0.205023 0.400900
O O8 0.064875 0.166297 0.410648
O O9 0.000000 0.978224 0.500000
O O10 0.903050 0.010336 0.268016
O O11 0.590734 0.704977 0.216010
O O12 0.075009 0.771215 0.741896
O O13 0.000000 0.738111 0.500000
O O14 0.210692 0.363428 0.162167
O O15 0.158031 0.137417 0.050530
O O16 0.000000 0.314231 0.000000
O O17 0.332204 0.418374 0.054207
O O18 0.500000 0.456024 0.000000
#
# Coordination Sequence:
#
# PCOD8051725 Si02
#       8
#     4   4   4   4   4   4   4   4
#     4  12  25  45  69 107 144 190 241 297 368 438
#     4  11  24  41  69 103 142 184 236 293 363 434
#     4  11  23  41  64  99 139 181 235 291 358 428
#     4  12  25  42  67 101 141 181 232 297 362 437
#     4  11  23  43  73 105 144 191 237 295 364 440
#     4  11  22  42  67  95 128 180 229 285 355 425
#     4  11  22  42  69  99 129 180 237 288 355 433
#     4  11  23  42  72  97 135 183 235 294 356 433
#
# _framework density 21.611591000000001
#
# number of rings (size 3 to 8) (size 9 to 14) (size 15 to 20)
#    0.000    0.750    1.250    9.375    3.500    0.000 
#    2.250    0.000    2.750    0.000    0.000    0.000 
#    0.000    0.000    0.000    0.000    0.000    0.000 
#
# Total GULP energy -198226.246864 kJ/mol
# GULP energy per Si atom -12389.140429 kJ/mol
# Density = 2.156240 g / cm^3
# Si number density = 21.611591 Si / 1000 Ang^3
#
#
#
# Elastic Constant Matrix: (Units=GPa)
#
#
# Indices 1 2 3 4 5 6 
#
# 1 113.4200 42.7356 46.4805 0.0000 17.0379 0.0000
# 2 42.7356 81.2886 30.9686 0.0000 -2.0412 0.0000
# 3 46.4805 30.9686 127.2526 0.0000 10.1041 0.0000
# 4 0.0000 0.0000 0.0000 31.1008 0.0000 -1.8820
# 5 17.0379 -2.0412 10.1041 0.0000 46.8955 0.0000
# 6 0.0000 0.0000 0.0000 -1.8820 0.0000 35.0051
#
#
#
# Elastic Compliance Matrix: (Units=1/GPa)
#
#
# Indices 1 2 3 4 5 6 
#
# 1 0.012826 -0.005725 -0.002952 0.000000 -0.004273 0.000000
# 2 -0.005725 0.016196 -0.002107 0.000000 0.003239 0.000000
# 3 -0.002952 -0.002107 0.009535 0.000000 -0.001074 0.000000
# 4 0.000000 0.000000 0.000000 0.032258 0.000000 0.001734
# 5 -0.004273 0.003239 -0.001074 0.000000 0.023249 0.000000
# 6 0.000000 0.000000 0.000000 0.001734 0.000000 0.028661
#
#
# Mechanical properties :
#
#
# Convention : Reuss Voigt Hill
#
# Bulk Modulus (GPa) = 58.86989 62.48117 60.67553
# Shear Modulus (GPa) = 33.34297 36.05203 34.69750
#
# Velocity S-wave (km/s) = 3.93215 4.08877 4.01122
# Velocity P-wave (km/s) = 6.92205 7.15992 7.04199
#
# Compressibility (1/GPa) = 0.01698661
#
# Stress axis : x y z
#
# Youngs Moduli (GPa) = 77.96798 61.74332 104.87900
#
# Poissons Ratio (x) = 0.35351 0.30961
# Poissons Ratio (y) = 0.44640 0.22103
# Poissons Ratio (z) = 0.23017 0.13012
#
# Static dielectric constant tensor:
#      x y z
#    x 4.180780 0.000000 0.178720 
#    y 0.000000 3.755360 0.000000 
#    z 0.178720 0.000000 4.125420 
# 
# 
# High freq. dielectric constant tensor:
#      x y z
#    x 1.855280 0.000000 0.018500 
#    y 0.000000 1.832950 0.000000 
#    z 0.018500 0.000000 1.863660 
# 
# From -- ./inp_files/39441.got.cif
#   From: 2010.03.12/outbox.cif.g09.slc.cpg/sg5_20_cif.got.tgz:39441.got - 2010.03.31 09:47:26.
