data_PCOD8051085
_publ_section_title
;
Structure prediction by ZEFSAII (Michael W. Deem and Ramdas Pophale) SiO2 
 PCOD8051085
Probable space group: C 2
;
_chemical_formula_sum "Si O2"
_cell_formula_units_Z 24
_cell_length_a 10.372895
_cell_length_b 9.574107
_cell_length_c 22.590943
_cell_angle_alpha 90.000000
_cell_angle_beta 31.973744
_cell_angle_gamma 90.000000
_cell_volume 1188.019775
_symmetry_space_group_name_H-M "C 2"
_symmetry_group_IT_number 5
_symmetry_cell_setting 'monoclinic'
loop_
_space_group_symop_operation_xyz
x,y,z
-x,y,-z
1/2+x,1/2+y,z
1/2-x,1/2+y,-z
loop_
_atom_site_type_symbol
_atom_site_label
_atom_site_fract_x
_atom_site_fract_y
_atom_site_fract_z
Si Si1 0.425422 0.273140 0.963068
Si Si2 0.013259 0.098092 0.062615
Si Si3 0.142441 0.579416 0.303733
Si Si4 0.136949 0.282332 0.287014
Si Si5 0.814054 0.791218 0.616853
Si Si6 0.930266 0.082613 0.464697
O O1 0.385538 0.440011 0.975619
O O2 0.637799 0.220394 0.836771
O O3 0.500000 0.226703 0.000000
O O4 0.182327 0.196833 0.036483
O O5 0.743656 0.106722 0.197538
O O6 0.000000 0.152141 0.000000
O O7 0.217856 0.420731 0.291883
O O8 0.269274 0.689554 0.298182
O O9 0.857365 0.593638 0.424381
O O10 0.929926 0.337139 0.322001
O O11 0.041061 0.164102 0.366984
O O12 0.000000 0.710712 0.500000
O O13 0.962938 0.926248 0.581941
O O14 0.000000 0.152410 0.500000
#
# Coordination Sequence:
#
# PCOD8051085 Si02
#       6
#     4   4   4   4   4   4
#     4  10  23  43  65  89 123 164 211 256 307 362
#     4  10  24  42  64  90 123 163 211 258 306 360
#     4  11  21  40  62  89 124 159 198 250 303 363
#     4  11  23  40  62  91 122 161 202 251 302 364
#     4  11  21  40  61  89 127 157 199 244 302 367
#     4  11  22  38  62  92 124 158 196 243 309 366
#
# _framework density 20.201685000000001
#
# number of rings (size 3 to 8) (size 9 to 14) (size 15 to 20)
#    0.000    1.333    5.000    1.000    2.333    4.000 
#    3.000    0.000    0.000    0.000    0.000    0.000 
#    0.000    0.000    0.000    0.000    0.000    0.000 
#
# Total GULP energy -148745.858471 kJ/mol
# GULP energy per Si atom -12395.488206 kJ/mol
# Density = 2.015570 g / cm^3
# Si number density = 20.201685 Si / 1000 Ang^3
#
#
#
# Elastic Constant Matrix: (Units=GPa)
#
#
# Indices 1 2 3 4 5 6 
#
# 1 91.4773 56.1003 29.2560 -0.0005 15.0891 0.0001
# 2 56.1003 88.2275 49.6820 -0.0001 16.2319 0.0002
# 3 29.2560 49.6820 131.0944 -0.0006 19.6498 -0.0005
# 4 -0.0005 -0.0001 -0.0006 32.4396 0.0000 3.6136
# 5 15.0891 16.2319 19.6498 0.0000 34.5566 0.0001
# 6 0.0001 0.0002 -0.0005 3.6136 0.0001 30.3052
#
#
#
# Elastic Compliance Matrix: (Units=1/GPa)
#
#
# Indices 1 2 3 4 5 6 
#
# 1 0.018205 -0.011430 0.000717 0.000000 -0.002988 0.000000
# 2 -0.011430 0.022111 -0.005488 0.000000 -0.002275 0.000000
# 3 0.000717 -0.005488 0.010066 0.000000 -0.003459 0.000000
# 4 0.000000 0.000000 0.000000 0.031242 0.000000 -0.003725
# 5 -0.002988 -0.002275 -0.003459 0.000000 0.033278 0.000000
# 6 0.000000 0.000000 0.000000 -0.003725 0.000000 0.033442
#
#
# Mechanical properties :
#
#
# Convention : Reuss Voigt Hill
#
# Bulk Modulus (GPa) = 55.61579 64.54175 60.07877
# Shear Modulus (GPa) = 26.77548 31.17767 28.97657
#
# Velocity S-wave (km/s) = 3.64457 3.93277 3.79141
# Velocity P-wave (km/s) = 6.73057 7.25537 6.99789
#
# Compressibility (1/GPa) = 0.01798051
#
# Stress axis : x y z
#
# Youngs Moduli (GPa) = 54.93090 45.22709 99.34019
#
# Poissons Ratio (x) = 0.51692 -0.07120
# Poissons Ratio (y) = 0.62783 0.54516
# Poissons Ratio (z) = -0.03937 0.24820
#
# Static dielectric constant tensor:
#      x y z
#    x 3.701890 0.000000 0.253240 
#    y 0.000000 3.597170 0.000010 
#    z 0.253240 0.000010 4.092030 
# 
# 
# High freq. dielectric constant tensor:
#      x y z
#    x 1.774660 0.000000 0.004550 
#    y 0.000000 1.779520 0.000000 
#    z 0.004550 0.000000 1.812610 
# 
# From -- ./inp_files/38280.got.cif
#   From: 2010.03.12/outbox.cif.g09.slc.cpg/sg5_20_cif.got.tgz:38280.got - 2010.03.31 09:47:26.
