data_PCOD8051046
_publ_section_title
;
Structure prediction by ZEFSAII (Michael W. Deem and Ramdas Pophale) SiO2 
 PCOD8051046
Probable space group: C 2
;
_chemical_formula_sum "Si O2"
_cell_formula_units_Z 26
_cell_length_a 7.199701
_cell_length_b 24.976283
_cell_length_c 7.683856
_cell_angle_alpha 90.000000
_cell_angle_beta 105.676633
_cell_angle_gamma 90.000000
_cell_volume 1330.327228
_symmetry_space_group_name_H-M "C 2"
_symmetry_group_IT_number 5
_symmetry_cell_setting 'monoclinic'
loop_
_space_group_symop_operation_xyz
x,y,z
-x,y,-z
1/2+x,1/2+y,z
1/2-x,1/2+y,-z
loop_
_atom_site_type_symbol
_atom_site_label
_atom_site_fract_x
_atom_site_fract_y
_atom_site_fract_z
Si Si1 0.621717 0.578430 0.356066
Si Si2 0.500000 0.642732 0.000000
Si Si3 0.000000 0.647038 0.500000
Si Si4 0.709146 0.822235 0.111073
Si Si5 0.906241 0.405763 0.638569
Si Si6 0.720003 0.460378 0.303289
Si Si7 0.121228 0.711053 0.856110
Si Si8 0.500000 0.390817 0.000000
O O1 0.500000 0.569189 0.500000
O O2 0.686158 0.523289 0.282849
O O3 0.810044 0.611276 0.457650
O O4 0.496323 0.608004 0.176224
O O5 0.310895 0.678669 0.953822
O O6 0.998463 0.683312 0.672909
O O7 0.693559 0.865498 0.258235
O O8 0.825884 0.770203 0.201478
O O9 0.500000 0.802623 0.000000
O O10 0.815654 0.852593 0.981132
O O11 0.742317 0.444575 0.513287
O O12 0.000000 0.371945 0.500000
O O13 0.082451 0.443810 0.754815
O O14 0.539453 0.428595 0.175735
O O15 0.000000 0.716514 0.000000
#
# Coordination Sequence:
#
# PCOD8051046 Si02
#       8
#     4   2   2   4   4   4   4   2
#     4  11  22  41  66  92 124 164 206 259 317 367
#     4  10  23  42  64  90 126 160 207 266 312 372
#     4  10  24  44  64  94 122 160 210 264 316 368
#     4  12  22  41  62  91 128 164 205 258 314 366
#     4   8  20  40  58  85 129 164 193 254 303 360
#     4   9  21  38  59  92 122 160 206 247 302 371
#     4  11  23  42  66  93 124 162 211 259 315 372
#     4  12  23  36  64  94 122 164 215 244 308 380
#
# _framework density 19.544063000000001
#
# number of rings (size 3 to 8) (size 9 to 14) (size 15 to 20)
#    0.923    0.615    3.077    2.308    2.154    1.231 
#    2.769    0.769    3.385    0.000    0.000    0.000 
#    0.000    0.000    0.000    0.000    0.000    0.000 
#
# Total GULP energy -161093.807643 kJ/mol
# GULP energy per Si atom -12391.831357 kJ/mol
# Density = 1.949958 g / cm^3
# Si number density = 19.544063 Si / 1000 Ang^3
#
#
#
# Elastic Constant Matrix: (Units=GPa)
#
#
# Indices 1 2 3 4 5 6 
#
# 1 86.9627 50.6637 40.8013 0.0000 -3.5092 0.0000
# 2 50.6637 143.2873 46.0839 0.0000 -0.5607 0.0000
# 3 40.8013 46.0839 78.6324 0.0000 6.7343 0.0000
# 4 0.0000 0.0000 0.0000 60.1493 0.0000 17.7644
# 5 -3.5092 -0.5607 6.7343 0.0000 36.3632 0.0000
# 6 0.0000 0.0000 0.0000 17.7644 0.0000 32.3037
#
#
#
# Elastic Compliance Matrix: (Units=1/GPa)
#
#
# Indices 1 2 3 4 5 6 
#
# 1 0.017054 -0.003813 -0.006859 0.000000 0.002857 0.000000
# 2 -0.003813 0.009495 -0.003625 0.000000 0.000450 0.000000
# 3 -0.006859 -0.003625 0.018760 0.000000 -0.004192 0.000000
# 4 0.000000 0.000000 0.000000 0.019849 0.000000 -0.010915
# 5 0.002857 0.000450 -0.004192 0.000000 0.028559 0.000000
# 6 0.000000 0.000000 0.000000 -0.010915 0.000000 0.036959
#
#
# Mechanical properties :
#
#
# Convention : Reuss Voigt Hill
#
# Bulk Modulus (GPa) = 59.82568 64.88670 62.35619
# Shear Modulus (GPa) = 30.33235 37.18548 33.75891
#
# Velocity S-wave (km/s) = 3.94381 4.36667 4.16062
# Velocity P-wave (km/s) = 7.17045 7.66133 7.41995
#
# Compressibility (1/GPa) = 0.01671523
#
# Stress axis : x y z
#
# Youngs Moduli (GPa) = 58.63738 105.32306 53.30526
#
# Poissons Ratio (x) = 0.40157 0.36563
# Poissons Ratio (y) = 0.22357 0.19321
# Poissons Ratio (z) = 0.40221 0.38176
#
# Static dielectric constant tensor:
#      x y z
#    x 3.390100 0.000000 0.440730 
#    y 0.000000 3.523360 0.000000 
#    z 0.440730 0.000000 3.249320 
# 
# 
# High freq. dielectric constant tensor:
#      x y z
#    x 1.763670 0.000000 0.011470 
#    y 0.000000 1.763600 0.000000 
#    z 0.011470 0.000000 1.756130 
# 
# From -- ./inp_files/13084.got.cif
#   From: 2010.03.12/outbox.cif.g09.slc.cpg/sg5_7_cif.got.tgz:13084.got - 2010.03.31 09:47:26.
