data_PCOD8051818
_publ_section_title
;
Structure prediction by ZEFSAII (Michael W. Deem and Ramdas Pophale) SiO2 
 PCOD8051818
Probable space group: C 2
;
_chemical_formula_sum "Si O2"
_cell_formula_units_Z 22
_cell_length_a 21.499636
_cell_length_b 8.027399
_cell_length_c 9.811793
_cell_angle_alpha 90.000000
_cell_angle_beta 144.069698
_cell_angle_gamma 90.000000
_cell_volume 993.676328
_symmetry_space_group_name_H-M "C 2"
_symmetry_group_IT_number 5
_symmetry_cell_setting 'monoclinic'
loop_
_space_group_symop_operation_xyz
x,y,z
-x,y,-z
1/2+x,1/2+y,z
1/2-x,1/2+y,-z
loop_
_atom_site_type_symbol
_atom_site_label
_atom_site_fract_x
_atom_site_fract_y
_atom_site_fract_z
Si Si1 0.156330 0.528470 0.464224
Si Si2 0.719914 0.458409 0.788132
Si Si3 0.224531 0.834753 0.092681
Si Si4 0.327907 0.775615 0.740317
Si Si5 0.523865 0.315815 0.297105
Si Si6 0.000000 0.024304 0.000000
O O1 0.224892 0.464273 0.712646
O O2 0.222697 0.675789 0.507777
O O3 0.129367 0.385105 0.309581
O O4 0.048570 0.617406 0.325313
O O5 0.723071 0.656978 0.785839
O O6 0.804519 0.386167 0.830907
O O7 0.600151 0.395977 0.546943
O O8 0.756988 0.395200 0.000815
O O9 0.097937 0.833497 0.880234
O O10 0.415990 0.638588 0.930277
O O11 0.553646 0.408734 0.209056
#
# Coordination Sequence:
#
# PCOD8051818 Si02
#       6
#     4   4   4   4   4   2
#     4  11  23  44  70 100 140 172 232 274 340 394
#     4  11  26  45  70  98 140 176 230 273 341 397
#     4  12  25  48  70  97 138 185 216 285 336 403
#     4  11  23  41  68 103 135 179 222 283 328 406
#     4  11  26  44  70 102 133 181 224 281 330 408
#     4  12  24  40  70 102 140 174 228 276 346 384
#
# _framework density 22.140006
#
# number of rings (size 3 to 8) (size 9 to 14) (size 15 to 20)
#    0.000    0.727    1.818    7.091    5.091    0.000 
#    0.000    0.000    0.000    0.000    0.000    0.000 
#    0.000    0.000    0.000    0.000    0.000    0.000 
#
# Total GULP energy -136437.355300 kJ/mol
# GULP energy per Si atom -12403.395936 kJ/mol
# Density = 2.208961 g / cm^3
# Si number density = 22.140006 Si / 1000 Ang^3
#
#
#
# Elastic Constant Matrix: (Units=GPa)
#
#
# Indices 1 2 3 4 5 6 
#
# 1 78.8974 26.8647 51.9275 0.0000 -13.7828 0.0000
# 2 26.8647 117.7788 49.4272 0.0000 -8.2724 0.0000
# 3 51.9275 49.4272 95.1379 0.0000 -10.7357 0.0000
# 4 0.0000 0.0000 0.0000 43.7155 0.0000 -0.5975
# 5 -13.7828 -8.2724 -10.7357 0.0000 33.9097 0.0000
# 6 0.0000 0.0000 0.0000 -0.5975 0.0000 36.2021
#
#
#
# Elastic Compliance Matrix: (Units=1/GPa)
#
#
# Indices 1 2 3 4 5 6 
#
# 1 0.020564 0.000172 -0.010749 0.000000 0.004997 0.000000
# 2 0.000172 0.010885 -0.005643 0.000000 0.000939 0.000000
# 3 -0.010749 -0.005643 0.019353 0.000000 0.000381 0.000000
# 4 0.000000 0.000000 0.000000 0.022880 0.000000 0.000378
# 5 0.004997 0.000939 0.000381 0.000000 0.031871 0.000000
# 6 0.000000 0.000000 0.000000 0.000378 0.000000 0.027629
#
#
# Mechanical properties :
#
#
# Convention : Reuss Voigt Hill
#
# Bulk Modulus (GPa) = 54.46403 60.91699 57.69051
# Shear Modulus (GPa) = 29.11297 33.67177 31.39237
#
# Velocity S-wave (km/s) = 3.63016 3.90405 3.76959
# Velocity P-wave (km/s) = 6.49800 6.92071 6.71268
#
# Compressibility (1/GPa) = 0.01836074
#
# Stress axis : x y z
#
# Youngs Moduli (GPa) = 48.62843 91.86567 51.67170
#
# Poissons Ratio (x) = -0.01576 0.55544
# Poissons Ratio (y) = -0.00834 0.29158
# Poissons Ratio (z) = 0.52272 0.51840
#
# Static dielectric constant tensor:
#      x y z
#    x 3.991450 0.000000 0.006440 
#    y 0.000000 4.248440 0.000000 
#    z 0.006440 0.000000 3.865220 
# 
# 
# High freq. dielectric constant tensor:
#      x y z
#    x 1.866760 0.000000 -0.001480 
#    y 0.000000 1.892250 0.000000 
#    z -0.001480 0.000000 1.869410 
# 
# From -- ./inp_files/22653.got.cif
#   From: 2010.03.12/outbox.cif.g09.slc.cpg/sg5_12_cif.got.tgz:22653.got - 2010.03.31 09:47:26.
