data_PCOD8051889
_publ_section_title
;
Structure prediction by ZEFSAII (Michael W. Deem and Ramdas Pophale) SiO2 
 PCOD8051889
Probable space group: C 2
;
_chemical_formula_sum "Si O2"
_cell_formula_units_Z 32
_cell_length_a 15.375044
_cell_length_b 11.440125
_cell_length_c 8.703905
_cell_angle_alpha 90.000000
_cell_angle_beta 66.896732
_cell_angle_gamma 90.000000
_cell_volume 1408.167342
_symmetry_space_group_name_H-M "C 2"
_symmetry_group_IT_number 5
_symmetry_cell_setting 'monoclinic'
loop_
_space_group_symop_operation_xyz
x,y,z
-x,y,-z
1/2+x,1/2+y,z
1/2-x,1/2+y,-z
loop_
_atom_site_type_symbol
_atom_site_label
_atom_site_fract_x
_atom_site_fract_y
_atom_site_fract_z
Si Si1 0.041623 0.398050 0.301044
Si Si2 0.563499 0.107115 0.089840
Si Si3 0.773633 0.631185 0.223904
Si Si4 0.763038 0.900998 0.185720
Si Si5 0.969241 0.154050 0.344205
Si Si6 0.879438 0.989486 0.814461
Si Si7 0.600042 0.253249 0.351357
Si Si8 0.743437 0.605459 0.578365
O O1 0.007424 0.503099 0.214620
O O2 0.154127 0.406417 0.216953
O O3 0.000000 0.419404 0.500000
O O4 0.007883 0.276823 0.251571
O O5 0.593857 0.208754 0.182622
O O6 0.500000 0.163949 0.000000
O O7 0.657662 0.061888 0.939411
O O8 0.792135 0.770332 0.211406
O O9 0.670112 0.600606 0.232746
O O10 0.793697 0.582462 0.380671
O O11 0.776347 0.983972 0.323470
O O12 0.829630 0.946729 0.003286
O O13 0.857437 0.163088 0.392783
O O14 0.000000 0.144538 0.500000
O O15 0.015881 0.042803 0.222262
O O16 0.882284 0.891100 0.679091
O O17 0.500000 0.225825 0.500000
O O18 0.689210 0.192479 0.371875
#
# Coordination Sequence:
#
# PCOD8051889 Si02
#       8
#     4   4   4   4   4   4   4   4
#     4  11  23  45  74 103 148 194 254 319 381 454
#     4  12  26  45  70 106 147 198 250 316 385 458
#     4  12  25  47  73 109 150 197 255 314 389 456
#     4  12  26  49  75 106 151 198 254 324 387 456
#     4  11  24  49  73 111 150 200 254 316 380 463
#     4  12  25  48  77 105 155 201 254 319 389 464
#     4  12  27  49  76 113 155 199 259 320 390 470
#     4  12  28  47  80 111 150 203 261 314 394 460
#
# _framework density 22.724571999999998
#
# number of rings (size 3 to 8) (size 9 to 14) (size 15 to 20)
#    0.000    0.250    6.250    2.250    3.500    2.500 
#    2.250    0.000    0.000    0.000    0.000    0.000 
#    0.000    0.000    0.000    0.000    0.000    0.000 
#
# Total GULP energy -198366.028622 kJ/mol
# GULP energy per Si atom -12397.876789 kJ/mol
# Density = 2.267285 g / cm^3
# Si number density = 22.724572 Si / 1000 Ang^3
#
#
#
# Elastic Constant Matrix: (Units=GPa)
#
#
# Indices 1 2 3 4 5 6 
#
# 1 134.7418 37.0062 52.6665 0.0000 -1.7635 0.0000
# 2 37.0062 131.3979 53.0998 0.0000 1.3742 0.0000
# 3 52.6665 53.0998 141.4999 0.0000 -3.4147 0.0000
# 4 0.0000 0.0000 0.0000 32.2986 0.0000 -10.4797
# 5 -1.7635 1.3742 -3.4147 0.0000 38.2110 0.0000
# 6 0.0000 0.0000 0.0000 -10.4797 0.0000 19.9229
#
#
#
# Elastic Compliance Matrix: (Units=1/GPa)
#
#
# Indices 1 2 3 4 5 6 
#
# 1 0.008893 -0.001381 -0.002787 0.000000 0.000211 0.000000
# 2 -0.001381 0.009200 -0.002955 0.000000 -0.000659 0.000000
# 3 -0.002787 -0.002955 0.009232 0.000000 0.000803 0.000000
# 4 0.000000 0.000000 0.000000 0.037333 0.000000 0.019637
# 5 0.000211 -0.000659 0.000803 0.000000 0.026276 0.000000
# 6 0.000000 0.000000 0.000000 0.019637 0.000000 0.060523
#
#
# Mechanical properties :
#
#
# Convention : Reuss Voigt Hill
#
# Bulk Modulus (GPa) = 76.44247 77.02053 76.73150
# Shear Modulus (GPa) = 29.40121 35.74429 32.57275
#
# Velocity S-wave (km/s) = 3.60086 3.97033 3.79010
# Velocity P-wave (km/s) = 7.14142 7.41516 7.27958
#
# Compressibility (1/GPa) = 0.01308173
#
# Stress axis : x y z
#
# Youngs Moduli (GPa) = 112.45073 108.69403 108.31333
#
# Poissons Ratio (x) = 0.15006 0.30184
# Poissons Ratio (y) = 0.15524 0.32001
# Poissons Ratio (z) = 0.31337 0.32114
#
# Static dielectric constant tensor:
#      x y z
#    x 4.193160 0.000000 -0.245690 
#    y 0.000000 4.207530 0.000000 
#    z -0.245690 0.000000 4.269460 
# 
# 
# High freq. dielectric constant tensor:
#      x y z
#    x 1.898020 0.000000 -0.016130 
#    y 0.000000 1.900180 0.000000 
#    z -0.016130 0.000000 1.909640 
# 
# From -- ./inp_files/23845.got.cif
#   From: 2010.03.12/outbox.cif.g09.slc.cpg/sg5_12_cif.got.tgz:23845.got - 2010.03.31 09:47:26.
