data_PCOD8051215
_publ_section_title
;
Structure prediction by ZEFSAII (Michael W. Deem and Ramdas Pophale) SiO2 
 PCOD8051215
Probable space group: C 2
;
_chemical_formula_sum "Si O2"
_cell_formula_units_Z 22
_cell_length_a 23.352753
_cell_length_b 7.993669
_cell_length_c 14.304695
_cell_angle_alpha 90.000000
_cell_angle_beta 20.456515
_cell_angle_gamma 90.000000
_cell_volume 933.266206
_symmetry_space_group_name_H-M "C 2"
_symmetry_group_IT_number 5
_symmetry_cell_setting 'monoclinic'
loop_
_space_group_symop_operation_xyz
x,y,z
-x,y,-z
1/2+x,1/2+y,z
1/2-x,1/2+y,-z
loop_
_atom_site_type_symbol
_atom_site_label
_atom_site_fract_x
_atom_site_fract_y
_atom_site_fract_z
Si Si1 0.559743 0.645030 0.306066
Si Si2 0.726582 0.816101 0.509467
Si Si3 0.240220 0.577860 0.706095
Si Si4 0.500000 0.809418 0.000000
Si Si5 0.570956 0.038638 0.290816
Si Si6 0.461323 0.143433 0.265371
O O1 0.500000 0.595235 0.500000
O O2 0.432502 0.551633 0.432009
O O3 0.546697 0.843052 0.309831
O O4 0.737714 0.579352 0.007202
O O5 0.781112 0.733868 0.330288
O O6 0.883270 0.813436 0.341641
O O7 0.660341 0.001998 0.591398
O O8 0.573977 0.713552 0.796528
O O9 0.160150 0.416253 0.782977
O O10 0.147137 0.622655 0.945119
O O11 0.500000 0.094163 0.500000
O O12 0.469862 0.138453 0.365189
#
# Coordination Sequence:
#
# PCOD8051215 Si02
#       6
#     4   4   4   2   4   4
#     4  11  24  44  69  96 136 183 226 283 342 402
#     4  11  21  42  66  97 134 173 216 289 332 398
#     4  11  20  42  70  92 133 181 222 274 345 407
#     4  10  24  40  62 104 134 172 230 268 348 410
#     4  11  26  46  67 105 137 179 237 284 336 411
#     4  11  23  44  69  99 139 175 234 276 344 411
#
# _framework density 23.573122000000001
#
# number of rings (size 3 to 8) (size 9 to 14) (size 15 to 20)
#    0.000    1.091    7.273    0.000    0.000    3.636 
#    3.273    0.000    0.000    0.000    0.000    0.000 
#    0.000    0.000    0.000    0.000    0.000    0.000 
#
# Total GULP energy -136282.232304 kJ/mol
# GULP energy per Si atom -12389.293846 kJ/mol
# Density = 2.351947 g / cm^3
# Si number density = 23.573122 Si / 1000 Ang^3
#
#
#
# Elastic Constant Matrix: (Units=GPa)
#
#
# Indices 1 2 3 4 5 6 
#
# 1 174.3339 31.1693 79.0427 0.0000 -11.4771 0.0000
# 2 31.1693 27.5705 28.8256 0.0000 -3.4326 0.0000
# 3 79.0427 28.8256 156.3459 0.0000 -5.2534 0.0000
# 4 0.0000 0.0000 0.0000 39.8682 0.0000 -0.5426
# 5 -11.4771 -3.4326 -5.2534 0.0000 59.6431 0.0000
# 6 0.0000 0.0000 0.0000 -0.5426 0.0000 7.2610
#
#
#
# Elastic Compliance Matrix: (Units=1/GPa)
#
#
# Indices 1 2 3 4 5 6 
#
# 1 0.008253 -0.006046 -0.003025 0.000000 0.000974 0.000000
# 2 -0.006046 0.049569 -0.006043 0.000000 0.001157 0.000000
# 3 -0.003025 -0.006043 0.009035 0.000000 -0.000134 0.000000
# 4 0.000000 0.000000 0.000000 0.025108 0.000000 0.001876
# 5 0.000974 0.001157 -0.000134 0.000000 0.017009 0.000000
# 6 0.000000 0.000000 0.000000 0.001876 0.000000 0.137863
#
#
# Mechanical properties :
#
#
# Convention : Reuss Voigt Hill
#
# Bulk Modulus (GPa) = 27.30184 70.70283 49.00233
# Shear Modulus (GPa) = 17.28468 35.96865 26.62667
#
# Velocity S-wave (km/s) = 2.71077 3.91043 3.36450
# Velocity P-wave (km/s) = 4.62651 7.10258 5.99380
#
# Compressibility (1/GPa) = 0.03662757
#
# Stress axis : x y z
#
# Youngs Moduli (GPa) = 121.17321 20.17406 110.68062
#
# Poissons Ratio (x) = 0.12198 0.33478
# Poissons Ratio (y) = 0.73263 0.66889
# Poissons Ratio (z) = 0.36652 0.12192
#
# Static dielectric constant tensor:
#      x y z
#    x 4.530550 0.000000 0.178550 
#    y 0.000000 3.846060 0.000000 
#    z 0.178550 0.000000 4.608300 
# 
# 
# High freq. dielectric constant tensor:
#      x y z
#    x 1.950440 0.000000 0.008970 
#    y 0.000000 1.897170 0.000000 
#    z 0.008970 0.000000 1.953320 
# 
# From -- ./inp_files/57570.got.cif
#   From: 2010.03.12/outbox.cif.g09.slc.cpg/sg5_29_cif.got.tgz:57570.got - 2010.03.31 09:47:26.
