data_PCOD8051006
_publ_section_title
;
Structure prediction by ZEFSAII (Michael W. Deem and Ramdas Pophale) SiO2 
 PCOD8051006
Probable space group: C 2
;
_chemical_formula_sum "Si O2"
_cell_formula_units_Z 20
_cell_length_a 11.159669
_cell_length_b 8.047488
_cell_length_c 11.638791
_cell_angle_alpha 90.000000
_cell_angle_beta 65.794196
_cell_angle_gamma 90.000000
_cell_volume 953.348704
_symmetry_space_group_name_H-M "C 2"
_symmetry_group_IT_number 5
_symmetry_cell_setting 'monoclinic'
loop_
_space_group_symop_operation_xyz
x,y,z
-x,y,-z
1/2+x,1/2+y,z
1/2-x,1/2+y,-z
loop_
_atom_site_type_symbol
_atom_site_label
_atom_site_fract_x
_atom_site_fract_y
_atom_site_fract_z
Si Si1 0.145083 0.115760 0.675063
Si Si2 0.852410 0.898446 0.533894
Si Si3 0.857477 0.645535 0.015265
Si Si4 0.648802 0.663411 0.274544
Si Si5 0.767294 0.970089 0.139847
O O1 0.251258 0.256660 0.606880
O O2 0.000420 0.174940 0.704630
O O3 0.171136 0.949529 0.589322
O O4 0.143791 0.083461 0.812877
O O5 0.000000 0.831065 0.500000
O O6 0.830852 0.068689 0.614152
O O7 0.742966 0.572476 0.143152
O O8 0.852103 0.848111 0.023172
O O9 0.830859 0.583748 0.896511
O O10 0.000000 0.581406 0.000000
O O11 0.687519 0.857920 0.264182
#
# Coordination Sequence:
#
# PCOD8051006 Si02
#       5
#     4   4   4   4   4
#     4  11  23  41  66  88 126 157 201 252 301 359
#     4  10  23  41  62  93 123 158 198 251 303 361
#     4  10  25  40  62  89 126 158 207 245 298 359
#     4   9  24  39  63  91 124 157 202 246 304 352
#     4  10  25  38  63  91 119 166 199 248 301 353
#
# _framework density 20.978684000000001
#
# number of rings (size 3 to 8) (size 9 to 14) (size 15 to 20)
#    1.200    0.800    0.000    1.200    8.400    3.200 
#    0.000    0.000    0.000    0.000    0.000    0.000 
#    0.000    0.000    0.000    0.000    0.000    0.000 
#
# Total GULP energy -123894.286779 kJ/mol
# GULP energy per Si atom -12389.428678 kJ/mol
# Density = 2.093094 g / cm^3
# Si number density = 20.978684 Si / 1000 Ang^3
#
#
#
# Elastic Constant Matrix: (Units=GPa)
#
#
# Indices 1 2 3 4 5 6 
#
# 1 113.1409 32.6518 42.4422 0.0000 3.9877 0.0000
# 2 32.6518 61.1122 16.4992 0.0000 2.8629 0.0000
# 3 42.4422 16.4992 67.7176 0.0000 11.3370 0.0000
# 4 0.0000 0.0000 0.0000 37.4408 0.0000 1.6938
# 5 3.9877 2.8629 11.3370 0.0000 48.3934 0.0000
# 6 0.0000 0.0000 0.0000 1.6938 0.0000 10.1967
#
#
#
# Elastic Compliance Matrix: (Units=1/GPa)
#
#
# Indices 1 2 3 4 5 6 
#
# 1 0.012885 -0.005037 -0.006995 0.000000 0.000875 0.000000
# 2 -0.005037 0.019485 -0.001527 0.000000 -0.000380 0.000000
# 3 -0.006995 -0.001527 0.020204 0.000000 -0.004066 0.000000
# 4 0.000000 0.000000 0.000000 0.026911 0.000000 -0.004470
# 5 0.000875 -0.000380 -0.004066 0.000000 0.021567 0.000000
# 6 0.000000 0.000000 0.000000 -0.004470 0.000000 0.098813
#
#
# Mechanical properties :
#
#
# Convention : Reuss Voigt Hill
#
# Bulk Modulus (GPa) = 39.28308 47.23969 43.26138
# Shear Modulus (GPa) = 21.23420 29.23135 25.23277
#
# Velocity S-wave (km/s) = 3.18493 3.73685 3.47188
# Velocity P-wave (km/s) = 5.68251 6.41760 6.06121
#
# Compressibility (1/GPa) = 0.02545626
#
# Stress axis : x y z
#
# Youngs Moduli (GPa) = 77.60698 51.32265 49.49451
#
# Poissons Ratio (x) = 0.25851 0.34622
# Poissons Ratio (y) = 0.39091 0.07557
# Poissons Ratio (z) = 0.54288 0.07836
#
# Static dielectric constant tensor:
#      x y z
#    x 3.708770 0.000000 0.037380 
#    y 0.000000 3.523040 0.000000 
#    z 0.037380 0.000000 3.760110 
# 
# 
# High freq. dielectric constant tensor:
#      x y z
#    x 1.830100 0.000000 0.007860 
#    y 0.000000 1.805180 0.000000 
#    z 0.007860 0.000000 1.817240 
# 
# From -- ./inp_files/18363.got.cif
#   From: 2010.03.12/outbox.cif.g09.slc.cpg/sg5_10_cif.got.tgz:18363.got - 2010.03.31 09:47:26.
