data_PCOD8051669
_publ_section_title
;
Structure prediction by ZEFSAII (Michael W. Deem and Ramdas Pophale) SiO2 
 PCOD8051669
Probable space group: C 2
;
_chemical_formula_sum "Si O2"
_cell_formula_units_Z 24
_cell_length_a 19.587281
_cell_length_b 9.502322
_cell_length_c 7.541028
_cell_angle_alpha 90.000000
_cell_angle_beta 123.404173
_cell_angle_gamma 90.000000
_cell_volume 1171.712146
_symmetry_space_group_name_H-M "C 2"
_symmetry_group_IT_number 5
_symmetry_cell_setting 'monoclinic'
loop_
_space_group_symop_operation_xyz
x,y,z
-x,y,-z
1/2+x,1/2+y,z
1/2-x,1/2+y,-z
loop_
_atom_site_type_symbol
_atom_site_label
_atom_site_fract_x
_atom_site_fract_y
_atom_site_fract_z
Si Si1 0.092089 0.420720 0.699081
Si Si2 0.231019 0.530106 0.647992
Si Si3 0.811763 0.147759 0.102580
Si Si4 0.368603 0.190743 0.056146
Si Si5 0.587914 0.409614 0.592028
Si Si6 0.839730 0.792901 0.647797
O O1 0.148647 0.471039 0.618274
O O2 0.121270 0.270527 0.815307
O O3 0.100864 0.530595 0.874732
O O4 0.000000 0.408460 0.500000
O O5 0.209103 0.658250 0.489890
O O6 0.272557 0.411108 0.590064
O O7 0.295853 0.584185 0.886131
O O8 0.842177 0.023153 0.272992
O O9 0.729366 0.208447 0.070180
O O10 0.409185 0.279050 0.270191
O O11 0.392498 0.249435 0.896771
O O12 0.500000 0.481771 0.500000
O O13 0.596471 0.350881 0.405468
#
# Coordination Sequence:
#
# PCOD8051669 Si02
#       6
#     4   4   4   4   4   4
#     4  11  23  43  68  99 139 173 214 276 340 380
#     4  11  25  41  71 101 125 182 226 267 325 399
#     4  11  21  45  67  95 135 177 222 264 323 404
#     4  11  22  43  69  95 129 175 225 262 324 397
#     4  12  25  43  67 100 134 171 216 281 335 379
#     4  12  24  43  72  97 133 172 232 267 325 402
#
# _framework density 20.482845000000001
#
# number of rings (size 3 to 8) (size 9 to 14) (size 15 to 20)
#    0.000    0.667    6.667    3.000    2.333    0.667 
#    0.000    0.000    0.000    0.000    0.000    0.000 
#    0.000    0.000    0.000    0.000    0.000    0.000 
#
# Total GULP energy -148856.358582 kJ/mol
# GULP energy per Si atom -12404.696549 kJ/mol
# Density = 2.043623 g / cm^3
# Si number density = 20.482845 Si / 1000 Ang^3
#
#
#
# Elastic Constant Matrix: (Units=GPa)
#
#
# Indices 1 2 3 4 5 6 
#
# 1 97.3748 36.8426 62.8871 0.0000 -5.9904 0.0000
# 2 36.8426 104.7092 30.6079 0.0000 -2.8754 0.0000
# 3 62.8871 30.6079 96.2894 0.0000 -2.5288 0.0000
# 4 0.0000 0.0000 0.0000 35.1718 0.0000 -7.4895
# 5 -5.9904 -2.8754 -2.5288 0.0000 44.6028 0.0000
# 6 0.0000 0.0000 0.0000 -7.4895 0.0000 27.2339
#
#
#
# Elastic Compliance Matrix: (Units=1/GPa)
#
#
# Indices 1 2 3 4 5 6 
#
# 1 0.018883 -0.003314 -0.011235 0.000000 0.001685 0.000000
# 2 -0.003314 0.011121 -0.001366 0.000000 0.000194 0.000000
# 3 -0.011235 -0.001366 0.018142 0.000000 -0.000568 0.000000
# 4 0.000000 0.000000 0.000000 0.030200 0.000000 0.008305
# 5 0.001685 0.000194 -0.000568 0.000000 0.022627 0.000000
# 6 0.000000 0.000000 0.000000 0.008305 0.000000 0.039003
#
#
# Mechanical properties :
#
#
# Convention : Reuss Voigt Hill
#
# Bulk Modulus (GPa) = 61.28514 62.11651 61.70083
# Shear Modulus (GPa) = 28.20982 32.60410 30.40696
#
# Velocity S-wave (km/s) = 3.71515 3.99403 3.85711
# Velocity P-wave (km/s) = 6.95617 7.18761 7.07283
#
# Compressibility (1/GPa) = 0.01631717
#
# Stress axis : x y z
#
# Youngs Moduli (GPa) = 52.95830 89.92200 55.12038
#
# Poissons Ratio (x) = 0.29797 0.61927
# Poissons Ratio (y) = 0.17549 0.07528
# Poissons Ratio (z) = 0.59498 0.12281
#
# Static dielectric constant tensor:
#      x y z
#    x 3.637880 0.000000 -0.072480 
#    y 0.000000 3.887890 0.000000 
#    z -0.072480 0.000000 3.763300 
# 
# 
# High freq. dielectric constant tensor:
#      x y z
#    x 1.785620 0.000000 -0.002050 
#    y 0.000000 1.818770 0.000000 
#    z -0.002050 0.000000 1.805120 
# 
# From -- ./inp_files/28989.got.cif
#   From: 2010.03.12/outbox.cif.g09.slc.cpg/sg5_15_cif.got.tgz:28989.got - 2010.03.31 09:47:26.
