data_PCOD8051297
_publ_section_title
;
Structure prediction by ZEFSAII (Michael W. Deem and Ramdas Pophale) SiO2 
 PCOD8051297
Probable space group: C 2
;
_chemical_formula_sum "Si O2"
_cell_formula_units_Z 22
_cell_length_a 16.102039
_cell_length_b 7.455505
_cell_length_c 11.986534
_cell_angle_alpha 90.000000
_cell_angle_beta 47.309288
_cell_angle_gamma 90.000000
_cell_volume 1057.677799
_symmetry_space_group_name_H-M "C 2"
_symmetry_group_IT_number 5
_symmetry_cell_setting 'monoclinic'
loop_
_space_group_symop_operation_xyz
x,y,z
-x,y,-z
1/2+x,1/2+y,z
1/2-x,1/2+y,-z
loop_
_atom_site_type_symbol
_atom_site_label
_atom_site_fract_x
_atom_site_fract_y
_atom_site_fract_z
Si Si1 0.873778 0.303450 0.108830
Si Si2 0.570536 0.330326 0.208905
Si Si3 0.000000 0.995402 0.500000
Si Si4 0.904396 0.919692 0.175600
Si Si5 0.272441 0.641476 0.983417
Si Si6 0.726060 0.644740 0.271910
O O1 0.840724 0.260152 0.011487
O O2 0.791889 0.457146 0.228141
O O3 0.869275 0.127257 0.192656
O O4 0.000000 0.382236 0.000000
O O5 0.546977 0.368915 0.359135
O O6 0.455132 0.369832 0.250001
O O7 0.635389 0.137904 0.136572
O O8 0.673819 0.444044 0.058312
O O9 0.895642 0.121087 0.556978
O O10 0.791506 0.804385 0.271822
O O11 0.000000 0.862152 0.000000
O O12 0.294485 0.704496 0.836715
#
# Coordination Sequence:
#
# PCOD8051297 Si02
#       6
#     4   4   2   4   4   4
#     4  11  21  35  62  99 124 154 211 274 307 356
#     4  11  22  40  65  92 129 162 213 265 312 373
#     4  10  24  44  60  88 136 172 196 260 330 380
#     4  11  21  39  64  98 124 157 218 270 299 372
#     4  11  18  36  64  88 120 165 209 255 303 369
#     4  11  23  40  64  89 129 171 207 253 327 371
#
# _framework density 20.800284000000001
#
# number of rings (size 3 to 8) (size 9 to 14) (size 15 to 20)
#    0.000    1.091    9.091    0.545    0.000    0.000 
#    3.273    0.909    4.000    0.000    0.000    0.000 
#    0.000    0.000    0.000    0.000    0.000    0.000 
#
# Total GULP energy -136296.597522 kJ/mol
# GULP energy per Si atom -12390.599775 kJ/mol
# Density = 2.075294 g / cm^3
# Si number density = 20.800284 Si / 1000 Ang^3
#
#
#
# Elastic Constant Matrix: (Units=GPa)
#
#
# Indices 1 2 3 4 5 6 
#
# 1 124.2593 30.9439 11.5143 0.0000 -25.5369 0.0000
# 2 30.9439 70.4332 32.3388 0.0000 -21.7528 -0.0001
# 3 11.5143 32.3388 83.9305 0.0000 -31.3669 0.0000
# 4 0.0000 0.0000 0.0000 25.3160 0.0000 -14.0394
# 5 -25.5369 -21.7528 -31.3669 0.0000 33.2783 0.0000
# 6 0.0000 -0.0001 0.0000 -14.0394 0.0000 38.1830
#
#
#
# Elastic Compliance Matrix: (Units=1/GPa)
#
#
# Indices 1 2 3 4 5 6 
#
# 1 0.010375 -0.003285 0.003111 0.000000 0.008747 0.000000
# 2 -0.003285 0.019684 -0.005044 0.000000 0.005591 0.000000
# 3 0.003111 -0.005044 0.020211 0.000000 0.018140 0.000000
# 4 0.000000 0.000000 0.000000 0.049618 0.000000 0.018244
# 5 0.008747 0.005591 0.018140 0.000000 0.057515 0.000000
# 6 0.000000 0.000000 0.000000 0.018244 0.000000 0.032898
#
#
# Mechanical properties :
#
#
# Convention : Reuss Voigt Hill
#
# Bulk Modulus (GPa) = 25.10423 47.57967 36.34195
# Shear Modulus (GPa) = 23.36285 32.94385 28.15335
#
# Velocity S-wave (km/s) = 3.35505 3.98404 3.68300
# Velocity P-wave (km/s) = 5.20614 6.63985 5.96622
#
# Compressibility (1/GPa) = 0.03983393
#
# Stress axis : x y z
#
# Youngs Moduli (GPa) = 96.38472 50.80276 49.47852
#
# Poissons Ratio (x) = 0.16691 -0.15395
# Poissons Ratio (y) = 0.31666 0.24957
# Poissons Ratio (z) = -0.29989 0.25625
#
# Static dielectric constant tensor:
#      x y z
#    x 4.219270 0.000000 -0.249500 
#    y 0.000000 3.972520 0.000000 
#    z -0.249500 0.000000 3.452100 
# 
# 
# High freq. dielectric constant tensor:
#      x y z
#    x 1.841780 0.000000 -0.011430 
#    y 0.000000 1.803050 0.000000 
#    z -0.011430 0.000000 1.773660 
# 
# From -- ./inp_files/41416.got.cif
#   From: 2010.03.12/outbox.cif.g09.slc.cpg/sg5_21_cif.got.tgz:41416.got - 2010.03.31 09:47:26.
