data_PCOD8051052
_publ_section_title
;
Structure prediction by ZEFSAII (Michael W. Deem and Ramdas Pophale) SiO2 
 PCOD8051052
Probable space group: C 2
;
_chemical_formula_sum "Si O2"
_cell_formula_units_Z 26
_cell_length_a 5.426128
_cell_length_b 22.748360
_cell_length_c 9.145117
_cell_angle_alpha 90.000000
_cell_angle_beta 94.241516
_cell_angle_gamma 90.000000
_cell_volume 1125.740505
_symmetry_space_group_name_H-M "C 2"
_symmetry_group_IT_number 5
_symmetry_cell_setting 'monoclinic'
loop_
_space_group_symop_operation_xyz
x,y,z
-x,y,-z
1/2+x,1/2+y,z
1/2-x,1/2+y,-z
loop_
_atom_site_type_symbol
_atom_site_label
_atom_site_fract_x
_atom_site_fract_y
_atom_site_fract_z
Si Si1 0.012893 0.206700 0.747052
Si Si2 0.500000 0.043046 0.500000
Si Si3 0.000000 0.544888 0.000000
Si Si4 0.500000 0.783940 0.000000
Si Si5 0.202579 0.986486 0.735128
Si Si6 0.682188 0.583250 0.233751
Si Si7 0.601331 0.364056 0.850455
Si Si8 0.474743 0.262012 0.659289
O O1 0.012278 0.136237 0.763759
O O2 0.728355 0.226901 0.709254
O O3 0.227740 0.220823 0.638436
O O4 0.132647 0.238601 0.894610
O O5 0.374579 0.086633 0.376723
O O6 0.308279 0.001217 0.578896
O O7 0.890735 0.502564 0.871989
O O8 0.194473 0.586288 0.922512
O O9 0.658054 0.826268 0.108017
O O10 0.152727 0.917104 0.741936
O O11 0.950288 0.020823 0.753013
O O12 0.418951 0.317418 0.764147
O O13 0.500000 0.388591 0.000000
O O14 0.500000 0.289120 0.500000
#
# Coordination Sequence:
#
# PCOD8051052 Si02
#       8
#     4   2   2   2   4   4   4   4
#     4  11  26  44  75 100 150 184 244 293 365 432
#     4  10  26  46  62 108 146 190 248 288 382 436
#     4  10  23  42  66 114 138 179 244 298 368 438
#     4  10  23  44  68 102 136 187 236 300 354 430
#     4  11  24  44  70 105 140 192 235 303 368 446
#     4  11  25  43  72 102 145 189 241 303 369 437
#     4  11  22  45  72  96 141 180 244 302 365 428
#     4  11  26  46  68 106 138 192 240 299 359 434
#
# _framework density 23.095908000000001
#
# number of rings (size 3 to 8) (size 9 to 14) (size 15 to 20)
#    0.000    1.231    1.538    2.769    7.538    3.692 
#    5.538    0.000    0.000    0.000    0.000    0.000 
#    0.000    0.000    0.000    0.000    0.000    0.000 
#
# Total GULP energy -161119.916079 kJ/mol
# GULP energy per Si atom -12393.839698 kJ/mol
# Density = 2.304334 g / cm^3
# Si number density = 23.095908 Si / 1000 Ang^3
#
#
#
# Elastic Constant Matrix: (Units=GPa)
#
#
# Indices 1 2 3 4 5 6 
#
# 1 110.5848 44.6600 25.2676 0.0000 -19.7625 0.0000
# 2 44.6600 146.5920 46.0524 0.0000 -6.8871 0.0000
# 3 25.2676 46.0524 107.3692 0.0000 -33.2088 0.0000
# 4 0.0000 0.0000 0.0000 12.5154 0.0000 -32.5975
# 5 -19.7625 -6.8871 -33.2088 0.0000 36.7600 0.0000
# 6 0.0000 0.0000 0.0000 -32.5975 0.0000 -9.8586
#
#
#
# Elastic Compliance Matrix: (Units=1/GPa)
#
#
# Indices 1 2 3 4 5 6 
#
# 1 0.011338 -0.003374 0.000651 0.000000 0.006051 0.000000
# 2 -0.003374 0.009017 -0.004319 0.000000 -0.004026 0.000000
# 3 0.000651 -0.004319 0.015086 0.000000 0.013169 0.000000
# 4 0.000000 0.000000 0.000000 0.008313 0.000000 -0.027486
# 5 0.006051 -0.004026 0.013169 0.000000 0.041600 0.000000
# 6 0.000000 0.000000 0.000000 -0.027486 0.000000 -0.010553
#
#
# Mechanical properties :
#
#
# Convention : Reuss Voigt Hill
#
# Bulk Modulus (GPa) = 46.82391 66.27843 56.55117
# Shear Modulus (GPa) = 52.08040 24.45443 38.26741
#
# Velocity S-wave (km/s) = 4.75380 3.25748 4.07491
# Velocity P-wave (km/s) = 7.10275 6.55039 6.83216
#
# Compressibility (1/GPa) = 0.02135661
#
# Stress axis : x y z
#
# Youngs Moduli (GPa) = 88.19642 110.89780 66.28554
#
# Poissons Ratio (x) = 0.37421 -0.04313
# Poissons Ratio (y) = 0.29761 0.28628
# Poissons Ratio (z) = -0.05738 0.47896
#
# Static dielectric constant tensor:
#      x y z
#    x 6.704940 0.000000 0.076290 
#    y 0.000000 3.907760 0.000000 
#    z 0.076290 0.000000 4.521810 
# 
# 
# High freq. dielectric constant tensor:
#      x y z
#    x 1.908990 0.000000 -0.004200 
#    y 0.000000 1.903210 0.000000 
#    z -0.004200 0.000000 1.926140 
# 
# From -- ./inp_files/12877.got.cif
#   From: 2010.03.12/outbox.cif.g09.slc.cpg/sg5_7_cif.got.tgz:12877.got - 2010.03.31 09:47:26.
