data_PCOD8051292
_publ_section_title
;
Structure prediction by ZEFSAII (Michael W. Deem and Ramdas Pophale) SiO2 
 PCOD8051292
Probable space group: C 2
;
_chemical_formula_sum "Si O2"
_cell_formula_units_Z 28
_cell_length_a 21.192365
_cell_length_b 11.119896
_cell_length_c 11.620488
_cell_angle_alpha 90.000000
_cell_angle_beta 152.227962
_cell_angle_gamma 90.000000
_cell_volume 1275.993274
_symmetry_space_group_name_H-M "C 2"
_symmetry_group_IT_number 5
_symmetry_cell_setting 'monoclinic'
loop_
_space_group_symop_operation_xyz
x,y,z
-x,y,-z
1/2+x,1/2+y,z
1/2-x,1/2+y,-z
loop_
_atom_site_type_symbol
_atom_site_label
_atom_site_fract_x
_atom_site_fract_y
_atom_site_fract_z
Si Si1 0.719732 0.306600 0.116365
Si Si2 0.503301 0.146553 0.138950
Si Si3 0.671696 0.582593 0.073312
Si Si4 0.661672 0.285904 0.762037
Si Si5 0.194287 0.208825 0.328293
Si Si6 0.889583 0.156107 0.558004
Si Si7 0.198537 0.445515 0.191422
O O1 0.719226 0.447187 0.140169
O O2 0.847741 0.247266 0.388490
O O3 0.580726 0.251103 0.936129
O O4 0.727729 0.281287 0.994173
O O5 0.653403 0.160099 0.426605
O O6 0.500000 0.174212 0.000000
O O7 0.442331 0.013479 0.067971
O O8 0.799210 0.664299 0.241750
O O9 0.624128 0.614284 0.127224
O O10 0.543479 0.613635 0.784649
O O11 0.500000 0.301068 0.500000
O O12 0.730413 0.399592 0.810026
O O13 0.125775 0.218171 0.342084
O O14 0.175364 0.341367 0.245964
O O15 0.793618 0.041219 0.407308
#
# Coordination Sequence:
#
# PCOD8051292 Si02
#       7
#     4   4   4   4   4   4   4
#     4  11  25  43  73 101 136 189 236 296 356 426
#     4  11  22  44  71 104 137 185 238 284 362 429
#     4  11  26  43  67 103 141 187 237 296 355 431
#     4  11  25  49  68  96 141 189 245 297 362 428
#     4  11  23  43  67 104 145 180 235 293 359 430
#     4  11  24  44  67 107 140 183 237 292 365 423
#     4  10  24  43  72  98 141 192 228 299 356 423
#
# _framework density 21.943688999999999
#
# number of rings (size 3 to 8) (size 9 to 14) (size 15 to 20)
#    0.000    1.143    2.857    3.857    6.000    6.286 
#    2.571    0.000    0.000    0.000    0.000    0.000 
#    0.000    0.000    0.000    0.000    0.000    0.000 
#
# Total GULP energy -173605.185044 kJ/mol
# GULP energy per Si atom -12400.370360 kJ/mol
# Density = 2.189374 g / cm^3
# Si number density = 21.943689 Si / 1000 Ang^3
#
#
#
# Elastic Constant Matrix: (Units=GPa)
#
#
# Indices 1 2 3 4 5 6 
#
# 1 94.6524 21.1009 -11.1521 0.0000 -25.2835 0.0000
# 2 21.1009 128.4501 18.9951 0.0000 -5.4879 0.0000
# 3 -11.1521 18.9951 80.3048 0.0000 -2.3813 0.0000
# 4 0.0000 0.0000 0.0000 17.0152 0.0000 6.1386
# 5 -25.2835 -5.4879 -2.3813 0.0000 42.3868 0.0000
# 6 0.0000 0.0000 0.0000 6.1386 0.0000 33.6430
#
#
#
# Elastic Compliance Matrix: (Units=1/GPa)
#
#
# Indices 1 2 3 4 5 6 
#
# 1 0.013494 -0.002270 0.002645 0.000000 0.007904 0.000000
# 2 -0.002270 0.008487 -0.002334 0.000000 -0.000387 0.000000
# 3 0.002645 -0.002334 0.013432 0.000000 0.002030 0.000000
# 4 0.000000 0.000000 0.000000 0.062912 0.000000 -0.011479
# 5 0.007904 -0.000387 0.002030 0.000000 0.028371 0.000000
# 6 0.000000 0.000000 0.000000 -0.011479 0.000000 0.031818
#
#
# Mechanical properties :
#
#
# Convention : Reuss Voigt Hill
#
# Bulk Modulus (GPa) = 31.75122 40.14391 35.94756
# Shear Modulus (GPa) = 28.91325 36.90655 32.90990
#
# Velocity S-wave (km/s) = 3.63383 4.10552 3.87685
# Velocity P-wave (km/s) = 5.66631 6.38807 6.03799
#
# Compressibility (1/GPa) = 0.03149486
#
# Stress axis : x y z
#
# Youngs Moduli (GPa) = 74.10691 117.83113 74.44770
#
# Poissons Ratio (x) = 0.26750 -0.19694
# Poissons Ratio (y) = 0.16824 0.17377
# Poissons Ratio (z) = -0.19604 0.27504
#
# Static dielectric constant tensor:
#      x y z
#    x 4.131770 0.000000 -0.034750 
#    y 0.000000 3.976770 0.000000 
#    z -0.034750 0.000000 4.221930 
# 
# 
# High freq. dielectric constant tensor:
#      x y z
#    x 1.867270 0.000000 -0.004420 
#    y 0.000000 1.866280 0.000000 
#    z -0.004420 0.000000 1.874500 
# 
# From -- ./inp_files/46440.got.cif
#   From: 2010.03.12/outbox.cif.g09.slc.cpg/sg5_24_cif.got.tgz:46440.got - 2010.03.31 09:47:26.
