data_PCOD8051880
_publ_section_title
;
Structure prediction by ZEFSAII (Michael W. Deem and Ramdas Pophale) SiO2 
 PCOD8051880
Probable space group: C 2
;
_chemical_formula_sum "Si O2"
_cell_formula_units_Z 30
_cell_length_a 15.357276
_cell_length_b 10.524186
_cell_length_c 17.687770
_cell_angle_alpha 90.000000
_cell_angle_beta 29.296570
_cell_angle_gamma 90.000000
_cell_volume 1398.871578
_symmetry_space_group_name_H-M "C 2"
_symmetry_group_IT_number 5
_symmetry_cell_setting 'monoclinic'
loop_
_space_group_symop_operation_xyz
x,y,z
-x,y,-z
1/2+x,1/2+y,z
1/2-x,1/2+y,-z
loop_
_atom_site_type_symbol
_atom_site_label
_atom_site_fract_x
_atom_site_fract_y
_atom_site_fract_z
Si Si1 0.131917 0.645750 0.529337
Si Si2 0.179559 0.426510 0.398866
Si Si3 0.213731 0.025669 0.239698
Si Si4 0.000000 0.825331 0.500000
Si Si5 0.615715 0.978086 0.191550
Si Si6 0.437419 0.737483 0.401705
Si Si7 0.548671 0.074400 0.077731
Si Si8 0.968371 0.849124 0.940422
O O1 0.239680 0.521236 0.419943
O O2 0.110833 0.739783 0.474484
O O3 0.254009 0.706449 0.499933
O O4 0.948169 0.596013 0.707585
O O5 0.122837 0.289240 0.471798
O O6 0.341951 0.411154 0.220289
O O7 0.000000 0.490192 0.500000
O O8 0.345695 0.083296 0.202220
O O9 0.058958 0.118396 0.328894
O O10 0.127358 0.904715 0.347015
O O11 0.326028 0.998742 0.077445
O O12 0.540059 0.843099 0.275896
O O13 0.558560 0.999387 0.148509
O O14 0.828856 0.964370 0.036493
O O15 0.598444 0.223649 0.054539
O O16 0.000000 0.796661 0.000000
#
# Coordination Sequence:
#
# PCOD8051880 Si02
#       8
#     4   4   4   2   4   4   4   4
#     4  11  26  46  65 100 142 183 229 294 350 419
#     4  11  24  42  71  97 134 177 226 286 346 412
#     4  11  25  43  71 100 135 188 233 287 344 419
#     4  12  28  46  68  98 144 184 236 282 366 414
#     4  11  25  44  71 104 142 181 233 297 351 418
#     4  11  24  43  70 102 130 180 244 279 342 412
#     4  11  23  45  66 104 144 175 233 288 350 419
#     4  12  23  41  70 102 135 177 232 284 348 420
#
# _framework density 21.445857
#
# number of rings (size 3 to 8) (size 9 to 14) (size 15 to 20)
#    0.000    0.800    3.333    4.000   10.267    1.067 
#    0.000    2.667    0.000    0.000    0.000    0.000 
#    0.000    0.000    0.000    0.000    0.000    0.000 
#
# Total GULP energy -185897.177523 kJ/mol
# GULP energy per Si atom -12393.145168 kJ/mol
# Density = 2.139705 g / cm^3
# Si number density = 21.445857 Si / 1000 Ang^3
#
#
#
# Elastic Constant Matrix: (Units=GPa)
#
#
# Indices 1 2 3 4 5 6 
#
# 1 113.5446 43.3198 40.4290 0.0010 0.0188 -0.0006
# 2 43.3198 76.7250 46.0952 0.0015 1.2183 -0.0007
# 3 40.4290 46.0952 137.7444 0.0012 -1.3865 -0.0034
# 4 0.0010 0.0015 0.0012 25.0505 -0.0004 5.0301
# 5 0.0188 1.2183 -1.3865 -0.0004 36.9354 0.0008
# 6 -0.0006 -0.0007 -0.0034 5.0301 0.0008 33.3122
#
#
#
# Elastic Compliance Matrix: (Units=1/GPa)
#
#
# Indices 1 2 3 4 5 6 
#
# 1 0.011468 -0.005577 -0.001499 0.000000 0.000122 0.000000
# 2 -0.005577 0.019046 -0.004745 -0.000001 -0.000803 0.000000
# 3 -0.001499 -0.004745 0.009293 0.000000 0.000506 0.000001
# 4 0.000000 -0.000001 0.000000 0.041168 0.000001 -0.006216
# 5 0.000122 -0.000803 0.000506 0.000001 0.027120 -0.000001
# 6 0.000000 0.000000 0.000001 -0.006216 -0.000001 0.030958
#
#
# Mechanical properties :
#
#
# Convention : Reuss Voigt Hill
#
# Bulk Modulus (GPa) = 61.85706 65.30022 63.57864
# Shear Modulus (GPa) = 29.74766 32.27094 31.00930
#
# Velocity S-wave (km/s) = 3.72843 3.88334 3.80667
# Velocity P-wave (km/s) = 6.88773 7.11492 7.00225
#
# Compressibility (1/GPa) = 0.01616630
#
# Stress axis : x y z
#
# Youngs Moduli (GPa) = 87.19655 52.50556 107.61292
#
# Poissons Ratio (x) = 0.29281 0.16127
# Poissons Ratio (y) = 0.48627 0.51060
# Poissons Ratio (z) = 0.13067 0.24913
#
# Static dielectric constant tensor:
#      x y z
#    x 3.965360 0.000000 0.030230 
#    y 0.000000 3.850020 0.000000 
#    z 0.030230 0.000000 4.150000 
# 
# 
# High freq. dielectric constant tensor:
#      x y z
#    x 1.847990 0.000000 0.007030 
#    y 0.000000 1.835000 0.000000 
#    z 0.007030 0.000000 1.851600 
# 
# From -- ./inp_files/61640.got.cif
#   From: 2010.03.12/outbox.cif.g09.slc.cpg/sg5_31_cif.got.tgz:61640.got - 2010.03.31 09:47:26.
