data_PCOD8051674
_publ_section_title
;
Structure prediction by ZEFSAII (Michael W. Deem and Ramdas Pophale) SiO2 
 PCOD8051674
Probable space group: C 2
;
_chemical_formula_sum "Si O2"
_cell_formula_units_Z 22
_cell_length_a 19.012716
_cell_length_b 9.230857
_cell_length_c 5.608706
_cell_angle_alpha 90.000000
_cell_angle_beta 115.139694
_cell_angle_gamma 90.000000
_cell_volume 891.105744
_symmetry_space_group_name_H-M "C 2"
_symmetry_group_IT_number 5
_symmetry_cell_setting 'monoclinic'
loop_
_space_group_symop_operation_xyz
x,y,z
-x,y,-z
1/2+x,1/2+y,z
1/2-x,1/2+y,-z
loop_
_atom_site_type_symbol
_atom_site_label
_atom_site_fract_x
_atom_site_fract_y
_atom_site_fract_z
Si Si1 0.000000 0.744480 0.500000
Si Si2 0.712172 0.186792 0.434765
Si Si3 0.628445 0.005961 0.663801
Si Si4 0.894697 0.886673 0.009010
Si Si5 0.000000 0.107582 0.000000
Si Si6 0.734928 0.458547 0.795174
Si Si7 0.500000 0.773396 0.500000
O O1 0.078128 0.652513 0.591195
O O2 0.020801 0.844909 0.755604
O O3 0.685892 0.037921 0.528074
O O4 0.743237 0.312164 0.651136
O O5 0.779018 0.112027 0.365977
O O6 0.641595 0.250890 0.178839
O O7 0.574899 0.868959 0.548701
O O8 0.679906 0.978427 0.969759
O O9 0.834504 0.944918 0.118967
O O10 0.919412 0.014793 0.864404
O O11 0.010549 0.189824 0.763643
#
# Coordination Sequence:
#
# PCOD8051674 Si02
#       7
#     2   4   4   4   2   4   2
#     4  11  21  52  82 116 155 215 278 346 419 499
#     4  12  26  49  84 117 161 223 271 353 418 509
#     4  11  26  51  79 113 164 208 282 345 424 495
#     4  12  27  51  81 116 165 215 284 345 422 505
#     4  12  30  52  78 120 164 220 278 352 430 504
#     4  12  27  51  76 126 159 222 277 348 417 506
#     4  11  31  52  80 122 165 223 278 362 423 515
#
# _framework density 24.688428999999999
#
# number of rings (size 3 to 8) (size 9 to 14) (size 15 to 20)
#    0.000    0.364    3.636    2.727    5.091    5.818 
#    3.273    0.000    0.000    0.000    0.000    0.000 
#    0.000    0.000    0.000    0.000    0.000    0.000 
#
# Total GULP energy -136279.401903 kJ/mol
# GULP energy per Si atom -12389.036537 kJ/mol
# Density = 2.463224 g / cm^3
# Si number density = 24.688429 Si / 1000 Ang^3
#
#
#
# Elastic Constant Matrix: (Units=GPa)
#
#
# Indices 1 2 3 4 5 6 
#
# 1 83.3434 75.2336 56.6360 0.0000 9.4750 0.0000
# 2 75.2336 144.3689 61.8309 0.0000 -16.2369 0.0000
# 3 56.6360 61.8309 144.9593 0.0000 -3.6854 0.0000
# 4 0.0000 0.0000 0.0000 21.5087 0.0000 -39.0984
# 5 9.4750 -16.2369 -3.6854 0.0000 34.8522 0.0000
# 6 0.0000 0.0000 0.0000 -39.0984 0.0000 3.0436
#
#
#
# Elastic Compliance Matrix: (Units=1/GPa)
#
#
# Indices 1 2 3 4 5 6 
#
# 1 0.033269 -0.016568 -0.006375 0.000000 -0.017437 0.000000
# 2 -0.016568 0.017195 -0.000544 0.000000 0.012457 0.000000
# 3 -0.006375 -0.000544 0.009685 0.000000 0.002503 0.000000
# 4 0.000000 0.000000 0.000000 -0.002080 0.000000 -0.026721
# 5 -0.017437 0.012457 0.002503 0.000000 0.039501 0.000000
# 6 0.000000 0.000000 0.000000 -0.026721 0.000000 -0.014700
#
#
# Mechanical properties :
#
#
# Convention : Reuss Voigt Hill
#
# Bulk Modulus (GPa) = 75.90446 84.45249 80.17848
# Shear Modulus (GPa) = 37.24799 23.81230 30.53014
#
# Velocity S-wave (km/s) = 3.88844 3.10903 3.52037
# Velocity P-wave (km/s) = 7.13944 6.86802 7.00505
#
# Compressibility (1/GPa) = 0.01317446
#
# Stress axis : x y z
#
# Youngs Moduli (GPa) = 30.05842 58.15713 103.25342
#
# Poissons Ratio (x) = 0.96354 0.65819
# Poissons Ratio (y) = 0.49801 0.05621
# Poissons Ratio (z) = 0.19161 0.03166
#
# Static dielectric constant tensor:
#      x y z
#    x 5.150940 0.000000 -0.020130 
#    y 0.000000 4.658920 0.000000 
#    z -0.020130 0.000000 4.701670 
# 
# 
# High freq. dielectric constant tensor:
#      x y z
#    x 1.989790 0.000000 -0.006090 
#    y 0.000000 1.998410 0.000000 
#    z -0.006090 0.000000 1.990870 
# 
# From -- ./inp_files/9275.got.cif
#   From: 2010.03.12/outbox.cif.g09.slc.cpg/sg5_5_cif.got.tgz:9275.got - 2010.03.31 09:47:26.
