data_PCOD8051960
_publ_section_title
;
Structure prediction by ZEFSAII (Michael W. Deem and Ramdas Pophale) SiO2 
 PCOD8051960
Probable space group: C 2
;
_chemical_formula_sum "Si O2"
_cell_formula_units_Z 20
_cell_length_a 13.535572
_cell_length_b 11.155075
_cell_length_c 5.258851
_cell_angle_alpha 90.000000
_cell_angle_beta 89.112102
_cell_angle_gamma 90.000000
_cell_volume 793.940258
_symmetry_space_group_name_H-M "C 2"
_symmetry_group_IT_number 5
_symmetry_cell_setting 'monoclinic'
loop_
_space_group_symop_operation_xyz
x,y,z
-x,y,-z
1/2+x,1/2+y,z
1/2-x,1/2+y,-z
loop_
_atom_site_type_symbol
_atom_site_label
_atom_site_fract_x
_atom_site_fract_y
_atom_site_fract_z
Si Si1 0.000000 0.095910 0.000000
Si Si2 0.381356 0.071735 0.186105
Si Si3 0.329417 0.481802 0.777785
Si Si4 0.837722 0.713888 0.701123
Si Si5 0.123389 0.198004 0.590903
Si Si6 0.000000 0.405467 0.500000
O O1 0.901987 0.012941 0.008078
O O2 0.021152 0.180833 0.755943
O O3 0.285510 0.987646 0.140587
O O4 0.363978 0.156288 0.430558
O O5 0.476469 0.988786 0.252030
O O6 0.397793 0.151584 0.931327
O O7 0.364342 0.353354 0.674369
O O8 0.356334 0.584651 0.580772
O O9 0.720289 0.709938 0.765040
O O10 0.099576 0.324796 0.446623
#
# Coordination Sequence:
#
# PCOD8051960 Si02
#       6
#     2   4   4   4   4   2
#     4  12  22  40  74 104 140 184 260 294 374 432
#     4  11  27  45  73 108 148 196 243 307 384 430
#     4  11  24  44  71 106 144 194 248 312 364 441
#     4  11  26  49  72 105 151 195 245 310 374 440
#     4  11  24  45  73 111 141 197 253 307 370 440
#     4  12  24  50  72 112 148 198 250 312 360 470
#
# _framework density 25.190812000000001
#
# number of rings (size 3 to 8) (size 9 to 14) (size 15 to 20)
#    0.000    0.800    6.000    0.000    2.800    4.000 
#    0.000    0.000    0.000    0.000    0.000    0.000 
#    0.000    0.000    0.000    0.000    0.000    0.000 
#
# Total GULP energy -123899.163951 kJ/mol
# GULP energy per Si atom -12389.916395 kJ/mol
# Density = 2.513348 g / cm^3
# Si number density = 25.190812 Si / 1000 Ang^3
#
#
#
# Elastic Constant Matrix: (Units=GPa)
#
#
# Indices 1 2 3 4 5 6 
#
# 1 82.9979 34.2873 19.2613 0.0000 28.2849 0.0000
# 2 34.2873 169.3552 51.6919 0.0000 23.0835 0.0000
# 3 19.2613 51.6919 102.3731 0.0000 18.5685 0.0000
# 4 0.0000 0.0000 0.0000 26.4332 0.0000 7.7504
# 5 28.2849 23.0835 18.5685 0.0000 48.5349 0.0000
# 6 0.0000 0.0000 0.0000 7.7504 0.0000 40.7843
#
#
#
# Elastic Compliance Matrix: (Units=1/GPa)
#
#
# Indices 1 2 3 4 5 6 
#
# 1 0.015704 -0.001924 -0.000526 0.000000 -0.008036 0.000000
# 2 -0.001924 0.007425 -0.003170 0.000000 -0.001198 0.000000
# 3 -0.000526 -0.003170 0.011969 0.000000 -0.002765 0.000000
# 4 0.000000 0.000000 0.000000 0.040064 0.000000 -0.007613
# 5 -0.008036 -0.001198 -0.002765 0.000000 0.026914 0.000000
# 6 0.000000 0.000000 0.000000 -0.007613 0.000000 0.025966
#
#
# Mechanical properties :
#
#
# Convention : Reuss Voigt Hill
#
# Bulk Modulus (GPa) = 41.91262 62.80079 52.35670
# Shear Modulus (GPa) = 33.95965 39.78285 36.87125
#
# Velocity S-wave (km/s) = 3.67563 3.97830 3.82996
# Velocity P-wave (km/s) = 5.88964 6.78872 6.35510
#
# Compressibility (1/GPa) = 0.02385916
#
# Stress axis : x y z
#
# Youngs Moduli (GPa) = 63.67950 134.68018 83.54699
#
# Poissons Ratio (x) = 0.25906 0.04393
# Poissons Ratio (y) = 0.12249 0.26485
# Poissons Ratio (z) = 0.03348 0.42694
#
# Static dielectric constant tensor:
#      x y z
#    x 5.188750 0.000000 0.772240 
#    y 0.000000 4.651970 0.000000 
#    z 0.772240 0.000000 4.361770 
# 
# 
# High freq. dielectric constant tensor:
#      x y z
#    x 2.013200 0.000000 0.038390 
#    y 0.000000 2.015080 0.000000 
#    z 0.038390 0.000000 1.989200 
# 
# From -- ./inp_files/6657.got.cif
#   From: 2010.03.12/outbox.cif.g09.slc.cpg/sg5_4_cif.got.tgz:6657.got - 2010.03.31 09:47:26.
