data_PCOD8051256
_publ_section_title
;
Structure prediction by ZEFSAII (Michael W. Deem and Ramdas Pophale) SiO2 
 PCOD8051256
Probable space group: C 2
;
_chemical_formula_sum "Si O2"
_cell_formula_units_Z 18
_cell_length_a 23.715975
_cell_length_b 4.976776
_cell_length_c 11.580905
_cell_angle_alpha 90.000000
_cell_angle_beta 147.100415
_cell_angle_gamma 90.000000
_cell_volume 742.448010
_symmetry_space_group_name_H-M "C 2"
_symmetry_group_IT_number 5
_symmetry_cell_setting 'monoclinic'
loop_
_space_group_symop_operation_xyz
x,y,z
-x,y,-z
1/2+x,1/2+y,z
1/2-x,1/2+y,-z
loop_
_atom_site_type_symbol
_atom_site_label
_atom_site_fract_x
_atom_site_fract_y
_atom_site_fract_z
Si Si1 0.552249 0.176320 0.343513
Si Si2 0.000000 0.487331 0.500000
Si Si3 0.064581 0.172093 0.933832
Si Si4 0.237641 0.071925 0.403498
Si Si5 0.313584 0.672397 0.085003
O O1 0.516986 0.172372 0.416769
O O2 0.674363 0.117486 0.542563
O O3 0.529384 0.464751 0.248040
O O4 0.484249 0.966644 0.152839
O O5 0.098238 0.292120 0.680781
O O6 0.123190 0.128232 0.155598
O O7 0.149791 0.129430 0.981780
O O8 0.257543 0.265425 0.546397
O O9 0.282480 0.381626 0.081920
#
# Coordination Sequence:
#
# PCOD8051256 Si02
#       5
#     4   2   4   4   4
#     4  11  25  44  68  98 134 169 215 268 321 391
#     4  10  24  42  68 100 132 174 212 260 330 388
#     4  11  25  43  65  97 130 171 218 268 326 377
#     4  12  27  45  69  96 128 174 222 270 323 381
#     4  11  23  39  64  96 134 173 213 263 319 390
#
# _framework density 24.244122000000001
#
# number of rings (size 3 to 8) (size 9 to 14) (size 15 to 20)
#    0.000    0.889    0.000    6.667    0.000   18.667 
#    0.000    0.000    0.000    0.000    0.000    0.000 
#    0.000    0.000    0.000    0.000    0.000    0.000 
#
# Total GULP energy -111684.050065 kJ/mol
# GULP energy per Si atom -12409.338896 kJ/mol
# Density = 2.418894 g / cm^3
# Si number density = 24.244122 Si / 1000 Ang^3
#
#
#
# Elastic Constant Matrix: (Units=GPa)
#
#
# Indices 1 2 3 4 5 6 
#
# 1 50.5340 6.8517 4.0423 0.0000 5.4643 0.0000
# 2 6.8517 81.2799 -9.6107 -0.0001 -8.3548 -0.0001
# 3 4.0423 -9.6107 101.8838 -0.0001 -16.5599 0.0000
# 4 0.0000 -0.0001 -0.0001 37.5745 0.0000 5.7969
# 5 5.4643 -8.3548 -16.5599 0.0000 41.1093 0.0000
# 6 0.0000 -0.0001 0.0000 5.7969 0.0000 40.0582
#
#
#
# Elastic Compliance Matrix: (Units=1/GPa)
#
#
# Indices 1 2 3 4 5 6 
#
# 1 0.020661 -0.002340 -0.001674 0.000000 -0.003896 0.000000
# 2 -0.002340 0.013116 0.001941 0.000000 0.003759 0.000000
# 3 -0.001674 0.001941 0.010877 0.000000 0.004998 0.000000
# 4 0.000000 0.000000 0.000000 0.027222 0.000000 -0.003939
# 5 -0.003896 0.003759 0.004998 0.000000 0.027621 0.000000
# 6 0.000000 0.000000 0.000000 -0.003939 0.000000 0.025534
#
#
# Mechanical properties :
#
#
# Convention : Reuss Voigt Hill
#
# Bulk Modulus (GPa) = 24.68597 26.25159 25.46878
# Shear Modulus (GPa) = 35.04374 39.24270 37.14322
#
# Velocity S-wave (km/s) = 3.80604 4.02761 3.91839
# Velocity P-wave (km/s) = 5.43313 5.69915 5.56773
#
# Compressibility (1/GPa) = 0.04050885
#
# Stress axis : x y z
#
# Youngs Moduli (GPa) = 48.40017 76.24111 91.93676
#
# Poissons Ratio (x) = 0.17841 0.15388
# Poissons Ratio (y) = 0.11326 -0.17845
# Poissons Ratio (z) = 0.08101 -0.14798
#
# Static dielectric constant tensor:
#      x y z
#    x 4.298500 0.000000 0.192420 
#    y 0.000000 4.288820 0.000000 
#    z 0.192420 0.000000 4.317440 
# 
# 
# High freq. dielectric constant tensor:
#      x y z
#    x 1.963030 0.000000 0.012200 
#    y 0.000000 1.968030 0.000000 
#    z 0.012200 0.000000 1.969010 
# 
# From -- ./inp_files/37770.got.cif
#   From: 2010.03.12/outbox.cif.g09.slc.cpg/sg5_19_cif.got.tgz:37770.got - 2010.03.31 09:47:26.
