data_PCOD8051340
_publ_section_title
;
Structure prediction by ZEFSAII (Michael W. Deem and Ramdas Pophale) SiO2 
 PCOD8051340
Probable space group: C 2
;
_chemical_formula_sum "Si O2"
_cell_formula_units_Z 18
_cell_length_a 7.980380
_cell_length_b 22.388049
_cell_length_c 4.999012
_cell_angle_alpha 90.000000
_cell_angle_beta 56.082084
_cell_angle_gamma 90.000000
_cell_volume 741.168980
_symmetry_space_group_name_H-M "C 2"
_symmetry_group_IT_number 5
_symmetry_cell_setting 'monoclinic'
loop_
_space_group_symop_operation_xyz
x,y,z
-x,y,-z
1/2+x,1/2+y,z
1/2-x,1/2+y,-z
loop_
_atom_site_type_symbol
_atom_site_label
_atom_site_fract_x
_atom_site_fract_y
_atom_site_fract_z
Si Si1 0.279637 0.640600 0.824837
Si Si2 0.134326 0.263521 0.126737
Si Si3 0.858822 0.395317 0.882645
Si Si4 0.791231 0.566065 0.595548
Si Si5 0.000000 0.972478 0.000000
O O1 0.500000 0.643673 0.500000
O O2 0.207993 0.709396 0.946730
O O3 0.147272 0.607062 0.715634
O O4 0.293469 0.605732 0.088050
O O5 0.229669 0.328406 0.974715
O O6 0.000000 0.277319 0.500000
O O7 0.000000 0.240152 0.000000
O O8 0.000000 0.398574 0.500000
O O9 0.656126 0.434498 0.037606
O O10 0.000000 0.418008 0.000000
O O11 0.000000 0.534725 0.500000
O O12 0.628470 0.514219 0.679407
#
# Coordination Sequence:
#
# PCOD8051340 Si02
#       5
#     4   4   4   4   2
#     4  11  20  42  69  96 134 181 223 276 348 404
#     4   9  18  37  70  99 132 172 220 283 342 400
#     4  10  24  45  71 103 134 181 231 284 345 407
#     4  12  26  42  64 100 138 180 227 283 337 403
#     4  12  26  48  70  98 146 182 240 274 346 418
#
# _framework density 24.285961
#
# number of rings (size 3 to 8) (size 9 to 14) (size 15 to 20)
#    0.000    1.333    2.222    4.000    0.000    6.222 
#    4.000    0.000    0.000    0.000    0.000    0.000 
#    0.000    0.000    0.000    0.000    0.000    0.000 
#
# Total GULP energy -111516.803216 kJ/mol
# GULP energy per Si atom -12390.755913 kJ/mol
# Density = 2.423069 g / cm^3
# Si number density = 24.285961 Si / 1000 Ang^3
#
#
#
# Elastic Constant Matrix: (Units=GPa)
#
#
# Indices 1 2 3 4 5 6 
#
# 1 165.4595 90.9086 45.2709 0.0000 9.4375 0.0000
# 2 90.9086 178.8536 37.5560 0.0000 -5.2432 0.0000
# 3 45.2709 37.5560 86.2358 0.0000 19.5646 0.0000
# 4 0.0000 0.0000 0.0000 0.0678 0.0000 9.3483
# 5 9.4375 -5.2432 19.5646 0.0000 46.2860 0.0000
# 6 0.0000 0.0000 0.0000 9.3483 0.0000 36.6756
#
#
#
# Elastic Compliance Matrix: (Units=1/GPa)
#
#
# Indices 1 2 3 4 5 6 
#
# 1 0.009104 -0.004087 -0.002736 0.000000 -0.001163 0.000000
# 2 -0.004087 0.008165 -0.002001 0.000000 0.002604 0.000000
# 3 -0.002736 -0.002001 0.015295 0.000000 -0.006134 0.000000
# 4 0.000000 0.000000 0.000000 -0.431969 0.000000 0.110105
# 5 -0.001163 0.002604 -0.006134 0.000000 0.024730 0.000000
# 6 0.000000 0.000000 0.000000 0.110105 0.000000 -0.000799
#
#
# Mechanical properties :
#
#
# Convention : Reuss Voigt Hill
#
# Bulk Modulus (GPa) = 67.03784 86.44665 76.74225
# Shear Modulus (GPa) = -14.17020 33.72677 9.77828
#
# Velocity S-wave (km/s) = -2.41814 3.73062 2.00874
# Velocity P-wave (km/s) = 4.45723 7.36405 6.08671
#
# Compressibility (1/GPa) = 0.01491695
#
# Stress axis : x y z
#
# Youngs Moduli (GPa) = 109.83915 122.47132 65.37934
#
# Poissons Ratio (x) = 0.50057 0.17885
# Poissons Ratio (y) = 0.44894 0.13083
# Poissons Ratio (z) = 0.30047 0.24508
#
# Static dielectric constant tensor:
#      x y z
#    x 4.389110 0.000000 0.215420 
#    y 0.000000 5.040100 0.000000 
#    z 0.215420 0.000000 4.270120 
# 
# 
# High freq. dielectric constant tensor:
#      x y z
#    x 1.954980 0.000000 0.015390 
#    y 0.000000 1.984920 0.000000 
#    z 0.015390 0.000000 1.954290 
# 
# From -- ./inp_files/2744.got.cif
#   From: 2010.03.12/outbox.cif.g09.slc.cpg/sg5_2_cif.got.tgz:2744.got - 2010.03.31 09:47:26.
