data_PCOD8051692
_publ_section_title
;
Structure prediction by ZEFSAII (Michael W. Deem and Ramdas Pophale) SiO2 
 PCOD8051692
Probable space group: C 2
;
_chemical_formula_sum "Si O2"
_cell_formula_units_Z 30
_cell_length_a 13.538401
_cell_length_b 18.167193
_cell_length_c 11.314448
_cell_angle_alpha 90.000000
_cell_angle_beta 33.251462
_cell_angle_gamma 90.000000
_cell_volume 1525.872898
_symmetry_space_group_name_H-M "C 2"
_symmetry_group_IT_number 5
_symmetry_cell_setting 'monoclinic'
loop_
_space_group_symop_operation_xyz
x,y,z
-x,y,-z
1/2+x,1/2+y,z
1/2-x,1/2+y,-z
loop_
_atom_site_type_symbol
_atom_site_label
_atom_site_fract_x
_atom_site_fract_y
_atom_site_fract_z
Si Si1 0.296035 0.916030 0.431219
Si Si2 0.197608 0.780314 0.945232
Si Si3 0.501744 0.522168 0.637539
Si Si4 0.704951 0.917732 0.006278
Si Si5 0.783747 0.785563 0.344723
Si Si6 0.504883 0.679488 0.255475
Si Si7 0.789946 0.819426 0.701996
Si Si8 0.500000 0.698798 0.000000
O O1 0.248403 0.873109 0.600288
O O2 0.258679 0.851673 0.375548
O O3 0.176047 0.987174 0.525652
O O4 0.500596 0.943898 0.227629
O O5 0.260861 0.771954 0.747320
O O6 0.306528 0.721748 0.914572
O O7 0.235742 0.863696 0.948047
O O8 0.987553 0.762683 0.171182
O O9 0.500000 0.502363 0.500000
O O10 0.327021 0.490688 0.879794
O O11 0.507276 0.609326 0.647754
O O12 0.727997 0.878390 0.858919
O O13 0.654764 0.735507 0.553564
O O14 0.488542 0.652938 0.134275
O O15 0.680790 0.745650 0.831879
O O16 0.000000 0.801164 0.500000
#
# Coordination Sequence:
#
# PCOD8051692 Si02
#       8
#     4   4   4   4   4   4   4   2
#     4  12  21  37  65  96 124 160 214 264 312 370
#     4  11  22  39  67  97 127 168 214 259 308 377
#     4  12  26  42  62  92 134 171 209 267 323 376
#     4  12  21  37  65  96 124 160 214 264 312 370
#     4  11  22  39  67  97 127 168 214 259 308 377
#     4  12  26  44  64  92 135 167 211 262 329 379
#     4  12  18  34  66  98 120 150 209 272 308 362
#     4  12  24  40  68  96 122 164 212 274 312 382
#
# _framework density 19.660878
#
# number of rings (size 3 to 8) (size 9 to 14) (size 15 to 20)
#    0.000    0.267    9.333    1.200    0.000    1.067 
#    2.400    0.000    0.000    0.000    0.000    0.000 
#    0.000    0.000    0.000    0.000    0.000    0.000 
#
# Total GULP energy -186023.677519 kJ/mol
# GULP energy per Si atom -12401.578501 kJ/mol
# Density = 1.961613 g / cm^3
# Si number density = 19.660878 Si / 1000 Ang^3
#
#
#
# Elastic Constant Matrix: (Units=GPa)
#
#
# Indices 1 2 3 4 5 6 
#
# 1 95.8115 27.0157 44.0109 0.0096 -4.4810 0.0013
# 2 27.0157 83.5355 29.1724 0.0487 -9.4640 -0.0292
# 3 44.0109 29.1724 99.8258 0.0430 -16.2863 -0.0291
# 4 0.0096 0.0487 0.0430 21.3851 -0.0284 5.9123
# 5 -4.4810 -9.4640 -16.2863 -0.0284 37.2425 0.0171
# 6 0.0013 -0.0292 -0.0291 5.9123 0.0171 28.8596
#
#
#
# Elastic Compliance Matrix: (Units=1/GPa)
#
#
# Indices 1 2 3 4 5 6 
#
# 1 0.013631 -0.002662 -0.005464 0.000012 -0.001426 -0.000010
# 2 -0.002662 0.013966 -0.002564 -0.000027 0.002107 0.000016
# 3 -0.005464 -0.002564 0.013958 -0.000017 0.004795 0.000012
# 4 0.000012 -0.000027 -0.000017 0.049569 0.000030 -0.010155
# 5 -0.001426 0.002107 0.004795 0.000030 0.029312 -0.000016
# 6 -0.000010 0.000016 0.000012 -0.010155 -0.000016 0.036731
#
#
# Mechanical properties :
#
#
# Convention : Reuss Voigt Hill
#
# Bulk Modulus (GPa) = 49.56625 53.28566 51.42595
# Shear Modulus (GPa) = 26.98729 29.42902 28.20815
#
# Velocity S-wave (km/s) = 3.70893 3.87309 3.79190
# Velocity P-wave (km/s) = 6.60355 6.86748 6.73681
#
# Compressibility (1/GPa) = 0.02017502
#
# Stress axis : x y z
#
# Youngs Moduli (GPa) = 73.36207 71.60285 71.64268
#
# Poissons Ratio (x) = 0.19058 0.39149
# Poissons Ratio (y) = 0.19526 0.18369
# Poissons Ratio (z) = 0.40088 0.18359
#
# Static dielectric constant tensor:
#      x y z
#    x 3.915740 -0.000020 -0.136350 
#    y -0.000020 3.234490 0.000050 
#    z -0.136350 0.000050 3.952700 
# 
# 
# High freq. dielectric constant tensor:
#      x y z
#    x 1.779820 0.000000 -0.004170 
#    y 0.000000 1.731110 0.000000 
#    z -0.004170 0.000000 1.782180 
# 
# From -- ./inp_files/43290.got.cif
#   From: 2010.03.12/outbox.cif.g09.slc.cpg/sg5_22_cif.got.tgz:43290.got - 2010.03.31 09:47:26.
