data_PCOD8051398
_publ_section_title
;
Structure prediction by ZEFSAII (Michael W. Deem and Ramdas Pophale) SiO2 
 PCOD8051398
Probable space group: C 2
;
_chemical_formula_sum "Si O2"
_cell_formula_units_Z 20
_cell_length_a 15.407151
_cell_length_b 8.621793
_cell_length_c 11.269578
_cell_angle_alpha 90.000000
_cell_angle_beta 29.913097
_cell_angle_gamma 90.000000
_cell_volume 746.542715
_symmetry_space_group_name_H-M "C 2"
_symmetry_group_IT_number 5
_symmetry_cell_setting 'monoclinic'
loop_
_space_group_symop_operation_xyz
x,y,z
-x,y,-z
1/2+x,1/2+y,z
1/2-x,1/2+y,-z
loop_
_atom_site_type_symbol
_atom_site_label
_atom_site_fract_x
_atom_site_fract_y
_atom_site_fract_z
Si Si1 0.000000 0.642300 0.500000
Si Si2 0.704078 0.151478 0.605374
Si Si3 0.340439 0.733142 0.987273
Si Si4 0.123456 0.881505 0.040584
Si Si5 0.684538 0.933020 0.428531
Si Si6 0.500000 0.933607 0.000000
O O1 0.010356 0.523085 0.599341
O O2 0.173232 0.737987 0.275391
O O3 0.546595 0.270076 0.753122
O O4 0.864578 0.266649 0.453279
O O5 0.778392 0.048798 0.410334
O O6 0.657466 0.046891 0.774329
O O7 0.413192 0.559533 0.874883
O O8 0.277708 0.810968 0.938947
O O9 0.467907 0.837978 0.917176
O O10 0.183631 0.895920 0.833141
#
# Coordination Sequence:
#
# PCOD8051398 Si02
#       6
#     2   4   4   4   4   2
#     4  10  24  48  72 110 156 196 268 316 390 468
#     4  12  26  49  76 111 159 204 268 321 397 464
#     4  11  26  46  80 110 159 207 262 323 396 467
#     4  11  24  49  76 111 156 212 252 327 394 469
#     4  11  26  46  74 112 155 203 262 324 383 473
#     4  12  28  46  78 116 152 214 258 326 398 466
#
# _framework density 26.790163
#
# number of rings (size 3 to 8) (size 9 to 14) (size 15 to 20)
#    0.000    0.800    4.000    1.200   14.000    0.000 
#    0.000    1.000    0.000    0.000    0.000    0.000 
#    0.000    0.000    0.000    0.000    0.000    0.000 
#
# Total GULP energy -123886.807650 kJ/mol
# GULP energy per Si atom -12388.680765 kJ/mol
# Density = 2.672919 g / cm^3
# Si number density = 26.790163 Si / 1000 Ang^3
#
#
#
# Elastic Constant Matrix: (Units=GPa)
#
#
# Indices 1 2 3 4 5 6 
#
# 1 95.2313 58.4963 10.2076 0.0000 31.2762 0.0000
# 2 58.4963 182.9066 27.3562 0.0000 24.9278 0.0000
# 3 10.2076 27.3562 67.5661 0.0000 28.4106 0.0000
# 4 0.0000 0.0000 0.0000 49.1013 0.0000 15.3784
# 5 31.2762 24.9278 28.4106 0.0000 38.7182 0.0000
# 6 0.0000 0.0000 0.0000 15.3784 0.0000 47.2076
#
#
#
# Elastic Compliance Matrix: (Units=1/GPa)
#
#
# Indices 1 2 3 4 5 6 
#
# 1 0.017733 -0.004386 0.005687 0.000000 -0.015674 0.000000
# 2 -0.004386 0.007142 -0.002582 0.000000 0.000839 0.000000
# 3 0.005687 -0.002582 0.023457 0.000000 -0.020144 0.000000
# 4 0.000000 0.000000 0.000000 0.022680 0.000000 -0.007388
# 5 -0.015674 0.000839 -0.020144 0.000000 0.052730 0.000000
# 6 0.000000 0.000000 0.000000 -0.007388 0.000000 0.023590
#
#
# Mechanical properties :
#
#
# Convention : Reuss Voigt Hill
#
# Bulk Modulus (GPa) = 21.84793 59.75824 40.80308
# Shear Modulus (GPa) = 30.27586 43.64836 36.96211
#
# Velocity S-wave (km/s) = 3.36536 4.04080 3.71845
# Velocity P-wave (km/s) = 4.82429 6.64268 5.80513
#
# Compressibility (1/GPa) = 0.04577092
#
# Stress axis : x y z
#
# Youngs Moduli (GPa) = 56.39274 140.02380 42.63181
#
# Poissons Ratio (x) = 0.61410 -0.24246
# Poissons Ratio (y) = 0.24732 0.11007
# Poissons Ratio (z) = -0.32073 0.36151
#
# Static dielectric constant tensor:
#      x y z
#    x 5.219050 0.000000 0.037530 
#    y 0.000000 5.434480 0.000000 
#    z 0.037530 0.000000 4.646490 
# 
# 
# High freq. dielectric constant tensor:
#      x y z
#    x 2.080300 0.000000 0.004460 
#    y 0.000000 2.103390 0.000000 
#    z 0.004460 0.000000 2.087300 
# 
# From -- ./inp_files/44293.got.cif
#   From: 2010.03.12/outbox.cif.g09.slc.cpg/sg5_23_cif.got.tgz:44293.got - 2010.03.31 09:47:26.
