data_PCOD8051329
_publ_section_title
;
Structure prediction by ZEFSAII (Michael W. Deem and Ramdas Pophale) SiO2 
 PCOD8051329
Probable space group: C 2
;
_chemical_formula_sum "Si O2"
_cell_formula_units_Z 20
_cell_length_a 15.658133
_cell_length_b 11.069772
_cell_length_c 5.175299
_cell_angle_alpha 90.000000
_cell_angle_beta 72.510522
_cell_angle_gamma 90.000000
_cell_volume 855.576288
_symmetry_space_group_name_H-M "C 2"
_symmetry_group_IT_number 5
_symmetry_cell_setting 'monoclinic'
loop_
_space_group_symop_operation_xyz
x,y,z
-x,y,-z
1/2+x,1/2+y,z
1/2-x,1/2+y,-z
loop_
_atom_site_type_symbol
_atom_site_label
_atom_site_fract_x
_atom_site_fract_y
_atom_site_fract_z
Si Si1 0.270273 0.053040 0.318873
Si Si2 0.906319 0.130973 0.734188
Si Si3 0.358250 0.120354 0.753423
Si Si4 0.405057 0.887375 0.948874
Si Si5 0.500000 0.470030 0.000000
Si Si6 0.000000 0.816280 0.500000
O O1 0.163292 0.053700 0.376777
O O2 0.288269 0.101009 0.587335
O O3 0.322967 0.925038 0.219333
O O4 0.305849 0.147133 0.067786
O O5 0.000000 0.134581 0.500000
O O6 0.917367 0.056227 0.991045
O O7 0.874927 0.266998 0.826093
O O8 0.416140 0.236111 0.647156
O O9 0.418259 0.998362 0.734729
O O10 0.500000 0.863946 0.000000
O O11 0.528439 0.392387 0.724549
#
# Coordination Sequence:
#
# PCOD8051329 Si02
#       6
#     4   4   4   4   2   2
#     4  10  26  46  72 115 146 193 253 306 379 438
#     4  12  28  50  76 110 157 200 254 310 384 452
#     4  10  24  45  75 111 146 190 256 304 377 426
#     4  10  24  44  82 111 149 194 256 313 372 446
#     4  12  28  46  70 108 144 210 244 302 382 440
#     4  12  24  46  76 104 158 196 246 308 368 466
#
# _framework density 23.376058
#
# number of rings (size 3 to 8) (size 9 to 14) (size 15 to 20)
#    1.200    0.000    2.000    2.400    8.400    3.200 
#    3.600    0.000    0.000    0.000    0.000    0.000 
#    0.000    0.000    0.000    0.000    0.000    0.000 
#
# Total GULP energy -123902.378351 kJ/mol
# GULP energy per Si atom -12390.237835 kJ/mol
# Density = 2.332285 g / cm^3
# Si number density = 23.376058 Si / 1000 Ang^3
#
#
#
# Elastic Constant Matrix: (Units=GPa)
#
#
# Indices 1 2 3 4 5 6 
#
# 1 111.1903 22.8669 5.0718 0.0000 14.4734 0.0000
# 2 22.8669 127.3543 22.2607 0.0000 6.4819 0.0000
# 3 5.0718 22.2607 87.8635 0.0000 23.9598 0.0000
# 4 0.0000 0.0000 0.0000 30.2907 0.0000 1.5270
# 5 14.4734 6.4819 23.9598 0.0000 46.4756 0.0000
# 6 0.0000 0.0000 0.0000 1.5270 0.0000 -21.5770
#
#
#
# Elastic Compliance Matrix: (Units=1/GPa)
#
#
# Indices 1 2 3 4 5 6 
#
# 1 0.009725 -0.001714 0.000737 0.000000 -0.003170 0.000000
# 2 -0.001714 0.008518 -0.002188 0.000000 0.000474 0.000000
# 3 0.000737 -0.002188 0.013815 0.000000 -0.007046 0.000000
# 4 0.000000 0.000000 0.000000 0.032896 0.000000 0.002328
# 5 -0.003170 0.000474 -0.007046 0.000000 0.026070 0.000000
# 6 0.000000 0.000000 0.000000 0.002328 0.000000 -0.046181
#
#
# Mechanical properties :
#
#
# Convention : Reuss Voigt Hill
#
# Bulk Modulus (GPa) = 38.86837 47.42301 43.14569
# Shear Modulus (GPa) = 83.68309 29.45178 56.56743
#
# Velocity S-wave (km/s) = 5.98969 3.55337 4.92457
# Velocity P-wave (km/s) = 8.03111 6.09642 7.12969
#
# Compressibility (1/GPa) = 0.02572786
#
# Stress axis : x y z
#
# Youngs Moduli (GPa) = 102.82808 117.39555 72.38688
#
# Poissons Ratio (x) = 0.20118 -0.05336
# Poissons Ratio (y) = 0.17621 0.15841
# Poissons Ratio (z) = -0.07580 0.25691
#
# Static dielectric constant tensor:
#      x y z
#    x 4.922150 0.000000 0.597810 
#    y 0.000000 4.370480 0.000000 
#    z 0.597810 0.000000 4.434830 
# 
# 
# High freq. dielectric constant tensor:
#      x y z
#    x 1.922210 0.000000 0.011040 
#    y 0.000000 1.921030 0.000000 
#    z 0.011040 0.000000 1.928590 
# 
# From -- ./inp_files/6587.got.cif
#   From: 2010.03.12/outbox.cif.g09.slc.cpg/sg5_4_cif.got.tgz:6587.got - 2010.03.31 09:47:26.
