data_PCOD8051059
_publ_section_title
;
Structure prediction by ZEFSAII (Michael W. Deem and Ramdas Pophale) SiO2 
 PCOD8051059
Probable space group: C 2
;
_chemical_formula_sum "Si O2"
_cell_formula_units_Z 20
_cell_length_a 8.192024
_cell_length_b 6.848731
_cell_length_c 26.523611
_cell_angle_alpha 90.000000
_cell_angle_beta 32.509828
_cell_angle_gamma 90.000000
_cell_volume 799.774237
_symmetry_space_group_name_H-M "C 2"
_symmetry_group_IT_number 5
_symmetry_cell_setting 'monoclinic'
loop_
_space_group_symop_operation_xyz
x,y,z
-x,y,-z
1/2+x,1/2+y,z
1/2-x,1/2+y,-z
loop_
_atom_site_type_symbol
_atom_site_label
_atom_site_fract_x
_atom_site_fract_y
_atom_site_fract_z
Si Si1 0.266062 0.694070 0.760852
Si Si2 0.679068 0.847863 0.074945
Si Si3 0.666815 0.983072 0.606892
Si Si4 0.416791 0.484389 0.108445
Si Si5 0.875936 0.828580 0.305998
O O1 0.091191 0.805145 0.851039
O O2 0.082224 0.694821 0.755196
O O3 0.338370 0.476319 0.762748
O O4 0.580547 0.815144 0.670004
O O5 0.406998 0.690760 0.141110
O O6 0.646778 0.980213 0.135100
O O7 0.000000 0.730809 0.000000
O O8 0.750296 0.978321 0.006518
O O9 0.651244 0.195892 0.637129
O O10 0.000000 0.941556 0.500000
O O11 0.427750 0.963108 0.622517
#
# Coordination Sequence:
#
# PCOD8051059 Si02
#       5
#     4   4   4   4   4
#     4  10  23  42  67  95 127 169 211 264 309 381
#     4   8  20  35  60  88 123 162 200 250 303 363
#     4  10  26  41  67  93 130 166 214 259 319 374
#     4   9  18  43  59  93 124 162 208 249 312 365
#     4  10  25  39  64  93 126 165 213 260 317 365
#
# _framework density 25.007058000000001
#
# number of rings (size 3 to 8) (size 9 to 14) (size 15 to 20)
#    2.400    0.000    0.000    1.200    5.600    0.800 
#   14.400    0.000    0.000    0.000    0.000    0.000 
#    0.000    0.000    0.000    0.000    0.000    0.000 
#
# Total GULP energy -123885.066530 kJ/mol
# GULP energy per Si atom -12388.506653 kJ/mol
# Density = 2.495014 g / cm^3
# Si number density = 25.007058 Si / 1000 Ang^3
#
#
#
# Elastic Constant Matrix: (Units=GPa)
#
#
# Indices 1 2 3 4 5 6 
#
# 1 131.2701 71.7070 35.9249 0.0270 -11.3761 -0.0036
# 2 71.7070 165.2087 51.5829 0.0186 5.0529 0.0263
# 3 35.9249 51.5829 85.8009 0.0904 7.9111 0.1392
# 4 0.0270 0.0186 0.0904 42.7470 0.0227 7.0644
# 5 -11.3761 5.0529 7.9111 0.0227 33.2906 0.0163
# 6 -0.0036 0.0263 0.1392 7.0644 0.0163 41.6099
#
#
#
# Elastic Compliance Matrix: (Units=1/GPa)
#
#
# Indices 1 2 3 4 5 6 
#
# 1 0.011014 -0.004124 -0.002594 -0.000004 0.005006 0.000011
# 2 -0.004124 0.008996 -0.003503 0.000006 -0.001942 0.000005
# 3 -0.002594 -0.003503 0.015213 -0.000020 -0.003970 -0.000044
# 4 -0.000004 0.000006 -0.000020 0.024069 -0.000012 -0.004086
# 5 0.005006 -0.001942 -0.003970 -0.000012 0.032987 0.000004
# 6 0.000011 0.000005 -0.000044 -0.004086 0.000004 0.024727
#
#
# Mechanical properties :
#
#
# Convention : Reuss Voigt Hill
#
# Bulk Modulus (GPa) = 67.64912 77.85660 72.75286
# Shear Modulus (GPa) = 35.11872 38.40049 36.75961
#
# Velocity S-wave (km/s) = 3.75153 3.92291 3.83818
# Velocity P-wave (km/s) = 6.77319 7.19169 6.98557
#
# Compressibility (1/GPa) = 0.01478216
#
# Stress axis : x y z
#
# Youngs Moduli (GPa) = 90.79099 111.16264 65.73375
#
# Poissons Ratio (x) = 0.45841 0.17052
# Poissons Ratio (y) = 0.37440 0.23023
# Poissons Ratio (z) = 0.23552 0.38935
#
# Static dielectric constant tensor:
#      x y z
#    x 4.501840 -0.000040 0.015870 
#    y -0.000040 4.203490 0.000010 
#    z 0.015870 0.000010 4.359670 
# 
# 
# High freq. dielectric constant tensor:
#      x y z
#    x 2.007290 0.000000 -0.014850 
#    y 0.000000 1.996100 0.000000 
#    z -0.014850 0.000000 2.004850 
# 
# From -- ./inp_files/70092.got.cif
#   From: 2010.03.12/outbox.cif.g09.slc.cpg/sg5_36_cif.got.tgz:70092.got - 2010.03.31 09:47:26.
