data_PCOD8051031
_publ_section_title
;
Structure prediction by ZEFSAII (Michael W. Deem and Ramdas Pophale) SiO2 
 PCOD8051031
Probable space group: C 2
;
_chemical_formula_sum "Si O2"
_cell_formula_units_Z 28
_cell_length_a 11.323727
_cell_length_b 15.017071
_cell_length_c 8.531301
_cell_angle_alpha 90.000000
_cell_angle_beta 63.419500
_cell_angle_gamma 90.000000
_cell_volume 1297.407229
_symmetry_space_group_name_H-M "C 2"
_symmetry_group_IT_number 5
_symmetry_cell_setting 'monoclinic'
loop_
_space_group_symop_operation_xyz
x,y,z
-x,y,-z
1/2+x,1/2+y,z
1/2-x,1/2+y,-z
loop_
_atom_site_type_symbol
_atom_site_label
_atom_site_fract_x
_atom_site_fract_y
_atom_site_fract_z
Si Si1 0.259422 0.211700 0.987286
Si Si2 0.453119 0.448661 0.228568
Si Si3 0.224558 0.193465 0.358586
Si Si4 0.500000 0.553410 0.500000
Si Si5 0.296933 0.519319 0.078956
Si Si6 0.026673 0.759896 0.662047
Si Si7 0.416823 0.887751 0.889396
Si Si8 0.000000 0.333966 0.500000
O O1 0.184740 0.124221 0.963961
O O2 0.394738 0.219516 0.813174
O O3 0.290652 0.193434 0.148683
O O4 0.166854 0.298219 0.027250
O O5 0.513842 0.491063 0.345788
O O6 0.316553 0.499078 0.254655
O O7 0.423164 0.344974 0.270788
O O8 0.579557 0.458628 0.042666
O O9 0.349375 0.191494 0.403276
O O10 0.134165 0.108392 0.438099
O O11 0.133432 0.278881 0.438993
O O12 0.167901 0.478085 0.075912
O O13 0.000000 0.785579 0.500000
O O14 0.493160 0.884653 0.674517
O O15 0.500000 0.901108 0.000000
#
# Coordination Sequence:
#
# PCOD8051031 Si02
#       8
#     4   4   4   2   4   4   4   2
#     4  11  24  45  67  99 135 183 230 280 354 411
#     4  11  23  44  70  94 137 173 238 281 338 426
#     4  10  23  41  69  97 134 173 230 287 344 409
#     4  11  22  44  70 101 126 180 232 289 342 413
#     4  11  25  44  68 102 132 183 228 289 350 411
#     4  12  26  42  67 100 139 183 227 286 353 417
#     4  11  25  45  73  99 142 184 233 289 356 422
#     4   9  22  42  66 103 130 180 228 285 340 415
#
# _framework density 21.581503000000001
#
# number of rings (size 3 to 8) (size 9 to 14) (size 15 to 20)
#    0.000    1.143    3.571    2.143    8.000    1.143 
#    3.857    0.000    0.000    0.000    0.000    0.000 
#    0.000    0.000    0.000    0.000    0.000    0.000 
#
# Total GULP energy -173443.683385 kJ/mol
# GULP energy per Si atom -12388.834527 kJ/mol
# Density = 2.153238 g / cm^3
# Si number density = 21.581503 Si / 1000 Ang^3
#
#
#
# Elastic Constant Matrix: (Units=GPa)
#
#
# Indices 1 2 3 4 5 6 
#
# 1 122.4223 26.0240 38.6685 0.0000 6.0728 0.0000
# 2 26.0240 84.8062 16.1317 0.0000 -0.1326 0.0000
# 3 38.6685 16.1317 101.9669 0.0000 -3.1887 0.0000
# 4 0.0000 0.0000 0.0000 22.4702 0.0000 6.8037
# 5 6.0728 -0.1326 -3.1887 0.0000 36.6160 0.0000
# 6 0.0000 0.0000 0.0000 6.8037 0.0000 26.3002
#
#
#
# Elastic Compliance Matrix: (Units=1/GPa)
#
#
# Indices 1 2 3 4 5 6 
#
# 1 0.009850 -0.002375 -0.003420 0.000000 -0.001940 0.000000
# 2 -0.002375 0.012731 -0.001103 0.000000 0.000344 0.000000
# 3 -0.003420 -0.001103 0.011327 0.000000 0.001550 0.000000
# 4 0.000000 0.000000 0.000000 0.048286 0.000000 -0.012491
# 5 -0.001940 0.000344 0.001550 0.000000 0.027768 0.000000
# 6 0.000000 0.000000 0.000000 -0.012491 0.000000 0.041254
#
#
# Mechanical properties :
#
#
# Convention : Reuss Voigt Hill
#
# Bulk Modulus (GPa) = 49.72206 52.31598 51.01902
# Shear Modulus (GPa) = 29.11794 32.30202 30.70998
#
# Velocity S-wave (km/s) = 3.67714 3.87298 3.77633
# Velocity P-wave (km/s) = 6.41231 6.65535 6.53496
#
# Compressibility (1/GPa) = 0.02011180
#
# Stress axis : x y z
#
# Youngs Moduli (GPa) = 101.52404 78.55038 88.28415
#
# Poissons Ratio (x) = 0.18656 0.30196
# Poissons Ratio (y) = 0.24112 0.09735
# Poissons Ratio (z) = 0.34724 0.08661
#
# Static dielectric constant tensor:
#      x y z
#    x 4.071990 0.000000 0.262710 
#    y 0.000000 3.776010 0.000000 
#    z 0.262710 0.000000 4.138890 
# 
# 
# High freq. dielectric constant tensor:
#      x y z
#    x 1.854790 0.000000 0.010850 
#    y 0.000000 1.838360 0.000000 
#    z 0.010850 0.000000 1.855180 
# 
# From -- ./inp_files/20571.got.cif
#   From: 2010.03.12/outbox.cif.g09.slc.cpg/sg5_11_cif.got.tgz:20571.got - 2010.03.31 09:47:26.
