data_PCOD8051950
_publ_section_title
;
Structure prediction by ZEFSAII (Michael W. Deem and Ramdas Pophale) SiO2 
 PCOD8051950
Probable space group: C 2
;
_chemical_formula_sum "Si O2"
_cell_formula_units_Z 32
_cell_length_a 25.302998
_cell_length_b 14.075016
_cell_length_c 9.456013
_cell_angle_alpha 90.000000
_cell_angle_beta 25.819002
_cell_angle_gamma 90.000000
_cell_volume 1466.718193
_symmetry_space_group_name_H-M "C 2"
_symmetry_group_IT_number 5
_symmetry_cell_setting 'monoclinic'
loop_
_space_group_symop_operation_xyz
x,y,z
-x,y,-z
1/2+x,1/2+y,z
1/2-x,1/2+y,-z
loop_
_atom_site_type_symbol
_atom_site_label
_atom_site_fract_x
_atom_site_fract_y
_atom_site_fract_z
Si Si1 0.423285 0.955940 0.330090
Si Si2 0.586974 0.803823 0.427175
Si Si3 0.704999 0.540544 0.719107
Si Si4 0.379268 0.192785 0.197096
Si Si5 0.451556 0.588824 0.462134
Si Si6 0.249035 0.938014 0.127188
Si Si7 0.362152 0.395398 0.328962
Si Si8 0.943555 0.581658 0.778134
O O1 0.456909 0.855035 0.322132
O O2 0.279612 0.973929 0.649291
O O3 0.453463 0.036821 0.371162
O O4 0.500000 0.967689 0.000000
O O5 0.500000 0.813099 0.500000
O O6 0.604308 0.694081 0.431066
O O7 0.709438 0.861092 0.089908
O O8 0.772041 0.639968 0.537625
O O9 0.712582 0.483527 0.553538
O O10 0.565205 0.561487 0.090501
O O11 0.344934 0.303019 0.273313
O O12 0.500000 0.176384 0.000000
O O13 0.382899 0.161533 0.023678
O O14 0.500000 0.586365 0.500000
O O15 0.346005 0.512573 0.705712
O O16 0.185660 0.873753 0.399396
O O17 0.358269 0.996543 0.932438
O O18 0.500000 0.427671 0.000000
O O19 0.000000 0.629382 0.500000
#
# Coordination Sequence:
#
# PCOD8051950 Si02
#       8
#     4   4   4   4   4   4   4   4
#     4  12  21  41  72 105 140 186 239 293 344 410
#     4  11  25  46  70 104 137 189 242 280 354 424
#     4  12  23  43  71  99 149 173 230 297 350 407
#     4  11  24  43  72 106 135 190 241 277 349 423
#     4  11  28  44  67 106 140 188 229 286 367 413
#     4  12  22  47  74  96 146 182 231 295 349 416
#     4  11  25  45  69 101 139 188 230 283 355 423
#     4  12  22  42  73 103 139 182 240 288 342 411
#
# _framework density 21.817416000000001
#
# number of rings (size 3 to 8) (size 9 to 14) (size 15 to 20)
#    0.000    0.500    7.500    0.750    3.500    1.000 
#    4.500    0.625    0.000    0.000    0.000    0.000 
#    0.000    0.000    0.000    0.000    0.000    0.000 
#
# Total GULP energy -198301.736081 kJ/mol
# GULP energy per Si atom -12393.858505 kJ/mol
# Density = 2.176776 g / cm^3
# Si number density = 21.817416 Si / 1000 Ang^3
#
#
#
# Elastic Constant Matrix: (Units=GPa)
#
#
# Indices 1 2 3 4 5 6 
#
# 1 52.8494 34.0913 7.9029 0.0000 14.3229 0.0000
# 2 34.0913 127.0401 37.8311 0.0000 -1.9986 0.0000
# 3 7.9029 37.8311 79.4422 0.0000 6.1628 0.0000
# 4 0.0000 0.0000 0.0000 17.9182 0.0000 8.8566
# 5 14.3229 -1.9986 6.1628 0.0000 43.3551 0.0000
# 6 0.0000 0.0000 0.0000 8.8566 0.0000 34.5188
#
#
#
# Elastic Compliance Matrix: (Units=1/GPa)
#
#
# Indices 1 2 3 4 5 6 
#
# 1 0.026114 -0.007682 0.001777 0.000000 -0.009234 0.000000
# 2 -0.007682 0.011480 -0.004996 0.000000 0.003777 0.000000
# 3 0.001777 -0.004996 0.015019 0.000000 -0.002952 0.000000
# 4 0.000000 0.000000 0.000000 0.063915 0.000000 -0.016399
# 5 -0.009234 0.003777 -0.002952 0.000000 0.026710 0.000000
# 6 0.000000 0.000000 0.000000 -0.016399 0.000000 0.033177
#
#
# Mechanical properties :
#
#
# Convention : Reuss Voigt Hill
#
# Bulk Modulus (GPa) = 32.45595 46.55358 39.50477
# Shear Modulus (GPa) = 23.98229 31.12549 27.55389
#
# Velocity S-wave (km/s) = 3.31906 3.78118 3.55763
# Velocity P-wave (km/s) = 5.44028 6.35981 5.91793
#
# Compressibility (1/GPa) = 0.03081099
#
# Stress axis : x y z
#
# Youngs Moduli (GPa) = 38.29382 87.10730 66.58209
#
# Poissons Ratio (x) = 0.66916 -0.11830
# Poissons Ratio (y) = 0.29417 0.33263
# Poissons Ratio (z) = -0.06804 0.43516
#
# Static dielectric constant tensor:
#      x y z
#    x 4.229110 0.000000 0.145260 
#    y 0.000000 4.211000 0.000000 
#    z 0.145260 0.000000 3.911220 
# 
# 
# High freq. dielectric constant tensor:
#      x y z
#    x 1.862420 0.000000 0.006180 
#    y 0.000000 1.853720 0.000000 
#    z 0.006180 0.000000 1.859950 
# 
# From -- ./inp_files/31050.got.cif
#   From: 2010.03.12/outbox.cif.g09.slc.cpg/sg5_16_cif.got.tgz:31050.got - 2010.03.31 09:47:26.
