data_PCOD8051483
_publ_section_title
;
Structure prediction by ZEFSAII (Michael W. Deem and Ramdas Pophale) SiO2 
 PCOD8051483
Probable space group: C 2
;
_chemical_formula_sum "Si O2"
_cell_formula_units_Z 20
_cell_length_a 7.667279
_cell_length_b 9.641903
_cell_length_c 11.289774
_cell_angle_alpha 90.000000
_cell_angle_beta 74.932497
_cell_angle_gamma 90.000000
_cell_volume 805.926856
_symmetry_space_group_name_H-M "C 2"
_symmetry_group_IT_number 5
_symmetry_cell_setting 'monoclinic'
loop_
_space_group_symop_operation_xyz
x,y,z
-x,y,-z
1/2+x,1/2+y,z
1/2-x,1/2+y,-z
loop_
_atom_site_type_symbol
_atom_site_label
_atom_site_fract_x
_atom_site_fract_y
_atom_site_fract_z
Si Si1 0.808260 0.213610 0.983093
Si Si2 0.238771 0.374380 0.243736
Si Si3 0.706723 0.706553 0.477839
Si Si4 0.160091 0.446419 0.652806
Si Si5 0.129395 0.944635 0.144092
O O1 0.786124 0.262192 0.853446
O O2 0.791857 0.045855 0.974355
O O3 0.660256 0.285459 0.095149
O O4 0.000000 0.261918 0.000000
O O5 0.284263 0.295664 0.356418
O O6 0.413799 0.473007 0.191468
O O7 0.053282 0.460009 0.284681
O O8 0.500000 0.669794 0.500000
O O9 0.807629 0.558502 0.458448
O O10 0.726133 0.794824 0.595571
O O11 0.274080 0.479323 0.749611
#
# Coordination Sequence:
#
# PCOD8051483 Si02
#       5
#     4   4   4   4   4
#     4  12  25  49  76 108 149 197 246 304 368 439
#     4  11  25  49  74 110 147 195 247 303 368 440
#     4  10  25  48  76 109 150 191 251 301 367 442
#     4  11  25  53  74 109 152 194 244 310 366 437
#     4  12  28  49  77 108 151 196 246 306 369 438
#
# _framework density 24.816148999999999
#
# number of rings (size 3 to 8) (size 9 to 14) (size 15 to 20)
#    0.000    0.800    4.000    1.800    2.800    4.800 
#   18.000    0.000    0.000    0.000    0.000    0.000 
#    0.000    0.000    0.000    0.000    0.000    0.000 
#
# Total GULP energy -123980.241022 kJ/mol
# GULP energy per Si atom -12398.024102 kJ/mol
# Density = 2.475967 g / cm^3
# Si number density = 24.816149 Si / 1000 Ang^3
#
#
#
# Elastic Constant Matrix: (Units=GPa)
#
#
# Indices 1 2 3 4 5 6 
#
# 1 138.2292 57.5111 52.5293 0.0000 -4.5743 0.0000
# 2 57.5111 122.2017 34.3285 0.0000 -19.7634 0.0000
# 3 52.5293 34.3285 85.4024 0.0000 -7.7510 0.0000
# 4 0.0000 0.0000 0.0000 39.0415 0.0000 -9.4176
# 5 -4.5743 -19.7634 -7.7510 0.0000 36.3557 0.0000
# 6 0.0000 0.0000 0.0000 -9.4176 0.0000 26.4433
#
#
#
# Elastic Compliance Matrix: (Units=1/GPa)
#
#
# Indices 1 2 3 4 5 6 
#
# 1 0.010789 -0.003912 -0.005235 0.000000 -0.001885 0.000000
# 2 -0.003912 0.011356 -0.001675 0.000000 0.005324 0.000000
# 3 -0.005235 -0.001675 0.015765 0.000000 0.001792 0.000000
# 4 0.000000 0.000000 0.000000 0.028021 0.000000 0.009980
# 5 -0.001885 0.005324 0.001792 0.000000 0.030545 0.000000
# 6 0.000000 0.000000 0.000000 0.009980 0.000000 0.041371
#
#
# Mechanical properties :
#
#
# Convention : Reuss Voigt Hill
#
# Bulk Modulus (GPa) = 61.47788 70.50789 65.99289
# Shear Modulus (GPa) = 30.31918 33.79906 32.05912
#
# Velocity S-wave (km/s) = 3.49915 3.69450 3.59815
# Velocity P-wave (km/s) = 6.41502 6.83176 6.62667
#
# Compressibility (1/GPa) = 0.01626601
#
# Stress axis : x y z
#
# Youngs Moduli (GPa) = 92.68898 88.06053 63.43155
#
# Poissons Ratio (x) = 0.34448 0.33204
# Poissons Ratio (y) = 0.36258 0.10627
# Poissons Ratio (z) = 0.48519 0.14753
#
# Static dielectric constant tensor:
#      x y z
#    x 4.377270 0.000000 -0.032860 
#    y 0.000000 4.324020 0.000000 
#    z -0.032860 0.000000 4.722600 
# 
# 
# High freq. dielectric constant tensor:
#      x y z
#    x 1.988500 0.000000 0.004590 
#    y 0.000000 1.980580 0.000000 
#    z 0.004590 0.000000 1.996510 
# 
# From -- ./inp_files/35153.got.cif
#   From: 2010.03.12/outbox.cif.g09.slc.cpg/sg5_18_cif.got.tgz:35153.got - 2010.03.31 09:47:26.
