data_PCOD8051010
_publ_section_title
;
Structure prediction by ZEFSAII (Michael W. Deem and Ramdas Pophale) SiO2 
 PCOD8051010
Probable space group: C 2
;
_chemical_formula_sum "Si O2"
_cell_formula_units_Z 26
_cell_length_a 8.119546
_cell_length_b 9.870996
_cell_length_c 19.851855
_cell_angle_alpha 90.000000
_cell_angle_beta 47.626518
_cell_angle_gamma 90.000000
_cell_volume 1175.442822
_symmetry_space_group_name_H-M "C 2"
_symmetry_group_IT_number 5
_symmetry_cell_setting 'monoclinic'
loop_
_space_group_symop_operation_xyz
x,y,z
-x,y,-z
1/2+x,1/2+y,z
1/2-x,1/2+y,-z
loop_
_atom_site_type_symbol
_atom_site_label
_atom_site_fract_x
_atom_site_fract_y
_atom_site_fract_z
Si Si1 0.658263 0.896820 0.517882
Si Si2 0.984675 0.674899 0.391712
Si Si3 0.874274 0.635033 0.156953
Si Si4 0.393911 0.037490 0.777205
Si Si5 0.963944 0.915089 0.933194
Si Si6 0.057442 0.260587 0.681445
Si Si7 0.500000 0.966306 0.000000
O O1 0.500000 0.875773 0.500000
O O2 0.549403 0.812190 0.607716
O O3 0.889619 0.826043 0.431711
O O4 0.676232 0.056381 0.533002
O O5 0.025660 0.644090 0.301653
O O6 0.219189 0.676842 0.365270
O O7 0.633830 0.648315 0.257761
O O8 0.863267 0.534891 0.097474
O O9 0.054282 0.597574 0.163836
O O10 0.935954 0.769289 0.101540
O O11 0.124099 0.016835 0.845344
O O12 0.522964 0.893254 0.737576
O O13 0.706297 0.895617 0.981733
O O14 0.000000 0.962689 0.000000
#
# Coordination Sequence:
#
# PCOD8051010 Si02
#       7
#     4   4   4   4   4   4   2
#     4  11  23  40  65  96 132 175 224 278 341 409
#     4  11  24  43  67  99 135 177 224 283 341 410
#     4  11  23  42  65  94 131 176 225 282 343 405
#     4  10  23  42  66  95 136 178 221 283 341 402
#     4  11  23  42  63  98 137 172 234 281 332 410
#     4  10  23  41  64  93 132 171 224 282 335 413
#     4  12  24  38  68  94 128 184 222 280 350 394
#
# _framework density 22.119323999999999
#
# number of rings (size 3 to 8) (size 9 to 14) (size 15 to 20)
#    0.000    1.231    2.308    3.231    0.000    7.385 
#    0.000    0.000    0.000    0.000    0.000    0.000 
#    0.000    0.000    0.000    0.000    0.000    0.000 
#
# Total GULP energy -161060.265842 kJ/mol
# GULP energy per Si atom -12389.251219 kJ/mol
# Density = 2.206898 g / cm^3
# Si number density = 22.119324 Si / 1000 Ang^3
#
#
#
# Elastic Constant Matrix: (Units=GPa)
#
#
# Indices 1 2 3 4 5 6 
#
# 1 106.7772 9.0287 30.1246 0.0000 -3.3667 0.0000
# 2 9.0287 54.8179 27.4678 0.0000 -4.2700 0.0000
# 3 30.1246 27.4678 88.6614 0.0003 3.5446 0.0000
# 4 0.0000 0.0000 0.0003 19.9736 -0.0001 1.7094
# 5 -3.3667 -4.2700 3.5446 -0.0001 49.3826 0.0000
# 6 0.0000 0.0000 0.0000 1.7094 0.0000 25.5073
#
#
#
# Elastic Compliance Matrix: (Units=1/GPa)
#
#
# Indices 1 2 3 4 5 6 
#
# 1 0.010405 0.000183 -0.003631 0.000000 0.000986 0.000000
# 2 0.000183 0.021874 -0.006935 0.000000 0.002402 0.000000
# 3 -0.003631 -0.006935 0.014737 0.000000 -0.001905 0.000000
# 4 0.000000 0.000000 0.000000 0.050355 0.000000 -0.003375
# 5 0.000986 0.002402 -0.001905 0.000000 0.020662 0.000000
# 6 0.000000 0.000000 0.000000 -0.003375 0.000000 0.039431
#
#
# Mechanical properties :
#
#
# Convention : Reuss Voigt Hill
#
# Bulk Modulus (GPa) = 38.09581 42.61095 40.35338
# Shear Modulus (GPa) = 26.74066 31.21506 28.97786
#
# Velocity S-wave (km/s) = 3.48074 3.76069 3.62342
# Velocity P-wave (km/s) = 5.78051 6.17762 5.98236
#
# Compressibility (1/GPa) = 0.02624960
#
# Stress axis : x y z
#
# Youngs Moduli (GPa) = 96.10332 45.71625 67.85488
#
# Poissons Ratio (x) = -0.00835 0.24641
# Poissons Ratio (y) = -0.01755 0.47056
# Poissons Ratio (z) = 0.34900 0.31703
#
# Static dielectric constant tensor:
#      x y z
#    x 4.404290 0.000000 -0.575140 
#    y 0.000000 4.040880 0.000000 
#    z -0.575140 0.000000 4.901830 
# 
# 
# High freq. dielectric constant tensor:
#      x y z
#    x 1.869230 0.000000 0.006150 
#    y 0.000000 1.855600 0.000000 
#    z 0.006150 0.000000 1.891570 
# 
# From -- ./inp_files/64317.got.cif
#   From: 2010.03.12/outbox.cif.g09.slc.cpg/sg5_33_cif.got.tgz:64317.got - 2010.03.31 09:47:26.
