data_PCOD8051298
_publ_section_title
;
Structure prediction by ZEFSAII (Michael W. Deem and Ramdas Pophale) SiO2 
 PCOD8051298
Probable space group: C 2
;
_chemical_formula_sum "Si O2"
_cell_formula_units_Z 22
_cell_length_a 24.561491
_cell_length_b 7.952027
_cell_length_c 4.989721
_cell_angle_alpha 90.000000
_cell_angle_beta 98.625068
_cell_angle_gamma 90.000000
_cell_volume 963.539129
_symmetry_space_group_name_H-M "C 2"
_symmetry_group_IT_number 5
_symmetry_cell_setting 'monoclinic'
loop_
_space_group_symop_operation_xyz
x,y,z
-x,y,-z
1/2+x,1/2+y,z
1/2-x,1/2+y,-z
loop_
_atom_site_type_symbol
_atom_site_label
_atom_site_fract_x
_atom_site_fract_y
_atom_site_fract_z
Si Si1 0.597339 0.890070 0.320834
Si Si2 0.256772 0.721126 0.880482
Si Si3 0.534268 0.410414 0.765370
Si Si4 0.378208 0.676272 0.147319
Si Si5 0.707262 0.068006 0.323314
Si Si6 0.000000 0.586616 0.500000
O O1 0.620852 0.764400 0.562936
O O2 0.642230 0.036519 0.305585
O O3 0.539226 0.970582 0.352450
O O4 0.587783 0.790235 0.037542
O O5 0.260626 0.909707 0.778280
O O6 0.231992 0.603945 0.631640
O O7 0.316389 0.650178 0.004561
O O8 0.217674 0.717029 0.115583
O O9 0.500000 0.498178 0.500000
O O10 0.594785 0.491015 0.819000
O O11 0.537676 0.207867 0.718382
O O12 0.500000 0.453434 0.000000
#
# Coordination Sequence:
#
# PCOD8051298 Si02
#       6
#     4   4   4   4   4   2
#     4  11  25  43  71  97 136 176 229 270 333 396
#     4  11  23  44  69  98 138 172 222 277 332 397
#     4  10  24  44  64  97 136 164 228 272 325 397
#     4  11  24  44  70  99 131 182 226 266 331 409
#     4  11  23  44  67 102 133 176 223 274 331 400
#     4  10  28  44  68  98 138 170 222 286 334 376
#
# _framework density 22.832492999999999
#
# number of rings (size 3 to 8) (size 9 to 14) (size 15 to 20)
#    0.545    0.727    0.000    6.545    6.364    1.455 
#    6.545    0.000    0.000    0.000    0.000    0.000 
#    0.000    0.000    0.000    0.000    0.000    0.000 
#
# Total GULP energy -136414.892349 kJ/mol
# GULP energy per Si atom -12401.353850 kJ/mol
# Density = 2.278053 g / cm^3
# Si number density = 22.832493 Si / 1000 Ang^3
#
#
#
# Elastic Constant Matrix: (Units=GPa)
#
#
# Indices 1 2 3 4 5 6 
#
# 1 81.5374 23.8482 10.0571 0.0000 -22.1786 0.0000
# 2 23.8482 42.7876 -5.3933 0.0000 -2.8751 0.0000
# 3 10.0571 -5.3933 106.3341 0.0000 -12.8645 0.0000
# 4 0.0000 0.0000 0.0000 65.4291 0.0000 -14.4109
# 5 -22.1786 -2.8751 -12.8645 0.0000 40.0635 0.0000
# 6 0.0000 0.0000 0.0000 -14.4109 0.0000 45.8954
#
#
#
# Elastic Compliance Matrix: (Units=1/GPa)
#
#
# Indices 1 2 3 4 5 6 
#
# 1 0.017470 -0.009291 -0.001076 0.000000 0.008659 0.000000
# 2 -0.009291 0.028643 0.002037 0.000000 -0.002434 0.000000
# 3 -0.001076 0.002037 0.009941 0.000000 0.002743 0.000000
# 4 0.000000 0.000000 0.000000 0.016419 0.000000 0.005156
# 5 0.008659 -0.002434 0.002743 0.000000 0.030460 0.000000
# 6 0.000000 0.000000 0.000000 0.005156 0.000000 0.023407
#
#
# Mechanical properties :
#
#
# Convention : Reuss Voigt Hill
#
# Bulk Modulus (GPa) = 25.38432 31.96481 28.67456
# Shear Modulus (GPa) = 32.02446 43.75408 37.88927
#
# Velocity S-wave (km/s) = 3.74917 4.38231 4.07805
# Velocity P-wave (km/s) = 5.46658 6.29574 5.89575
#
# Compressibility (1/GPa) = 0.03939440
#
# Stress axis : x y z
#
# Youngs Moduli (GPa) = 57.24233 34.91285 100.59122
#
# Poissons Ratio (x) = 0.32436 0.10823
# Poissons Ratio (y) = 0.53182 -0.20491
# Poissons Ratio (z) = 0.06159 -0.07112
#
# Static dielectric constant tensor:
#      x y z
#    x 3.822180 0.000000 -0.162900 
#    y 0.000000 3.981800 0.000000 
#    z -0.162900 0.000000 4.386060 
# 
# 
# High freq. dielectric constant tensor:
#      x y z
#    x 1.894900 0.000000 -0.009340 
#    y 0.000000 1.891600 0.000000 
#    z -0.009340 0.000000 1.923070 
# 
# From -- ./inp_files/10670.got.cif
#   From: 2010.03.12/outbox.cif.g09.slc.cpg/sg5_6_cif.got.tgz:10670.got - 2010.03.31 09:47:26.
