data_PCOD8051441
_publ_section_title
;
Structure prediction by ZEFSAII (Michael W. Deem and Ramdas Pophale) SiO2 
 PCOD8051441
Probable space group: C 2
;
_chemical_formula_sum "Si O2"
_cell_formula_units_Z 22
_cell_length_a 12.933703
_cell_length_b 14.142439
_cell_length_c 6.901423
_cell_angle_alpha 90.000000
_cell_angle_beta 123.306565
_cell_angle_gamma 90.000000
_cell_volume 1055.016727
_symmetry_space_group_name_H-M "C 2"
_symmetry_group_IT_number 5
_symmetry_cell_setting 'monoclinic'
loop_
_space_group_symop_operation_xyz
x,y,z
-x,y,-z
1/2+x,1/2+y,z
1/2-x,1/2+y,-z
loop_
_atom_site_type_symbol
_atom_site_label
_atom_site_fract_x
_atom_site_fract_y
_atom_site_fract_z
Si Si1 0.694020 0.540160 0.894328
Si Si2 0.000000 0.714019 0.000000
Si Si3 0.358080 0.959622 0.356765
Si Si4 0.363548 0.702672 0.897823
Si Si5 0.308415 0.335751 0.028153
Si Si6 0.715872 0.104775 0.414845
O O1 0.636672 0.433886 0.824183
O O2 0.705625 0.583157 0.695003
O O3 0.826987 0.531161 0.144318
O O4 0.612124 0.612038 0.937776
O O5 0.077634 0.775441 0.928435
O O6 0.912931 0.652419 0.773835
O O7 0.500000 0.932536 0.500000
O O8 0.317093 0.006349 0.515556
O O9 0.279733 0.863002 0.245803
O O10 0.274143 0.780004 0.901637
O O11 0.299056 0.672823 0.631484
O O12 0.500000 0.746689 0.000000
#
# Coordination Sequence:
#
# PCOD8051441 Si02
#       6
#     4   2   4   4   4   4
#     4   9  22  45  64 103 134 181 228 280 356 406
#     4  12  24  44  74 108 140 174 246 290 340 428
#     4   9  21  40  69  98 139 181 236 277 339 417
#     4  11  25  47  66 101 142 177 238 286 345 415
#     4  10  25  43  67 102 140 175 236 288 341 407
#     4  11  23  42  76  96 139 191 223 288 355 401
#
# _framework density 20.852751000000001
#
# number of rings (size 3 to 8) (size 9 to 14) (size 15 to 20)
#    1.091    0.727    1.818    1.091    3.818    5.091 
#    0.000    1.818    0.000    0.000    0.000    0.000 
#    0.000    0.000    0.000    0.000    0.000    0.000 
#
# Total GULP energy -136328.560682 kJ/mol
# GULP energy per Si atom -12393.505517 kJ/mol
# Density = 2.080529 g / cm^3
# Si number density = 20.852751 Si / 1000 Ang^3
#
#
#
# Elastic Constant Matrix: (Units=GPa)
#
#
# Indices 1 2 3 4 5 6 
#
# 1 95.5705 22.5662 42.2418 0.0000 -12.4282 0.0000
# 2 22.5662 90.9039 33.4607 0.0000 -16.0190 0.0000
# 3 42.2418 33.4607 120.6766 0.0000 -13.7812 0.0000
# 4 0.0000 0.0000 0.0000 42.7363 0.0000 -7.7039
# 5 -12.4282 -16.0190 -13.7812 0.0000 32.9346 0.0000
# 6 0.0000 0.0000 0.0000 -7.7039 0.0000 25.2549
#
#
#
# Elastic Compliance Matrix: (Units=1/GPa)
#
#
# Indices 1 2 3 4 5 6 
#
# 1 0.012799 -0.001315 -0.003820 0.000000 0.002592 0.000000
# 2 -0.001315 0.013142 -0.002636 0.000000 0.004793 0.000000
# 3 -0.003820 -0.002636 0.010548 0.000000 0.001690 0.000000
# 4 0.000000 0.000000 0.000000 0.024761 0.000000 0.007553
# 5 0.002592 0.004793 0.001690 0.000000 0.034380 0.000000
# 6 0.000000 0.000000 0.000000 0.007553 0.000000 0.041900
#
#
# Mechanical properties :
#
#
# Convention : Reuss Voigt Hill
#
# Bulk Modulus (GPa) = 47.73848 55.96536 51.85192
# Shear Modulus (GPa) = 31.23947 34.11064 32.67505
#
# Velocity S-wave (km/s) = 3.87473 4.04887 3.96276
# Velocity P-wave (km/s) = 6.55445 6.98244 6.77183
#
# Compressibility (1/GPa) = 0.02094746
#
# Stress axis : x y z
#
# Youngs Moduli (GPa) = 78.12937 76.09193 94.80745
#
# Poissons Ratio (x) = 0.10002 0.36214
# Poissons Ratio (y) = 0.10270 0.24996
# Poissons Ratio (z) = 0.29844 0.20061
#
# Static dielectric constant tensor:
#      x y z
#    x 3.541910 0.000000 -0.064890 
#    y 0.000000 3.827500 0.000000 
#    z -0.064890 0.000000 3.757570 
# 
# 
# High freq. dielectric constant tensor:
#      x y z
#    x 1.807140 0.000000 -0.007050 
#    y 0.000000 1.818640 0.000000 
#    z -0.007050 0.000000 1.815830 
# 
# From -- ./inp_files/5220.got.cif
#   From: 2010.03.12/outbox.cif.g09.slc.cpg/sg5_3_cif.got.tgz:5220.got - 2010.03.31 09:47:26.
