data_PCOD8051482
_publ_section_title
;
Structure prediction by ZEFSAII (Michael W. Deem and Ramdas Pophale) SiO2 
 PCOD8051482
Probable space group: C 2
;
_chemical_formula_sum "Si O2"
_cell_formula_units_Z 24
_cell_length_a 13.180268
_cell_length_b 5.324848
_cell_length_c 21.820924
_cell_angle_alpha 90.000000
_cell_angle_beta 144.526772
_cell_angle_gamma 90.000000
_cell_volume 888.738500
_symmetry_space_group_name_H-M "C 2"
_symmetry_group_IT_number 5
_symmetry_cell_setting 'monoclinic'
loop_
_space_group_symop_operation_xyz
x,y,z
-x,y,-z
1/2+x,1/2+y,z
1/2-x,1/2+y,-z
loop_
_atom_site_type_symbol
_atom_site_label
_atom_site_fract_x
_atom_site_fract_y
_atom_site_fract_z
Si Si1 0.500000 0.631691 0.500000
Si Si2 0.605306 0.921496 0.181032
Si Si3 0.160387 0.882555 0.359396
Si Si4 0.382521 0.222557 0.527046
Si Si5 0.000000 0.293518 0.000000
Si Si6 0.632697 0.063636 0.827343
Si Si7 0.175172 0.411315 0.715898
O O1 0.486855 0.459801 0.554225
O O2 0.319792 0.779439 0.396837
O O3 0.535624 0.963647 0.077310
O O4 0.447636 0.923526 0.153094
O O5 0.737081 0.148893 0.258983
O O6 0.693599 0.647746 0.228642
O O7 0.211633 0.173726 0.398910
O O8 0.176040 0.748502 0.432537
O O9 0.973839 0.828756 0.236345
O O10 0.507809 0.971009 0.589174
O O11 0.164502 0.120671 0.062029
O O12 0.614054 0.895218 0.756997
#
# Coordination Sequence:
#
# PCOD8051482 Si02
#       7
#     2   4   4   4   2   4   4
#     4  12  24  40  68 102 144 192 232 286 348 420
#     4  11  25  48  76 108 141 188 241 302 364 430
#     4  11  24  44  68 103 144 188 238 288 350 423
#     4  11  24  42  68 101 147 190 236 287 346 429
#     4  10  26  48  76 106 142 186 246 308 364 426
#     4  10  25  48  73 105 144 191 241 301 362 426
#     4  10  26  45  72 108 148 186 240 296 354 430
#
# _framework density 27.004570999999999
#
# number of rings (size 3 to 8) (size 9 to 14) (size 15 to 20)
#    0.000    1.333    1.667    1.500    7.000   10.667 
#    0.000    0.000    0.000    0.000    0.000    0.000 
#    0.000    0.000    0.000    0.000    0.000    0.000 
#
# Total GULP energy -148703.493634 kJ/mol
# GULP energy per Si atom -12391.957803 kJ/mol
# Density = 2.694311 g / cm^3
# Si number density = 27.004571 Si / 1000 Ang^3
#
#
#
# Elastic Constant Matrix: (Units=GPa)
#
#
# Indices 1 2 3 4 5 6 
#
# 1 168.8491 10.7144 19.0154 0.0001 18.5414 -0.0002
# 2 10.7144 80.1796 10.1350 0.0002 19.0169 0.0001
# 3 19.0154 10.1350 124.1045 0.0001 15.1813 -0.0004
# 4 0.0001 0.0002 0.0001 31.0214 0.0000 3.2388
# 5 18.5414 19.0169 15.1813 0.0000 42.7545 0.0000
# 6 -0.0002 0.0001 -0.0004 3.2388 0.0000 34.5609
#
#
#
# Elastic Compliance Matrix: (Units=1/GPa)
#
#
# Indices 1 2 3 4 5 6 
#
# 1 0.006272 -0.000185 -0.000652 0.000000 -0.002406 0.000000
# 2 -0.000185 0.013967 -0.000379 0.000000 -0.005998 0.000000
# 3 -0.000652 -0.000379 0.008503 0.000000 -0.002568 0.000000
# 4 0.000000 0.000000 0.000000 0.032554 0.000000 -0.003051
# 5 -0.002406 -0.005998 -0.002568 0.000000 0.028013 0.000000
# 6 0.000000 0.000000 0.000000 -0.003051 0.000000 0.029220
#
#
# Mechanical properties :
#
#
# Convention : Reuss Voigt Hill
#
# Bulk Modulus (GPa) = 38.00649 50.31808 44.16229
# Shear Modulus (GPa) = 38.54177 43.88527 41.21352
#
# Velocity S-wave (km/s) = 3.78197 4.03563 3.91086
# Velocity P-wave (km/s) = 5.75984 6.35521 6.06483
#
# Compressibility (1/GPa) = 0.02631130
#
# Stress axis : x y z
#
# Youngs Moduli (GPa) = 159.44404 71.59667 117.61079
#
# Poissons Ratio (x) = 0.01325 0.07662
# Poissons Ratio (y) = 0.02950 0.04453
# Poissons Ratio (z) = 0.10388 0.02711
#
# Static dielectric constant tensor:
#      x y z
#    x 5.487910 0.000000 0.090250 
#    y 0.000000 4.797960 0.000000 
#    z 0.090250 0.000000 5.011070 
# 
# 
# High freq. dielectric constant tensor:
#      x y z
#    x 2.131650 0.000000 0.001300 
#    y 0.000000 2.071660 0.000000 
#    z 0.001300 0.000000 2.077830 
# 
# From -- ./inp_files/53915.got.cif
#   From: 2010.03.12/outbox.cif.g09.slc.cpg/sg5_27_cif.got.tgz:53915.got - 2010.03.31 09:47:26.
