data_PCOD8051200
_publ_section_title
;
Structure prediction by ZEFSAII (Michael W. Deem and Ramdas Pophale) SiO2 
 PCOD8051200
Probable space group: C 2
;
_chemical_formula_sum "Si O2"
_cell_formula_units_Z 26
_cell_length_a 10.414565
_cell_length_b 15.300813
_cell_length_c 8.800247
_cell_angle_alpha 90.000000
_cell_angle_beta 67.782156
_cell_angle_gamma 90.000000
_cell_volume 1298.211852
_symmetry_space_group_name_H-M "C 2"
_symmetry_group_IT_number 5
_symmetry_cell_setting 'monoclinic'
loop_
_space_group_symop_operation_xyz
x,y,z
-x,y,-z
1/2+x,1/2+y,z
1/2-x,1/2+y,-z
loop_
_atom_site_type_symbol
_atom_site_label
_atom_site_fract_x
_atom_site_fract_y
_atom_site_fract_z
Si Si1 0.145544 0.295660 0.523487
Si Si2 0.239762 0.548960 0.097614
Si Si3 0.387158 0.701846 0.166967
Si Si4 0.500000 0.088440 0.000000
Si Si5 0.454477 0.548057 0.754226
Si Si6 0.762772 0.982990 0.411888
Si Si7 0.781626 0.627438 0.338901
O O1 0.148966 0.280667 0.704508
O O2 0.203934 0.392126 0.492544
O O3 0.248370 0.225362 0.403361
O O4 0.000000 0.289164 0.500000
O O5 0.261529 0.652924 0.131457
O O6 0.224486 0.489960 0.251688
O O7 0.103541 0.531711 0.057303
O O8 0.373702 0.516614 0.941520
O O9 0.448995 0.629931 0.251573
O O10 0.500000 0.739392 0.000000
O O11 0.405050 0.142237 0.161590
O O12 0.568573 0.478381 0.644210
O O13 0.349313 0.576418 0.671920
O O14 0.683978 0.063087 0.535101
#
# Coordination Sequence:
#
# PCOD8051200 Si02
#       7
#     4   4   4   2   4   4   4
#     4  12  23  39  64  97 127 165 211 260 317 378
#     4   9  19  38  65  89 123 166 214 259 314 371
#     4   9  17  36  65  92 114 158 217 255 304 374
#     4  10  24  38  62  90 126 182 202 256 324 364
#     4   9  17  39  68  87 114 167 213 255 310 373
#     4  11  22  36  66  95 122 161 216 266 309 370
#     4  11  21  43  64  84 131 167 214 256 313 384
#
# _framework density 20.027546000000001
#
# number of rings (size 3 to 8) (size 9 to 14) (size 15 to 20)
#    0.000    1.846    4.615    1.846    2.154    0.000 
#    4.154    3.077    0.000    0.000    0.000    0.000 
#    0.000    0.000    0.000    0.000    0.000    0.000 
#
# Total GULP energy -161057.686729 kJ/mol
# GULP energy per Si atom -12389.052825 kJ/mol
# Density = 1.998196 g / cm^3
# Si number density = 20.027546 Si / 1000 Ang^3
#
#
#
# Elastic Constant Matrix: (Units=GPa)
#
#
# Indices 1 2 3 4 5 6 
#
# 1 87.7183 21.3091 29.0869 0.0000 -6.1398 0.0000
# 2 21.3091 94.9166 40.2457 0.0000 -17.1339 0.0000
# 3 29.0869 40.2457 116.3683 0.0000 -12.2550 0.0000
# 4 0.0000 0.0000 0.0000 29.4794 0.0000 -6.4555
# 5 -6.1398 -17.1339 -12.2550 0.0000 32.3432 0.0000
# 6 0.0000 0.0000 0.0000 -6.4555 0.0000 18.0672
#
#
#
# Elastic Compliance Matrix: (Units=1/GPa)
#
#
# Indices 1 2 3 4 5 6 
#
# 1 0.012686 -0.001672 -0.002533 0.000000 0.000562 0.000000
# 2 -0.001672 0.013441 -0.003660 0.000000 0.005416 0.000000
# 3 -0.002533 -0.003660 0.010663 0.000000 0.001620 0.000000
# 4 0.000000 0.000000 0.000000 0.036802 0.000000 0.013149
# 5 0.000562 0.005416 0.001620 0.000000 0.034508 0.000000
# 6 0.000000 0.000000 0.000000 0.013149 0.000000 0.060047
#
#
# Mechanical properties :
#
#
# Convention : Reuss Voigt Hill
#
# Bulk Modulus (GPa) = 47.48757 53.36517 50.42637
# Shear Modulus (GPa) = 26.19215 29.86873 28.03044
#
# Velocity S-wave (km/s) = 3.62028 3.86603 3.74517
# Velocity P-wave (km/s) = 6.42167 6.82876 6.62834
#
# Compressibility (1/GPa) = 0.02105814
#
# Stress axis : x y z
#
# Youngs Moduli (GPa) = 78.82844 74.40172 93.78161
#
# Poissons Ratio (x) = 0.12443 0.23758
# Poissons Ratio (y) = 0.13183 0.34324
# Poissons Ratio (z) = 0.19969 0.27231
#
# Static dielectric constant tensor:
#      x y z
#    x 3.885800 0.000000 0.019490 
#    y 0.000000 3.238540 0.000000 
#    z 0.019490 0.000000 4.104670 
# 
# 
# High freq. dielectric constant tensor:
#      x y z
#    x 1.775800 0.000000 0.002460 
#    y 0.000000 1.729090 0.000000 
#    z 0.002460 0.000000 1.815100 
# 
# From -- ./inp_files/19983.got.cif
#   From: 2010.03.12/outbox.cif.g09.slc.cpg/sg5_10_cif.got.tgz:19983.got - 2010.03.31 09:47:26.
