data_PCOD8051114
_publ_section_title
;
Structure prediction by ZEFSAII (Michael W. Deem and Ramdas Pophale) SiO2 
 PCOD8051114
Probable space group: C 2
;
_chemical_formula_sum "Si O2"
_cell_formula_units_Z 24
_cell_length_a 27.396990
_cell_length_b 5.286160
_cell_length_c 15.067032
_cell_angle_alpha 90.000000
_cell_angle_beta 27.937334
_cell_angle_gamma 90.000000
_cell_volume 1022.317115
_symmetry_space_group_name_H-M "C 2"
_symmetry_group_IT_number 5
_symmetry_cell_setting 'monoclinic'
loop_
_space_group_symop_operation_xyz
x,y,z
-x,y,-z
1/2+x,1/2+y,z
1/2-x,1/2+y,-z
loop_
_atom_site_type_symbol
_atom_site_label
_atom_site_fract_x
_atom_site_fract_y
_atom_site_fract_z
Si Si1 0.778826 0.509190 0.400878
Si Si2 0.766168 0.454039 0.228527
Si Si3 0.000000 0.325516 0.500000
Si Si4 0.900149 0.949730 0.998104
Si Si5 0.000000 0.711679 0.000000
Si Si6 0.823328 0.687334 0.782116
Si Si7 0.596175 0.502928 0.197161
O O1 0.763957 0.267346 0.487414
O O2 0.717898 0.464137 0.405620
O O3 0.901077 0.536331 0.180344
O O4 0.814323 0.727704 0.130373
O O5 0.678815 0.399868 0.292837
O O6 0.849636 0.224207 0.094651
O O7 0.896847 0.465483 0.629981
O O8 0.975497 0.177000 0.628584
O O9 0.981539 0.894189 0.945420
O O10 0.959899 0.941587 0.806587
O O11 0.880752 0.759105 0.781026
O O12 0.705833 0.625286 0.994083
#
# Coordination Sequence:
#
# PCOD8051114 Si02
#       7
#     4   4   2   4   2   4   4
#     4  11  24  46  73 107 144 187 241 293 360 421
#     4  10  23  44  74 105 143 190 237 292 363 421
#     4  12  26  44  72 106 140 188 246 288 360 434
#     4  10  23  43  77 104 140 195 239 287 364 421
#     4  10  24  50  74 106 148 188 240 304 342 424
#     4  11  23  45  72  97 146 186 233 300 355 427
#     4  11  23  45  71 101 144 188 235 296 363 420
#
# _framework density 23.476082999999999
#
# number of rings (size 3 to 8) (size 9 to 14) (size 15 to 20)
#    0.000    1.333    1.667    3.500    4.667    6.000 
#    6.000    1.667    0.000    0.000    0.000    0.000 
#    0.000    0.000    0.000    0.000    0.000    0.000 
#
# Total GULP energy -148701.212937 kJ/mol
# GULP energy per Si atom -12391.767745 kJ/mol
# Density = 2.342265 g / cm^3
# Si number density = 23.476083 Si / 1000 Ang^3
#
#
#
# Elastic Constant Matrix: (Units=GPa)
#
#
# Indices 1 2 3 4 5 6 
#
# 1 174.6992 24.4596 53.9556 0.0008 44.5401 -0.0013
# 2 24.4596 87.2914 44.5889 -0.0283 17.8522 -0.0050
# 3 53.9556 44.5889 129.4408 -0.0205 29.0746 -0.0025
# 4 0.0008 -0.0283 -0.0205 61.1532 0.0040 25.4929
# 5 44.5401 17.8522 29.0746 0.0040 40.4647 0.0009
# 6 -0.0013 -0.0050 -0.0025 25.4929 0.0009 47.7344
#
#
#
# Elastic Compliance Matrix: (Units=1/GPa)
#
#
# Indices 1 2 3 4 5 6 
#
# 1 0.008251 0.000190 -0.001724 0.000000 -0.007927 0.000000
# 2 0.000190 0.014265 -0.004212 0.000006 -0.003476 -0.000002
# 3 -0.001724 -0.004212 0.010794 0.000002 -0.003999 -0.000001
# 4 0.000000 0.000006 0.000002 0.021036 -0.000006 -0.011234
# 5 -0.007927 -0.003476 -0.003999 -0.000006 0.037845 0.000002
# 6 0.000000 -0.000002 -0.000001 -0.011234 0.000002 0.026949
#
#
# Mechanical properties :
#
#
# Convention : Reuss Voigt Hill
#
# Bulk Modulus (GPa) = 45.83704 70.82662 58.33183
# Shear Modulus (GPa) = 36.25680 47.76561 42.01121
#
# Velocity S-wave (km/s) = 3.93417 4.51560 4.23488
# Velocity P-wave (km/s) = 6.34068 7.57778 6.98667
#
# Compressibility (1/GPa) = 0.02181642
#
# Stress axis : x y z
#
# Youngs Moduli (GPa) = 121.19646 70.10037 92.64756
#
# Poissons Ratio (x) = -0.01331 0.15975
# Poissons Ratio (y) = -0.02302 0.39027
# Poissons Ratio (z) = 0.20897 0.29529
#
# Static dielectric constant tensor:
#      x y z
#    x 4.496330 0.000050 0.446690 
#    y 0.000050 4.251930 0.000040 
#    z 0.446690 0.000040 4.222610 
# 
# 
# High freq. dielectric constant tensor:
#      x y z
#    x 1.947770 0.000000 0.024230 
#    y 0.000000 1.934980 0.000000 
#    z 0.024230 0.000000 1.918980 
# 
# From -- ./inp_files/53706.got.cif
#   From: 2010.03.12/outbox.cif.g09.slc.cpg/sg5_27_cif.got.tgz:53706.got - 2010.03.31 09:47:26.
