data_PCOD8051839
_publ_section_title
;
Structure prediction by ZEFSAII (Michael W. Deem and Ramdas Pophale) SiO2 
 PCOD8051839
Probable space group: C 2
;
_chemical_formula_sum "Si O2"
_cell_formula_units_Z 24
_cell_length_a 8.311621
_cell_length_b 17.943280
_cell_length_c 8.696637
_cell_angle_alpha 90.000000
_cell_angle_beta 125.357673
_cell_angle_gamma 90.000000
_cell_volume 1057.772903
_symmetry_space_group_name_H-M "C 2"
_symmetry_group_IT_number 5
_symmetry_cell_setting 'monoclinic'
loop_
_space_group_symop_operation_xyz
x,y,z
-x,y,-z
1/2+x,1/2+y,z
1/2-x,1/2+y,-z
loop_
_atom_site_type_symbol
_atom_site_label
_atom_site_fract_x
_atom_site_fract_y
_atom_site_fract_z
Si Si1 0.691080 0.956000 0.514474
Si Si2 0.791478 0.434518 0.835494
Si Si3 0.959354 0.049957 0.157427
Si Si4 0.803321 0.283856 0.471913
Si Si5 0.041965 0.216419 0.848844
Si Si6 0.575444 0.308416 0.883829
O O1 0.500000 0.987507 0.500000
O O2 0.688312 0.957930 0.329350
O O3 0.718088 0.870809 0.579736
O O4 0.870298 0.007706 0.658216
O O5 0.743148 0.507467 0.911059
O O6 0.634436 0.369358 0.787621
O O7 0.000000 0.400416 0.000000
O O8 0.944227 0.133751 0.215877
O O9 0.000000 0.046456 0.000000
O O10 0.592886 0.254364 0.289377
O O11 0.000000 0.249562 0.500000
O O12 0.851664 0.262621 0.675490
O O13 0.247133 0.259575 0.947951
O O14 0.000000 0.203244 0.000000
O O15 0.500000 0.348260 0.000000
#
# Coordination Sequence:
#
# PCOD8051839 Si02
#       6
#     4   4   4   4   4   4
#     4  11  24  44  71 104 138 176 233 289 348 412
#     4  12  25  42  73 103 135 183 236 288 343 417
#     4  11  25  47  68  98 145 185 229 286 347 412
#     4  11  23  42  73 103 136 182 230 291 350 408
#     4  11  26  47  68 104 143 185 235 287 345 420
#     4  12  24  44  75 106 141 184 234 290 349 411
#
# _framework density 22.689181999999999
#
# number of rings (size 3 to 8) (size 9 to 14) (size 15 to 20)
#    0.000    0.667    3.333    4.500    2.333    4.000 
#    9.000    0.000    0.000    0.000    0.000    0.000 
#    0.000    0.000    0.000    0.000    0.000    0.000 
#
# Total GULP energy -148712.716866 kJ/mol
# GULP energy per Si atom -12392.726405 kJ/mol
# Density = 2.263754 g / cm^3
# Si number density = 22.689182 Si / 1000 Ang^3
#
#
#
# Elastic Constant Matrix: (Units=GPa)
#
#
# Indices 1 2 3 4 5 6 
#
# 1 126.8083 37.8443 50.7017 0.0000 -5.8802 0.0000
# 2 37.8443 105.8738 40.2059 0.0000 4.4612 0.0000
# 3 50.7017 40.2059 166.4164 0.0000 11.1044 0.0000
# 4 0.0000 0.0000 0.0000 -85.0256 0.0000 223.9597
# 5 -5.8802 4.4612 11.1044 0.0000 47.3963 0.0000
# 6 0.0000 0.0000 0.0000 223.9597 0.0000 -406.1594
#
#
#
# Elastic Compliance Matrix: (Units=1/GPa)
#
#
# Indices 1 2 3 4 5 6 
#
# 1 0.009755 -0.002634 -0.002471 0.000000 0.002037 0.000000
# 2 -0.002634 0.011118 -0.001820 0.000000 -0.000947 0.000000
# 3 -0.002471 -0.001820 0.007325 0.000000 -0.001852 0.000000
# 4 0.000000 0.000000 0.000000 0.025996 0.000000 0.014334
# 5 0.002037 -0.000947 -0.001852 0.000000 0.021874 0.000000
# 6 0.000000 0.000000 0.000000 0.014334 0.000000 0.005442
#
#
# Mechanical properties :
#
#
# Convention : Reuss Voigt Hill
#
# Bulk Modulus (GPa) = 69.70539 72.95581 71.33060
# Shear Modulus (GPa) = 49.92808 -70.73464 -10.40328
#
# Velocity S-wave (km/s) = 4.69606 -5.58956 -2.14361
# Velocity P-wave (km/s) = 7.75839 3.07137 5.03782
#
# Compressibility (1/GPa) = 0.01434609
#
# Stress axis : x y z
#
# Youngs Moduli (GPa) = 102.51518 89.94470 136.51220
#
# Poissons Ratio (x) = 0.23692 0.33739
# Poissons Ratio (y) = 0.27003 0.24851
# Poissons Ratio (z) = 0.25336 0.16373
#
# Static dielectric constant tensor:
#      x y z
#    x 4.971520 0.000000 -3.671240 
#    y 0.000000 4.077690 0.000000 
#    z -3.671240 0.000000 22.673540 
# 
# 
# High freq. dielectric constant tensor:
#      x y z
#    x 1.910780 0.000000 -0.002320 
#    y 0.000000 1.868030 0.000000 
#    z -0.002320 0.000000 1.909750 
# 
# From -- ./inp_files/16845.got.cif
#   From: 2010.03.12/outbox.cif.g09.slc.cpg/sg5_9_cif.got.tgz:16845.got - 2010.03.31 09:47:26.
