data_PCOD8051930
_publ_section_title
;
Structure prediction by ZEFSAII (Michael W. Deem and Ramdas Pophale) SiO2 
 PCOD8051930
Probable space group: C 2
;
_chemical_formula_sum "Si O2"
_cell_formula_units_Z 24
_cell_length_a 29.052731
_cell_length_b 7.333879
_cell_length_c 22.063636
_cell_angle_alpha 90.000000
_cell_angle_beta 14.732180
_cell_angle_gamma 90.000000
_cell_volume 1195.490533
_symmetry_space_group_name_H-M "C 2"
_symmetry_group_IT_number 5
_symmetry_cell_setting 'monoclinic'
loop_
_space_group_symop_operation_xyz
x,y,z
-x,y,-z
1/2+x,1/2+y,z
1/2-x,1/2+y,-z
loop_
_atom_site_type_symbol
_atom_site_label
_atom_site_fract_x
_atom_site_fract_y
_atom_site_fract_z
Si Si1 0.428259 0.458910 0.524747
Si Si2 0.015844 0.411132 0.045663
Si Si3 0.032588 0.667795 0.293086
Si Si4 0.258086 0.210689 0.412579
Si Si5 0.221555 0.124760 0.596047
Si Si6 0.434908 0.751548 0.739088
O O1 0.500000 0.425968 0.500000
O O2 0.215487 0.476969 0.805804
O O3 0.479661 0.288713 0.417603
O O4 0.510991 0.641303 0.389971
O O5 0.000000 0.318223 0.000000
O O6 0.891857 0.591397 0.201610
O O7 0.950695 0.256798 0.175791
O O8 0.030594 0.462050 0.319422
O O9 0.889992 0.700796 0.420476
O O10 0.227205 0.721230 0.019673
O O11 0.325940 0.418921 0.324527
O O12 0.056349 0.190985 0.642053
O O13 0.270047 0.124953 0.463879
#
# Coordination Sequence:
#
# PCOD8051930 Si02
#       6
#     4   4   4   4   4   4
#     4  12  28  46  66 100 138 174 216 279 337 380
#     4  12  24  46  68  96 140 168 218 284 329 384
#     4  11  24  43  68  96 133 176 221 268 324 397
#     4  11  24  41  69 100 129 174 223 267 327 394
#     4  11  24  41  69 100 129 174 223 267 327 394
#     4  11  24  43  68  96 133 176 221 268 324 397
#
# _framework density 20.07544
#
# number of rings (size 3 to 8) (size 9 to 14) (size 15 to 20)
#    0.000    0.667    6.667    0.000    4.667    2.667 
#    0.000    0.000    0.000    0.000    0.000    0.000 
#    0.000    0.000    0.000    0.000    0.000    0.000 
#
# Total GULP energy -148856.872985 kJ/mol
# GULP energy per Si atom -12404.739415 kJ/mol
# Density = 2.002975 g / cm^3
# Si number density = 20.075440 Si / 1000 Ang^3
#
#
#
# Elastic Constant Matrix: (Units=GPa)
#
#
# Indices 1 2 3 4 5 6 
#
# 1 105.7638 9.0832 26.7636 0.0120 3.6068 0.0022
# 2 9.0832 92.7651 36.8068 -0.0023 7.1323 -0.0031
# 3 26.7636 36.8068 116.2225 0.0062 -2.5300 -0.0029
# 4 0.0120 -0.0023 0.0062 28.7965 -0.0067 1.5853
# 5 3.6068 7.1323 -2.5300 -0.0067 22.7085 -0.0002
# 6 0.0022 -0.0031 -0.0029 1.5853 -0.0002 29.3491
#
#
#
# Elastic Compliance Matrix: (Units=1/GPa)
#
#
# Indices 1 2 3 4 5 6 
#
# 1 0.010120 0.000111 -0.002407 -0.000004 -0.001910 -0.000001
# 2 0.000111 0.012768 -0.004167 0.000001 -0.004492 0.000001
# 3 -0.002407 -0.004167 0.010540 -0.000001 0.002865 0.000001
# 4 -0.000004 0.000001 -0.000001 0.034830 0.000011 -0.001881
# 5 -0.001910 -0.004492 0.002865 0.000011 0.046070 0.000000
# 6 -0.000001 0.000001 0.000001 -0.001881 0.000000 0.034174
#
#
# Mechanical properties :
#
#
# Convention : Reuss Voigt Hill
#
# Bulk Modulus (GPa) = 48.77516 51.11760 49.94638
# Shear Modulus (GPa) = 29.71561 32.31069 31.01315
#
# Velocity S-wave (km/s) = 3.85151 4.01616 3.93470
# Velocity P-wave (km/s) = 6.64285 6.85741 6.75099
#
# Compressibility (1/GPa) = 0.02050224
#
# Stress axis : x y z
#
# Youngs Moduli (GPa) = 98.81648 78.32272 94.87245
#
# Poissons Ratio (x) = -0.00870 0.22837
# Poissons Ratio (y) = -0.01098 0.39531
# Poissons Ratio (z) = 0.23786 0.32635
#
# Static dielectric constant tensor:
#      x y z
#    x 3.359350 0.000060 0.050400 
#    y 0.000060 3.856030 -0.000010 
#    z 0.050400 -0.000010 3.647390 
# 
# 
# High freq. dielectric constant tensor:
#      x y z
#    x 1.786940 0.000000 -0.004020 
#    y 0.000000 1.799400 0.000000 
#    z -0.004020 0.000000 1.788510 
# 
# From -- ./inp_files/63229.got.cif
#   From: 2010.03.12/outbox.cif.g09.slc.cpg/sg5_32_cif.got.tgz:63229.got - 2010.03.31 09:47:26.
