data_PCOD8051233
_publ_section_title
;
Structure prediction by ZEFSAII (Michael W. Deem and Ramdas Pophale) SiO2 
 PCOD8051233
Probable space group: C 2
;
_chemical_formula_sum "Si O2"
_cell_formula_units_Z 24
_cell_length_a 16.119275
_cell_length_b 9.152525
_cell_length_c 13.896185
_cell_angle_alpha 90.000000
_cell_angle_beta 33.678799
_cell_angle_gamma 90.000000
_cell_volume 1136.873614
_symmetry_space_group_name_H-M "C 2"
_symmetry_group_IT_number 5
_symmetry_cell_setting 'monoclinic'
loop_
_space_group_symop_operation_xyz
x,y,z
-x,y,-z
1/2+x,1/2+y,z
1/2-x,1/2+y,-z
loop_
_atom_site_type_symbol
_atom_site_label
_atom_site_fract_x
_atom_site_fract_y
_atom_site_fract_z
Si Si1 0.405719 0.285840 0.748283
Si Si2 0.191344 0.015775 0.310568
Si Si3 0.068708 0.490920 0.599632
Si Si4 0.385460 0.513864 0.391542
Si Si5 0.500000 0.892197 0.000000
Si Si6 0.500000 0.776515 0.500000
Si Si7 0.431689 0.777010 0.869574
O O1 0.389413 0.382305 0.667136
O O2 0.510423 0.370884 0.724902
O O3 0.491577 0.138356 0.636641
O O4 0.245947 0.250732 0.951313
O O5 0.164354 0.012539 0.450016
O O6 0.364832 0.005102 0.121264
O O7 0.127692 0.169522 0.331292
O O8 0.240141 0.514393 0.464869
O O9 0.075126 0.375182 0.507941
O O10 0.966106 0.431434 0.785457
O O11 0.487383 0.652456 0.269373
O O12 0.493105 0.783914 0.097554
#
# Coordination Sequence:
#
# PCOD8051233 Si02
#       7
#     4   4   4   4   2   2   4
#     4  11  25  41  72 100 139 182 231 288 347 407
#     4  11  22  45  69  99 136 186 227 279 352 409
#     4  12  26  41  69 103 137 178 239 282 341 410
#     4  12  23  44  71  98 139 185 229 281 346 419
#     4  10  24  40  76 104 138 178 236 290 342 410
#     4  12  26  42  66 100 138 180 230 288 336 416
#     4  11  23  45  68 105 140 181 232 290 346 411
#
# _framework density 21.110527000000001
#
# number of rings (size 3 to 8) (size 9 to 14) (size 15 to 20)
#    0.000    0.667    5.000    2.000    2.333    2.667 
#    0.000    1.667    0.000    1.000    0.000    0.000 
#    0.000    0.000    0.000    0.000    0.000    0.000 
#
# Total GULP energy -148774.218438 kJ/mol
# GULP energy per Si atom -12397.851536 kJ/mol
# Density = 2.106248 g / cm^3
# Si number density = 21.110527 Si / 1000 Ang^3
#
#
#
# Elastic Constant Matrix: (Units=GPa)
#
#
# Indices 1 2 3 4 5 6 
#
# 1 121.6968 65.7035 60.0612 0.0000 -15.3539 0.0000
# 2 65.7035 154.7330 56.8617 0.0000 -12.3298 0.0000
# 3 60.0612 56.8617 95.2651 0.0000 -18.6922 0.0000
# 4 0.0000 0.0000 0.0000 35.0622 0.0000 1.8103
# 5 -15.3539 -12.3298 -18.6922 0.0000 47.3335 0.0000
# 6 0.0000 0.0000 0.0000 1.8103 0.0000 35.7246
#
#
#
# Elastic Compliance Matrix: (Units=1/GPa)
#
#
# Indices 1 2 3 4 5 6 
#
# 1 0.013122 -0.003234 -0.006150 0.000000 0.000986 0.000000
# 2 -0.003234 0.009078 -0.003384 0.000000 -0.000021 0.000000
# 3 -0.006150 -0.003384 0.017159 0.000000 0.003900 0.000000
# 4 0.000000 0.000000 0.000000 0.028596 0.000000 -0.001449
# 5 0.000986 -0.000021 0.003900 0.000000 0.022981 0.000000
# 6 0.000000 0.000000 0.000000 -0.001449 0.000000 0.028065
#
#
# Mechanical properties :
#
#
# Convention : Reuss Voigt Hill
#
# Bulk Modulus (GPa) = 72.33173 81.88310 77.10742
# Shear Modulus (GPa) = 33.52483 36.22864 34.87674
#
# Velocity S-wave (km/s) = 3.98937 4.14713 4.06901
# Velocity P-wave (km/s) = 7.45371 7.86152 7.66033
#
# Compressibility (1/GPa) = 0.01382519
#
# Stress axis : x y z
#
# Youngs Moduli (GPa) = 76.20553 110.16137 58.27858
#
# Poissons Ratio (x) = 0.35622 0.35840
# Poissons Ratio (y) = 0.24642 0.19719
# Poissons Ratio (z) = 0.46864 0.37274
#
# Static dielectric constant tensor:
#      x y z
#    x 4.088850 0.000000 -0.186800 
#    y 0.000000 3.886130 0.000000 
#    z -0.186800 0.000000 4.117160 
# 
# 
# High freq. dielectric constant tensor:
#      x y z
#    x 1.841690 0.000000 -0.011860 
#    y 0.000000 1.826410 0.000000 
#    z -0.011860 0.000000 1.830700 
# 
# From -- ./inp_files/55708.got.cif
#   From: 2010.03.12/outbox.cif.g09.slc.cpg/sg5_28_cif.got.tgz:55708.got - 2010.03.31 09:47:26.
