data_PCOD8051539
_publ_section_title
;
Structure prediction by ZEFSAII (Michael W. Deem and Ramdas Pophale) SiO2 
 PCOD8051539
Probable space group: C 2
;
_chemical_formula_sum "Si O2"
_cell_formula_units_Z 30
_cell_length_a 8.855137
_cell_length_b 12.840402
_cell_length_c 24.335034
_cell_angle_alpha 90.000000
_cell_angle_beta 150.030168
_cell_angle_gamma 90.000000
_cell_volume 1382.227594
_symmetry_space_group_name_H-M "C 2"
_symmetry_group_IT_number 5
_symmetry_cell_setting 'monoclinic'
loop_
_space_group_symop_operation_xyz
x,y,z
-x,y,-z
1/2+x,1/2+y,z
1/2-x,1/2+y,-z
loop_
_atom_site_type_symbol
_atom_site_label
_atom_site_fract_x
_atom_site_fract_y
_atom_site_fract_z
Si Si1 0.830193 0.604580 0.599010
Si Si2 0.666836 0.103392 0.818705
Si Si3 0.305750 0.863836 0.988273
Si Si4 0.259270 0.755938 0.669868
Si Si5 0.500000 0.407832 0.500000
Si Si6 0.139892 0.696659 0.181527
Si Si7 0.815732 0.594411 0.991855
Si Si8 0.842378 0.383243 0.120232
O O1 0.500000 0.660866 0.500000
O O2 0.771981 0.483260 0.563654
O O3 0.989362 0.592947 0.707135
O O4 0.032669 0.666812 0.619459
O O5 0.485263 0.189288 0.796437
O O6 0.002405 0.151102 0.911430
O O7 0.676227 0.995318 0.855630
O O8 0.996070 0.797174 0.894034
O O9 0.211662 0.980181 0.939670
O O10 0.500000 0.813325 0.000000
O O11 0.480608 0.878889 0.101594
O O12 0.079097 0.840656 0.578311
O O13 0.498091 0.702386 0.703583
O O14 0.444320 0.805335 0.778621
O O15 0.034928 0.595140 0.113860
O O16 0.000000 0.649496 0.000000
O O17 0.500000 0.345747 0.000000
#
# Coordination Sequence:
#
# PCOD8051539 Si02
#       8
#     4   4   4   4   2   4   4   4
#     4  10  26  49  75 103 136 188 248 308 377 431
#     4  12  22  44  68  98 149 196 231 303 369 430
#     4  11  24  38  58  97 149 193 236 280 341 443
#     4  12  26  46  80 104 139 194 241 308 375 453
#     4  10  26  54  78 102 146 188 250 324 374 424
#     4  12  25  39  66 106 138 188 239 291 361 444
#     4  11  23  39  61  95 142 184 230 279 349 434
#     4  12  21  43  66 103 148 195 230 288 378 431
#
# _framework density 21.704096
#
# number of rings (size 3 to 8) (size 9 to 14) (size 15 to 20)
#    0.400    0.267    5.333    2.000    7.467    0.000 
#    0.000    1.333    0.000    0.000    0.000    0.000 
#    0.000    0.000    0.000    0.000    0.000    0.000 
#
# Total GULP energy -185843.210799 kJ/mol
# GULP energy per Si atom -12389.547387 kJ/mol
# Density = 2.165470 g / cm^3
# Si number density = 21.704096 Si / 1000 Ang^3
#
#
#
# Elastic Constant Matrix: (Units=GPa)
#
#
# Indices 1 2 3 4 5 6 
#
# 1 176.2360 52.8372 69.9582 0.0001 13.5343 0.0001
# 2 52.8372 99.7038 43.9072 0.0002 1.3265 0.0002
# 3 69.9582 43.9072 124.9306 0.0018 1.7033 0.0011
# 4 0.0001 0.0002 0.0018 35.5731 0.0003 1.5414
# 5 13.5343 1.3265 1.7033 0.0003 31.6298 0.0002
# 6 0.0001 0.0002 0.0011 1.5414 0.0002 31.5996
#
#
#
# Elastic Compliance Matrix: (Units=1/GPa)
#
#
# Indices 1 2 3 4 5 6 
#
# 1 0.008145 -0.002703 -0.003568 0.000000 -0.003180 0.000000
# 2 -0.002703 0.012766 -0.002984 0.000000 0.000782 0.000000
# 3 -0.003568 -0.002984 0.011036 -0.000001 0.001057 0.000000
# 4 0.000000 0.000000 -0.000001 0.028171 0.000000 -0.001374
# 5 -0.003180 0.000782 0.001057 0.000000 0.032887 0.000000
# 6 0.000000 0.000000 0.000000 -0.001374 0.000000 0.031713
#
#
# Mechanical properties :
#
#
# Convention : Reuss Voigt Hill
#
# Bulk Modulus (GPa) = 74.41251 81.58617 77.99934
# Shear Modulus (GPa) = 33.85119 35.37169 34.61144
#
# Velocity S-wave (km/s) = 3.95355 4.04136 3.99770
# Velocity P-wave (km/s) = 7.42968 7.71030 7.57129
#
# Compressibility (1/GPa) = 0.01343860
#
# Stress axis : x y z
#
# Youngs Moduli (GPa) = 122.77486 78.33546 90.60890
#
# Poissons Ratio (x) = 0.21174 0.32326
# Poissons Ratio (y) = 0.33185 0.27034
# Poissons Ratio (z) = 0.43802 0.23372
#
# Static dielectric constant tensor:
#      x y z
#    x 4.261810 0.000000 0.022880 
#    y 0.000000 3.961050 0.000000 
#    z 0.022880 0.000000 3.862290 
# 
# 
# High freq. dielectric constant tensor:
#      x y z
#    x 1.864100 0.000000 -0.007180 
#    y 0.000000 1.855730 0.000000 
#    z -0.007180 0.000000 1.834410 
# 
# From -- ./inp_files/68012.got.cif
#   From: 2010.03.12/outbox.cif.g09.slc.cpg/sg5_35_cif.got.tgz:68012.got - 2010.03.31 09:47:26.
