data_PCOD8051457
_publ_section_title
;
Structure prediction by ZEFSAII (Michael W. Deem and Ramdas Pophale) SiO2 
 PCOD8051457
Probable space group: C 2
;
_chemical_formula_sum "Si O2"
_cell_formula_units_Z 30
_cell_length_a 13.833399
_cell_length_b 5.220817
_cell_length_c 16.216630
_cell_angle_alpha 90.000000
_cell_angle_beta 107.886487
_cell_angle_gamma 90.000000
_cell_volume 1114.584325
_symmetry_space_group_name_H-M "C 2"
_symmetry_group_IT_number 5
_symmetry_cell_setting 'monoclinic'
loop_
_space_group_symop_operation_xyz
x,y,z
-x,y,-z
1/2+x,1/2+y,z
1/2-x,1/2+y,-z
loop_
_atom_site_type_symbol
_atom_site_label
_atom_site_fract_x
_atom_site_fract_y
_atom_site_fract_z
Si Si1 0.000000 0.161300 0.000000
Si Si2 0.854186 0.761849 0.023783
Si Si3 0.774358 0.551308 0.256874
Si Si4 0.848812 0.558770 0.454774
Si Si5 0.881412 0.054624 0.549220
Si Si6 0.943712 0.942919 0.744166
Si Si7 0.191295 0.411457 0.112363
Si Si8 0.939914 0.432613 0.177891
O O1 0.075671 0.311357 0.081256
O O2 0.932789 0.992406 0.045889
O O3 0.756008 0.792419 0.054318
O O4 0.912122 0.507666 0.075737
O O5 0.819318 0.710055 0.918542
O O6 0.844994 0.578180 0.355054
O O7 0.670547 0.401594 0.251185
O O8 0.744791 0.837906 0.212975
O O9 0.837276 0.394762 0.205011
O O10 0.909272 0.807566 0.501838
O O11 0.737076 0.557712 0.462482
O O12 0.908955 0.308213 0.503483
O O13 0.944505 0.039028 0.649998
O O14 0.001836 0.164808 0.808457
O O15 0.996846 0.667923 0.765694
#
# Coordination Sequence:
#
# PCOD8051457 Si02
#       8
#     2   4   4   4   4   4   4   4
#     4  12  24  42  70  94 128 176 224 276 338 398
#     4  11  25  43  67  97 133 177 227 281 336 400
#     4  10  25  45  68 100 138 182 229 278 345 401
#     4   9  18  37  63  96 130 176 216 273 331 400
#     4   9  18  36  66  95 133 170 221 269 333 400
#     4  11  24  46  71 103 136 183 223 280 343 404
#     4  11  24  46  66  96 133 177 226 283 334 403
#     4  11  27  44  68 101 142 175 229 287 332 405
#
# _framework density 26.915863000000002
#
# number of rings (size 3 to 8) (size 9 to 14) (size 15 to 20)
#    0.000    1.600    1.333    2.000    5.600    5.333 
#    2.400    4.000    0.000    0.000    0.000    0.000 
#    0.000    0.000    0.000    0.000    0.000    0.000 
#
# Total GULP energy -185921.420148 kJ/mol
# GULP energy per Si atom -12394.761343 kJ/mol
# Density = 2.685460 g / cm^3
# Si number density = 26.915863 Si / 1000 Ang^3
#
#
#
# Elastic Constant Matrix: (Units=GPa)
#
#
# Indices 1 2 3 4 5 6 
#
# 1 106.0477 0.3346 3.6725 0.0000 2.1130 0.0000
# 2 0.3346 113.3473 17.9108 0.0000 6.5898 0.0000
# 3 3.6725 17.9108 133.6503 0.0000 -3.8032 0.0000
# 4 0.0000 0.0000 0.0000 46.8017 0.0000 5.7555
# 5 2.1130 6.5898 -3.8032 0.0000 30.1006 0.0000
# 6 0.0000 0.0000 0.0000 5.7555 0.0000 14.9214
#
#
#
# Elastic Compliance Matrix: (Units=1/GPa)
#
#
# Indices 1 2 3 4 5 6 
#
# 1 0.009454 0.000059 -0.000288 0.000000 -0.000713 0.000000
# 2 0.000059 0.009152 -0.001290 0.000000 -0.002171 0.000000
# 3 -0.000288 -0.001290 0.007699 0.000000 0.001275 0.000000
# 4 0.000000 0.000000 0.000000 0.022431 0.000000 -0.008652
# 5 -0.000713 -0.002171 0.001275 0.000000 0.033908 0.000000
# 6 0.000000 0.000000 0.000000 -0.008652 0.000000 0.070355
#
#
# Mechanical properties :
#
#
# Convention : Reuss Voigt Hill
#
# Bulk Modulus (GPa) = 42.97819 44.09788 43.53804
# Shear Modulus (GPa) = 30.52630 40.43988 35.48309
#
# Velocity S-wave (km/s) = 3.37135 3.88036 3.63477
# Velocity P-wave (km/s) = 5.58184 6.04114 5.81603
#
# Compressibility (1/GPa) = 0.02326762
#
# Stress axis : x y z
#
# Youngs Moduli (GPa) = 105.77859 109.26209 129.88214
#
# Poissons Ratio (x) = -0.00645 0.03740
# Poissons Ratio (y) = -0.00625 0.16754
# Poissons Ratio (z) = 0.03046 0.14094
#
# Static dielectric constant tensor:
#      x y z
#    x 4.936950 0.000000 0.075770 
#    y 0.000000 4.961590 0.000000 
#    z 0.075770 0.000000 4.993540 
# 
# 
# High freq. dielectric constant tensor:
#      x y z
#    x 2.102050 0.000000 -0.000910 
#    y 0.000000 2.074980 0.000000 
#    z -0.000910 0.000000 2.085380 
# 
# From -- ./inp_files/61235.got.cif
#   From: 2010.03.12/outbox.cif.g09.slc.cpg/sg5_31_cif.got.tgz:61235.got - 2010.03.31 09:47:26.
