data_PCOD8051471
_publ_section_title
;
Structure prediction by ZEFSAII (Michael W. Deem and Ramdas Pophale) SiO2 
 PCOD8051471
Probable space group: C 2
;
_chemical_formula_sum "Si O2"
_cell_formula_units_Z 24
_cell_length_a 9.564223
_cell_length_b 10.735421
_cell_length_c 10.994038
_cell_angle_alpha 90.000000
_cell_angle_beta 83.675671
_cell_angle_gamma 90.000000
_cell_volume 1121.953697
_symmetry_space_group_name_H-M "C 2"
_symmetry_group_IT_number 5
_symmetry_cell_setting 'monoclinic'
loop_
_space_group_symop_operation_xyz
x,y,z
-x,y,-z
1/2+x,1/2+y,z
1/2-x,1/2+y,-z
loop_
_atom_site_type_symbol
_atom_site_label
_atom_site_fract_x
_atom_site_fract_y
_atom_site_fract_z
Si Si1 0.299425 0.180540 0.739911
Si Si2 0.585585 0.052257 0.783870
Si Si3 0.690111 0.430561 0.401047
Si Si4 0.098467 0.980713 0.665302
Si Si5 0.356035 0.826739 0.047135
Si Si6 0.374339 0.308849 0.108513
O O1 0.430732 0.089223 0.750804
O O2 0.334194 0.289872 0.642339
O O3 0.252520 0.239163 0.871955
O O4 0.166627 0.108911 0.699665
O O5 0.658046 0.169538 0.841955
O O6 0.670734 0.999903 0.659694
O O7 0.585632 0.944958 0.884760
O O8 0.693159 0.423126 0.547208
O O9 0.557648 0.511627 0.367348
O O10 0.083174 0.886781 0.778218
O O11 0.500000 0.752420 0.000000
O O12 0.268399 0.866107 0.935377
O O13 0.500000 0.312988 0.000000
#
# Coordination Sequence:
#
# PCOD8051471 Si02
#       6
#     4   4   4   4   4   4
#     4  11  24  47  69 100 136 184 228 282 346 402
#     4  11  23  46  71  95 140 184 225 286 339 407
#     4  10  25  47  67 102 133 178 240 278 344 403
#     4  11  25  43  71 100 136 179 227 289 340 404
#     4  11  25  41  65 105 138 174 233 276 341 421
#     4  12  23  42  71 102 137 184 222 281 350 405
#
# _framework density 21.391259000000002
#
# number of rings (size 3 to 8) (size 9 to 14) (size 15 to 20)
#    0.000    1.000    3.333    2.500    7.000    1.333 
#    0.000    0.000    0.000    0.000    0.000    0.000 
#    0.000    0.000    0.000    0.000    0.000    0.000 
#
# Total GULP energy -148797.142555 kJ/mol
# GULP energy per Si atom -12399.761880 kJ/mol
# Density = 2.134257 g / cm^3
# Si number density = 21.391259 Si / 1000 Ang^3
#
#
#
# Elastic Constant Matrix: (Units=GPa)
#
#
# Indices 1 2 3 4 5 6 
#
# 1 77.3593 45.3678 10.5822 0.0000 1.4546 0.0000
# 2 45.3678 89.2286 34.3602 0.0000 4.6113 0.0000
# 3 10.5822 34.3602 113.9485 0.0000 -9.6106 0.0000
# 4 0.0000 0.0000 0.0000 9.4023 0.0000 4.8179
# 5 1.4546 4.6113 -9.6106 0.0000 35.1997 0.0000
# 6 0.0000 0.0000 0.0000 4.8179 0.0000 40.3360
#
#
#
# Elastic Compliance Matrix: (Units=1/GPa)
#
#
# Indices 1 2 3 4 5 6 
#
# 1 0.018609 -0.010039 0.001377 0.000000 0.000922 0.000000
# 2 -0.010039 0.018365 -0.004886 0.000000 -0.003325 0.000000
# 3 0.001377 -0.004886 0.010410 0.000000 0.003425 0.000000
# 4 0.000000 0.000000 0.000000 0.113291 0.000000 -0.013532
# 5 0.000922 -0.003325 0.003425 0.000000 0.029742 0.000000
# 6 0.000000 0.000000 0.000000 -0.013532 0.000000 0.026408
#
#
# Mechanical properties :
#
#
# Convention : Reuss Voigt Hill
#
# Bulk Modulus (GPa) = 49.29232 51.23965 50.26598
# Shear Modulus (GPa) = 19.94545 29.66936 24.80740
#
# Velocity S-wave (km/s) = 3.05685 3.72827 3.40913
# Velocity P-wave (km/s) = 5.96258 6.52218 6.24865
#
# Compressibility (1/GPa) = 0.02028714
#
# Stress axis : x y z
#
# Youngs Moduli (GPa) = 53.73853 54.45166 96.05929
#
# Poissons Ratio (x) = 0.54666 -0.13226
# Poissons Ratio (y) = 0.53950 0.46934
# Poissons Ratio (z) = -0.07399 0.26605
#
# Static dielectric constant tensor:
#      x y z
#    x 4.052360 0.000000 -0.076630 
#    y 0.000000 3.750510 0.000000 
#    z -0.076630 0.000000 4.121210 
# 
# 
# High freq. dielectric constant tensor:
#      x y z
#    x 1.850570 0.000000 -0.001390 
#    y 0.000000 1.827200 0.000000 
#    z -0.001390 0.000000 1.855250 
# 
# From -- ./inp_files/35432.got.cif
#   From: 2010.03.12/outbox.cif.g09.slc.cpg/sg5_18_cif.got.tgz:35432.got - 2010.03.31 09:47:26.
