data_PCOD8051075
_publ_section_title
;
Structure prediction by ZEFSAII (Michael W. Deem and Ramdas Pophale) SiO2 
 PCOD8051075
Probable space group: C 2
;
_chemical_formula_sum "Si O2"
_cell_formula_units_Z 14
_cell_length_a 15.998539
_cell_length_b 7.852155
_cell_length_c 15.602667
_cell_angle_alpha 90.000000
_cell_angle_beta 18.608902
_cell_angle_gamma 90.000000
_cell_volume 625.466076
_symmetry_space_group_name_H-M "C 2"
_symmetry_group_IT_number 5
_symmetry_cell_setting 'monoclinic'
loop_
_space_group_symop_operation_xyz
x,y,z
-x,y,-z
1/2+x,1/2+y,z
1/2-x,1/2+y,-z
loop_
_atom_site_type_symbol
_atom_site_label
_atom_site_fract_x
_atom_site_fract_y
_atom_site_fract_z
Si Si1 0.735633 0.537050 0.219266
Si Si2 0.589394 0.680846 0.184882
Si Si3 0.547974 0.061367 0.632963
Si Si4 0.500000 0.208665 0.500000
O O1 0.500000 0.628939 0.500000
O O2 0.709429 0.567005 0.144165
O O3 0.734115 0.333544 0.240505
O O4 0.000000 0.617897 0.000000
O O5 0.320018 0.596779 0.416089
O O6 0.538291 0.869316 0.267323
O O7 0.814001 0.683455 0.893898
O O8 0.592548 0.090752 0.488569
#
# Coordination Sequence:
#
# PCOD8051075 Si02
#       4
#     4   4   4   2
#     4  10  23  42  72  96 139 177 225 278 343 399
#     4  12  26  48  70 103 137 187 225 285 338 415
#     4  12  27  45  73 101 141 178 235 277 347 402
#     4  10  26  42  72 102 140 172 232 282 346 396
#
# _framework density 22.383308
#
# number of rings (size 3 to 8) (size 9 to 14) (size 15 to 20)
#    0.857    0.000    0.000    6.857   10.000    0.000 
#    0.000    0.000    0.000    0.000    0.000    0.000 
#    0.000    0.000    0.000    0.000    0.000    0.000 
#
# Total GULP energy -86786.350574 kJ/mol
# GULP energy per Si atom -12398.050082 kJ/mol
# Density = 2.233236 g / cm^3
# Si number density = 22.383308 Si / 1000 Ang^3
#
#
#
# Elastic Constant Matrix: (Units=GPa)
#
#
# Indices 1 2 3 4 5 6 
#
# 1 185.5728 77.2050 73.6466 -0.0008 -6.4211 0.0013
# 2 77.2050 102.3294 30.9944 0.0014 -1.9178 -0.0045
# 3 73.6466 30.9944 140.8979 0.0027 -30.3010 -0.0018
# 4 -0.0008 0.0014 0.0027 28.3576 0.0030 8.8673
# 5 -6.4211 -1.9178 -30.3010 0.0030 41.1914 -0.0006
# 6 0.0013 -0.0045 -0.0018 8.8673 -0.0006 31.4199
#
#
#
# Elastic Compliance Matrix: (Units=1/GPa)
#
#
# Indices 1 2 3 4 5 6 
#
# 1 0.009352 -0.005887 -0.003966 0.000002 -0.001734 -0.000002
# 2 -0.005887 0.014248 -0.000133 -0.000002 -0.000352 0.000003
# 3 -0.003966 -0.000133 0.010769 -0.000002 0.007297 0.000002
# 4 0.000002 -0.000002 -0.000002 0.038677 -0.000005 -0.010915
# 5 -0.001734 -0.000352 0.007297 -0.000005 0.029358 0.000002
# 6 -0.000002 0.000003 0.000002 -0.010915 0.000002 0.034908
#
#
# Mechanical properties :
#
#
# Convention : Reuss Voigt Hill
#
# Bulk Modulus (GPa) = 69.45982 88.05468 78.75725
# Shear Modulus (GPa) = 30.84861 36.65738 33.75300
#
# Velocity S-wave (km/s) = 3.71644 4.05125 3.88745
# Velocity P-wave (km/s) = 7.03670 7.82997 7.44391
#
# Compressibility (1/GPa) = 0.01439681
#
# Stress axis : x y z
#
# Youngs Moduli (GPa) = 106.93013 70.18743 92.85996
#
# Poissons Ratio (x) = 0.41319 0.36829
# Poissons Ratio (y) = 0.62950 0.01233
# Poissons Ratio (z) = 0.42409 0.00932
#
# Static dielectric constant tensor:
#      x y z
#    x 4.005150 0.000000 0.100980 
#    y 0.000000 3.779100 0.000010 
#    z 0.100980 0.000010 4.199060 
# 
# 
# High freq. dielectric constant tensor:
#      x y z
#    x 1.893610 0.000000 0.003350 
#    y 0.000000 1.870120 0.000000 
#    z 0.003350 0.000000 1.888000 
# 
# From -- ./inp_files/4170.got.cif
#   From: 2010.03.12/outbox.cif.g09.slc.cpg/sg5_3_cif.got.tgz:4170.got - 2010.03.31 09:47:26.
