data_PCOD8051613
_publ_section_title
;
Structure prediction by ZEFSAII (Michael W. Deem and Ramdas Pophale) SiO2 
 PCOD8051613
Probable space group: C 2
;
_chemical_formula_sum "Si O2"
_cell_formula_units_Z 32
_cell_length_a 20.322791
_cell_length_b 10.954388
_cell_length_c 19.816360
_cell_angle_alpha 90.000000
_cell_angle_beta 21.692374
_cell_angle_gamma 90.000000
_cell_volume 1630.626306
_symmetry_space_group_name_H-M "C 2"
_symmetry_group_IT_number 5
_symmetry_cell_setting 'monoclinic'
loop_
_space_group_symop_operation_xyz
x,y,z
-x,y,-z
1/2+x,1/2+y,z
1/2-x,1/2+y,-z
loop_
_atom_site_type_symbol
_atom_site_label
_atom_site_fract_x
_atom_site_fract_y
_atom_site_fract_z
Si Si1 0.196872 0.433610 0.231540
Si Si2 0.746832 0.982002 0.543915
Si Si3 0.786581 0.412085 0.627868
Si Si4 0.063582 0.331451 0.124144
Si Si5 0.959009 0.067052 0.894347
Si Si6 0.868507 0.997569 0.827538
Si Si7 0.234335 0.751889 0.945453
Si Si8 0.663651 0.258431 0.635939
O O1 0.243943 0.405276 0.263509
O O2 0.272304 0.318626 0.119196
O O3 0.987066 0.455946 0.420448
O O4 0.309510 0.547062 0.094557
O O5 0.587221 0.935915 0.743621
O O6 0.751080 0.876772 0.482352
O O7 0.714677 0.125901 0.554632
O O8 0.942627 0.981282 0.390349
O O9 0.650110 0.510047 0.727522
O O10 0.742669 0.278190 0.636709
O O11 0.007489 0.211299 0.138006
O O12 0.097812 0.299775 0.170527
O O13 0.250751 0.382015 0.918567
O O14 0.888852 0.013263 0.889808
O O15 0.763388 0.112225 0.898818
O O16 0.049800 0.769562 0.162041
#
# Coordination Sequence:
#
# PCOD8051613 Si02
#       8
#     4   4   4   4   4   4   4   4
#     4  11  22  39  64  82 120 159 203 265 291 357
#     4  12  23  37  59  87 127 165 190 256 297 370
#     4  11  23  39  60  91 114 160 211 250 304 353
#     4  11  22  35  57  88 125 157 198 243 310 363
#     4  11  22  36  57  88 123 159 201 254 297 365
#     4  11  21  37  56  87 125 160 193 245 310 366
#     4  11  21  38  58  87 123 157 200 250 303 361
#     4  12  23  37  61  90 124 159 207 244 313 361
#
# _framework density 19.624361
#
# number of rings (size 3 to 8) (size 9 to 14) (size 15 to 20)
#    0.000    0.750    6.250    3.375    0.000    1.000 
#    0.000    0.000    0.000    3.000    0.000    3.500 
#    0.000    0.000    0.000    0.000    0.000    0.000 
#
# Total GULP energy -198229.722085 kJ/mol
# GULP energy per Si atom -12389.357630 kJ/mol
# Density = 1.957969 g / cm^3
# Si number density = 19.624361 Si / 1000 Ang^3
#
#
#
# Elastic Constant Matrix: (Units=GPa)
#
#
# Indices 1 2 3 4 5 6 
#
# 1 48.1779 43.8006 27.4501 -0.0011 -3.0719 -0.0009
# 2 43.8006 154.3177 55.8761 0.0107 -3.4481 -0.0011
# 3 27.4501 55.8761 130.1599 0.0109 -11.6011 -0.0017
# 4 -0.0011 0.0107 0.0109 37.4699 0.0043 -3.2318
# 5 -3.0719 -3.4481 -11.6011 0.0043 20.6586 -0.0013
# 6 -0.0009 -0.0011 -0.0017 -3.2318 -0.0013 18.6981
#
#
#
# Elastic Compliance Matrix: (Units=1/GPa)
#
#
# Indices 1 2 3 4 5 6 
#
# 1 0.029009 -0.007144 -0.002919 0.000004 0.001482 0.000001
# 2 -0.007144 0.009439 -0.002631 -0.000002 -0.000965 0.000000
# 3 -0.002919 -0.002631 0.009843 -0.000003 0.004654 0.000000
# 4 0.000004 -0.000002 -0.000003 0.027092 -0.000007 0.004683
# 5 0.001482 -0.000965 0.004654 -0.000007 0.051079 0.000003
# 6 0.000001 0.000000 0.000000 0.004683 0.000003 0.054291
#
#
# Mechanical properties :
#
#
# Convention : Reuss Voigt Hill
#
# Bulk Modulus (GPa) = 43.66360 65.21213 54.43787
# Shear Modulus (GPa) = 23.38915 29.06725 26.22820
#
# Velocity S-wave (km/s) = 3.45605 3.85279 3.65980
# Velocity P-wave (km/s) = 6.18253 7.28658 6.75715
#
# Compressibility (1/GPa) = 0.02290237
#
# Stress axis : x y z
#
# Youngs Moduli (GPa) = 34.47262 105.94362 101.59562
#
# Poissons Ratio (x) = 0.75681 0.29656
# Poissons Ratio (y) = 0.24626 0.26735
# Poissons Ratio (z) = 0.10063 0.27879
#
# Static dielectric constant tensor:
#      x y z
#    x 3.256490 -0.000010 -0.121270 
#    y -0.000010 3.814430 0.000010 
#    z -0.121270 0.000010 3.929540 
# 
# 
# High freq. dielectric constant tensor:
#      x y z
#    x 1.706650 0.000000 -0.020070 
#    y 0.000000 1.770270 0.000000 
#    z -0.020070 0.000000 1.793750 
# 
# From -- ./inp_files/67131.got.cif
#   From: 2010.03.12/outbox.cif.g09.slc.cpg/sg5_34_cif.got.tgz:67131.got - 2010.03.31 09:47:26.
