data_PCOD8051093
_publ_section_title
;
Structure prediction by ZEFSAII (Michael W. Deem and Ramdas Pophale) SiO2 
 PCOD8051093
Probable space group: C 2
;
_chemical_formula_sum "Si O2"
_cell_formula_units_Z 20
_cell_length_a 5.949499
_cell_length_b 19.066728
_cell_length_c 7.241889
_cell_angle_alpha 90.000000
_cell_angle_beta 74.827957
_cell_angle_gamma 90.000000
_cell_volume 792.867628
_symmetry_space_group_name_H-M "C 2"
_symmetry_group_IT_number 5
_symmetry_cell_setting 'monoclinic'
loop_
_space_group_symop_operation_xyz
x,y,z
-x,y,-z
1/2+x,1/2+y,z
1/2-x,1/2+y,-z
loop_
_atom_site_type_symbol
_atom_site_label
_atom_site_fract_x
_atom_site_fract_y
_atom_site_fract_z
Si Si1 0.466761 0.912400 0.793755
Si Si2 0.322315 0.303379 0.690159
Si Si3 0.279707 0.536700 0.677855
Si Si4 0.925293 0.656381 0.811854
Si Si5 0.500000 0.376778 0.000000
Si Si6 0.000000 0.065560 0.000000
O O1 0.565481 0.836141 0.699596
O O2 0.185866 0.919387 0.830652
O O3 0.606832 0.973487 0.656077
O O4 0.500000 0.925884 0.000000
O O5 0.500000 0.334138 0.500000
O O6 0.356567 0.219880 0.689858
O O7 0.359019 0.329206 0.889924
O O8 0.500000 0.540015 0.500000
O O9 0.366501 0.521095 0.870222
O O10 0.140008 0.610045 0.688367
O O11 0.691008 0.612126 0.857652
O O12 0.000000 0.682639 0.000000
#
# Coordination Sequence:
#
# PCOD8051093 Si02
#       6
#     4   4   4   4   2   2
#     4  10  23  44  71  97 133 178 228 277 339 405
#     4  11  24  41  68 101 135 174 229 274 337 404
#     4  11  25  45  68 102 135 179 229 275 338 407
#     4  10  23  43  67  99 136 181 223 273 339 401
#     4  10  24  47  68  96 135 180 216 290 329 408
#     4  10  24  43  70  94 139 178 214 286 325 406
#
# _framework density 25.224891
#
# number of rings (size 3 to 8) (size 9 to 14) (size 15 to 20)
#    0.000    1.600    1.000    2.400    7.000    8.000 
#    0.000    6.000    0.000    0.000    0.000    0.000 
#    0.000    0.000    0.000    0.000    0.000    0.000 
#
# Total GULP energy -123887.179594 kJ/mol
# GULP energy per Si atom -12388.717959 kJ/mol
# Density = 2.516748 g / cm^3
# Si number density = 25.224891 Si / 1000 Ang^3
#
#
#
# Elastic Constant Matrix: (Units=GPa)
#
#
# Indices 1 2 3 4 5 6 
#
# 1 117.0605 61.4083 41.9667 0.0000 -52.6330 0.0000
# 2 61.4083 152.1840 51.7741 0.0000 -35.1620 0.0000
# 3 41.9667 51.7741 124.9534 0.0000 -54.2272 0.0000
# 4 0.0000 0.0000 0.0000 19.7677 0.0000 -18.6008
# 5 -52.6330 -35.1620 -54.2272 0.0000 61.1813 0.0000
# 6 0.0000 0.0000 0.0000 -18.6008 0.0000 15.8613
#
#
#
# Elastic Compliance Matrix: (Units=1/GPa)
#
#
# Indices 1 2 3 4 5 6 
#
# 1 0.015826 -0.004057 0.002051 0.000000 0.013101 0.000000
# 2 -0.004057 0.008948 -0.002645 0.000000 -0.000692 0.000000
# 3 0.002051 -0.002645 0.013840 0.000000 0.012511 0.000000
# 4 0.000000 0.000000 0.000000 -0.488833 0.000000 -0.573261
# 5 0.013101 -0.000692 0.012511 0.000000 0.038307 0.000000
# 6 0.000000 0.000000 0.000000 -0.573261 0.000000 -0.609226
#
#
# Mechanical properties :
#
#
# Convention : Reuss Voigt Hill
#
# Bulk Modulus (GPa) = 34.11582 78.27733 56.19658
# Shear Modulus (GPa) = -4.98969 35.29866 15.15448
#
# Velocity S-wave (km/s) = -1.40797 3.74486 2.45373
# Velocity P-wave (km/s) = 3.30316 7.05675 5.50947
#
# Compressibility (1/GPa) = 0.02931192
#
# Stress axis : x y z
#
# Youngs Moduli (GPa) = 63.18708 111.75606 72.25622
#
# Poissons Ratio (x) = 0.45338 -0.14823
# Poissons Ratio (y) = 0.25634 0.19115
# Poissons Ratio (z) = -0.12962 0.29565
#
# Static dielectric constant tensor:
#      x y z
#    x 5.547810 0.000000 -0.556720 
#    y 0.000000 4.443960 0.000000 
#    z -0.556720 0.000000 4.723380 
# 
# 
# High freq. dielectric constant tensor:
#      x y z
#    x 2.006150 0.000000 -0.022410 
#    y 0.000000 1.995880 0.000000 
#    z -0.022410 0.000000 2.012430 
# 
# From -- ./inp_files/12415.got.cif
#   From: 2010.03.12/outbox.cif.g09.slc.cpg/sg5_7_cif.got.tgz:12415.got - 2010.03.31 09:47:26.
