data_PCOD8051306
_publ_section_title
;
Structure prediction by ZEFSAII (Michael W. Deem and Ramdas Pophale) SiO2 
 PCOD8051306
Probable space group: C 2
;
_chemical_formula_sum "Si O2"
_cell_formula_units_Z 28
_cell_length_a 19.392582
_cell_length_b 4.967636
_cell_length_c 12.393760
_cell_angle_alpha 90.000000
_cell_angle_beta 91.867021
_cell_angle_gamma 90.000000
_cell_volume 1193.322614
_symmetry_space_group_name_H-M "C 2"
_symmetry_group_IT_number 5
_symmetry_cell_setting 'monoclinic'
loop_
_space_group_symop_operation_xyz
x,y,z
-x,y,-z
1/2+x,1/2+y,z
1/2-x,1/2+y,-z
loop_
_atom_site_type_symbol
_atom_site_label
_atom_site_fract_x
_atom_site_fract_y
_atom_site_fract_z
Si Si1 0.220890 0.893110 0.052913
Si Si2 0.690901 0.645700 0.770246
Si Si3 0.891083 0.645674 0.174017
Si Si4 0.439964 0.764346 0.584212
Si Si5 0.469293 0.265653 0.724431
Si Si6 0.429734 0.337888 0.958266
Si Si7 0.708961 0.709059 0.527696
O O1 0.240946 0.769598 0.170110
O O2 0.142030 0.006192 0.047547
O O3 0.229141 0.642401 0.969948
O O4 0.670821 0.364748 0.825612
O O5 0.705972 0.590500 0.647237
O O6 0.628728 0.853646 0.784202
O O7 0.948398 0.746894 0.261802
O O8 0.920220 0.614951 0.052975
O O9 0.500000 0.722393 0.500000
O O10 0.449786 0.562900 0.684542
O O11 0.366616 0.717743 0.525904
O O12 0.440599 0.061826 0.633726
O O13 0.437021 0.205549 0.840812
O O14 0.500000 0.500436 0.000000
O O15 0.757752 0.505297 0.464356
#
# Coordination Sequence:
#
# PCOD8051306 Si02
#       7
#     4   4   4   4   4   4   4
#     4  12  24  44  69 102 135 178 225 268 329 414
#     4  12  24  44  71  95 139 181 223 271 344 398
#     4  11  22  44  69 105 134 180 220 274 333 419
#     4  12  26  48  72  98 133 182 237 277 328 402
#     4  11  25  43  73 100 138 175 226 283 341 382
#     4  10  24  44  68 104 141 173 219 277 339 402
#     4  12  28  47  68 102 138 176 228 289 339 387
#
# _framework density 23.463899000000001
#
# number of rings (size 3 to 8) (size 9 to 14) (size 15 to 20)
#    0.000    0.571    2.857    4.714    4.000    2.286 
#    0.000    6.429    0.000    0.000    0.000    0.000 
#    0.000    0.000    0.000    0.000    0.000    0.000 
#
# Total GULP energy -173565.903372 kJ/mol
# GULP energy per Si atom -12397.564527 kJ/mol
# Density = 2.341049 g / cm^3
# Si number density = 23.463899 Si / 1000 Ang^3
#
#
#
# Elastic Constant Matrix: (Units=GPa)
#
#
# Indices 1 2 3 4 5 6 
#
# 1 154.5965 8.0204 43.1403 0.0000 17.7624 0.0000
# 2 8.0204 80.3326 20.0116 0.0000 -6.1446 0.0000
# 3 43.1403 20.0116 133.9816 0.0000 0.4009 0.0000
# 4 0.0000 0.0000 0.0000 30.2778 0.0000 10.2250
# 5 17.7624 -6.1446 0.4009 0.0000 39.3027 0.0000
# 6 0.0000 0.0000 0.0000 10.2250 0.0000 24.5417
#
#
#
# Elastic Compliance Matrix: (Units=1/GPa)
#
#
# Indices 1 2 3 4 5 6 
#
# 1 0.007545 -0.000431 -0.002355 0.000000 -0.003453 0.000000
# 2 -0.000431 0.013120 -0.001828 0.000000 0.002265 0.000000
# 3 -0.002355 -0.001828 0.008493 0.000000 0.000692 0.000000
# 4 0.000000 0.000000 0.000000 0.038435 0.000000 -0.016014
# 5 -0.003453 0.002265 0.000692 0.000000 0.027351 0.000000
# 6 0.000000 0.000000 0.000000 -0.016014 0.000000 0.047419
#
#
# Mechanical properties :
#
#
# Convention : Reuss Voigt Hill
#
# Bulk Modulus (GPa) = 50.17303 56.80616 53.48959
# Shear Modulus (GPa) = 31.59916 38.67366 35.13641
#
# Velocity S-wave (km/s) = 3.67374 4.06423 3.87391
# Velocity P-wave (km/s) = 6.27891 6.80342 6.54642
#
# Compressibility (1/GPa) = 0.01993103
#
# Stress axis : x y z
#
# Youngs Moduli (GPa) = 132.54533 76.22096 117.74729
#
# Poissons Ratio (x) = 0.03284 0.27725
# Poissons Ratio (y) = 0.05710 0.21520
# Poissons Ratio (z) = 0.31209 0.13930
#
# Static dielectric constant tensor:
#      x y z
#    x 4.441440 0.000000 0.129320 
#    y 0.000000 3.911930 0.000000 
#    z 0.129320 0.000000 4.307990 
# 
# 
# High freq. dielectric constant tensor:
#      x y z
#    x 1.943980 0.000000 0.017800 
#    y 0.000000 1.907710 0.000000 
#    z 0.017800 0.000000 1.945220 
# 
# From -- ./inp_files/45470.got.cif
#   From: 2010.03.12/outbox.cif.g09.slc.cpg/sg5_23_cif.got.tgz:45470.got - 2010.03.31 09:47:26.
