data_PCOD8051748
_publ_section_title
;
Structure prediction by ZEFSAII (Michael W. Deem and Ramdas Pophale) SiO2 
 PCOD8051748
Probable space group: C 2
;
_chemical_formula_sum "Si O2"
_cell_formula_units_Z 24
_cell_length_a 10.657487
_cell_length_b 8.987813
_cell_length_c 11.688306
_cell_angle_alpha 90.000000
_cell_angle_beta 97.254268
_cell_angle_gamma 90.000000
_cell_volume 1110.631878
_symmetry_space_group_name_H-M "C 2"
_symmetry_group_IT_number 5
_symmetry_cell_setting 'monoclinic'
loop_
_space_group_symop_operation_xyz
x,y,z
-x,y,-z
1/2+x,1/2+y,z
1/2-x,1/2+y,-z
loop_
_atom_site_type_symbol
_atom_site_label
_atom_site_fract_x
_atom_site_fract_y
_atom_site_fract_z
Si Si1 0.805964 0.727810 0.724389
Si Si2 0.733502 0.910892 0.287448
Si Si3 0.865126 0.266709 0.932016
Si Si4 0.052719 0.708985 0.622297
Si Si5 0.643447 0.415258 0.049794
Si Si6 0.138534 0.403916 0.532134
O O1 0.741244 0.575682 0.763144
O O2 0.821210 0.849593 0.823250
O O3 0.725332 0.792386 0.611308
O O4 0.939685 0.667946 0.693900
O O5 0.631503 0.818486 0.200415
O O6 0.864692 0.823684 0.296639
O O7 0.694786 0.928395 0.414018
O O8 0.842994 0.091986 0.941679
O O9 0.746006 0.353084 0.972766
O O10 0.000000 0.315038 0.000000
O O11 0.129821 0.560777 0.597495
O O12 0.000000 0.785017 0.500000
O O13 0.500000 0.368986 0.000000
O O14 0.000000 0.332218 0.500000
#
# Coordination Sequence:
#
# PCOD8051748 Si02
#       6
#     4   4   4   4   4   4
#     4  12  25  42  70  98 135 181 222 279 340 397
#     4  12  23  42  69  98 135 179 220 276 338 397
#     4  11  27  47  71 102 136 178 233 286 342 406
#     4  11  22  44  64  97 140 175 224 272 330 404
#     4  11  26  49  71 100 136 179 233 285 342 408
#     4  11  23  43  65  99 139 176 221 272 335 402
#
# _framework density 21.60932
#
# number of rings (size 3 to 8) (size 9 to 14) (size 15 to 20)
#    0.000    0.667    5.000    3.000    2.333    6.000 
#    3.000    0.000    0.000    0.000    0.000    0.000 
#    0.000    0.000    0.000    0.000    0.000    0.000 
#
# Total GULP energy -148794.414095 kJ/mol
# GULP energy per Si atom -12399.534508 kJ/mol
# Density = 2.156014 g / cm^3
# Si number density = 21.609320 Si / 1000 Ang^3
#
#
#
# Elastic Constant Matrix: (Units=GPa)
#
#
# Indices 1 2 3 4 5 6 
#
# 1 113.2915 66.1846 37.3960 0.0000 17.0985 0.0000
# 2 66.1846 136.4512 58.5632 0.0000 20.1596 0.0000
# 3 37.3960 58.5632 100.9653 0.0000 16.7490 0.0000
# 4 0.0000 0.0000 0.0000 33.0179 0.0000 2.1017
# 5 17.0985 20.1596 16.7490 0.0000 37.1532 0.0000
# 6 0.0000 0.0000 0.0000 2.1017 0.0000 21.6542
#
#
#
# Elastic Compliance Matrix: (Units=1/GPa)
#
#
# Indices 1 2 3 4 5 6 
#
# 1 0.012673 -0.005255 -0.001244 0.000000 -0.002420 0.000000
# 2 -0.005255 0.012249 -0.004817 0.000000 -0.002056 0.000000
# 3 -0.001244 -0.004817 0.013652 0.000000 -0.002968 0.000000
# 4 0.000000 0.000000 0.000000 0.030475 0.000000 -0.002958
# 5 -0.002420 -0.002056 -0.002968 0.000000 0.030483 0.000000
# 6 0.000000 0.000000 0.000000 -0.002958 0.000000 0.046468
#
#
# Mechanical properties :
#
#
# Convention : Reuss Voigt Hill
#
# Bulk Modulus (GPa) = 62.73502 74.99951 68.86727
# Shear Modulus (GPa) = 28.74465 30.93602 29.84033
#
# Velocity S-wave (km/s) = 3.65114 3.78776 3.72008
# Velocity P-wave (km/s) = 6.84609 7.34247 7.09862
#
# Compressibility (1/GPa) = 0.01594006
#
# Stress axis : x y z
#
# Youngs Moduli (GPa) = 78.90886 81.63943 73.25112
#
# Poissons Ratio (x) = 0.42905 0.09113
# Poissons Ratio (y) = 0.41470 0.35287
# Poissons Ratio (z) = 0.09817 0.39327
#
# Static dielectric constant tensor:
#      x y z
#    x 4.151550 0.000000 0.263140 
#    y 0.000000 4.030920 0.000000 
#    z 0.263140 0.000000 4.218070 
# 
# 
# High freq. dielectric constant tensor:
#      x y z
#    x 1.850410 0.000000 0.005990 
#    y 0.000000 1.854310 0.000000 
#    z 0.005990 0.000000 1.862660 
# 
# From -- ./inp_files/38431.got.cif
#   From: 2010.03.12/outbox.cif.g09.slc.cpg/sg5_20_cif.got.tgz:38431.got - 2010.03.31 09:47:26.
