data_PCOD8051662
_publ_section_title
;
Structure prediction by ZEFSAII (Michael W. Deem and Ramdas Pophale) SiO2 
 PCOD8051662
Probable space group: C 2
;
_chemical_formula_sum "Si O2"
_cell_formula_units_Z 16
_cell_length_a 7.448217
_cell_length_b 19.643065
_cell_length_c 7.988992
_cell_angle_alpha 90.000000
_cell_angle_beta 37.230817
_cell_angle_gamma 90.000000
_cell_volume 707.177832
_symmetry_space_group_name_H-M "C 2"
_symmetry_group_IT_number 5
_symmetry_cell_setting 'monoclinic'
loop_
_space_group_symop_operation_xyz
x,y,z
-x,y,-z
1/2+x,1/2+y,z
1/2-x,1/2+y,-z
loop_
_atom_site_type_symbol
_atom_site_label
_atom_site_fract_x
_atom_site_fract_y
_atom_site_fract_z
Si Si1 0.276052 0.439270 0.537921
Si Si2 0.685987 0.365314 0.014879
Si Si3 0.000000 0.132242 0.000000
Si Si4 0.321104 0.713235 0.807091
Si Si5 0.500000 0.042549 0.500000
O O1 0.500000 0.476035 0.500000
O O2 0.970392 0.412139 0.841941
O O3 0.222951 0.496034 0.439089
O O4 0.458877 0.372434 0.337778
O O5 0.781277 0.289013 0.907291
O O6 0.500000 0.396942 0.000000
O O7 0.299132 0.088170 0.771262
O O8 0.984518 0.174387 0.837267
O O9 0.500000 0.713054 0.500000
O O10 0.000000 0.681547 0.000000
#
# Coordination Sequence:
#
# PCOD8051662 Si02
#       5
#     4   4   2   4   2
#     4  12  25  41  70 103 138 186 231 290 353 415
#     4  11  21  44  69 103 146 174 225 297 361 415
#     4  12  28  46  76  98 142 200 238 280 348 436
#     4  11  25  46  71 108 141 183 233 298 355 416
#     4  12  26  48  66 102 148 188 238 286 342 424
#
# _framework density 22.625142
#
# number of rings (size 3 to 8) (size 9 to 14) (size 15 to 20)
#    0.000    0.500    2.500    6.750    3.500    3.000 
#    0.000    0.000    0.000    0.000    0.000    0.000 
#    0.000    0.000    0.000    0.000    0.000    0.000 
#
# Total GULP energy -99159.257667 kJ/mol
# GULP energy per Si atom -12394.907208 kJ/mol
# Density = 2.257365 g / cm^3
# Si number density = 22.625142 Si / 1000 Ang^3
#
#
#
# Elastic Constant Matrix: (Units=GPa)
#
#
# Indices 1 2 3 4 5 6 
#
# 1 175.2881 54.2892 37.0535 0.0000 -5.9168 0.0000
# 2 54.2892 90.8878 48.1529 0.0000 5.5471 0.0000
# 3 37.0535 48.1529 141.3637 0.0000 -2.5422 0.0000
# 4 0.0000 0.0000 0.0000 1.8811 0.0000 -42.5700
# 5 -5.9168 5.5471 -2.5422 0.0000 44.0136 0.0000
# 6 0.0000 0.0000 0.0000 -42.5700 0.0000 -48.5586
#
#
#
# Elastic Compliance Matrix: (Units=1/GPa)
#
#
# Indices 1 2 3 4 5 6 
#
# 1 0.007119 -0.004107 -0.000441 0.000000 0.001449 0.000000
# 2 -0.004107 0.015966 -0.004413 0.000000 -0.002819 0.000000
# 3 -0.000441 -0.004413 0.008711 0.000000 0.001000 0.000000
# 4 0.000000 0.000000 0.000000 0.025510 0.000000 -0.022364
# 5 0.001449 -0.002819 0.001000 0.000000 0.023328 0.000000
# 6 0.000000 0.000000 0.000000 -0.022364 0.000000 -0.000988
#
#
# Mechanical properties :
#
#
# Convention : Reuss Voigt Hill
#
# Bulk Modulus (GPa) = 72.07723 76.28119 74.17921
# Shear Modulus (GPa) = 48.92797 17.33681 33.13239
#
# Velocity S-wave (km/s) = 4.65537 2.77115 3.83091
# Velocity P-wave (km/s) = 7.79890 6.63532 7.24052
#
# Compressibility (1/GPa) = 0.01387401
#
# Stress axis : x y z
#
# Youngs Moduli (GPa) = 140.46759 62.63389 114.80312
#
# Poissons Ratio (x) = 0.25725 0.05062
# Poissons Ratio (y) = 0.57693 0.50658
# Poissons Ratio (z) = 0.06193 0.27638
#
# Static dielectric constant tensor:
#      x y z
#    x 4.901220 0.000000 0.406830 
#    y 0.000000 3.874950 0.000000 
#    z 0.406830 0.000000 4.689660 
# 
# 
# High freq. dielectric constant tensor:
#      x y z
#    x 1.910100 0.000000 -0.008680 
#    y 0.000000 1.872750 0.000000 
#    z -0.008680 0.000000 1.909760 
# 
# From -- ./inp_files/15987.got.cif
#   From: 2010.03.12/outbox.cif.g09.slc.cpg/sg5_8_cif.got.tgz:15987.got - 2010.03.31 09:47:26.
