data_PCOD8051575
_publ_section_title
;
Structure prediction by ZEFSAII (Michael W. Deem and Ramdas Pophale) SiO2 
 PCOD8051575
Probable space group: C 2
;
_chemical_formula_sum "Si O2"
_cell_formula_units_Z 24
_cell_length_a 16.871753
_cell_length_b 10.819876
_cell_length_c 12.409684
_cell_angle_alpha 90.000000
_cell_angle_beta 29.604941
_cell_angle_gamma 90.000000
_cell_volume 1119.141434
_symmetry_space_group_name_H-M "C 2"
_symmetry_group_IT_number 5
_symmetry_cell_setting 'monoclinic'
loop_
_space_group_symop_operation_xyz
x,y,z
-x,y,-z
1/2+x,1/2+y,z
1/2-x,1/2+y,-z
loop_
_atom_site_type_symbol
_atom_site_label
_atom_site_fract_x
_atom_site_fract_y
_atom_site_fract_z
Si Si1 0.973310 0.166750 0.907900
Si Si2 0.813600 0.807684 0.201324
Si Si3 0.832696 0.833727 0.739104
Si Si4 0.182575 0.527509 0.761354
Si Si5 0.231962 0.362018 0.518670
Si Si6 0.419981 0.406809 0.869032
O O1 0.114678 0.258630 0.704946
O O2 0.972024 0.046973 0.833691
O O3 0.800299 0.228816 0.100339
O O4 0.000000 0.126612 0.000000
O O5 0.765731 0.665348 0.272157
O O6 0.709770 0.879961 0.415303
O O7 0.784363 0.857284 0.114671
O O8 0.000000 0.831853 0.000000
O O9 0.793966 0.939583 0.699345
O O10 0.841250 0.898454 0.845378
O O11 0.000000 0.774468 0.500000
O O12 0.204980 0.494139 0.608560
O O13 0.000000 0.498121 0.000000
O O14 0.418611 0.321491 0.317527
#
# Coordination Sequence:
#
# PCOD8051575 Si02
#       6
#     4   4   4   4   4   4
#     4  12  23  44  70  98 133 181 231 273 328 413
#     4   9  22  38  63  93 131 166 212 270 340 388
#     4  12  24  43  64  96 133 176 223 278 343 393
#     4  11  20  41  65  95 124 172 228 274 322 413
#     4  11  19  41  66  99 121 178 226 273 323 402
#     4  11  25  42  64 101 140 168 221 288 338 392
#
# _framework density 21.44501
#
# number of rings (size 3 to 8) (size 9 to 14) (size 15 to 20)
#    0.000    1.000    5.000    2.500    2.333    0.000 
#    0.000    4.167    0.000    0.000    0.000    0.000 
#    0.000    0.000    0.000    0.000    0.000    0.000 
#
# Total GULP energy -148749.053366 kJ/mol
# GULP energy per Si atom -12395.754447 kJ/mol
# Density = 2.139620 g / cm^3
# Si number density = 21.445010 Si / 1000 Ang^3
#
#
#
# Elastic Constant Matrix: (Units=GPa)
#
#
# Indices 1 2 3 4 5 6 
#
# 1 89.7669 34.5185 46.7752 0.0000 6.9776 0.0000
# 2 34.5185 105.7141 49.2757 0.0000 4.4642 0.0000
# 3 46.7752 49.2757 112.7080 0.0000 15.7641 0.0000
# 4 0.0000 0.0000 0.0000 27.2901 0.0000 5.9281
# 5 6.9776 4.4642 15.7641 0.0000 37.3822 0.0000
# 6 0.0000 0.0000 0.0000 5.9281 0.0000 15.5630
#
#
#
# Elastic Compliance Matrix: (Units=1/GPa)
#
#
# Indices 1 2 3 4 5 6 
#
# 1 0.014710 -0.002469 -0.004976 0.000000 -0.000352 0.000000
# 2 -0.002469 0.012319 -0.004484 0.000000 0.000881 0.000000
# 3 -0.004976 -0.004484 0.013489 0.000000 -0.004224 0.000000
# 4 0.000000 0.000000 0.000000 0.039949 0.000000 -0.015217
# 5 -0.000352 0.000881 -0.004224 0.000000 0.028493 0.000000
# 6 0.000000 0.000000 0.000000 -0.015217 0.000000 0.070051
#
#
# Mechanical properties :
#
#
# Convention : Reuss Voigt Hill
#
# Bulk Modulus (GPa) = 60.02781 63.25865 61.64323
# Shear Modulus (GPa) = 23.98994 27.88837 25.93915
#
# Velocity S-wave (km/s) = 3.34828 3.61010 3.48165
# Velocity P-wave (km/s) = 6.55746 6.85122 6.70595
#
# Compressibility (1/GPa) = 0.01665895
#
# Stress axis : x y z
#
# Youngs Moduli (GPa) = 67.98303 81.17788 74.13492
#
# Poissons Ratio (x) = 0.20041 0.36890
# Poissons Ratio (y) = 0.16783 0.33244
# Poissons Ratio (z) = 0.33829 0.36403
#
# Static dielectric constant tensor:
#      x y z
#    x 3.945100 0.000000 0.379670 
#    y 0.000000 3.723490 0.000000 
#    z 0.379670 0.000000 4.375070 
# 
# 
# High freq. dielectric constant tensor:
#      x y z
#    x 1.826430 0.000000 0.024970 
#    y 0.000000 1.826730 0.000000 
#    z 0.024970 0.000000 1.866190 
# 
# From -- ./inp_files/39273.got.cif
#   From: 2010.03.12/outbox.cif.g09.slc.cpg/sg5_20_cif.got.tgz:39273.got - 2010.03.31 09:47:26.
