data_PCOD8051017
_publ_section_title
;
Structure prediction by ZEFSAII (Michael W. Deem and Ramdas Pophale) SiO2 
 PCOD8051017
Probable space group: C 2
;
_chemical_formula_sum "Si O2"
_cell_formula_units_Z 32
_cell_length_a 15.607754
_cell_length_b 22.217527
_cell_length_c 8.823866
_cell_angle_alpha 90.000000
_cell_angle_beta 149.336454
_cell_angle_gamma 90.000000
_cell_volume 1560.492123
_symmetry_space_group_name_H-M "C 2"
_symmetry_group_IT_number 5
_symmetry_cell_setting 'monoclinic'
loop_
_space_group_symop_operation_xyz
x,y,z
-x,y,-z
1/2+x,1/2+y,z
1/2-x,1/2+y,-z
loop_
_atom_site_type_symbol
_atom_site_label
_atom_site_fract_x
_atom_site_fract_y
_atom_site_fract_z
Si Si1 0.978777 0.324450 0.647241
Si Si2 0.077896 0.699660 0.783082
Si Si3 0.842201 0.831329 0.152396
Si Si4 0.631750 0.129788 0.323320
Si Si5 0.136297 0.117141 0.833257
Si Si6 0.665287 0.402159 0.158391
Si Si7 0.945517 0.201554 0.744586
Si Si8 0.330419 0.543615 0.826885
O O1 0.000000 0.314933 0.500000
O O2 0.842631 0.374906 0.486029
O O3 0.903327 0.266453 0.614483
O O4 0.170511 0.340065 0.990861
O O5 0.161277 0.765391 0.933787
O O6 0.000000 0.695827 0.500000
O O7 0.933434 0.689100 0.687086
O O8 0.198294 0.641989 0.998292
O O9 0.000000 0.838376 0.500000
O O10 0.859746 0.882896 0.053311
O O11 0.794464 0.155116 0.485080
O O12 0.675547 0.075637 0.505632
O O13 0.500000 0.104603 0.000000
O O14 0.000000 0.098761 0.500000
O O15 0.097081 0.174905 0.877944
O O16 0.166383 0.060646 0.990164
O O17 0.690524 0.472825 0.213972
O O18 0.500000 0.380859 0.000000
O O19 0.000000 0.206780 0.000000
O O20 0.500000 0.565467 0.000000
#
# Coordination Sequence:
#
# PCOD8051017 Si02
#       8
#     4   4   4   4   4   4   4   4
#     4  10  23  42  64  96 130 174 217 267 326 390
#     4  11  22  38  60  99 138 161 205 272 327 391
#     4  10  23  41  65  95 134 166 214 273 326 383
#     4  12  25  38  63  98 130 169 211 269 327 387
#     4  12  22  39  66  96 128 174 207 262 331 392
#     4  10  25  45  69  89 127 182 225 269 317 386
#     4  12  22  39  65  93 136 168 209 260 339 394
#     4  11  23  49  65  91 134 173 223 264 321 393
#
# _framework density 20.506350999999999
#
# number of rings (size 3 to 8) (size 9 to 14) (size 15 to 20)
#    0.000    1.000    5.000    1.125    8.750    0.500 
#    6.750    3.125    0.000    0.000    0.000    0.000 
#    0.000    0.000    0.000    0.000    0.000    0.000 
#
# Total GULP energy -198371.912736 kJ/mol
# GULP energy per Si atom -12398.244546 kJ/mol
# Density = 2.045968 g / cm^3
# Si number density = 20.506351 Si / 1000 Ang^3
#
#
#
# Elastic Constant Matrix: (Units=GPa)
#
#
# Indices 1 2 3 4 5 6 
#
# 1 67.7944 35.9130 32.0701 0.0000 0.4409 0.0000
# 2 35.9130 95.5709 48.7395 0.0000 6.9306 0.0000
# 3 32.0701 48.7395 135.9201 0.0000 1.2260 0.0000
# 4 0.0000 0.0000 0.0000 24.8317 0.0000 -1.5330
# 5 0.4409 6.9306 1.2260 0.0000 35.0297 0.0000
# 6 0.0000 0.0000 0.0000 -1.5330 0.0000 29.8433
#
#
#
# Elastic Compliance Matrix: (Units=1/GPa)
#
#
# Indices 1 2 3 4 5 6 
#
# 1 0.019050 -0.006041 -0.002338 0.000000 0.001037 0.000000
# 2 -0.006041 0.014922 -0.003901 0.000000 -0.002740 0.000000
# 3 -0.002338 -0.003901 0.009303 0.000000 0.000476 0.000000
# 4 0.000000 0.000000 0.000000 0.040399 0.000000 0.002075
# 5 0.001037 -0.002740 0.000476 0.000000 0.029060 0.000000
# 6 0.000000 0.000000 0.000000 0.002075 0.000000 0.033615
#
#
# Mechanical properties :
#
#
# Convention : Reuss Voigt Hill
#
# Bulk Modulus (GPa) = 53.43237 59.19231 56.31234
# Shear Modulus (GPa) = 28.22524 30.11180 29.16852
#
# Velocity S-wave (km/s) = 3.71403 3.83615 3.77558
# Velocity P-wave (km/s) = 6.67121 6.96774 6.82109
#
# Compressibility (1/GPa) = 0.01871525
#
# Stress axis : x y z
#
# Youngs Moduli (GPa) = 52.49347 67.01720 107.48937
#
# Poissons Ratio (x) = 0.40488 0.25128
# Poissons Ratio (y) = 0.31714 0.41926
# Poissons Ratio (z) = 0.12272 0.26140
#
# Static dielectric constant tensor:
#      x y z
#    x 3.936410 0.000000 0.358280 
#    y 0.000000 3.517860 0.000000 
#    z 0.358280 0.000000 4.077550 
# 
# 
# High freq. dielectric constant tensor:
#      x y z
#    x 1.806020 0.000000 0.010580 
#    y 0.000000 1.781130 0.000000 
#    z 0.010580 0.000000 1.815080 
# 
# From -- ./inp_files/25615.got.cif
#   From: 2010.03.12/outbox.cif.g09.slc.cpg/sg5_13_cif.got.tgz:25615.got - 2010.03.31 09:47:26.
