data_PCOD8051941
_publ_section_title
;
Structure prediction by ZEFSAII (Michael W. Deem and Ramdas Pophale) SiO2 
 PCOD8051941
Probable space group: C 2
;
_chemical_formula_sum "Si O2"
_cell_formula_units_Z 24
_cell_length_a 18.642349
_cell_length_b 7.438695
_cell_length_c 15.676674
_cell_angle_alpha 90.000000
_cell_angle_beta 149.900567
_cell_angle_gamma 90.000000
_cell_volume 1090.245078
_symmetry_space_group_name_H-M "C 2"
_symmetry_group_IT_number 5
_symmetry_cell_setting 'monoclinic'
loop_
_space_group_symop_operation_xyz
x,y,z
-x,y,-z
1/2+x,1/2+y,z
1/2-x,1/2+y,-z
loop_
_atom_site_type_symbol
_atom_site_label
_atom_site_fract_x
_atom_site_fract_y
_atom_site_fract_z
Si Si1 0.158950 0.317600 0.999080
Si Si2 0.087802 0.678760 0.849357
Si Si3 0.329878 0.041781 0.483699
Si Si4 0.902589 0.177229 0.480490
Si Si5 0.550133 0.549039 0.289027
Si Si6 0.669748 0.320963 0.656795
O O1 0.123470 0.530543 0.958134
O O2 0.015706 0.200837 0.840276
O O3 0.263486 0.254178 0.031863
O O4 0.233828 0.270030 0.164276
O O5 0.992484 0.575827 0.680441
O O6 0.003505 0.852974 0.796523
O O7 0.317482 0.849562 0.425188
O O8 0.221654 0.050857 0.452290
O O9 0.281084 0.190054 0.366723
O O10 0.986792 0.088713 0.648975
O O11 0.000000 0.234611 0.500000
O O12 0.794438 0.024503 0.335356
O O13 0.500000 0.304671 0.500000
#
# Coordination Sequence:
#
# PCOD8051941 Si02
#       6
#     4   4   4   4   4   4
#     4  12  26  43  73 106 142 186 243 302 351 428
#     4  12  24  43  72 104 140 187 245 294 353 429
#     4  12  25  44  75 104 147 191 237 299 367 429
#     4  11  24  42  74 107 138 190 243 288 352 434
#     4  12  26  46  71 110 145 188 242 298 366 426
#     4  11  24  45  70 105 145 187 239 298 362 428
#
# _framework density 22.013400000000001
#
# number of rings (size 3 to 8) (size 9 to 14) (size 15 to 20)
#    0.000    0.333    6.667    2.500    0.000    3.333 
#    0.000    0.000    0.000    0.000    0.000    0.000 
#    0.000    0.000    0.000    0.000    0.000    0.000 
#
# Total GULP energy -148784.996124 kJ/mol
# GULP energy per Si atom -12398.749677 kJ/mol
# Density = 2.196330 g / cm^3
# Si number density = 22.013400 Si / 1000 Ang^3
#
#
#
# Elastic Constant Matrix: (Units=GPa)
#
#
# Indices 1 2 3 4 5 6 
#
# 1 89.7689 34.1449 34.6304 0.0000 -2.6905 0.0000
# 2 34.1449 120.8934 11.5880 0.0000 14.0702 0.0000
# 3 34.6304 11.5880 79.8196 0.0000 -5.5936 0.0000
# 4 0.0000 0.0000 0.0000 22.3709 0.0000 -10.6107
# 5 -2.6905 14.0702 -5.5936 0.0000 31.1176 0.0000
# 6 0.0000 0.0000 0.0000 -10.6107 0.0000 28.7186
#
#
#
# Elastic Compliance Matrix: (Units=1/GPa)
#
#
# Indices 1 2 3 4 5 6 
#
# 1 0.014902 -0.003891 -0.005759 0.000000 0.002013 0.000000
# 2 -0.003891 0.009944 -0.000095 0.000000 -0.004850 0.000000
# 3 -0.005759 -0.000095 0.015200 0.000000 0.002278 0.000000
# 4 0.000000 0.000000 0.000000 0.054199 0.000000 0.020025
# 5 0.002013 -0.004850 0.002278 0.000000 0.034913 0.000000
# 6 0.000000 0.000000 0.000000 0.020025 0.000000 0.042219
#
#
# Mechanical properties :
#
#
# Convention : Reuss Voigt Hill
#
# Bulk Modulus (GPa) = 48.64989 50.13427 49.39208
# Shear Modulus (GPa) = 25.28822 30.44934 27.86878
#
# Velocity S-wave (km/s) = 3.39302 3.72320 3.56194
# Velocity P-wave (km/s) = 6.12358 6.42704 6.27714
#
# Compressibility (1/GPa) = 0.02055503
#
# Stress axis : x y z
#
# Youngs Moduli (GPa) = 67.10578 100.55964 65.78753
#
# Poissons Ratio (x) = 0.39128 0.37889
# Poissons Ratio (y) = 0.26111 0.00628
# Poissons Ratio (z) = 0.38649 0.00959
#
# Static dielectric constant tensor:
#      x y z
#    x 3.835020 0.000000 -0.016320 
#    y 0.000000 4.356920 0.000000 
#    z -0.016320 0.000000 3.839640 
# 
# 
# High freq. dielectric constant tensor:
#      x y z
#    x 1.848320 0.000000 -0.003400 
#    y 0.000000 1.891960 0.000000 
#    z -0.003400 0.000000 1.852410 
# 
# From -- ./inp_files/55805.got.cif
#   From: 2010.03.12/outbox.cif.g09.slc.cpg/sg5_28_cif.got.tgz:55805.got - 2010.03.31 09:47:26.
