data_PCOD8051055
_publ_section_title
;
Structure prediction by ZEFSAII (Michael W. Deem and Ramdas Pophale) SiO2 
 PCOD8051055
Probable space group: C 2
;
_chemical_formula_sum "Si O2"
_cell_formula_units_Z 20
_cell_length_a 11.463646
_cell_length_b 8.284544
_cell_length_c 9.070095
_cell_angle_alpha 90.000000
_cell_angle_beta 81.013385
_cell_angle_gamma 90.000000
_cell_volume 850.822949
_symmetry_space_group_name_H-M "C 2"
_symmetry_group_IT_number 5
_symmetry_cell_setting 'monoclinic'
loop_
_space_group_symop_operation_xyz
x,y,z
-x,y,-z
1/2+x,1/2+y,z
1/2-x,1/2+y,-z
loop_
_atom_site_type_symbol
_atom_site_label
_atom_site_fract_x
_atom_site_fract_y
_atom_site_fract_z
Si Si1 0.902106 0.038220 0.695224
Si Si2 0.403681 0.191153 0.650021
Si Si3 0.660762 0.538862 0.624813
Si Si4 0.605602 0.021416 0.061551
Si Si5 0.779921 0.785463 0.142568
O O1 0.849881 0.995376 0.543906
O O2 0.818883 0.154714 0.799682
O O3 0.032640 0.119157 0.684808
O O4 0.910307 0.853346 0.748500
O O5 0.500000 0.185275 0.500000
O O6 0.268612 0.162544 0.622578
O O7 0.433206 0.050558 0.761138
O O8 0.674324 0.374738 0.719017
O O9 0.724415 0.914977 0.039482
O O10 0.500000 0.925722 0.000000
O O11 0.620931 0.187129 0.964605
#
# Coordination Sequence:
#
# PCOD8051055 Si02
#       5
#     4   4   4   4   4
#     4  11  22  41  69  98 135 175 221 278 334 390
#     4  11  23  45  66 101 138 178 222 278 333 400
#     4  10  23  42  67 101 133 174 225 274 336 391
#     4  11  26  44  69  98 135 181 221 276 338 396
#     4  11  25  45  66 101 133 177 228 275 335 400
#
# _framework density 23.506651000000002
#
# number of rings (size 3 to 8) (size 9 to 14) (size 15 to 20)
#    0.000    1.200    2.000    3.600    2.800    4.800 
#   18.000    1.000    0.000    0.000    0.000    0.000 
#    0.000    0.000    0.000    0.000    0.000    0.000 
#
# Total GULP energy -123882.429828 kJ/mol
# GULP energy per Si atom -12388.242983 kJ/mol
# Density = 2.345315 g / cm^3
# Si number density = 23.506651 Si / 1000 Ang^3
#
#
#
# Elastic Constant Matrix: (Units=GPa)
#
#
# Indices 1 2 3 4 5 6 
#
# 1 143.0523 29.5153 44.6902 0.0000 12.5236 0.0000
# 2 29.5153 69.8886 23.4871 0.0000 -5.9132 0.0000
# 3 44.6902 23.4871 74.2275 0.0000 -2.3042 0.0000
# 4 0.0000 0.0000 0.0000 39.5980 0.0000 -9.1551
# 5 12.5236 -5.9132 -2.3042 0.0000 41.3776 0.0000
# 6 0.0000 0.0000 0.0000 -9.1551 0.0000 28.2562
#
#
#
# Elastic Compliance Matrix: (Units=1/GPa)
#
#
# Indices 1 2 3 4 5 6 
#
# 1 0.009370 -0.002596 -0.004928 0.000000 -0.003482 0.000000
# 2 -0.002596 0.016899 -0.003691 0.000000 0.002995 0.000000
# 3 -0.004928 -0.003691 0.017668 0.000000 0.001948 0.000000
# 4 0.000000 0.000000 0.000000 0.027299 0.000000 0.008845
# 5 -0.003482 0.002995 0.001948 0.000000 0.025758 0.000000
# 6 0.000000 0.000000 0.000000 0.008845 0.000000 0.038256
#
#
# Mechanical properties :
#
#
# Convention : Reuss Voigt Hill
#
# Bulk Modulus (GPa) = 46.49845 53.61708 50.05776
# Shear Modulus (GPa) = 30.33072 34.47807 32.40440
#
# Velocity S-wave (km/s) = 3.59598 3.83395 3.71687
# Velocity P-wave (km/s) = 6.08813 6.51596 6.30568
#
# Compressibility (1/GPa) = 0.02150609
#
# Stress axis : x y z
#
# Youngs Moduli (GPa) = 106.71850 59.17647 56.59999
#
# Poissons Ratio (x) = 0.15360 0.27895
# Poissons Ratio (y) = 0.27700 0.20893
# Poissons Ratio (z) = 0.52596 0.21844
#
# Static dielectric constant tensor:
#      x y z
#    x 4.376700 0.000000 0.151000 
#    y 0.000000 4.264340 0.000000 
#    z 0.151000 0.000000 4.092900 
# 
# 
# High freq. dielectric constant tensor:
#      x y z
#    x 1.949050 0.000000 0.009280 
#    y 0.000000 1.915380 0.000000 
#    z 0.009280 0.000000 1.927970 
# 
# From -- ./inp_files/18264.got.cif
#   From: 2010.03.12/outbox.cif.g09.slc.cpg/sg5_10_cif.got.tgz:18264.got - 2010.03.31 09:47:26.
