data_PCOD8051749
_publ_section_title
;
Structure prediction by ZEFSAII (Michael W. Deem and Ramdas Pophale) SiO2 
 PCOD8051749
Probable space group: C 2
;
_chemical_formula_sum "Si O2"
_cell_formula_units_Z 32
_cell_length_a 26.666791
_cell_length_b 9.461199
_cell_length_c 10.688118
_cell_angle_alpha 90.000000
_cell_angle_beta 33.412712
_cell_angle_gamma 90.000000
_cell_volume 1484.931425
_symmetry_space_group_name_H-M "C 2"
_symmetry_group_IT_number 5
_symmetry_cell_setting 'monoclinic'
loop_
_space_group_symop_operation_xyz
x,y,z
-x,y,-z
1/2+x,1/2+y,z
1/2-x,1/2+y,-z
loop_
_atom_site_type_symbol
_atom_site_label
_atom_site_fract_x
_atom_site_fract_y
_atom_site_fract_z
Si Si1 0.540208 0.567430 0.048016
Si Si2 0.708814 0.080813 0.666821
Si Si3 0.639769 0.612512 0.444000
Si Si4 0.935681 0.680110 0.520110
Si Si5 0.960949 0.749580 0.944776
Si Si6 0.908551 0.361115 0.624540
Si Si7 0.792214 0.265289 0.291417
Si Si8 0.230443 0.855172 0.154933
O O1 0.461153 0.560300 0.314754
O O2 0.580023 0.408406 0.957190
O O3 0.500000 0.618049 0.000000
O O4 0.615259 0.681527 0.931574
O O5 0.798768 0.112886 0.560141
O O6 0.722788 0.164367 0.509138
O O7 0.691004 0.915403 0.673830
O O8 0.620711 0.143285 0.920835
O O9 0.629714 0.767841 0.408535
O O10 0.682734 0.508955 0.250626
O O11 0.931263 0.511918 0.518089
O O12 0.837275 0.741949 0.766439
O O13 0.000000 0.727300 0.500000
O O14 0.967118 0.739949 0.319235
O O15 0.000000 0.705673 0.000000
O O16 0.000000 0.299197 0.500000
O O17 0.829182 0.369716 0.891077
O O18 0.740215 0.304238 0.275259
#
# Coordination Sequence:
#
# PCOD8051749 Si02
#       8
#     4   4   4   4   4   4   4   4
#     4  11  22  44  66  97 139 177 222 280 341 410
#     4  11  25  40  70  98 137 175 224 280 345 404
#     4  11  24  43  68  97 132 177 226 276 347 403
#     4  11  26  45  70 101 139 179 232 286 348 404
#     4  11  25  44  71  97 139 181 228 280 343 408
#     4  11  26  44  70  96 136 177 229 286 343 405
#     4  11  24  42  69 100 139 176 228 279 345 407
#     4  11  24  47  67  96 137 182 225 284 343 410
#
# _framework density 21.549817999999998
#
# number of rings (size 3 to 8) (size 9 to 14) (size 15 to 20)
#    0.000    1.000    2.500    3.000   14.000    4.000 
#    2.250    0.000    0.000    0.000    0.000    0.000 
#    0.000    0.000    0.000    0.000    0.000    0.000 
#
# Total GULP energy -198418.998396 kJ/mol
# GULP energy per Si atom -12401.187400 kJ/mol
# Density = 2.150077 g / cm^3
# Si number density = 21.549818 Si / 1000 Ang^3
#
#
#
# Elastic Constant Matrix: (Units=GPa)
#
#
# Indices 1 2 3 4 5 6 
#
# 1 69.9720 43.3271 26.2086 0.0000 1.5731 0.0000
# 2 43.3271 125.2431 35.9420 0.0000 -10.8588 0.0000
# 3 26.2086 35.9420 130.6574 0.0000 -11.6693 0.0000
# 4 0.0000 0.0000 0.0000 36.9723 0.0000 -4.4118
# 5 1.5731 -10.8588 -11.6693 0.0000 35.7373 0.0000
# 6 0.0000 0.0000 0.0000 -4.4118 0.0000 34.9541
#
#
#
# Elastic Compliance Matrix: (Units=1/GPa)
#
#
# Indices 1 2 3 4 5 6 
#
# 1 0.019142 -0.006227 -0.002442 0.000000 -0.003532 0.000000
# 2 -0.006227 0.010823 -0.001452 0.000000 0.003089 0.000000
# 3 -0.002442 -0.001452 0.008769 0.000000 0.002529 0.000000
# 4 0.000000 0.000000 0.000000 0.027461 0.000000 0.003466
# 5 -0.003532 0.003089 0.002529 0.000000 0.029902 0.000000
# 6 0.000000 0.000000 0.000000 0.003466 0.000000 0.029046
#
#
# Mechanical properties :
#
#
# Convention : Reuss Voigt Hill
#
# Bulk Modulus (GPa) = 54.08230 59.64755 56.86493
# Shear Modulus (GPa) = 32.99246 36.22574 34.60910
#
# Velocity S-wave (km/s) = 3.91703 4.10448 4.01185
# Velocity P-wave (km/s) = 6.75339 7.08529 6.92133
#
# Compressibility (1/GPa) = 0.01849034
#
# Stress axis : x y z
#
# Youngs Moduli (GPa) = 52.24240 92.39268 114.03953
#
# Poissons Ratio (x) = 0.57536 0.27849
# Poissons Ratio (y) = 0.32533 0.16563
# Poissons Ratio (z) = 0.12758 0.13419
#
# Static dielectric constant tensor:
#      x y z
#    x 3.731030 0.000000 -0.075300 
#    y 0.000000 4.068480 0.000000 
#    z -0.075300 0.000000 4.058440 
# 
# 
# High freq. dielectric constant tensor:
#      x y z
#    x 1.834500 0.000000 -0.007470 
#    y 0.000000 1.856160 0.000000 
#    z -0.007470 0.000000 1.859610 
# 
# From -- ./inp_files/48397.got.cif
#   From: 2010.03.12/outbox.cif.g09.slc.cpg/sg5_25_cif.got.tgz:48397.got - 2010.03.31 09:47:26.
