data_PCOD8051914
_publ_section_title
;
Structure prediction by ZEFSAII (Michael W. Deem and Ramdas Pophale) SiO2 
 PCOD8051914
Probable space group: C 2
;
_chemical_formula_sum "Si O2"
_cell_formula_units_Z 18
_cell_length_a 5.572656
_cell_length_b 23.700241
_cell_length_c 5.265049
_cell_angle_alpha 90.000000
_cell_angle_beta 90.758624
_cell_angle_gamma 90.000000
_cell_volume 695.311392
_symmetry_space_group_name_H-M "C 2"
_symmetry_group_IT_number 5
_symmetry_cell_setting 'monoclinic'
loop_
_space_group_symop_operation_xyz
x,y,z
-x,y,-z
1/2+x,1/2+y,z
1/2-x,1/2+y,-z
loop_
_atom_site_type_symbol
_atom_site_label
_atom_site_fract_x
_atom_site_fract_y
_atom_site_fract_z
Si Si1 0.353592 0.703120 0.243525
Si Si2 0.000000 0.397601 0.000000
Si Si3 0.739136 0.321523 0.356175
Si Si4 0.136391 0.969180 0.746471
Si Si5 0.357106 0.083480 0.756348
O O1 0.500000 0.689619 0.500000
O O2 0.177539 0.756235 0.287316
O O3 0.226235 0.645375 0.164695
O O4 0.500000 0.722287 0.000000
O O5 0.781234 0.359585 0.107026
O O6 0.106759 0.437242 0.227619
O O7 0.500000 0.343860 0.500000
O O8 0.000000 0.322843 0.500000
O O9 0.000000 0.944398 0.500000
O O10 0.152811 0.036842 0.710401
O O11 0.000000 0.954296 0.000000
O O12 0.500000 0.088719 0.500000
O O13 0.500000 0.059352 0.000000
#
# Coordination Sequence:
#
# PCOD8051914 Si02
#       5
#     4   2   4   4   4
#     4  11  23  47  76 115 158 210 267 336 416 495
#     4  12  30  52  78 120 164 218 292 340 414 502
#     4  11  28  51  81 119 166 221 281 345 419 497
#     4  12  29  50  80 114 162 215 275 343 419 491
#     4  12  24  45  75 116 160 207 265 341 415 497
#
# _framework density 25.887682000000002
#
# number of rings (size 3 to 8) (size 9 to 14) (size 15 to 20)
#    0.000    0.444    2.222    4.667    6.222    1.778 
#    0.000    0.000    0.000    0.000    0.000    0.000 
#    0.000    0.000    0.000    0.000    0.000    0.000 
#
# Total GULP energy -111567.807211 kJ/mol
# GULP energy per Si atom -12396.423023 kJ/mol
# Density = 2.582876 g / cm^3
# Si number density = 25.887682 Si / 1000 Ang^3
#
#
#
# Elastic Constant Matrix: (Units=GPa)
#
#
# Indices 1 2 3 4 5 6 
#
# 1 119.2103 41.5893 51.1701 0.0000 -7.6046 0.0000
# 2 41.5893 174.1405 25.2863 0.0000 -1.6376 0.0000
# 3 51.1701 25.2863 146.0737 0.0000 -8.1651 0.0000
# 4 0.0000 0.0000 0.0000 18.6581 0.0000 23.5551
# 5 -7.6046 -1.6376 -8.1651 0.0000 58.2215 0.0000
# 6 0.0000 0.0000 0.0000 23.5551 0.0000 -41.9961
#
#
#
# Elastic Compliance Matrix: (Units=1/GPa)
#
#
# Indices 1 2 3 4 5 6 
#
# 1 0.010572 -0.002037 -0.003303 0.000000 0.000860 0.000000
# 2 -0.002037 0.006283 -0.000382 0.000000 -0.000143 0.000000
# 3 -0.003303 -0.000382 0.008108 0.000000 0.000695 0.000000
# 4 0.000000 0.000000 0.000000 0.031378 0.000000 0.017599
# 5 0.000860 -0.000143 0.000695 0.000000 0.017382 0.000000
# 6 0.000000 0.000000 0.000000 0.017599 0.000000 -0.013941
#
#
# Mechanical properties :
#
#
# Convention : Reuss Voigt Hill
#
# Bulk Modulus (GPa) = 73.96940 75.05733 74.51336
# Shear Modulus (GPa) = 66.02295 28.40194 47.21245
#
# Velocity S-wave (km/s) = 5.05559 3.31588 4.27516
# Velocity P-wave (km/s) = 7.91921 6.61184 7.29487
#
# Compressibility (1/GPa) = 0.01351910
#
# Stress axis : x y z
#
# Youngs Moduli (GPa) = 94.59182 159.15592 123.33897
#
# Poissons Ratio (x) = 0.32423 0.40734
# Poissons Ratio (y) = 0.19270 0.04712
# Poissons Ratio (z) = 0.31240 0.06080
#
# Static dielectric constant tensor:
#      x y z
#    x 4.601710 0.000000 0.085560 
#    y 0.000000 5.274790 0.000000 
#    z 0.085560 0.000000 4.630560 
# 
# 
# High freq. dielectric constant tensor:
#      x y z
#    x 2.011330 0.000000 -0.001000 
#    y 0.000000 2.071460 0.000000 
#    z -0.001000 0.000000 2.047970 
# 
# From -- ./inp_files/843.got.cif
#   From: 2010.03.12/outbox.cif.g09.slc.cpg/sg5_1_cif.got.tgz:843.got - 2010.03.31 09:47:26.
