data_PCOD8051739
_publ_section_title
;
Structure prediction by ZEFSAII (Michael W. Deem and Ramdas Pophale) SiO2 
 PCOD8051739
Probable space group: C 2
;
_chemical_formula_sum "Si O2"
_cell_formula_units_Z 28
_cell_length_a 8.654796
_cell_length_b 14.042489
_cell_length_c 20.764360
_cell_angle_alpha 90.000000
_cell_angle_beta 149.584667
_cell_angle_gamma 90.000000
_cell_volume 1277.606193
_symmetry_space_group_name_H-M "C 2"
_symmetry_group_IT_number 5
_symmetry_cell_setting 'monoclinic'
loop_
_space_group_symop_operation_xyz
x,y,z
-x,y,-z
1/2+x,1/2+y,z
1/2-x,1/2+y,-z
loop_
_atom_site_type_symbol
_atom_site_label
_atom_site_fract_x
_atom_site_fract_y
_atom_site_fract_z
Si Si1 0.672699 0.072260 0.250400
Si Si2 0.266358 0.723349 0.724370
Si Si3 0.247287 0.917925 0.290689
Si Si4 0.717471 0.574558 0.854803
Si Si5 0.787130 0.753533 0.148741
Si Si6 0.710660 0.902286 0.352331
Si Si7 0.130050 0.580313 0.479474
O O1 0.682875 0.038830 0.179830
O O2 0.436278 0.158097 0.173964
O O3 0.012765 0.095096 0.395216
O O4 0.569310 0.985644 0.257838
O O5 0.554297 0.676889 0.791255
O O6 0.344651 0.740368 0.827110
O O7 0.179532 0.818449 0.654889
O O8 0.986901 0.648502 0.619936
O O9 0.419674 0.873883 0.291153
O O10 0.054833 0.832135 0.252546
O O11 0.509913 0.970401 0.428724
O O12 0.001810 0.000105 0.187515
O O13 0.000000 0.590957 0.000000
O O14 0.500000 0.784149 0.000000
O O15 0.000000 0.934951 0.500000
O O16 0.000000 0.620215 0.500000
#
# Coordination Sequence:
#
# PCOD8051739 Si02
#       7
#     4   4   4   4   4   4   4
#     4  12  24  43  71  98 139 179 221 286 339 401
#     4  11  25  42  68  99 136 177 224 280 342 399
#     4  11  24  43  69  97 138 177 222 279 340 397
#     4  11  23  45  72  99 135 178 227 277 332 406
#     4  12  28  48  67  99 137 186 236 272 331 408
#     4  12  26  42  66 101 138 171 222 277 348 409
#     4  11  22  43  69 106 138 170 223 280 355 404
#
# _framework density 21.915987999999999
#
# number of rings (size 3 to 8) (size 9 to 14) (size 15 to 20)
#    0.000    0.571    4.286    5.143    2.000    0.000 
#    0.000    2.143    0.000    0.000    0.000    0.000 
#    0.000    0.000    0.000    0.000    0.000    0.000 
#
# Total GULP energy -173541.231401 kJ/mol
# GULP energy per Si atom -12395.802243 kJ/mol
# Density = 2.186611 g / cm^3
# Si number density = 21.915988 Si / 1000 Ang^3
#
#
#
# Elastic Constant Matrix: (Units=GPa)
#
#
# Indices 1 2 3 4 5 6 
#
# 1 91.1171 27.7139 16.3181 -0.0025 -11.1609 -0.0014
# 2 27.7139 90.7738 26.0549 -0.0004 -3.8460 0.0013
# 3 16.3181 26.0549 95.8169 -0.0091 -13.3662 -0.0051
# 4 -0.0025 -0.0004 -0.0091 22.0325 0.0019 -10.6831
# 5 -11.1609 -3.8460 -13.3662 0.0019 38.1910 0.0018
# 6 -0.0014 0.0013 -0.0051 -10.6831 0.0018 14.4667
#
#
#
# Elastic Compliance Matrix: (Units=1/GPa)
#
#
# Indices 1 2 3 4 5 6 
#
# 1 0.012544 -0.003481 -0.000765 0.000002 0.003048 0.000002
# 2 -0.003481 0.012915 -0.003027 -0.000004 -0.000776 -0.000005
# 3 -0.000765 -0.003027 0.011897 0.000010 0.003636 0.000011
# 4 0.000002 -0.000004 0.000010 0.070704 -0.000002 0.052213
# 5 0.003048 -0.000776 0.003636 -0.000002 0.028269 -0.000004
# 6 0.000002 -0.000005 0.000011 0.052213 -0.000004 0.107682
#
#
# Mechanical properties :
#
#
# Convention : Reuss Voigt Hill
#
# Bulk Modulus (GPa) = 43.84012 46.43127 45.13569
# Shear Modulus (GPa) = 18.78562 28.77943 23.78252
#
# Velocity S-wave (km/s) = 2.93091 3.62770 3.29776
# Velocity P-wave (km/s) = 5.61256 6.22728 5.92789
#
# Compressibility (1/GPa) = 0.02281016
#
# Stress axis : x y z
#
# Youngs Moduli (GPa) = 79.71971 77.42761 84.05372
#
# Poissons Ratio (x) = 0.26954 0.06426
# Poissons Ratio (y) = 0.27752 0.25446
# Poissons Ratio (z) = 0.06095 0.23440
#
# Static dielectric constant tensor:
#      x y z
#    x 4.470850 -0.000030 -0.156790 
#    y -0.000030 4.009710 -0.000020 
#    z -0.156790 -0.000020 3.997900 
# 
# 
# High freq. dielectric constant tensor:
#      x y z
#    x 1.868960 0.000000 0.002180 
#    y 0.000000 1.861100 0.000000 
#    z 0.002180 0.000000 1.858480 
# 
# From -- ./inp_files/64713.got.cif
#   From: 2010.03.12/outbox.cif.g09.slc.cpg/sg5_33_cif.got.tgz:64713.got - 2010.03.31 09:47:26.
