data_PCOD8051190
_publ_section_title
;
Structure prediction by ZEFSAII (Michael W. Deem and Ramdas Pophale) SiO2 
 PCOD8051190
Probable space group: C 2
;
_chemical_formula_sum "Si O2"
_cell_formula_units_Z 32
_cell_length_a 10.564645
_cell_length_b 10.279061
_cell_length_c 12.384108
_cell_angle_alpha 90.000000
_cell_angle_beta 65.606216
_cell_angle_gamma 90.000000
_cell_volume 1224.791029
_symmetry_space_group_name_H-M "C 2"
_symmetry_group_IT_number 5
_symmetry_cell_setting 'monoclinic'
loop_
_space_group_symop_operation_xyz
x,y,z
-x,y,-z
1/2+x,1/2+y,z
1/2-x,1/2+y,-z
loop_
_atom_site_type_symbol
_atom_site_label
_atom_site_fract_x
_atom_site_fract_y
_atom_site_fract_z
Si Si1 0.990690 0.894800 0.159870
Si Si2 0.200883 0.129413 0.809939
Si Si3 0.868542 0.635851 0.112196
Si Si4 0.086327 0.428791 0.238630
Si Si5 0.796425 0.309470 0.386548
Si Si6 0.860162 0.266523 0.592554
Si Si7 0.279056 0.797557 0.995289
Si Si8 0.141051 0.993630 0.308831
O O1 0.137109 0.881485 0.046020
O O2 0.024371 0.934562 0.271125
O O3 0.912614 0.754524 0.177146
O O4 0.905318 0.010852 0.132929
O O5 0.180203 0.182726 0.696119
O O6 0.172747 0.247707 0.903822
O O7 0.360454 0.078414 0.772475
O O8 0.795802 0.518132 0.202404
O O9 0.747960 0.673055 0.070417
O O10 0.000000 0.580968 0.000000
O O11 0.191123 0.352076 0.286693
O O12 0.929391 0.406145 0.331419
O O13 0.103954 0.381404 0.108128
O O14 0.759934 0.265205 0.522918
O O15 0.661377 0.386949 0.394729
O O16 0.000000 0.333686 0.500000
O O17 0.908590 0.126979 0.620543
#
# Coordination Sequence:
#
# PCOD8051190 Si02
#       8
#     4   4   4   4   4   4   4   4
#     4  11  24  44  68 107 145 187 230 282 353 428
#     4  12  26  45  75 101 152 184 231 300 348 423
#     4  10  24  42  68 104 147 186 226 285 350 429
#     4  11  25  46  71 101 141 191 230 297 358 411
#     4  11  28  44  71 108 133 184 251 288 355 428
#     4  10  23  49  70  97 135 187 246 294 355 411
#     4  11  24  41  64 113 137 185 243 267 358 433
#     4  12  24  46  75 102 145 187 236 297 355 426
#
# _framework density 26.126906000000002
#
# number of rings (size 3 to 8) (size 9 to 14) (size 15 to 20)
#    0.000    1.000    3.750    1.500    7.000    1.500 
#    2.250    0.000    0.000    0.000    0.000    0.000 
#    0.000    0.000    0.000    0.000    0.000    0.000 
#
# Total GULP energy -198267.759087 kJ/mol
# GULP energy per Si atom -12391.734943 kJ/mol
# Density = 2.606744 g / cm^3
# Si number density = 26.126906 Si / 1000 Ang^3
#
#
#
# Elastic Constant Matrix: (Units=GPa)
#
#
# Indices 1 2 3 4 5 6 
#
# 1 63.3345 23.6461 14.3904 0.0000 21.1328 0.0000
# 2 23.6461 82.6490 27.4333 0.0000 26.8290 0.0000
# 3 14.3904 27.4333 94.2300 0.0000 35.5445 0.0000
# 4 0.0000 0.0000 0.0000 23.0994 0.0000 17.0208
# 5 21.1328 26.8290 35.5445 0.0000 50.5123 0.0000
# 6 0.0000 0.0000 0.0000 17.0208 0.0000 36.8451
#
#
#
# Elastic Compliance Matrix: (Units=1/GPa)
#
#
# Indices 1 2 3 4 5 6 
#
# 1 0.019166 -0.003552 0.000572 0.000000 -0.006534 0.000000
# 2 -0.003552 0.015508 -0.001941 0.000000 -0.005385 0.000000
# 3 0.000572 -0.001941 0.014691 0.000000 -0.009546 0.000000
# 4 0.000000 0.000000 0.000000 0.065632 0.000000 -0.030319
# 5 -0.006534 -0.005385 -0.009546 0.000000 0.032108 0.000000
# 6 0.000000 0.000000 0.000000 -0.030319 0.000000 0.041147
#
#
# Mechanical properties :
#
#
# Convention : Reuss Voigt Hill
#
# Bulk Modulus (GPa) = 25.30241 41.23922 33.27081
# Shear Modulus (GPa) = 23.66665 33.74094 28.70379
#
# Velocity S-wave (km/s) = 3.01297 3.59754 3.31815
# Velocity P-wave (km/s) = 4.67006 5.75107 5.23853
#
# Compressibility (1/GPa) = 0.03952193
#
# Stress axis : x y z
#
# Youngs Moduli (GPa) = 52.17667 64.48303 68.06904
#
# Poissons Ratio (x) = 0.22905 -0.03893
# Poissons Ratio (y) = 0.18534 0.13213
# Poissons Ratio (z) = -0.02984 0.12517
#
# Static dielectric constant tensor:
#      x y z
#    x 4.761990 0.000000 0.496190 
#    y 0.000000 4.516870 0.000000 
#    z 0.496190 0.000000 5.183810 
# 
# 
# High freq. dielectric constant tensor:
#      x y z
#    x 2.042790 0.000000 0.018440 
#    y 0.000000 2.035040 0.000000 
#    z 0.018440 0.000000 2.048780 
# 
# From -- ./inp_files/39405.got.cif
#   From: 2010.03.12/outbox.cif.g09.slc.cpg/sg5_20_cif.got.tgz:39405.got - 2010.03.31 09:47:26.
