data_PCOD8051943
_publ_section_title
;
Structure prediction by ZEFSAII (Michael W. Deem and Ramdas Pophale) SiO2 
 PCOD8051943
Probable space group: C 2
;
_chemical_formula_sum "Si O2"
_cell_formula_units_Z 22
_cell_length_a 15.535545
_cell_length_b 12.256035
_cell_length_c 5.272711
_cell_angle_alpha 90.000000
_cell_angle_beta 96.762894
_cell_angle_gamma 90.000000
_cell_volume 996.960754
_symmetry_space_group_name_H-M "C 2"
_symmetry_group_IT_number 5
_symmetry_cell_setting 'monoclinic'
loop_
_space_group_symop_operation_xyz
x,y,z
-x,y,-z
1/2+x,1/2+y,z
1/2-x,1/2+y,-z
loop_
_atom_site_type_symbol
_atom_site_label
_atom_site_fract_x
_atom_site_fract_y
_atom_site_fract_z
Si Si1 0.705285 0.642570 0.132281
Si Si2 0.384652 0.211905 0.107542
Si Si3 0.166905 0.902237 0.278286
Si Si4 0.000000 0.395014 0.500000
Si Si5 0.170179 0.267276 0.596157
Si Si6 0.500000 0.030093 0.000000
Si Si7 0.000000 0.841691 0.500000
O O1 0.804180 0.670441 0.250547
O O2 0.684369 0.513961 0.133761
O O3 0.649876 0.698635 0.334662
O O4 0.689061 0.687575 0.842507
O O5 0.468202 0.257800 0.278595
O O6 0.413670 0.102944 0.976553
O O7 0.353255 0.308717 0.923950
O O8 0.255256 0.858273 0.440150
O O9 0.082909 0.914454 0.436802
O O10 0.080893 0.325563 0.623888
O O11 0.021573 0.464029 0.259879
#
# Coordination Sequence:
#
# PCOD8051943 Si02
#       7
#     4   4   4   2   4   2   2
#     4  11  26  45  72 101 140 192 226 288 363 411
#     4  11  24  43  68 108 140 177 240 296 341 421
#     4  11  25  43  72 102 143 182 234 294 355 414
#     4  12  27  47  70 102 138 192 235 291 352 414
#     4  11  26  48  69 101 144 180 241 291 340 432
#     4  12  24  42  76 100 134 182 242 290 354 406
#     4  12  21  45  70 100 150 176 229 305 340 412
#
# _framework density 22.067066000000001
#
# number of rings (size 3 to 8) (size 9 to 14) (size 15 to 20)
#    0.000    0.727    3.636    2.727    2.545    5.091 
#    3.273    0.000    0.000    0.000    0.000    0.000 
#    0.000    0.000    0.000    0.000    0.000    0.000 
#
# Total GULP energy -136308.519314 kJ/mol
# GULP energy per Si atom -12391.683574 kJ/mol
# Density = 2.201684 g / cm^3
# Si number density = 22.067066 Si / 1000 Ang^3
#
#
#
# Elastic Constant Matrix: (Units=GPa)
#
#
# Indices 1 2 3 4 5 6 
#
# 1 133.8331 48.4605 14.8222 0.0000 0.6908 0.0000
# 2 48.4605 110.4868 25.6465 0.0000 -7.6440 0.0000
# 3 14.8222 25.6465 88.9873 0.0000 -11.6589 0.0000
# 4 0.0000 0.0000 0.0000 63.5517 0.0000 -62.2224
# 5 0.6908 -7.6440 -11.6589 0.0000 34.4763 0.0000
# 6 0.0000 0.0000 0.0000 -62.2224 0.0000 147.8402
#
#
#
# Elastic Compliance Matrix: (Units=1/GPa)
#
#
# Indices 1 2 3 4 5 6 
#
# 1 0.008943 -0.003884 -0.000530 0.000000 -0.001220 0.000000
# 2 -0.003884 0.011439 -0.002414 0.000000 0.001798 0.000000
# 3 -0.000530 -0.002414 0.012507 0.000000 0.003705 0.000000
# 4 0.000000 0.000000 0.000000 0.026764 0.000000 0.011264
# 5 -0.001220 0.001798 0.003705 0.000000 0.030681 0.000000
# 6 0.000000 0.000000 0.000000 0.011264 0.000000 0.011505
#
#
# Mechanical properties :
#
#
# Convention : Reuss Voigt Hill
#
# Bulk Modulus (GPa) = 51.99444 56.79617 54.39530
# Shear Modulus (GPa) = 41.01467 65.46547 53.24007
#
# Velocity S-wave (km/s) = 4.31587 5.45261 4.91720
# Velocity P-wave (km/s) = 6.96052 8.08920 7.54599
#
# Compressibility (1/GPa) = 0.01923283
#
# Stress axis : x y z
#
# Youngs Moduli (GPa) = 111.81469 87.41863 79.95466
#
# Poissons Ratio (x) = 0.33953 0.04238
# Poissons Ratio (y) = 0.43429 0.19304
# Poissons Ratio (z) = 0.05927 0.21106
#
# Static dielectric constant tensor:
#      x y z
#    x 1.165420 0.000000 -3.598010 
#    y 0.000000 3.949450 0.000000 
#    z -3.598010 0.000000 0.034710 
# 
# 
# High freq. dielectric constant tensor:
#      x y z
#    x 1.885380 0.000000 -0.006590 
#    y 0.000000 1.869720 0.000000 
#    z -0.006590 0.000000 1.865290 
# 
# From -- ./inp_files/6600.got.cif
#   From: 2010.03.12/outbox.cif.g09.slc.cpg/sg5_4_cif.got.tgz:6600.got - 2010.03.31 09:47:26.
