data_PCOD8051757
_publ_section_title
;
Structure prediction by ZEFSAII (Michael W. Deem and Ramdas Pophale) SiO2 
 PCOD8051757
Probable space group: C 2
;
_chemical_formula_sum "Si O2"
_cell_formula_units_Z 30
_cell_length_a 7.893190
_cell_length_b 11.398116
_cell_length_c 15.490676
_cell_angle_alpha 90.000000
_cell_angle_beta 68.669258
_cell_angle_gamma 90.000000
_cell_volume 1298.186485
_symmetry_space_group_name_H-M "C 2"
_symmetry_group_IT_number 5
_symmetry_cell_setting 'monoclinic'
loop_
_space_group_symop_operation_xyz
x,y,z
-x,y,-z
1/2+x,1/2+y,z
1/2-x,1/2+y,-z
loop_
_atom_site_type_symbol
_atom_site_label
_atom_site_fract_x
_atom_site_fract_y
_atom_site_fract_z
Si Si1 0.000000 0.593160 0.500000
Si Si2 0.848065 0.696925 0.811256
Si Si3 0.021083 0.513921 0.097409
Si Si4 0.788272 0.208990 0.563330
Si Si5 0.501541 0.802024 0.791356
Si Si6 0.100577 0.892641 0.714772
Si Si7 0.045306 0.491063 0.315808
Si Si8 0.325861 0.588632 0.731696
O O1 0.173677 0.669961 0.499134
O O2 0.047653 0.500563 0.417194
O O3 0.650293 0.721749 0.810609
O O4 0.969594 0.620197 0.722290
O O5 0.842448 0.621368 0.901513
O O6 0.962146 0.816241 0.798662
O O7 0.092368 0.386507 0.118279
O O8 0.828377 0.531576 0.180335
O O9 0.000000 0.510853 0.000000
O O10 0.692918 0.325911 0.616750
O O11 0.772663 0.106860 0.640038
O O12 0.000000 0.230597 0.500000
O O13 0.589802 0.892974 0.702311
O O14 0.364541 0.715934 0.766947
O O15 0.257545 0.938466 0.749775
O O16 0.000298 0.006259 0.696008
#
# Coordination Sequence:
#
# PCOD8051757 Si02
#       8
#     2   4   4   4   4   4   4   4
#     4  12  26  46  66 104 148 192 252 314 370 428
#     4  11  22  44  71  98 136 188 237 292 364 436
#     4  11  25  45  73 110 146 185 240 302 368 448
#     4  12  27  49  69 106 153 197 256 313 364 435
#     4  11  23  43  76  97 138 189 241 295 370 439
#     4  12  23  43  71  95 138 195 237 293 369 425
#     4  11  23  42  65  98 136 185 240 299 358 425
#     4  12  24  48  72 103 145 197 241 298 377 441
#
# _framework density 23.109161
#
# number of rings (size 3 to 8) (size 9 to 14) (size 15 to 20)
#    0.000    0.533    6.667    1.600    0.933    1.067 
#    3.600    0.000    0.000    0.000    0.000    0.000 
#    0.000    0.000    0.000    0.000    0.000    0.000 
#
# Total GULP energy -185826.579871 kJ/mol
# GULP energy per Si atom -12388.438658 kJ/mol
# Density = 2.305656 g / cm^3
# Si number density = 23.109161 Si / 1000 Ang^3
#
#
#
# Elastic Constant Matrix: (Units=GPa)
#
#
# Indices 1 2 3 4 5 6 
#
# 1 90.6990 25.9069 32.7984 0.0000 20.5267 0.0000
# 2 25.9069 117.2407 32.0208 0.0000 17.6002 0.0000
# 3 32.7984 32.0208 124.3166 0.0000 38.3212 0.0000
# 4 0.0000 0.0000 0.0000 25.8424 0.0000 6.6506
# 5 20.5267 17.6002 38.3212 0.0000 40.8424 0.0000
# 6 0.0000 0.0000 0.0000 6.6506 0.0000 45.0780
#
#
#
# Elastic Compliance Matrix: (Units=1/GPa)
#
#
# Indices 1 2 3 4 5 6 
#
# 1 0.013108 -0.001800 -0.001692 0.000000 -0.004224 0.000000
# 2 -0.001800 0.009599 -0.001409 0.000000 -0.001910 0.000000
# 3 -0.001692 -0.001409 0.011824 0.000000 -0.009636 0.000000
# 4 0.000000 0.000000 0.000000 0.040223 0.000000 -0.005934
# 5 -0.004224 -0.001910 -0.009636 0.000000 0.036472 0.000000
# 6 0.000000 0.000000 0.000000 -0.005934 0.000000 0.023059
#
#
# Mechanical properties :
#
#
# Convention : Reuss Voigt Hill
#
# Bulk Modulus (GPa) = 40.44071 57.07872 48.75971
# Shear Modulus (GPa) = 32.82358 38.45456 35.63907
#
# Velocity S-wave (km/s) = 3.77287 4.08369 3.93135
# Velocity P-wave (km/s) = 6.04295 6.85482 6.46165
#
# Compressibility (1/GPa) = 0.02472756
#
# Stress axis : x y z
#
# Youngs Moduli (GPa) = 76.29153 104.18081 84.57540
#
# Poissons Ratio (x) = 0.18753 0.14314
# Poissons Ratio (y) = 0.13733 0.11914
# Poissons Ratio (z) = 0.12912 0.14676
#
# Static dielectric constant tensor:
#      x y z
#    x 4.451000 0.000000 0.277090 
#    y 0.000000 4.583610 0.000000 
#    z 0.277090 0.000000 3.854140 
# 
# 
# High freq. dielectric constant tensor:
#      x y z
#    x 1.932380 0.000000 0.025040 
#    y 0.000000 1.941580 0.000000 
#    z 0.025040 0.000000 1.867560 
# 
# From -- ./inp_files/50467.got.cif
#   From: 2010.03.12/outbox.cif.g09.slc.cpg/sg5_26_cif.got.tgz:50467.got - 2010.03.31 09:47:26.
