data_PCOD8051629
_publ_section_title
;
Structure prediction by ZEFSAII (Michael W. Deem and Ramdas Pophale) SiO2 
 PCOD8051629
Probable space group: C 2
;
_chemical_formula_sum "Si O2"
_cell_formula_units_Z 32
_cell_length_a 18.822557
_cell_length_b 11.211014
_cell_length_c 14.623646
_cell_angle_alpha 90.000000
_cell_angle_beta 28.689129
_cell_angle_gamma 90.000000
_cell_volume 1481.398995
_symmetry_space_group_name_H-M "C 2"
_symmetry_group_IT_number 5
_symmetry_cell_setting 'monoclinic'
loop_
_space_group_symop_operation_xyz
x,y,z
-x,y,-z
1/2+x,1/2+y,z
1/2-x,1/2+y,-z
loop_
_atom_site_type_symbol
_atom_site_label
_atom_site_fract_x
_atom_site_fract_y
_atom_site_fract_z
Si Si1 0.194480 0.176790 0.520439
Si Si2 0.518410 0.120905 0.210028
Si Si3 0.246073 0.851585 0.687964
Si Si4 0.371529 0.700760 0.082848
Si Si5 0.978507 0.981965 0.183315
Si Si6 0.593057 0.083587 0.481056
Si Si7 0.557711 0.849678 0.156200
Si Si8 0.276141 0.318277 0.071325
O O1 0.364606 0.182156 0.356261
O O2 0.194895 0.221495 0.413567
O O3 0.096581 0.277840 0.681378
O O4 0.128615 0.046842 0.621038
O O5 0.521426 0.137001 0.316360
O O6 0.529218 0.985931 0.163032
O O7 0.662233 0.184424 0.006256
O O8 0.095417 0.888160 0.804646
O O9 0.245613 0.848965 0.797622
O O10 0.352204 0.959632 0.535945
O O11 0.226675 0.674442 0.307902
O O12 0.500000 0.759743 0.000000
O O13 0.431789 0.575275 0.978622
O O14 0.332976 0.791941 0.043822
O O15 0.098062 0.908812 0.108441
O O16 0.500000 0.048571 0.500000
O O17 0.628511 0.833806 0.177699
#
# Coordination Sequence:
#
# PCOD8051629 Si02
#       8
#     4   4   4   4   4   4   4   4
#     4  11  23  40  67  93 136 166 219 280 329 393
#     4  12  25  43  64  99 135 174 219 278 341 394
#     4  12  22  41  66 100 128 175 231 275 323 404
#     4  11  21  42  69  92 128 175 226 271 323 402
#     4  11  21  40  67  96 125 173 226 276 328 390
#     4  12  22  38  67  98 128 166 229 281 321 387
#     4  11  26  44  65 103 137 173 223 280 344 393
#     4  12  26  41  70  96 137 175 223 280 339 396
#
# _framework density 21.601203000000002
#
# number of rings (size 3 to 8) (size 9 to 14) (size 15 to 20)
#    0.000    0.500    6.250    2.625    3.500    0.000 
#    2.250    0.000    0.000    0.000    0.000    0.000 
#    0.000    0.000    0.000    0.000    0.000    0.000 
#
# Total GULP energy -198264.537313 kJ/mol
# GULP energy per Si atom -12391.533582 kJ/mol
# Density = 2.155204 g / cm^3
# Si number density = 21.601203 Si / 1000 Ang^3
#
#
#
# Elastic Constant Matrix: (Units=GPa)
#
#
# Indices 1 2 3 4 5 6 
#
# 1 91.8491 40.0760 10.3924 0.0000 3.4920 0.0000
# 2 40.0760 98.8443 32.8657 0.0000 8.9170 0.0000
# 3 10.3924 32.8657 53.7134 0.0001 3.8490 0.0001
# 4 0.0000 0.0000 0.0001 30.0939 0.0000 -0.4823
# 5 3.4920 8.9170 3.8490 0.0000 35.0908 0.0000
# 6 0.0000 0.0000 0.0001 -0.4823 0.0000 17.6833
#
#
#
# Elastic Compliance Matrix: (Units=1/GPa)
#
#
# Indices 1 2 3 4 5 6 
#
# 1 0.013263 -0.005682 0.000909 0.000000 0.000024 0.000000
# 2 -0.005682 0.015338 -0.008110 0.000000 -0.002442 0.000000
# 3 0.000909 -0.008110 0.023447 0.000000 -0.000601 0.000000
# 4 0.000000 0.000000 0.000000 0.033244 0.000000 0.000907
# 5 0.000024 -0.002442 -0.000601 0.000000 0.029182 0.000000
# 6 0.000000 0.000000 0.000000 0.000907 0.000000 0.056575
#
#
# Mechanical properties :
#
#
# Convention : Reuss Voigt Hill
#
# Bulk Modulus (GPa) = 38.05068 45.67500 41.86284
# Shear Modulus (GPa) = 24.32204 27.31180 25.81692
#
# Velocity S-wave (km/s) = 3.35917 3.55965 3.46086
# Velocity P-wave (km/s) = 5.71828 6.17133 5.94912
#
# Compressibility (1/GPa) = 0.02628074
#
# Stress axis : x y z
#
# Youngs Moduli (GPa) = 75.39929 65.19953 42.64922
#
# Poissons Ratio (x) = 0.37044 -0.03875
# Poissons Ratio (y) = 0.42839 0.34590
# Poissons Ratio (z) = -0.06851 0.52879
#
# Static dielectric constant tensor:
#      x y z
#    x 3.904170 0.000000 -0.026160 
#    y 0.000000 3.985420 0.000000 
#    z -0.026160 0.000000 4.428880 
# 
# 
# High freq. dielectric constant tensor:
#      x y z
#    x 1.840590 0.000000 -0.004190 
#    y 0.000000 1.837340 0.000000 
#    z -0.004190 0.000000 1.852330 
# 
# From -- ./inp_files/56013.got.cif
#   From: 2010.03.12/outbox.cif.g09.slc.cpg/sg5_29_cif.got.tgz:56013.got - 2010.03.31 09:47:26.
