data_PCOD8051039
_publ_section_title
;
Structure prediction by ZEFSAII (Michael W. Deem and Ramdas Pophale) SiO2 
 PCOD8051039
Probable space group: C 2
;
_chemical_formula_sum "Si O2"
_cell_formula_units_Z 24
_cell_length_a 22.614770
_cell_length_b 5.062507
_cell_length_c 9.404824
_cell_angle_alpha 90.000000
_cell_angle_beta 114.556206
_cell_angle_gamma 90.000000
_cell_volume 979.347876
_symmetry_space_group_name_H-M "C 2"
_symmetry_group_IT_number 5
_symmetry_cell_setting 'monoclinic'
loop_
_space_group_symop_operation_xyz
x,y,z
-x,y,-z
1/2+x,1/2+y,z
1/2-x,1/2+y,-z
loop_
_atom_site_type_symbol
_atom_site_label
_atom_site_fract_x
_atom_site_fract_y
_atom_site_fract_z
Si Si1 0.462343 0.884470 0.213925
Si Si2 0.929974 0.769082 0.679752
Si Si3 0.216792 0.874670 0.425879
Si Si4 0.215905 0.161110 0.131024
Si Si5 0.500000 0.558280 0.500000
Si Si6 0.835040 0.666895 0.060252
Si Si7 0.500000 0.565753 0.000000
O O1 0.452093 0.722538 0.348680
O O2 0.411080 0.124424 0.170854
O O3 0.451840 0.731141 0.054742
O O4 0.537929 0.978682 0.286785
O O5 0.852835 0.764764 0.596229
O O6 0.953647 0.894423 0.556463
O O7 0.953090 0.900482 0.850295
O O8 0.257034 0.601318 0.437167
O O9 0.215266 0.069479 0.290749
O O10 0.290386 0.128583 0.154023
O O11 0.169354 0.967108 0.995192
O O12 0.189086 0.458585 0.084514
#
# Coordination Sequence:
#
# PCOD8051039 Si02
#       7
#     4   4   4   4   2   4   2
#     4  11  24  41  71 101 142 187 233 306 359 426
#     4  11  26  46  71 107 142 189 247 295 368 426
#     4  12  29  46  73 102 150 196 233 291 359 443
#     4  10  23  45  66 105 136 182 241 288 342 437
#     4  10  26  44  66 100 140 182 238 302 354 442
#     4  10  23  41  73  98 138 182 236 295 354 406
#     4  10  24  42  72 106 138 182 236 308 352 428
#
# _framework density 24.506101999999998
#
# number of rings (size 3 to 8) (size 9 to 14) (size 15 to 20)
#    0.000    1.333    0.000    3.000   16.333    1.333 
#    0.000    0.000    0.000    0.000    0.000    0.000 
#    0.000    0.000    0.000    0.000    0.000    0.000 
#
# Total GULP energy -148732.665265 kJ/mol
# GULP energy per Si atom -12394.388772 kJ/mol
# Density = 2.445033 g / cm^3
# Si number density = 24.506102 Si / 1000 Ang^3
#
#
#
# Elastic Constant Matrix: (Units=GPa)
#
#
# Indices 1 2 3 4 5 6 
#
# 1 113.9122 10.9746 32.3049 0.0000 11.2611 0.0000
# 2 10.9746 64.0996 0.3594 0.0000 1.7926 0.0000
# 3 32.3049 0.3594 102.7662 0.0000 -22.9257 0.0000
# 4 0.0000 0.0000 0.0000 17.7465 0.0000 7.1970
# 5 11.2611 1.7926 -22.9257 0.0000 31.9648 0.0000
# 6 0.0000 0.0000 0.0000 7.1970 0.0000 31.3117
#
#
#
# Elastic Compliance Matrix: (Units=1/GPa)
#
#
# Indices 1 2 3 4 5 6 
#
# 1 0.011158 -0.001670 -0.005188 0.000000 -0.007558 0.000000
# 2 -0.001670 0.015883 0.000478 0.000000 0.000041 0.000000
# 3 -0.005188 0.000478 0.014002 0.000000 0.011843 0.000000
# 4 0.000000 0.000000 0.000000 0.062141 0.000000 -0.014283
# 5 -0.007558 0.000041 0.011843 0.000000 0.042439 0.000000
# 6 0.000000 0.000000 0.000000 -0.014283 0.000000 0.035220
#
#
# Mechanical properties :
#
#
# Convention : Reuss Voigt Hill
#
# Bulk Modulus (GPa) = 35.35523 40.89507 38.12515
# Shear Modulus (GPa) = 24.62694 32.01390 28.32042
#
# Velocity S-wave (km/s) = 3.17350 3.61829 3.40317
# Velocity P-wave (km/s) = 5.28078 5.84636 5.57075
#
# Compressibility (1/GPa) = 0.02828436
#
# Stress axis : x y z
#
# Youngs Moduli (GPa) = 89.62197 62.96121 71.41822
#
# Poissons Ratio (x) = 0.10514 0.37050
# Poissons Ratio (y) = 0.14966 -0.03417
# Poissons Ratio (z) = 0.46494 -0.03013
#
# Static dielectric constant tensor:
#      x y z
#    x 4.387550 0.000000 -0.146610 
#    y 0.000000 4.603570 0.000000 
#    z -0.146610 0.000000 4.555710 
# 
# 
# High freq. dielectric constant tensor:
#      x y z
#    x 1.971290 0.000000 -0.006840 
#    y 0.000000 1.983240 0.000000 
#    z -0.006840 0.000000 1.976070 
# 
# From -- ./inp_files/30279.got.cif
#   From: 2010.03.12/outbox.cif.g09.slc.cpg/sg5_16_cif.got.tgz:30279.got - 2010.03.31 09:47:26.
