data_PCOD8051500
_publ_section_title
;
Structure prediction by ZEFSAII (Michael W. Deem and Ramdas Pophale) SiO2 
 PCOD8051500
Probable space group: C 2
;
_chemical_formula_sum "Si O2"
_cell_formula_units_Z 28
_cell_length_a 20.675458
_cell_length_b 15.010394
_cell_length_c 9.515254
_cell_angle_alpha 90.000000
_cell_angle_beta 27.296392
_cell_angle_gamma 90.000000
_cell_volume 1354.239891
_symmetry_space_group_name_H-M "C 2"
_symmetry_group_IT_number 5
_symmetry_cell_setting 'monoclinic'
loop_
_space_group_symop_operation_xyz
x,y,z
-x,y,-z
1/2+x,1/2+y,z
1/2-x,1/2+y,-z
loop_
_atom_site_type_symbol
_atom_site_label
_atom_site_fract_x
_atom_site_fract_y
_atom_site_fract_z
Si Si1 0.046735 0.058270 0.071022
Si Si2 0.259036 0.217989 0.720718
Si Si3 0.783076 0.425370 0.687206
Si Si4 0.662935 0.784810 0.192761
Si Si5 0.987867 0.584705 0.357930
Si Si6 0.287305 0.633330 0.693197
Si Si7 0.658232 0.778770 0.643167
O O1 0.908553 0.059441 0.437152
O O2 0.135995 0.145917 0.935457
O O3 0.000000 0.055965 0.000000
O O4 0.134212 0.970778 0.942065
O O5 0.409161 0.171149 0.449048
O O6 0.262312 0.280726 0.576755
O O7 0.226705 0.282071 0.914315
O O8 0.759372 0.360855 0.866449
O O9 0.832694 0.371783 0.454587
O O10 0.906223 0.495130 0.479252
O O11 0.500000 0.810746 0.500000
O O12 0.684427 0.687608 0.218677
O O13 0.000000 0.595644 0.500000
O O14 0.139995 0.581337 0.990278
O O15 0.289913 0.698502 0.554995
O O16 0.500000 0.761128 0.000000
#
# Coordination Sequence:
#
# PCOD8051500 Si02
#       7
#     4   4   4   4   4   4   4
#     4  11  21  44  68 100 128 172 223 275 318 403
#     4  11  20  40  75  93 127 169 233 269 316 398
#     4  10  26  42  67  95 143 170 217 274 344 385
#     4  11  20  40  73  99 126 180 218 273 328 404
#     4  11  24  42  66 103 133 170 223 284 326 392
#     4  11  21  40  74  94 130 175 228 264 328 395
#     4  11  21  44  69 101 127 178 226 270 326 406
#
# _framework density 20.675803999999999
#
# number of rings (size 3 to 8) (size 9 to 14) (size 15 to 20)
#    0.000    1.143    5.714    1.286    0.000    1.714 
#    5.143    0.000    9.429    0.000    0.000    0.000 
#    0.000    0.000    0.000    0.000    0.000    0.000 
#
# Total GULP energy -173644.025804 kJ/mol
# GULP energy per Si atom -12403.144700 kJ/mol
# Density = 2.062875 g / cm^3
# Si number density = 20.675804 Si / 1000 Ang^3
#
#
#
# Elastic Constant Matrix: (Units=GPa)
#
#
# Indices 1 2 3 4 5 6 
#
# 1 147.0039 55.0991 54.0718 0.0000 11.4922 0.0001
# 2 55.0991 72.8439 26.0585 0.0000 -6.1866 0.0000
# 3 54.0718 26.0585 110.3113 0.0000 -16.7082 0.0000
# 4 0.0000 0.0000 0.0000 20.7496 0.0000 -4.6821
# 5 11.4922 -6.1866 -16.7082 0.0000 36.8305 0.0000
# 6 0.0001 0.0000 0.0000 -4.6821 0.0000 23.8188
#
#
#
# Elastic Compliance Matrix: (Units=1/GPa)
#
#
# Indices 1 2 3 4 5 6 
#
# 1 0.012403 -0.008129 -0.005318 0.000000 -0.007648 0.000000
# 2 -0.008129 0.020356 0.000084 0.000000 0.005994 0.000000
# 3 -0.005318 0.000084 0.012784 0.000000 0.007473 0.000000
# 4 0.000000 0.000000 0.000000 0.050431 0.000000 0.009913
# 5 -0.007648 0.005994 0.007473 0.000000 0.033935 0.000000
# 6 0.000000 0.000000 0.000000 0.009913 0.000000 0.043932
#
#
# Mechanical properties :
#
#
# Convention : Reuss Voigt Hill
#
# Bulk Modulus (GPa) = 53.14329 66.73533 59.93931
# Shear Modulus (GPa) = 24.17331 29.27509 26.72420
#
# Velocity S-wave (km/s) = 3.42301 3.76694 3.59908
# Velocity P-wave (km/s) = 6.43285 7.16009 6.80619
#
# Compressibility (1/GPa) = 0.01881705
#
# Stress axis : x y z
#
# Youngs Moduli (GPa) = 80.62277 49.12588 78.22250
#
# Poissons Ratio (x) = 0.39935 0.41598
# Poissons Ratio (y) = 0.65539 -0.00656
# Poissons Ratio (z) = 0.42875 -0.00412
#
# Static dielectric constant tensor:
#      x y z
#    x 4.147430 0.000000 0.003790 
#    y 0.000000 3.645470 0.000000 
#    z 0.003790 0.000000 3.774040 
# 
# 
# High freq. dielectric constant tensor:
#      x y z
#    x 1.829750 0.000000 0.003930 
#    y 0.000000 1.795610 0.000000 
#    z 0.003930 0.000000 1.802100 
# 
# From -- ./inp_files/29900.got.cif
#   From: 2010.03.12/outbox.cif.g09.slc.cpg/sg5_15_cif.got.tgz:29900.got - 2010.03.31 09:47:26.
