data_PCOD8051090
_publ_section_title
;
Structure prediction by ZEFSAII (Michael W. Deem and Ramdas Pophale) SiO2 
 PCOD8051090
Probable space group: C 2
;
_chemical_formula_sum "Si O2"
_cell_formula_units_Z 24
_cell_length_a 11.499890
_cell_length_b 8.937727
_cell_length_c 11.671084
_cell_angle_alpha 90.000000
_cell_angle_beta 79.158808
_cell_angle_gamma 90.000000
_cell_volume 1178.177694
_symmetry_space_group_name_H-M "C 2"
_symmetry_group_IT_number 5
_symmetry_cell_setting 'monoclinic'
loop_
_space_group_symop_operation_xyz
x,y,z
-x,y,-z
1/2+x,1/2+y,z
1/2-x,1/2+y,-z
loop_
_atom_site_type_symbol
_atom_site_label
_atom_site_fract_x
_atom_site_fract_y
_atom_site_fract_z
Si Si1 0.579666 0.881180 0.326547
Si Si2 0.633675 0.093906 0.940515
Si Si3 0.128113 0.102141 0.477017
Si Si4 0.680188 0.932694 0.702225
Si Si5 0.235652 0.113113 0.701772
Si Si6 0.245980 0.901260 0.892831
O O1 0.618148 0.761677 0.415091
O O2 0.439193 0.894006 0.344930
O O3 0.636136 0.834279 0.192258
O O4 0.634155 0.044562 0.350769
O O5 0.660571 0.269342 0.949704
O O6 0.652456 0.051558 0.805358
O O7 0.500000 0.061276 0.000000
O O8 0.720468 0.998039 0.003245
O O9 0.155682 0.122077 0.604773
O O10 0.000000 0.021153 0.500000
O O11 0.226767 0.999129 0.403491
O O12 0.739927 0.783969 0.746147
O O13 0.178369 0.009058 0.812852
#
# Coordination Sequence:
#
# PCOD8051090 Si02
#       6
#     4   4   4   4   4   4
#     4  10  23  46  65  98 136 175 228 278 335 404
#     4  12  23  45  71  98 139 180 219 283 341 400
#     4  12  24  44  69  97 138 180 226 284 339 400
#     4  12  23  44  71  96 139 181 223 284 341 402
#     4  10  23  43  66  99 130 181 229 273 342 397
#     4  10  24  46  66 102 135 175 230 274 337 411
#
# _framework density 20.370442000000001
#
# number of rings (size 3 to 8) (size 9 to 14) (size 15 to 20)
#    1.000    0.000    5.000    2.000    0.000    0.000 
#   18.000    0.000    0.000    0.000    0.000    0.000 
#    0.000    0.000    0.000    0.000    0.000    0.000 
#
# Total GULP energy -148727.150616 kJ/mol
# GULP energy per Si atom -12393.929218 kJ/mol
# Density = 2.032408 g / cm^3
# Si number density = 20.370442 Si / 1000 Ang^3
#
#
#
# Elastic Constant Matrix: (Units=GPa)
#
#
# Indices 1 2 3 4 5 6 
#
# 1 92.3727 39.3861 20.5852 0.0000 2.3144 0.0000
# 2 39.3861 120.0652 17.6480 0.0000 19.4521 0.0000
# 3 20.5852 17.6480 76.6005 0.0000 16.7130 0.0000
# 4 0.0000 0.0000 0.0000 39.1210 0.0000 -2.2071
# 5 2.3144 19.4521 16.7130 0.0000 28.9863 0.0000
# 6 0.0000 0.0000 0.0000 -2.2071 0.0000 31.5818
#
#
#
# Elastic Compliance Matrix: (Units=1/GPa)
#
#
# Indices 1 2 3 4 5 6 
#
# 1 0.013426 -0.004541 -0.003423 0.000000 0.003949 0.000000
# 2 -0.004541 0.010935 0.000255 0.000000 -0.007123 0.000000
# 3 -0.003423 0.000255 0.015893 0.000000 -0.009061 0.000000
# 4 0.000000 0.000000 0.000000 0.025663 0.000000 0.001793
# 5 0.003949 -0.007123 -0.009061 0.000000 0.044188 0.000000
# 6 0.000000 0.000000 0.000000 0.001793 0.000000 0.031789
#
#
# Mechanical properties :
#
#
# Convention : Reuss Voigt Hill
#
# Bulk Modulus (GPa) = 40.26538 49.36410 44.81474
# Shear Modulus (GPa) = 30.19491 34.03243 32.11367
#
# Velocity S-wave (km/s) = 3.85423 4.09183 3.97480
# Velocity P-wave (km/s) = 6.29414 6.82714 6.56605
#
# Compressibility (1/GPa) = 0.02483523
#
# Stress axis : x y z
#
# Youngs Moduli (GPa) = 74.48349 91.45077 62.92058
#
# Poissons Ratio (x) = 0.41526 0.21541
# Poissons Ratio (y) = 0.33821 -0.01605
# Poissons Ratio (z) = 0.25499 -0.02332
#
# Static dielectric constant tensor:
#      x y z
#    x 3.585230 0.000000 -0.027070 
#    y 0.000000 3.764540 0.000000 
#    z -0.027070 0.000000 3.711160 
# 
# 
# High freq. dielectric constant tensor:
#      x y z
#    x 1.782250 0.000000 0.001840 
#    y 0.000000 1.796480 0.000000 
#    z 0.001840 0.000000 1.807800 
# 
# From -- ./inp_files/38352.got.cif
#   From: 2010.03.12/outbox.cif.g09.slc.cpg/sg5_20_cif.got.tgz:38352.got - 2010.03.31 09:47:26.
