data_PCOD8051072
_publ_section_title
;
Structure prediction by ZEFSAII (Michael W. Deem and Ramdas Pophale) SiO2 
 PCOD8051072
Probable space group: C 2
;
_chemical_formula_sum "Si O2"
_cell_formula_units_Z 24
_cell_length_a 8.732404
_cell_length_b 17.361141
_cell_length_c 8.495148
_cell_angle_alpha 90.000000
_cell_angle_beta 124.159792
_cell_angle_gamma 90.000000
_cell_volume 1065.707005
_symmetry_space_group_name_H-M "C 2"
_symmetry_group_IT_number 5
_symmetry_cell_setting 'monoclinic'
loop_
_space_group_symop_operation_xyz
x,y,z
-x,y,-z
1/2+x,1/2+y,z
1/2-x,1/2+y,-z
loop_
_atom_site_type_symbol
_atom_site_label
_atom_site_fract_x
_atom_site_fract_y
_atom_site_fract_z
Si Si1 0.452095 0.731360 0.803018
Si Si2 0.803103 0.287327 0.303130
Si Si3 0.142664 0.672327 0.445887
Si Si4 0.041682 0.521009 0.201580
Si Si5 0.196042 0.881600 0.700989
Si Si6 0.687465 0.429354 0.054504
O O1 0.648634 0.743099 0.830931
O O2 0.341941 0.665330 0.645174
O O3 0.330489 0.809998 0.739822
O O4 0.500000 0.698208 0.000000
O O5 0.656193 0.240002 0.323395
O O6 0.706044 0.366321 0.203082
O O7 0.000000 0.302144 0.500000
O O8 0.097729 0.592532 0.339419
O O9 0.000000 0.696668 0.500000
O O10 0.204089 0.458215 0.305998
O O11 0.854065 0.488426 0.166462
O O12 0.000000 0.547812 0.000000
O O13 0.000000 0.871701 0.500000
O O14 0.175979 0.889600 0.876755
O O15 0.500000 0.473153 0.000000
#
# Coordination Sequence:
#
# PCOD8051072 Si02
#       6
#     4   4   4   4   4   4
#     4  11  21  44  71 105 144 184 242 304 365 426
#     4  10  23  42  70 103 145 185 240 305 361 428
#     4  11  27  44  67 105 147 201 237 296 373 425
#     4  10  24  51  71  99 152 196 237 308 366 433
#     4  11  23  42  74 108 146 186 246 302 361 433
#     4  11  24  41  73 112 137 194 245 303 364 425
#
# _framework density 22.52026
#
# number of rings (size 3 to 8) (size 9 to 14) (size 15 to 20)
#    0.000    1.333    3.333    1.000    7.000    6.000 
#    0.000    7.500    0.000    0.000    0.000    0.000 
#    0.000    0.000    0.000    0.000    0.000    0.000 
#
# Total GULP energy -148768.166483 kJ/mol
# GULP energy per Si atom -12397.347207 kJ/mol
# Density = 2.246900 g / cm^3
# Si number density = 22.520260 Si / 1000 Ang^3
#
#
#
# Elastic Constant Matrix: (Units=GPa)
#
#
# Indices 1 2 3 4 5 6 
#
# 1 163.9957 66.2556 37.7008 0.0000 -7.8005 0.0000
# 2 66.2556 120.2523 74.0061 0.0000 -4.8921 0.0000
# 3 37.7008 74.0061 113.8775 0.0000 -10.3233 0.0000
# 4 0.0000 0.0000 0.0000 -0.0843 0.0000 -47.3910
# 5 -7.8005 -4.8921 -10.3233 0.0000 34.5119 0.0000
# 6 0.0000 0.0000 0.0000 -47.3910 0.0000 -25.4359
#
#
#
# Elastic Compliance Matrix: (Units=1/GPa)
#
#
# Indices 1 2 3 4 5 6 
#
# 1 0.007907 -0.004608 0.000493 0.000000 0.001281 0.000000
# 2 -0.004608 0.016563 -0.009374 0.000000 -0.001498 0.000000
# 3 0.000493 -0.009374 0.015007 0.000000 0.003271 0.000000
# 4 0.000000 0.000000 0.000000 0.011336 0.000000 -0.021121
# 5 0.001281 -0.001498 0.003271 0.000000 0.030031 0.000000
# 6 0.000000 0.000000 0.000000 -0.021121 0.000000 0.000038
#
#
# Mechanical properties :
#
#
# Convention : Reuss Voigt Hill
#
# Bulk Modulus (GPa) = 80.00853 83.78340 81.89596
# Shear Modulus (GPa) = 44.63289 16.47588 30.55438
#
# Velocity S-wave (km/s) = 4.45668 2.70775 3.68741
# Velocity P-wave (km/s) = 7.87954 6.86004 7.38740
#
# Compressibility (1/GPa) = 0.01249867
#
# Stress axis : x y z
#
# Youngs Moduli (GPa) = 126.47179 60.37716 66.63722
#
# Poissons Ratio (x) = 0.27820 -0.03284
# Poissons Ratio (y) = 0.58274 0.62465
# Poissons Ratio (z) = -0.06234 0.56597
#
# Static dielectric constant tensor:
#      x y z
#    x 5.109840 0.000000 -0.028630 
#    y 0.000000 3.691460 0.000000 
#    z -0.028630 0.000000 4.392010 
# 
# 
# High freq. dielectric constant tensor:
#      x y z
#    x 1.910750 0.000000 -0.008100 
#    y 0.000000 1.860160 0.000000 
#    z -0.008100 0.000000 1.900530 
# 
# From -- ./inp_files/16848.got.cif
#   From: 2010.03.12/outbox.cif.g09.slc.cpg/sg5_9_cif.got.tgz:16848.got - 2010.03.31 09:47:26.
