data_PCOD8051728
_publ_section_title
;
Structure prediction by ZEFSAII (Michael W. Deem and Ramdas Pophale) SiO2 
 PCOD8051728
Probable space group: C 2
;
_chemical_formula_sum "Si O2"
_cell_formula_units_Z 30
_cell_length_a 14.906648
_cell_length_b 11.404579
_cell_length_c 9.084836
_cell_angle_alpha 90.000000
_cell_angle_beta 68.141043
_cell_angle_gamma 90.000000
_cell_volume 1433.417216
_symmetry_space_group_name_H-M "C 2"
_symmetry_group_IT_number 5
_symmetry_cell_setting 'monoclinic'
loop_
_space_group_symop_operation_xyz
x,y,z
-x,y,-z
1/2+x,1/2+y,z
1/2-x,1/2+y,-z
loop_
_atom_site_type_symbol
_atom_site_label
_atom_site_fract_x
_atom_site_fract_y
_atom_site_fract_z
Si Si1 0.500000 0.956390 0.000000
Si Si2 0.331956 0.776979 0.099600
Si Si3 0.937738 0.055726 0.164403
Si Si4 0.251001 0.204345 0.149809
Si Si5 0.631903 0.300389 0.356591
Si Si6 0.618296 0.315472 0.706244
Si Si7 0.071484 0.058406 0.331150
Si Si8 0.057590 0.661099 0.145974
O O1 0.409270 0.875300 0.082533
O O2 0.509811 0.034546 0.143531
O O3 0.366550 0.651284 0.139127
O O4 0.242931 0.818566 0.251852
O O5 0.306011 0.775370 0.941908
O O6 0.020033 0.111066 0.217935
O O7 0.880998 0.956866 0.289991
O O8 0.000000 0.991979 0.000000
O O9 0.283039 0.283047 0.268755
O O10 0.181321 0.105741 0.264263
O O11 0.348877 0.156541 0.016937
O O12 0.619829 0.274241 0.536007
O O13 0.573904 0.416123 0.337379
O O14 0.591299 0.186546 0.292882
O O15 0.524645 0.257921 0.843006
O O16 0.000000 0.107471 0.500000
#
# Coordination Sequence:
#
# PCOD8051728 Si02
#       8
#     2   4   4   4   4   4   4   4
#     4  12  22  46  68  94 138 180 232 276 342 394
#     4  11  26  44  67 100 137 181 227 284 335 407
#     4  12  23  44  72  97 135 180 234 281 334 407
#     4  11  24  42  67 103 130 178 226 276 336 407
#     4  11  25  42  67 104 137 174 227 281 342 402
#     4  12  24  43  70 105 134 175 230 284 344 405
#     4  12  23  43  68  97 142 181 222 282 339 401
#     4  11  22  42  69  99 131 177 223 279 337 402
#
# _framework density 20.929008
#
# number of rings (size 3 to 8) (size 9 to 14) (size 15 to 20)
#    0.000    0.533    6.000    2.000    3.733    2.133 
#    0.000    0.000    2.933    0.000    0.000    0.000 
#    0.000    0.000    0.000    0.000    0.000    0.000 
#
# Total GULP energy -185878.029267 kJ/mol
# GULP energy per Si atom -12391.868618 kJ/mol
# Density = 2.088137 g / cm^3
# Si number density = 20.929008 Si / 1000 Ang^3
#
#
#
# Elastic Constant Matrix: (Units=GPa)
#
#
# Indices 1 2 3 4 5 6 
#
# 1 140.3378 51.4532 61.1055 0.0000 5.7224 0.0000
# 2 51.4532 94.0652 40.2550 0.0000 -0.8772 0.0000
# 3 61.1055 40.2550 131.5056 0.0000 2.3705 0.0000
# 4 0.0000 0.0000 0.0000 15.7104 0.0000 10.3607
# 5 5.7224 -0.8772 2.3705 0.0000 41.4650 0.0000
# 6 0.0000 0.0000 0.0000 10.3607 0.0000 6.2375
#
#
#
# Elastic Compliance Matrix: (Units=1/GPa)
#
#
# Indices 1 2 3 4 5 6 
#
# 1 0.010188 -0.004107 -0.003453 0.000000 -0.001295 0.000000
# 2 -0.004107 0.013898 -0.002364 0.000000 0.000996 0.000000
# 3 -0.003453 -0.002364 0.009935 0.000000 -0.000141 0.000000
# 4 0.000000 0.000000 0.000000 -0.667052 0.000000 1.107998
# 5 -0.001295 0.000996 -0.000141 0.000000 0.024325 0.000000
# 6 0.000000 0.000000 0.000000 1.107998 0.000000 -1.680107
#
#
# Mechanical properties :
#
#
# Convention : Reuss Voigt Hill
#
# Bulk Modulus (GPa) = 70.55850 74.61510 72.58680
# Shear Modulus (GPa) = -2.20825 26.88891 12.34033
#
# Velocity S-wave (km/s) = -1.02830 3.58825 2.43086
# Velocity P-wave (km/s) = 5.69004 7.27299 6.52966
#
# Compressibility (1/GPa) = 0.01417264
#
# Stress axis : x y z
#
# Youngs Moduli (GPa) = 98.15550 71.95084 100.65319
#
# Poissons Ratio (x) = 0.29550 0.34760
# Poissons Ratio (y) = 0.40312 0.23795
# Poissons Ratio (z) = 0.33897 0.17009
#
# Static dielectric constant tensor:
#      x y z
#    x 4.179870 0.000000 0.103810 
#    y 0.000000 3.539830 0.000000 
#    z 0.103810 0.000000 3.910050 
# 
# 
# High freq. dielectric constant tensor:
#      x y z
#    x 1.845510 0.000000 0.003750 
#    y 0.000000 1.793480 0.000000 
#    z 0.003750 0.000000 1.818850 
# 
# From -- ./inp_files/23853.got.cif
#   From: 2010.03.12/outbox.cif.g09.slc.cpg/sg5_12_cif.got.tgz:23853.got - 2010.03.31 09:47:26.
