data_PCOD8051612
_publ_section_title
;
Structure prediction by ZEFSAII (Michael W. Deem and Ramdas Pophale) SiO2 
 PCOD8051612
Probable space group: C 2
;
_chemical_formula_sum "Si O2"
_cell_formula_units_Z 32
_cell_length_a 15.360422
_cell_length_b 18.734698
_cell_length_c 9.986139
_cell_angle_alpha 90.000000
_cell_angle_beta 144.289303
_cell_angle_gamma 90.000000
_cell_volume 1677.381306
_symmetry_space_group_name_H-M "C 2"
_symmetry_group_IT_number 5
_symmetry_cell_setting 'monoclinic'
loop_
_space_group_symop_operation_xyz
x,y,z
-x,y,-z
1/2+x,1/2+y,z
1/2-x,1/2+y,-z
loop_
_atom_site_type_symbol
_atom_site_label
_atom_site_fract_x
_atom_site_fract_y
_atom_site_fract_z
Si Si1 0.876744 0.433870 0.160827
Si Si2 0.163081 0.663378 0.748691
Si Si3 0.215086 0.432998 0.666882
Si Si4 0.877392 0.577494 0.032709
Si Si5 0.634737 0.774111 0.857974
Si Si6 0.161867 0.077325 0.249081
Si Si7 0.703862 0.773237 0.637398
Si Si8 0.806302 0.631139 0.676465
O O1 0.766829 0.443172 0.150665
O O2 0.849291 0.492865 0.012788
O O3 0.849730 0.355063 0.068568
O O4 0.044402 0.445036 0.418272
O O5 0.158875 0.614490 0.873698
O O6 0.216398 0.614377 0.693240
O O7 0.000000 0.692783 0.500000
O O8 0.278437 0.727278 0.923050
O O9 0.317099 0.491623 0.721482
O O10 0.260917 0.353305 0.676021
O O11 0.043119 0.598658 0.194834
O O12 0.767637 0.600942 0.775978
O O13 0.707379 0.763901 0.802364
O O14 0.459752 0.756512 0.627012
O O15 0.173566 0.107599 0.413597
O O16 0.000000 0.099116 0.000000
O O17 0.814945 0.717382 0.703543
#
# Coordination Sequence:
#
# PCOD8051612 Si02
#       8
#     4   4   4   4   4   4   4   4
#     4   9  16  35  63  86 106 153 215 245 287 357
#     4  12  21  39  63  86 119 165 206 247 304 368
#     4   9  17  34  61  85 112 156 202 246 294 361
#     4  11  21  36  64  85 115 158 206 249 291 365
#     4   9  19  34  62  88 112 157 207 251 294 362
#     4  12  24  38  59  92 124 156 204 256 308 357
#     4   9  18  36  58  87 120 152 198 251 307 357
#     4  11  22  37  57  90 122 152 198 253 303 355
#
# _framework density 19.077354
#
# number of rings (size 3 to 8) (size 9 to 14) (size 15 to 20)
#    0.000    1.750    5.000    2.250    0.000    0.000 
#    2.250    1.250    8.250    0.000    0.000    0.000 
#    0.000    0.000    0.000    0.000    0.000    0.000 
#
# Total GULP energy -198327.191352 kJ/mol
# GULP energy per Si atom -12395.449459 kJ/mol
# Density = 1.903393 g / cm^3
# Si number density = 19.077354 Si / 1000 Ang^3
#
#
#
# Elastic Constant Matrix: (Units=GPa)
#
#
# Indices 1 2 3 4 5 6 
#
# 1 46.6762 39.5621 25.8955 0.0000 -9.4425 0.0000
# 2 39.5621 149.8793 49.3637 0.0000 -13.1685 0.0000
# 3 25.8955 49.3637 108.3049 0.0000 -16.0049 0.0000
# 4 0.0000 0.0000 0.0000 26.7715 0.0000 1.1464
# 5 -9.4425 -13.1685 -16.0049 0.0000 24.4671 0.0000
# 6 0.0000 0.0000 0.0000 1.1464 0.0000 32.4200
#
#
#
# Elastic Compliance Matrix: (Units=1/GPa)
#
#
# Indices 1 2 3 4 5 6 
#
# 1 0.029785 -0.006218 -0.003413 0.000000 0.005915 0.000000
# 2 -0.006218 0.009246 -0.002598 0.000000 0.000877 0.000000
# 3 -0.003413 -0.002598 0.011991 0.000000 0.005128 0.000000
# 4 0.000000 0.000000 0.000000 0.037410 0.000000 -0.001323
# 5 0.005915 0.000877 0.005128 0.000000 0.046981 0.000000
# 6 0.000000 0.000000 0.000000 -0.001323 0.000000 0.030892
#
#
# Mechanical properties :
#
#
# Convention : Reuss Voigt Hill
#
# Bulk Modulus (GPa) = 37.64525 59.38924 48.51725
# Shear Modulus (GPa) = 25.04786 29.40099 27.22442
#
# Velocity S-wave (km/s) = 3.62741 3.93000 3.78174
# Velocity P-wave (km/s) = 6.10901 7.19664 6.67501
#
# Compressibility (1/GPa) = 0.02656378
#
# Stress axis : x y z
#
# Youngs Moduli (GPa) = 33.57409 108.15427 83.39437
#
# Poissons Ratio (x) = 0.67251 0.28465
# Poissons Ratio (y) = 0.20877 0.21664
# Poissons Ratio (z) = 0.11460 0.28097
#
# Static dielectric constant tensor:
#      x y z
#    x 3.571790 0.000000 -0.328100 
#    y 0.000000 3.763000 0.000000 
#    z -0.328100 0.000000 3.585590 
# 
# 
# High freq. dielectric constant tensor:
#      x y z
#    x 1.716270 0.000000 -0.008890 
#    y 0.000000 1.752230 0.000000 
#    z -0.008890 0.000000 1.728790 
# 
# From -- ./inp_files/25451.got.cif
#   From: 2010.03.12/outbox.cif.g09.slc.cpg/sg5_13_cif.got.tgz:25451.got - 2010.03.31 09:47:26.
