data_PCOD8051282
_publ_section_title
;
Structure prediction by ZEFSAII (Michael W. Deem and Ramdas Pophale) SiO2 
 PCOD8051282
Probable space group: C 2
;
_chemical_formula_sum "Si O2"
_cell_formula_units_Z 24
_cell_length_a 10.578264
_cell_length_b 8.973919
_cell_length_c 12.264671
_cell_angle_alpha 90.000000
_cell_angle_beta 89.750740
_cell_angle_gamma 90.000000
_cell_volume 1164.255611
_symmetry_space_group_name_H-M "C 2"
_symmetry_group_IT_number 5
_symmetry_cell_setting 'monoclinic'
loop_
_space_group_symop_operation_xyz
x,y,z
-x,y,-z
1/2+x,1/2+y,z
1/2-x,1/2+y,-z
loop_
_atom_site_type_symbol
_atom_site_label
_atom_site_fract_x
_atom_site_fract_y
_atom_site_fract_z
Si Si1 0.392168 0.406730 0.306821
Si Si2 0.125493 0.185571 0.047032
Si Si3 0.124238 0.862749 0.944839
Si Si4 0.117388 0.123054 0.299575
Si Si5 0.620166 0.084398 0.620664
Si Si6 0.127933 0.445571 0.381902
O O1 0.398938 0.351162 0.183396
O O2 0.507189 0.513139 0.338396
O O3 0.396008 0.263484 0.386540
O O4 0.258631 0.492996 0.322761
O O5 0.250060 0.277909 0.019633
O O6 0.101456 0.167795 0.174939
O O7 0.000000 0.267319 0.000000
O O8 0.139887 0.030295 0.985052
O O9 0.000000 0.788836 0.000000
O O10 0.253839 0.042849 0.312009
O O11 0.112642 0.266595 0.378359
O O12 0.632607 0.008351 0.503464
O O13 0.493926 0.017541 0.678852
#
# Coordination Sequence:
#
# PCOD8051282 Si02
#       6
#     4   4   4   4   4   4
#     4  11  23  45  69  95 142 179 223 283 339 399
#     4  11  23  44  68 102 140 177 227 276 337 408
#     4  11  23  44  68 102 140 177 227 276 337 408
#     4  11  23  45  69  95 142 179 223 283 339 399
#     4  10  24  43  67 101 136 174 236 276 334 408
#     4  10  24  43  67 101 136 174 236 276 334 408
#
# _framework density 20.614028999999999
#
# number of rings (size 3 to 8) (size 9 to 14) (size 15 to 20)
#    0.000    1.333    6.667    0.000    0.000   16.000 
#    0.000    0.000    0.000    0.000    0.000    0.000 
#    0.000    0.000    0.000    0.000    0.000    0.000 
#
# Total GULP energy -148759.141585 kJ/mol
# GULP energy per Si atom -12396.595132 kJ/mol
# Density = 2.056711 g / cm^3
# Si number density = 20.614029 Si / 1000 Ang^3
#
#
#
# Elastic Constant Matrix: (Units=GPa)
#
#
# Indices 1 2 3 4 5 6 
#
# 1 240.8201 60.6360 28.9664 0.0000 9.8615 0.0000
# 2 60.6360 69.5907 17.1172 0.0000 13.0265 0.0000
# 3 28.9664 17.1172 86.3586 0.0000 13.8123 0.0000
# 4 0.0000 0.0000 0.0000 19.5820 0.0000 5.0844
# 5 9.8615 13.0265 13.8123 0.0000 31.3700 0.0000
# 6 0.0000 0.0000 0.0000 5.0844 0.0000 50.8414
#
#
#
# Elastic Compliance Matrix: (Units=1/GPa)
#
#
# Indices 1 2 3 4 5 6 
#
# 1 0.005400 -0.004579 -0.001007 0.000000 0.000647 0.000000
# 2 -0.004579 0.019865 -0.001412 0.000000 -0.006188 0.000000
# 3 -0.001007 -0.001412 0.012966 0.000000 -0.004806 0.000000
# 4 0.000000 0.000000 0.000000 0.052429 0.000000 -0.005243
# 5 0.000647 -0.006188 -0.004806 0.000000 0.036360 0.000000
# 6 0.000000 0.000000 0.000000 -0.005243 0.000000 0.020193
#
#
# Mechanical properties :
#
#
# Convention : Reuss Voigt Hill
#
# Bulk Modulus (GPa) = 41.26226 67.80095 54.53161
# Shear Modulus (GPa) = 29.53576 39.69535 34.61555
#
# Velocity S-wave (km/s) = 3.78934 4.39298 4.10228
# Velocity P-wave (km/s) = 6.26143 7.66114 6.99638
#
# Compressibility (1/GPa) = 0.02423522
#
# Stress axis : x y z
#
# Youngs Moduli (GPa) = 185.18694 50.34053 77.12465
#
# Poissons Ratio (x) = 0.23048 0.07768
# Poissons Ratio (y) = 0.84788 0.10890
# Poissons Ratio (z) = 0.18653 0.07108
#
# Static dielectric constant tensor:
#      x y z
#    x 4.735970 0.000000 0.052900 
#    y 0.000000 4.027280 0.000000 
#    z 0.052900 0.000000 3.595810 
# 
# 
# High freq. dielectric constant tensor:
#      x y z
#    x 1.841700 0.000000 0.001720 
#    y 0.000000 1.788900 0.000000 
#    z 0.001720 0.000000 1.796320 
# 
# From -- ./inp_files/38342.got.cif
#   From: 2010.03.12/outbox.cif.g09.slc.cpg/sg5_20_cif.got.tgz:38342.got - 2010.03.31 09:47:26.
