data_PCOD8051570
_publ_section_title
;
Structure prediction by ZEFSAII (Michael W. Deem and Ramdas Pophale) SiO2 
 PCOD8051570
Probable space group: C 2
;
_chemical_formula_sum "Si O2"
_cell_formula_units_Z 30
_cell_length_a 13.464637
_cell_length_b 13.935293
_cell_length_c 13.963481
_cell_angle_alpha 90.000000
_cell_angle_beta 30.954503
_cell_angle_gamma 90.000000
_cell_volume 1347.625829
_symmetry_space_group_name_H-M "C 2"
_symmetry_group_IT_number 5
_symmetry_cell_setting 'monoclinic'
loop_
_space_group_symop_operation_xyz
x,y,z
-x,y,-z
1/2+x,1/2+y,z
1/2-x,1/2+y,-z
loop_
_atom_site_type_symbol
_atom_site_label
_atom_site_fract_x
_atom_site_fract_y
_atom_site_fract_z
Si Si1 0.745174 0.900640 0.492002
Si Si2 0.292454 0.432936 0.151506
Si Si3 0.702077 0.656765 0.055121
Si Si4 0.695850 0.576054 0.696242
Si Si5 0.846533 0.821021 0.799674
Si Si6 0.473811 0.762876 0.622521
Si Si7 0.000000 0.718471 0.500000
Si Si8 0.111873 0.463455 0.099530
O O1 0.670444 0.800626 0.508512
O O2 0.606864 0.935208 0.693331
O O3 0.956909 0.880141 0.353018
O O4 0.748773 0.987572 0.415575
O O5 0.287352 0.536876 0.208458
O O6 0.139188 0.358233 0.318251
O O7 0.258685 0.444048 0.066329
O O8 0.500000 0.385943 0.000000
O O9 0.515003 0.618477 0.152016
O O10 0.639773 0.697360 0.209309
O O11 0.815739 0.736301 0.901239
O O12 0.859777 0.574953 0.948764
O O13 0.860241 0.656629 0.546547
O O14 0.852519 0.780060 0.687121
O O15 0.674440 0.897571 0.957569
O O16 0.500000 0.705297 0.500000
#
# Coordination Sequence:
#
# PCOD8051570 Si02
#       8
#     4   4   4   4   4   4   2   4
#     4  11  22  45  72  97 143 184 231 294 362 407
#     4  11  19  37  67  97 132 172 228 292 343 403
#     4  12  24  44  71 105 146 185 235 297 357 420
#     4  12  23  42  72 108 137 179 241 305 350 404
#     4  12  25  47  67 100 145 187 231 292 361 417
#     4  11  23  38  67 107 141 180 237 284 350 422
#     4  12  28  40  68 110 142 182 244 292 350 430
#     4  11  24  43  68 100 139 192 227 284 362 417
#
# _framework density 22.261374
#
# number of rings (size 3 to 8) (size 9 to 14) (size 15 to 20)
#    0.000    0.533    6.667    4.000    0.000    0.000 
#    1.200    0.000    0.000    1.600    0.000    0.000 
#    0.000    0.000    0.000    0.000    0.000    0.000 
#
# Total GULP energy -185955.802983 kJ/mol
# GULP energy per Si atom -12397.053532 kJ/mol
# Density = 2.221071 g / cm^3
# Si number density = 22.261374 Si / 1000 Ang^3
#
#
#
# Elastic Constant Matrix: (Units=GPa)
#
#
# Indices 1 2 3 4 5 6 
#
# 1 39.8300 18.4381 33.9836 -0.0060 16.7550 0.0043
# 2 18.4381 108.4114 48.0617 -0.0357 14.6780 0.0458
# 3 33.9836 48.0617 128.1921 -0.0612 6.7670 0.0884
# 4 -0.0060 -0.0357 -0.0612 43.2305 0.0107 3.4331
# 5 16.7550 14.6780 6.7670 0.0107 33.2830 -0.0173
# 6 0.0043 0.0458 0.0884 3.4331 -0.0173 18.8195
#
#
#
# Elastic Compliance Matrix: (Units=1/GPa)
#
#
# Indices 1 2 3 4 5 6 
#
# 1 0.041628 -0.000087 -0.010006 -0.000006 -0.018883 0.000021
# 2 -0.000087 0.011640 -0.004116 0.000006 -0.004252 -0.000014
# 3 -0.010006 -0.004116 0.011761 0.000014 0.004461 -0.000041
# 4 -0.000006 0.000006 0.000014 0.023472 -0.000012 -0.004282
# 5 -0.018883 -0.004252 0.004461 -0.000012 0.040519 0.000033
# 6 0.000021 -0.000014 -0.000041 -0.004282 0.000033 0.053918
#
#
# Mechanical properties :
#
#
# Convention : Reuss Voigt Hill
#
# Bulk Modulus (GPa) = 27.31550 53.04447 40.17999
# Shear Modulus (GPa) = 22.36540 30.79661 26.58100
#
# Velocity S-wave (km/s) = 3.17310 3.72346 3.45924
# Velocity P-wave (km/s) = 5.07166 6.50886 5.83468
#
# Compressibility (1/GPa) = 0.03660926
#
# Stress axis : x y z
#
# Youngs Moduli (GPa) = 24.02250 85.91388 85.02562
#
# Poissons Ratio (x) = 0.00751 0.85076
# Poissons Ratio (y) = 0.00210 0.34999
# Poissons Ratio (z) = 0.24037 0.35364
#
# Static dielectric constant tensor:
#      x y z
#    x 4.016600 0.000070 0.132550 
#    y 0.000070 4.236410 0.000020 
#    z 0.132550 0.000020 4.314210 
# 
# 
# High freq. dielectric constant tensor:
#      x y z
#    x 1.843550 0.000000 0.004000 
#    y 0.000000 1.873350 0.000000 
#    z 0.004000 0.000000 1.900530 
# 
# From -- ./inp_files/54769.got.cif
#   From: 2010.03.12/outbox.cif.g09.slc.cpg/sg5_28_cif.got.tgz:54769.got - 2010.03.31 09:47:26.
