data_PCOD8051903
_publ_section_title
;
Structure prediction by ZEFSAII (Michael W. Deem and Ramdas Pophale) SiO2 
 PCOD8051903
Probable space group: C 2
;
_chemical_formula_sum "Si O2"
_cell_formula_units_Z 28
_cell_length_a 24.549447
_cell_length_b 9.212690
_cell_length_c 8.460828
_cell_angle_alpha 90.000000
_cell_angle_beta 139.889092
_cell_angle_gamma 90.000000
_cell_volume 1232.844885
_symmetry_space_group_name_H-M "C 2"
_symmetry_group_IT_number 5
_symmetry_cell_setting 'monoclinic'
loop_
_space_group_symop_operation_xyz
x,y,z
-x,y,-z
1/2+x,1/2+y,z
1/2-x,1/2+y,-z
loop_
_atom_site_type_symbol
_atom_site_label
_atom_site_fract_x
_atom_site_fract_y
_atom_site_fract_z
Si Si1 0.601242 0.850260 0.587876
Si Si2 0.653541 0.636252 0.235129
Si Si3 0.079918 0.409341 0.903127
Si Si4 0.819101 0.687435 0.759344
Si Si5 0.716795 0.441668 0.111307
Si Si6 0.415793 0.372610 0.753307
Si Si7 0.918447 0.016657 0.431143
O O1 0.612339 0.873713 0.799543
O O2 0.521262 0.934378 0.333203
O O3 0.684260 0.912083 0.690305
O O4 0.583590 0.681331 0.512149
O O5 0.719343 0.655057 0.525852
O O6 0.707695 0.576466 0.208621
O O7 0.586187 0.520976 0.148664
O O8 0.603175 0.779599 0.073918
O O9 0.124626 0.549353 0.074967
O O10 0.831360 0.800288 0.929098
O O11 0.841095 0.763239 0.638898
O O12 0.670689 0.484236 0.848337
O O13 0.420297 0.402076 0.577567
O O14 0.500000 0.291809 0.000000
O O15 0.000000 0.992719 0.500000
#
# Coordination Sequence:
#
# PCOD8051903 Si02
#       7
#     4   4   4   4   4   4   4
#     4  11  24  42  73 108 134 191 239 299 362 414
#     4  11  23  46  72 100 139 189 237 286 349 444
#     4  11  23  46  71  99 152 182 237 298 352 436
#     4  11  26  44  65 107 142 182 230 297 366 413
#     4  11  25  42  70 105 137 185 246 290 359 427
#     4  11  25  44  69 100 135 183 237 286 358 421
#     4  12  23  47  74 101 140 188 251 295 350 443
#
# _framework density 22.711697000000001
#
# number of rings (size 3 to 8) (size 9 to 14) (size 15 to 20)
#    0.000    0.857    2.857    5.143    6.000    1.143 
#    7.714    3.571    0.000    0.000    0.000    0.000 
#    0.000    0.000    0.000    0.000    0.000    0.000 
#
# Total GULP energy -173604.128842 kJ/mol
# GULP energy per Si atom -12400.294917 kJ/mol
# Density = 2.266000 g / cm^3
# Si number density = 22.711697 Si / 1000 Ang^3
#
#
#
# Elastic Constant Matrix: (Units=GPa)
#
#
# Indices 1 2 3 4 5 6 
#
# 1 84.9701 8.5406 13.9468 0.0000 15.9294 0.0000
# 2 8.5406 83.8258 21.7804 0.0000 2.9916 0.0000
# 3 13.9468 21.7804 114.2676 0.0000 8.3747 0.0000
# 4 0.0000 0.0000 0.0000 37.3620 0.0000 4.6602
# 5 15.9294 2.9916 8.3747 0.0000 36.6158 0.0000
# 6 0.0000 0.0000 0.0000 4.6602 0.0000 21.7835
#
#
#
# Elastic Compliance Matrix: (Units=1/GPa)
#
#
# Indices 1 2 3 4 5 6 
#
# 1 0.013031 -0.000868 -0.001032 0.000000 -0.005362 0.000000
# 2 -0.000868 0.012617 -0.002290 0.000000 -0.000130 0.000000
# 3 -0.001032 -0.002290 0.009425 0.000000 -0.001520 0.000000
# 4 0.000000 0.000000 0.000000 0.027499 0.000000 -0.005883
# 5 -0.005362 -0.000130 -0.001520 0.000000 0.030001 0.000000
# 6 0.000000 0.000000 0.000000 -0.005883 0.000000 0.047165
#
#
# Mechanical properties :
#
#
# Convention : Reuss Voigt Hill
#
# Bulk Modulus (GPa) = 37.46168 41.28880 39.37524
# Shear Modulus (GPa) = 31.84392 35.07198 33.45795
#
# Velocity S-wave (km/s) = 3.74852 3.93393 3.84234
# Velocity P-wave (km/s) = 5.93847 6.23325 6.08764
#
# Compressibility (1/GPa) = 0.02669394
#
# Stress axis : x y z
#
# Youngs Moduli (GPa) = 76.74187 79.25519 106.09932
#
# Poissons Ratio (x) = 0.06880 0.10949
# Poissons Ratio (y) = 0.06662 0.24292
# Poissons Ratio (z) = 0.07920 0.18146
#
# Static dielectric constant tensor:
#      x y z
#    x 4.084740 0.000000 0.037330 
#    y 0.000000 4.020780 0.000000 
#    z 0.037330 0.000000 4.188510 
# 
# 
# High freq. dielectric constant tensor:
#      x y z
#    x 1.901210 0.000000 0.005370 
#    y 0.000000 1.890830 0.000000 
#    z 0.005370 0.000000 1.907110 
# 
# From -- ./inp_files/31780.got.cif
#   From: 2010.03.12/outbox.cif.g09.slc.cpg/sg5_16_cif.got.tgz:31780.got - 2010.03.31 09:47:26.
