data_PCOD8051264
_publ_section_title
;
Structure prediction by ZEFSAII (Michael W. Deem and Ramdas Pophale) SiO2 
 PCOD8051264
Probable space group: C 2
;
_chemical_formula_sum "Si O2"
_cell_formula_units_Z 24
_cell_length_a 17.226662
_cell_length_b 10.680195
_cell_length_c 11.850641
_cell_angle_alpha 90.000000
_cell_angle_beta 28.492794
_cell_angle_gamma 90.000000
_cell_volume 1040.122389
_symmetry_space_group_name_H-M "C 2"
_symmetry_group_IT_number 5
_symmetry_cell_setting 'monoclinic'
loop_
_space_group_symop_operation_xyz
x,y,z
-x,y,-z
1/2+x,1/2+y,z
1/2-x,1/2+y,-z
loop_
_atom_site_type_symbol
_atom_site_label
_atom_site_fract_x
_atom_site_fract_y
_atom_site_fract_z
Si Si1 0.948265 0.243240 0.823288
Si Si2 0.151367 0.052763 0.879736
Si Si3 0.338596 0.350748 0.948483
Si Si4 0.609309 0.508814 0.532801
Si Si5 0.149391 0.474759 0.573847
Si Si6 0.387356 0.112579 0.037197
O O1 0.988930 0.127828 0.689016
O O2 0.115472 0.325140 0.614604
O O3 0.891163 0.193509 0.020832
O O4 0.806364 0.327108 0.952210
O O5 0.309626 0.040168 0.598106
O O6 0.000000 0.999392 0.000000
O O7 0.191187 0.974891 0.940691
O O8 0.503116 0.379779 0.664024
O O9 0.346198 0.241552 0.030258
O O10 0.705173 0.507013 0.528149
O O11 0.730267 0.528902 0.273122
O O12 0.978028 0.529404 0.830570
O O13 0.500000 0.143581 0.000000
#
# Coordination Sequence:
#
# PCOD8051264 Si02
#       6
#     4   4   4   4   4   4
#     4  11  26  44  72 109 146 183 249 310 362 429
#     4  11  23  47  76 103 142 195 246 299 359 444
#     4  11  24  44  74 103 146 189 239 308 379 415
#     4  10  24  46  71 104 143 192 247 297 362 450
#     4  11  24  44  73 104 143 192 251 296 363 441
#     4  10  24  42  70 105 141 193 246 289 366 449
#
# _framework density 23.074207000000001
#
# number of rings (size 3 to 8) (size 9 to 14) (size 15 to 20)
#    0.000    1.333    3.333    1.500    9.333    6.000 
#    0.000    1.667    0.000    0.000    0.000    0.000 
#    0.000    0.000    0.000    0.000    0.000    0.000 
#
# Total GULP energy -148741.403330 kJ/mol
# GULP energy per Si atom -12395.116944 kJ/mol
# Density = 2.302169 g / cm^3
# Si number density = 23.074207 Si / 1000 Ang^3
#
#
#
# Elastic Constant Matrix: (Units=GPa)
#
#
# Indices 1 2 3 4 5 6 
#
# 1 71.7846 48.1418 49.1468 0.0000 -3.4423 0.0000
# 2 48.1418 72.1868 43.6481 0.0000 4.1843 0.0000
# 3 49.1468 43.6481 166.5583 0.0000 9.4978 0.0000
# 4 0.0000 0.0000 0.0000 56.2789 0.0000 0.1119
# 5 -3.4423 4.1843 9.4978 0.0000 26.6626 0.0000
# 6 0.0000 0.0000 0.0000 0.1119 0.0000 40.9663
#
#
#
# Elastic Compliance Matrix: (Units=1/GPa)
#
#
# Indices 1 2 3 4 5 6 
#
# 1 0.028728 -0.016898 -0.004503 0.000000 0.007965 0.000000
# 2 -0.016898 0.026430 -0.001612 0.000000 -0.005755 0.000000
# 3 -0.004503 -0.001612 0.007935 0.000000 -0.003155 0.000000
# 4 0.000000 0.000000 0.000000 0.017769 0.000000 -0.000049
# 5 0.007965 -0.005755 -0.003155 0.000000 0.040561 0.000000
# 6 0.000000 0.000000 0.000000 -0.000049 0.000000 0.024410
#
#
# Mechanical properties :
#
#
# Convention : Reuss Voigt Hill
#
# Bulk Modulus (GPa) = 58.58938 65.82258 62.20598
# Shear Modulus (GPa) = 25.31038 36.08775 30.69906
#
# Velocity S-wave (km/s) = 3.31556 3.95902 3.65149
# Velocity P-wave (km/s) = 6.33278 7.03469 6.69294
#
# Compressibility (1/GPa) = 0.01706794
#
# Stress axis : x y z
#
# Youngs Moduli (GPa) = 34.80983 37.83514 126.02536
#
# Poissons Ratio (x) = 0.63932 0.56746
# Poissons Ratio (y) = 0.58820 0.20317
# Poissons Ratio (z) = 0.15674 0.06099
#
# Static dielectric constant tensor:
#      x y z
#    x 3.935590 0.000000 0.061990 
#    y 0.000000 4.437920 0.000000 
#    z 0.061990 0.000000 4.551890 
# 
# 
# High freq. dielectric constant tensor:
#      x y z
#    x 1.899700 0.000000 0.004570 
#    y 0.000000 1.907940 0.000000 
#    z 0.004570 0.000000 1.923600 
# 
# From -- ./inp_files/44643.got.cif
#   From: 2010.03.12/outbox.cif.g09.slc.cpg/sg5_23_cif.got.tgz:44643.got - 2010.03.31 09:47:26.
