data_PCOD8051721
_publ_section_title
;
Structure prediction by ZEFSAII (Michael W. Deem and Ramdas Pophale) SiO2 
 PCOD8051721
Probable space group: C 2
;
_chemical_formula_sum "Si O2"
_cell_formula_units_Z 16
_cell_length_a 7.810455
_cell_length_b 11.549886
_cell_length_c 11.771518
_cell_angle_alpha 90.000000
_cell_angle_beta 130.099212
_cell_angle_gamma 90.000000
_cell_volume 812.284834
_symmetry_space_group_name_H-M "C 2"
_symmetry_group_IT_number 5
_symmetry_cell_setting 'monoclinic'
loop_
_space_group_symop_operation_xyz
x,y,z
-x,y,-z
1/2+x,1/2+y,z
1/2-x,1/2+y,-z
loop_
_atom_site_type_symbol
_atom_site_label
_atom_site_fract_x
_atom_site_fract_y
_atom_site_fract_z
Si Si1 0.931201 0.316520 0.258320
Si Si2 0.116874 0.482941 0.157777
Si Si3 0.500000 0.951963 0.500000
Si Si4 0.500000 0.202631 0.000000
Si Si5 0.929576 0.077620 0.601052
O O1 0.712971 0.286396 0.091040
O O2 0.079044 0.202750 0.342700
O O3 0.074330 0.411216 0.252344
O O4 0.868283 0.372968 0.352542
O O5 0.012861 0.615551 0.115999
O O6 0.385207 0.496542 0.257689
O O7 0.000000 0.418243 0.000000
O O8 0.682788 0.027149 0.511000
O O9 0.000000 0.089473 0.500000
#
# Coordination Sequence:
#
# PCOD8051721 Si02
#       5
#     4   4   2   2   4
#     4  11  22  42  65  93 127 172 204 262 319 363
#     4   9  21  43  62  88 132 165 203 270 304 364
#     4  12  26  38  70  96 122 174 208 252 324 378
#     4   8  22  38  64  90 124 164 214 258 304 374
#     4  11  23  44  61  95 134 159 216 260 304 380
#
# _framework density 19.697523
#
# number of rings (size 3 to 8) (size 9 to 14) (size 15 to 20)
#    0.750    1.000    3.750    0.000    3.500    2.000 
#    4.500    0.000    0.000    0.000    0.000    0.000 
#    0.000    0.000    0.000    0.000    0.000    0.000 
#
# Total GULP energy -99118.191421 kJ/mol
# GULP energy per Si atom -12389.773928 kJ/mol
# Density = 1.965269 g / cm^3
# Si number density = 19.697523 Si / 1000 Ang^3
#
#
#
# Elastic Constant Matrix: (Units=GPa)
#
#
# Indices 1 2 3 4 5 6 
#
# 1 98.9298 54.8835 43.1366 0.0000 8.0011 0.0000
# 2 54.8835 99.9127 35.7145 0.0000 7.5419 0.0000
# 3 43.1366 35.7145 98.8303 0.0000 11.3291 0.0000
# 4 0.0000 0.0000 0.0000 34.7352 0.0000 -9.8564
# 5 8.0011 7.5419 11.3291 0.0000 30.9210 0.0000
# 6 0.0000 0.0000 0.0000 -9.8564 0.0000 29.3060
#
#
#
# Elastic Compliance Matrix: (Units=1/GPa)
#
#
# Indices 1 2 3 4 5 6 
#
# 1 0.016057 -0.007219 -0.004306 0.000000 -0.000816 0.000000
# 2 -0.007219 0.014793 -0.002083 0.000000 -0.000977 0.000000
# 3 -0.004306 -0.002083 0.013115 0.000000 -0.003183 0.000000
# 4 0.000000 0.000000 0.000000 0.031827 0.000000 0.010704
# 5 -0.000816 -0.000977 -0.003183 0.000000 0.033956 0.000000
# 6 0.000000 0.000000 0.000000 0.010704 0.000000 0.037723
#
#
# Mechanical properties :
#
#
# Convention : Reuss Voigt Hill
#
# Bulk Modulus (GPa) = 59.70539 62.79357 61.24948
# Shear Modulus (GPa) = 27.73629 29.92166 28.82898
#
# Velocity S-wave (km/s) = 3.75655 3.90174 3.82983
# Velocity P-wave (km/s) = 7.01374 7.22815 7.12175
#
# Compressibility (1/GPa) = 0.01674891
#
# Stress axis : x y z
#
# Youngs Moduli (GPa) = 62.27866 67.60105 76.24734
#
# Poissons Ratio (x) = 0.48804 0.32831
# Poissons Ratio (y) = 0.44962 0.15879
# Poissons Ratio (z) = 0.26816 0.14078
#
# Static dielectric constant tensor:
#      x y z
#    x 3.093570 0.000000 0.039400 
#    y 0.000000 3.560890 0.000000 
#    z 0.039400 0.000000 3.808080 
# 
# 
# High freq. dielectric constant tensor:
#      x y z
#    x 1.725650 0.000000 0.004840 
#    y 0.000000 1.767900 0.000000 
#    z 0.004840 0.000000 1.790600 
# 
# From -- ./inp_files/13778.got.cif
#   From: 2010.03.12/outbox.cif.g09.slc.cpg/sg5_7_cif.got.tgz:13778.got - 2010.03.31 09:47:26.
