data_PCOD8051636
_publ_section_title
;
Structure prediction by ZEFSAII (Michael W. Deem and Ramdas Pophale) SiO2 
 PCOD8051636
Probable space group: C 2
;
_chemical_formula_sum "Si O2"
_cell_formula_units_Z 32
_cell_length_a 14.245084
_cell_length_b 10.785340
_cell_length_c 9.361993
_cell_angle_alpha 90.000000
_cell_angle_beta 93.595226
_cell_angle_gamma 90.000000
_cell_volume 1435.527824
_symmetry_space_group_name_H-M "C 2"
_symmetry_group_IT_number 5
_symmetry_cell_setting 'monoclinic'
loop_
_space_group_symop_operation_xyz
x,y,z
-x,y,-z
1/2+x,1/2+y,z
1/2-x,1/2+y,-z
loop_
_atom_site_type_symbol
_atom_site_label
_atom_site_fract_x
_atom_site_fract_y
_atom_site_fract_z
Si Si1 0.120758 0.717240 0.361738
Si Si2 0.884714 0.246069 0.578138
Si Si3 0.930477 0.361481 0.302042
Si Si4 0.754236 0.281748 0.807110
Si Si5 0.585734 0.147708 0.682464
Si Si6 0.900200 0.195848 0.051317
Si Si7 0.216583 0.045506 0.743576
Si Si8 0.399756 0.471449 0.540207
O O1 0.116829 0.686105 0.527945
O O2 0.201293 0.643964 0.283443
O O3 0.139397 0.866996 0.352782
O O4 0.020508 0.681069 0.283257
O O5 0.871115 0.273556 0.407304
O O6 0.786481 0.264210 0.645900
O O7 0.959653 0.344001 0.648213
O O8 0.919181 0.105471 0.613173
O O9 0.898051 0.501300 0.312555
O O10 0.914094 0.324896 0.136621
O O11 0.651888 0.217224 0.804947
O O12 0.754992 0.428393 0.838388
O O13 0.824945 0.212222 0.919299
O O14 0.864754 0.099197 0.164835
O O15 0.000000 0.148921 0.000000
O O16 0.173189 0.990496 0.594872
O O17 0.500000 0.415965 0.500000
#
# Coordination Sequence:
#
# PCOD8051636 Si02
#       8
#     4   4   4   4   4   4   4   4
#     4  11  23  44  71 111 145 183 230 306 369 421
#     4  11  21  40  74 107 132 181 241 296 360 429
#     4  11  22  42  71 103 137 186 236 296 361 424
#     4  12  26  46  71 104 142 193 241 298 356 437
#     4  11  23  42  70 108 145 179 231 299 365 427
#     4  12  28  49  69 102 142 194 244 294 355 428
#     4  12  26  47  70 103 147 191 245 294 364 436
#     4  12  21  41  71 108 150 180 232 299 370 430
#
# _framework density 22.291453000000001
#
# number of rings (size 3 to 8) (size 9 to 14) (size 15 to 20)
#    0.000    0.500    6.250    3.750    1.750    2.000 
#    0.000    0.625    0.000    0.000    0.000    0.000 
#    0.000    0.000    0.000    0.000    0.000    0.000 
#
# Total GULP energy -198385.925175 kJ/mol
# GULP energy per Si atom -12399.120323 kJ/mol
# Density = 2.224072 g / cm^3
# Si number density = 22.291453 Si / 1000 Ang^3
#
#
#
# Elastic Constant Matrix: (Units=GPa)
#
#
# Indices 1 2 3 4 5 6 
#
# 1 138.2640 47.7606 53.1886 0.0000 8.9382 0.0000
# 2 47.7606 162.1762 23.2624 0.0000 -11.0841 0.0000
# 3 53.1886 23.2624 70.9985 0.0000 -1.6307 0.0000
# 4 0.0000 0.0000 0.0000 16.5855 0.0000 -1.0148
# 5 8.9382 -11.0841 -1.6307 0.0000 31.4276 0.0000
# 6 0.0000 0.0000 0.0000 -1.0148 0.0000 32.2509
#
#
#
# Elastic Compliance Matrix: (Units=1/GPa)
#
#
# Indices 1 2 3 4 5 6 
#
# 1 0.011417 -0.002552 -0.007822 0.000000 -0.004553 0.000000
# 2 -0.002552 0.007192 -0.000371 0.000000 0.003243 0.000000
# 3 -0.007822 -0.000371 0.020138 0.000000 0.003139 0.000000
# 4 0.000000 0.000000 0.000000 0.060410 0.000000 0.001901
# 5 -0.004553 0.003243 0.003139 0.000000 0.034421 0.000000
# 6 0.000000 0.000000 0.000000 0.001901 0.000000 0.031067
#
#
# Mechanical properties :
#
#
# Convention : Reuss Voigt Hill
#
# Bulk Modulus (GPa) = 57.93814 68.87353 63.40584
# Shear Modulus (GPa) = 26.05715 32.53462 29.29589
#
# Velocity S-wave (km/s) = 3.42267 3.82450 3.62915
# Velocity P-wave (km/s) = 6.45501 7.10396 6.78725
#
# Compressibility (1/GPa) = 0.01725979
#
# Stress axis : x y z
#
# Youngs Moduli (GPa) = 87.58709 139.03625 49.65734
#
# Poissons Ratio (x) = 0.35476 0.38841
# Poissons Ratio (y) = 0.22348 0.01840
# Poissons Ratio (z) = 0.68509 0.05152
#
# Static dielectric constant tensor:
#      x y z
#    x 4.115920 0.000000 -0.018650 
#    y 0.000000 4.317420 0.000000 
#    z -0.018650 0.000000 3.778330 
# 
# 
# High freq. dielectric constant tensor:
#      x y z
#    x 1.891090 0.000000 0.006160 
#    y 0.000000 1.892230 0.000000 
#    z 0.006160 0.000000 1.839130 
# 
# From -- ./inp_files/23897.got.cif
#   From: 2010.03.12/outbox.cif.g09.slc.cpg/sg5_12_cif.got.tgz:23897.got - 2010.03.31 09:47:26.
