data_PCOD8051793
_publ_section_title
;
Structure prediction by ZEFSAII (Michael W. Deem and Ramdas Pophale) SiO2 
 PCOD8051793
Probable space group: C 2
;
_chemical_formula_sum "Si O2"
_cell_formula_units_Z 20
_cell_length_a 24.631496
_cell_length_b 7.294446
_cell_length_c 8.279506
_cell_angle_alpha 90.000000
_cell_angle_beta 31.903038
_cell_angle_gamma 90.000000
_cell_volume 786.174290
_symmetry_space_group_name_H-M "C 2"
_symmetry_group_IT_number 5
_symmetry_cell_setting 'monoclinic'
loop_
_space_group_symop_operation_xyz
x,y,z
-x,y,-z
1/2+x,1/2+y,z
1/2-x,1/2+y,-z
loop_
_atom_site_type_symbol
_atom_site_label
_atom_site_fract_x
_atom_site_fract_y
_atom_site_fract_z
Si Si1 0.906765 0.626360 0.854511
Si Si2 0.604591 0.589025 0.331902
Si Si3 0.471547 0.788837 0.902178
Si Si4 0.256895 0.373898 0.813378
Si Si5 0.896816 0.903112 0.165808
O O1 0.921737 0.439977 0.916939
O O2 0.000000 0.668368 0.500000
O O3 0.804897 0.568286 0.012640
O O4 0.887945 0.798386 0.017638
O O5 0.500000 0.542569 0.500000
O O6 0.576493 0.714087 0.556716
O O7 0.653224 0.397646 0.276468
O O8 0.685983 0.696355 0.016617
O O9 0.500000 0.883683 0.000000
O O10 0.394833 0.618456 0.127877
O O11 0.302143 0.351314 0.519342
O O12 0.000000 0.847809 0.000000
#
# Coordination Sequence:
#
# PCOD8051793 Si02
#       5
#     4   4   4   4   4
#     4  12  27  48  76 115 152 201 266 322 382 475
#     4  12  26  51  78 115 162 197 265 331 380 469
#     4  11  22  49  78 104 164 202 239 337 386 440
#     4  12  27  48  79 115 148 215 258 306 419 452
#     4  11  27  48  73 114 154 201 261 320 392 467
#
# _framework density 25.439654000000001
#
# number of rings (size 3 to 8) (size 9 to 14) (size 15 to 20)
#    0.000    0.400    8.000    0.600    5.600    4.800 
#    0.000    0.000    0.000    0.000    0.000    0.000 
#    0.000    0.000    0.000    0.000    0.000    0.000 
#
# Total GULP energy -124004.264094 kJ/mol
# GULP energy per Si atom -12400.426409 kJ/mol
# Density = 2.538175 g / cm^3
# Si number density = 25.439654 Si / 1000 Ang^3
#
#
#
# Elastic Constant Matrix: (Units=GPa)
#
#
# Indices 1 2 3 4 5 6 
#
# 1 111.0114 29.3668 40.1685 0.0000 -1.6274 0.0000
# 2 29.3668 103.0177 36.2024 0.0000 6.5995 0.0000
# 3 40.1685 36.2024 189.1808 0.0000 24.1676 0.0000
# 4 0.0000 0.0000 0.0000 21.8215 0.0000 7.4798
# 5 -1.6274 6.5995 24.1676 0.0000 46.8512 0.0000
# 6 0.0000 0.0000 0.0000 7.4798 0.0000 42.8252
#
#
#
# Elastic Compliance Matrix: (Units=1/GPa)
#
#
# Indices 1 2 3 4 5 6 
#
# 1 0.010373 -0.002376 -0.001966 0.000000 0.001709 0.000000
# 2 -0.002376 0.010961 -0.001483 0.000000 -0.000861 0.000000
# 3 -0.001966 -0.001483 0.006390 0.000000 -0.003156 0.000000
# 4 0.000000 0.000000 0.000000 0.048745 0.000000 -0.008514
# 5 0.001709 -0.000861 -0.003156 0.000000 0.023153 0.000000
# 6 0.000000 0.000000 0.000000 -0.008514 0.000000 0.024838
#
#
# Mechanical properties :
#
#
# Convention : Reuss Voigt Hill
#
# Bulk Modulus (GPa) = 62.21056 68.29833 65.25445
# Shear Modulus (GPa) = 35.34397 42.13106 38.73752
#
# Velocity S-wave (km/s) = 3.73141 4.07396 3.90644
# Velocity P-wave (km/s) = 6.56291 7.00250 6.78627
#
# Compressibility (1/GPa) = 0.01607444
#
# Stress axis : x y z
#
# Youngs Moduli (GPa) = 96.40389 91.23594 156.48509
#
# Poissons Ratio (x) = 0.21673 0.30769
# Poissons Ratio (y) = 0.22901 0.23207
# Poissons Ratio (z) = 0.18955 0.13531
#
# Static dielectric constant tensor:
#      x y z
#    x 5.084390 0.000000 0.006540 
#    y 0.000000 4.435560 0.000000 
#    z 0.006540 0.000000 4.911140 
# 
# 
# High freq. dielectric constant tensor:
#      x y z
#    x 2.030710 0.000000 0.010730 
#    y 0.000000 2.008060 0.000000 
#    z 0.010730 0.000000 2.025490 
# 
# From -- ./inp_files/31549.got.cif
#   From: 2010.03.12/outbox.cif.g09.slc.cpg/sg5_16_cif.got.tgz:31549.got - 2010.03.31 09:47:26.
