data_PCOD8051675
_publ_section_title
;
Structure prediction by ZEFSAII (Michael W. Deem and Ramdas Pophale) SiO2 
 PCOD8051675
Probable space group: C 2
;
_chemical_formula_sum "Si O2"
_cell_formula_units_Z 26
_cell_length_a 26.216293
_cell_length_b 6.348450
_cell_length_c 22.751249
_cell_angle_alpha 90.000000
_cell_angle_beta 158.885897
_cell_angle_gamma 90.000000
_cell_volume 1364.017094
_symmetry_space_group_name_H-M "C 2"
_symmetry_group_IT_number 5
_symmetry_cell_setting 'monoclinic'
loop_
_space_group_symop_operation_xyz
x,y,z
-x,y,-z
1/2+x,1/2+y,z
1/2-x,1/2+y,-z
loop_
_atom_site_type_symbol
_atom_site_label
_atom_site_fract_x
_atom_site_fract_y
_atom_site_fract_z
Si Si1 0.000000 0.393770 0.500000
Si Si2 0.683507 0.647878 0.507074
Si Si3 0.666669 0.272028 0.721826
Si Si4 0.682902 0.645045 0.008447
Si Si5 0.434881 0.955165 0.213189
Si Si6 0.110493 0.014774 0.551469
Si Si7 0.934765 0.843537 0.715489
O O1 0.873884 0.534255 0.338334
O O2 0.929549 0.252215 0.474681
O O3 0.557786 0.817842 0.374994
O O4 0.692862 0.520023 0.578330
O O5 0.834050 0.758759 0.658843
O O6 0.660231 0.484588 0.429527
O O7 0.797805 0.262522 0.908050
O O8 0.706428 0.405935 0.705843
O O9 0.532770 0.380227 0.609933
O O10 0.828649 0.524995 0.150304
O O11 0.654113 0.819344 0.928627
O O12 0.555173 0.480721 0.876351
O O13 0.497784 0.156449 0.248759
#
# Coordination Sequence:
#
# PCOD8051675 Si02
#       7
#     2   4   4   4   4   4   4
#     4   8  16  34  56  88 108 156 194 240 294 334
#     4  11  22  39  59  87 118 159 199 240 298 358
#     4   9  19  35  54  91 119 147 199 251 288 347
#     4  11  22  36  59  90 123 153 193 247 304 345
#     4  11  22  36  58  89 120 158 191 246 300 353
#     4   9  19  33  59  85 117 156 197 243 293 343
#     4  11  23  38  57  89 120 155 195 244 296 357
#
# _framework density 19.061344999999999
#
# number of rings (size 3 to 8) (size 9 to 14) (size 15 to 20)
#    0.000    2.154    3.077    1.846    2.154    3.692 
#    0.000    0.000    0.000    5.538    0.000    2.154 
#    0.000    0.000    0.000    0.000    0.000    0.000 
#
# Total GULP energy -161211.279552 kJ/mol
# GULP energy per Si atom -12400.867658 kJ/mol
# Density = 1.901796 g / cm^3
# Si number density = 19.061345 Si / 1000 Ang^3
#
#
#
# Elastic Constant Matrix: (Units=GPa)
#
#
# Indices 1 2 3 4 5 6 
#
# 1 121.9215 34.5672 61.3093 0.0001 -4.6774 0.0000
# 2 34.5672 95.9619 30.2362 0.0000 1.0611 0.0001
# 3 61.3093 30.2362 80.3997 0.0000 -0.8041 0.0000
# 4 0.0001 0.0000 0.0000 21.5916 0.0000 3.9711
# 5 -4.6774 1.0611 -0.8041 0.0000 29.5536 0.0000
# 6 0.0000 0.0001 0.0000 3.9711 0.0000 26.3250
#
#
#
# Elastic Compliance Matrix: (Units=1/GPa)
#
#
# Indices 1 2 3 4 5 6 
#
# 1 0.013700 -0.001896 -0.009714 0.000000 0.001972 0.000000
# 2 -0.001896 0.012093 -0.003110 0.000000 -0.000819 0.000000
# 3 -0.009714 -0.003110 0.021007 0.000000 -0.000854 0.000000
# 4 0.000000 0.000000 0.000000 0.047636 0.000000 -0.007186
# 5 0.001972 -0.000819 -0.000854 0.000000 0.034155 0.000000
# 6 0.000000 0.000000 0.000000 -0.007186 0.000000 0.039071
#
#
# Mechanical properties :
#
#
# Convention : Reuss Voigt Hill
#
# Bulk Modulus (GPa) = 57.60838 61.16764 59.38801
# Shear Modulus (GPa) = 24.64404 26.97206 25.80805
#
# Velocity S-wave (km/s) = 3.59957 3.76575 3.68359
# Velocity P-wave (km/s) = 6.89667 7.14614 7.02251
#
# Compressibility (1/GPa) = 0.01735859
#
# Stress axis : x y z
#
# Youngs Moduli (GPa) = 72.99174 82.69384 47.60376
#
# Poissons Ratio (x) = 0.15679 0.46244
# Poissons Ratio (y) = 0.13839 0.14806
# Poissons Ratio (z) = 0.70907 0.25719
#
# Static dielectric constant tensor:
#      x y z
#    x 3.329870 0.000000 -0.078610 
#    y 0.000000 3.744670 0.000000 
#    z -0.078610 0.000000 3.319440 
# 
# 
# High freq. dielectric constant tensor:
#      x y z
#    x 1.729860 0.000000 -0.011220 
#    y 0.000000 1.761130 0.000000 
#    z -0.011220 0.000000 1.717320 
# 
# From -- ./inp_files/69883.got.cif
#   From: 2010.03.12/outbox.cif.g09.slc.cpg/sg5_35_cif.got.tgz:69883.got - 2010.03.31 09:47:26.
