data_PCOD8051422
_publ_section_title
;
Structure prediction by ZEFSAII (Michael W. Deem and Ramdas Pophale) SiO2 
 PCOD8051422
Probable space group: C 2
;
_chemical_formula_sum "Si O2"
_cell_formula_units_Z 20
_cell_length_a 11.505372
_cell_length_b 9.795893
_cell_length_c 7.360217
_cell_angle_alpha 90.000000
_cell_angle_beta 105.364045
_cell_angle_gamma 90.000000
_cell_volume 799.890070
_symmetry_space_group_name_H-M "C 2"
_symmetry_group_IT_number 5
_symmetry_cell_setting 'monoclinic'
loop_
_space_group_symop_operation_xyz
x,y,z
-x,y,-z
1/2+x,1/2+y,z
1/2-x,1/2+y,-z
loop_
_atom_site_type_symbol
_atom_site_label
_atom_site_fract_x
_atom_site_fract_y
_atom_site_fract_z
Si Si1 0.360831 0.431120 0.610966
Si Si2 0.528820 0.663310 0.802159
Si Si3 0.474008 0.170714 0.781299
Si Si4 0.642674 0.932848 0.797883
Si Si5 0.755106 0.501618 0.788535
O O1 0.426703 0.578840 0.649880
O O2 0.463572 0.316274 0.678480
O O3 0.258000 0.414986 0.719267
O O4 0.307555 0.406461 0.388251
O O5 0.541096 0.815894 0.723016
O O6 0.660226 0.598219 0.846630
O O7 0.500000 0.667193 0.000000
O O8 0.581443 0.080589 0.737558
O O9 0.349182 0.090408 0.711604
O O10 0.500000 0.202830 0.000000
O O11 0.680939 0.914581 0.026236
#
# Coordination Sequence:
#
# PCOD8051422 Si02
#       5
#     4   4   4   4   4
#     4  12  26  49  75 109 151 191 244 309 361 441
#     4  12  24  48  80 106 150 201 240 305 374 437
#     4  10  24  50  74 108 149 190 245 305 366 441
#     4  11  26  52  76 107 148 196 243 303 375 434
#     4  11  25  48  75 110 147 193 248 302 367 440
#
# _framework density 25.003436000000001
#
# number of rings (size 3 to 8) (size 9 to 14) (size 15 to 20)
#    0.000    0.800    4.000    3.000    0.000    4.000 
#   18.000    0.000    0.000    0.000    0.000    0.000 
#    0.000    0.000    0.000    0.000    0.000    0.000 
#
# Total GULP energy -124037.368069 kJ/mol
# GULP energy per Si atom -12403.736807 kJ/mol
# Density = 2.494653 g / cm^3
# Si number density = 25.003436 Si / 1000 Ang^3
#
#
#
# Elastic Constant Matrix: (Units=GPa)
#
#
# Indices 1 2 3 4 5 6 
#
# 1 102.6812 40.2606 46.2057 0.0000 2.9756 0.0000
# 2 40.2606 152.2592 65.5928 0.0000 13.6561 0.0000
# 3 46.2057 65.5928 87.9207 0.0000 7.2502 0.0000
# 4 0.0000 0.0000 0.0000 21.3661 0.0000 5.1587
# 5 2.9756 13.6561 7.2502 0.0000 32.0597 0.0000
# 6 0.0000 0.0000 0.0000 5.1587 0.0000 34.9833
#
#
#
# Elastic Compliance Matrix: (Units=1/GPa)
#
#
# Indices 1 2 3 4 5 6 
#
# 1 0.012817 -0.000761 -0.006213 0.000000 0.000540 0.000000
# 2 -0.000761 0.009930 -0.006792 0.000000 -0.002623 0.000000
# 3 -0.006213 -0.006792 0.019789 0.000000 -0.001005 0.000000
# 4 0.000000 0.000000 0.000000 0.048531 0.000000 -0.007156
# 5 0.000540 -0.002623 -0.001005 0.000000 0.032486 0.000000
# 6 0.000000 0.000000 0.000000 -0.007156 0.000000 0.029640
#
#
# Mechanical properties :
#
#
# Convention : Reuss Voigt Hill
#
# Bulk Modulus (GPa) = 66.64530 71.88659 69.26594
# Shear Modulus (GPa) = 26.92111 30.40196 28.66153
#
# Velocity S-wave (km/s) = 3.28487 3.49077 3.38938
# Velocity P-wave (km/s) = 6.41088 6.71271 6.56353
#
# Compressibility (1/GPa) = 0.01500481
#
# Stress axis : x y z
#
# Youngs Moduli (GPa) = 78.01935 100.70161 50.53313
#
# Poissons Ratio (x) = 0.07665 0.31394
# Poissons Ratio (y) = 0.05939 0.34323
# Poissons Ratio (z) = 0.48470 0.68398
#
# Static dielectric constant tensor:
#      x y z
#    x 4.723330 0.000000 0.041030 
#    y 0.000000 4.505440 0.000000 
#    z 0.041030 0.000000 4.345250 
# 
# 
# High freq. dielectric constant tensor:
#      x y z
#    x 2.015140 0.000000 -0.005600 
#    y 0.000000 1.988740 0.000000 
#    z -0.005600 0.000000 1.995190 
# 
# From -- ./inp_files/18351.got.cif
#   From: 2010.03.12/outbox.cif.g09.slc.cpg/sg5_10_cif.got.tgz:18351.got - 2010.03.31 09:47:26.
