data_PCOD8051773
_publ_section_title
;
Structure prediction by ZEFSAII (Michael W. Deem and Ramdas Pophale) SiO2 
 PCOD8051773
Probable space group: C 2
;
_chemical_formula_sum "Si O2"
_cell_formula_units_Z 30
_cell_length_a 10.759419
_cell_length_b 8.721802
_cell_length_c 21.265832
_cell_angle_alpha 90.000000
_cell_angle_beta 140.027564
_cell_angle_gamma 90.000000
_cell_volume 1282.022958
_symmetry_space_group_name_H-M "C 2"
_symmetry_group_IT_number 5
_symmetry_cell_setting 'monoclinic'
loop_
_space_group_symop_operation_xyz
x,y,z
-x,y,-z
1/2+x,1/2+y,z
1/2-x,1/2+y,-z
loop_
_atom_site_type_symbol
_atom_site_label
_atom_site_fract_x
_atom_site_fract_y
_atom_site_fract_z
Si Si1 0.246614 0.457090 0.438257
Si Si2 0.084368 0.642610 0.665174
Si Si3 0.500000 0.218626 0.500000
Si Si4 0.122212 0.954778 0.745804
Si Si5 0.490270 0.695744 0.603605
Si Si6 0.403259 0.306732 0.026253
Si Si7 0.634129 0.381464 0.238212
Si Si8 0.452850 0.965653 0.048815
O O1 0.321082 0.335491 0.415438
O O2 0.423915 0.566259 0.528512
O O3 0.162359 0.335834 0.457943
O O4 0.065680 0.559198 0.344715
O O5 0.980446 0.619771 0.555737
O O6 0.104932 0.818995 0.688581
O O7 0.285190 0.552395 0.743933
O O8 0.348294 0.991126 0.837184
O O9 0.039942 0.897313 0.780249
O O10 0.006821 0.105368 0.677099
O O11 0.702349 0.766492 0.670458
O O12 0.553449 0.320488 0.141409
O O13 0.357024 0.129041 0.995171
O O14 0.500000 0.378751 0.000000
O O15 0.196638 0.378793 0.963894
O O16 0.500000 0.880964 0.000000
#
# Coordination Sequence:
#
# PCOD8051773 Si02
#       8
#     4   4   2   4   4   4   4   4
#     4  11  23  43  64  92 136 176 233 277 347 401
#     4  11  27  42  65 101 132 184 227 288 343 412
#     4  12  22  42  64  90 136 178 224 278 344 394
#     4  12  24  45  72 102 137 182 237 285 353 419
#     4  11  22  46  65  99 137 181 231 292 338 413
#     4  11  26  48  72 107 142 185 229 294 360 427
#     4  11  26  45  71 103 140 179 237 290 346 424
#     4  11  25  47  73 102 144 185 228 292 364 427
#
# _framework density 23.400514999999999
#
# number of rings (size 3 to 8) (size 9 to 14) (size 15 to 20)
#    0.000    0.800    5.333    0.800    3.733    1.600 
#    4.800    0.000    0.000    0.000    0.000    0.000 
#    0.000    0.000    0.000    0.000    0.000    0.000 
#
# Total GULP energy -185841.575224 kJ/mol
# GULP energy per Si atom -12389.438348 kJ/mol
# Density = 2.334725 g / cm^3
# Si number density = 23.400515 Si / 1000 Ang^3
#
#
#
# Elastic Constant Matrix: (Units=GPa)
#
#
# Indices 1 2 3 4 5 6 
#
# 1 137.9552 37.1997 31.1139 0.0000 8.0307 0.0000
# 2 37.1997 108.2068 24.6917 0.0000 12.7862 0.0000
# 3 31.1139 24.6917 77.3729 0.0000 11.7527 0.0000
# 4 0.0000 0.0000 0.0000 33.6364 0.0000 8.9255
# 5 8.0307 12.7862 11.7527 0.0000 36.4739 0.0000
# 6 0.0000 0.0000 0.0000 8.9255 0.0000 28.1319
#
#
#
# Elastic Compliance Matrix: (Units=1/GPa)
#
#
# Indices 1 2 3 4 5 6 
#
# 1 0.008474 -0.002284 -0.002646 0.000000 -0.000212 0.000000
# 2 -0.002284 0.010823 -0.002140 0.000000 -0.002601 0.000000
# 3 -0.002646 -0.002140 0.015214 0.000000 -0.003569 0.000000
# 4 0.000000 0.000000 0.000000 0.032463 0.000000 -0.010299
# 5 -0.000212 -0.002601 -0.003569 0.000000 0.029526 0.000000
# 6 0.000000 0.000000 0.000000 -0.010299 0.000000 0.038815
#
#
# Mechanical properties :
#
#
# Convention : Reuss Voigt Hill
#
# Bulk Modulus (GPa) = 49.09458 56.61615 52.85536
# Shear Modulus (GPa) = 32.00121 35.01708 33.50914
#
# Velocity S-wave (km/s) = 3.70204 3.87256 3.78826
# Velocity P-wave (km/s) = 6.26890 6.65151 6.46304
#
# Compressibility (1/GPa) = 0.02036885
#
# Stress axis : x y z
#
# Youngs Moduli (GPa) = 118.00963 92.39937 65.73004
#
# Poissons Ratio (x) = 0.21106 0.17395
# Poissons Ratio (y) = 0.26956 0.14067
# Poissons Ratio (z) = 0.31230 0.19774
#
# Static dielectric constant tensor:
#      x y z
#    x 4.219990 0.000000 0.256390 
#    y 0.000000 4.332510 0.000000 
#    z 0.256390 0.000000 3.993310 
# 
# 
# High freq. dielectric constant tensor:
#      x y z
#    x 1.931160 0.000000 0.021000 
#    y 0.000000 1.937680 0.000000 
#    z 0.021000 0.000000 1.906460 
# 
# From -- ./inp_files/68293.got.cif
#   From: 2010.03.12/outbox.cif.g09.slc.cpg/sg5_35_cif.got.tgz:68293.got - 2010.03.31 09:47:26.
