data_PCOD8051965
_publ_section_title
;
Structure prediction by ZEFSAII (Michael W. Deem and Ramdas Pophale) SiO2 
 PCOD8051965
Probable space group: C 2
;
_chemical_formula_sum "Si O2"
_cell_formula_units_Z 32
_cell_length_a 27.993490
_cell_length_b 11.389752
_cell_length_c 8.649251
_cell_angle_alpha 90.000000
_cell_angle_beta 32.267413
_cell_angle_gamma 90.000000
_cell_volume 1472.266967
_symmetry_space_group_name_H-M "C 2"
_symmetry_group_IT_number 5
_symmetry_cell_setting 'monoclinic'
loop_
_space_group_symop_operation_xyz
x,y,z
-x,y,-z
1/2+x,1/2+y,z
1/2-x,1/2+y,-z
loop_
_atom_site_type_symbol
_atom_site_label
_atom_site_fract_x
_atom_site_fract_y
_atom_site_fract_z
Si Si1 0.163748 0.429280 0.116031
Si Si2 0.758164 0.799566 0.300193
Si Si3 0.087124 0.638286 0.173241
Si Si4 0.591736 0.679017 0.345563
Si Si5 0.591764 0.154600 0.801250
Si Si6 0.239415 0.537744 0.203377
Si Si7 0.901793 0.132908 0.321221
Si Si8 0.676240 0.385719 0.544366
O O1 0.099980 0.500726 0.174293
O O2 0.108340 0.317545 0.328932
O O3 0.188077 0.526507 0.180380
O O4 0.250721 0.383370 0.789846
O O5 0.660687 0.739916 0.563517
O O6 0.780833 0.842545 0.411125
O O7 0.769257 0.907063 0.155727
O O8 0.823586 0.709872 0.032074
O O9 0.000000 0.688770 0.500000
O O10 0.078455 0.656194 0.017662
O O11 0.500000 0.657727 0.500000
O O12 0.591860 0.615341 0.511372
O O13 0.675112 0.623147 0.025788
O O14 0.674788 0.077306 0.518852
O O15 0.602493 0.287100 0.704301
O O16 0.500000 0.095884 0.000000
O O17 0.868969 0.013767 0.325705
O O18 0.000000 0.167781 0.000000
#
# Coordination Sequence:
#
# PCOD8051965 Si02
#       8
#     4   4   4   4   4   4   4   4
#     4  12  23  46  74  97 140 187 235 294 358 418
#     4  11  26  45  71 103 136 191 233 286 360 421
#     4  11  24  45  71 102 139 179 232 291 353 423
#     4  12  28  46  72 108 142 190 239 296 362 430
#     4  11  25  44  70 106 136 182 236 289 353 426
#     4  12  25  45  71  99 142 183 237 290 351 424
#     4  12  27  49  70 105 149 187 237 299 358 431
#     4  11  24  44  76  98 139 188 235 290 360 420
#
# _framework density 21.735188000000001
#
# number of rings (size 3 to 8) (size 9 to 14) (size 15 to 20)
#    0.000    0.500    5.000    2.250    5.250    2.000 
#    4.500    0.000    0.000    0.000    0.000    0.000 
#    0.000    0.000    0.000    0.000    0.000    0.000 
#
# Total GULP energy -198357.602094 kJ/mol
# GULP energy per Si atom -12397.350131 kJ/mol
# Density = 2.168572 g / cm^3
# Si number density = 21.735188 Si / 1000 Ang^3
#
#
#
# Elastic Constant Matrix: (Units=GPa)
#
#
# Indices 1 2 3 4 5 6 
#
# 1 81.9530 35.0774 49.9112 0.0000 -7.5161 0.0000
# 2 35.0774 109.0032 31.8768 0.0000 -6.8387 0.0000
# 3 49.9112 31.8768 161.9302 0.0000 -5.1970 0.0000
# 4 0.0000 0.0000 0.0000 20.2790 0.0000 11.2817
# 5 -7.5161 -6.8387 -5.1970 0.0000 40.8761 0.0000
# 6 0.0000 0.0000 0.0000 11.2817 0.0000 38.7482
#
#
#
# Elastic Compliance Matrix: (Units=1/GPa)
#
#
# Indices 1 2 3 4 5 6 
#
# 1 0.016705 -0.004001 -0.004302 0.000000 0.001855 0.000000
# 2 -0.004001 0.010772 -0.000857 0.000000 0.000958 0.000000
# 3 -0.004302 -0.000857 0.007671 0.000000 0.000041 0.000000
# 4 0.000000 0.000000 0.000000 0.058843 0.000000 -0.017133
# 5 0.001855 0.000958 0.000041 0.000000 0.024971 0.000000
# 6 0.000000 0.000000 0.000000 -0.017133 0.000000 0.030796
#
#
# Mechanical properties :
#
#
# Convention : Reuss Voigt Hill
#
# Bulk Modulus (GPa) = 59.41986 65.17968 62.29977
# Shear Modulus (GPa) = 28.78747 35.71539 32.25143
#
# Velocity S-wave (km/s) = 3.64327 4.05805 3.85624
# Velocity P-wave (km/s) = 6.71530 7.21181 6.96798
#
# Compressibility (1/GPa) = 0.01682939
#
# Stress axis : x y z
#
# Youngs Moduli (GPa) = 59.86357 92.83148 130.35589
#
# Poissons Ratio (x) = 0.37144 0.56074
# Poissons Ratio (y) = 0.23953 0.11166
# Poissons Ratio (z) = 0.25751 0.07951
#
# Static dielectric constant tensor:
#      x y z
#    x 4.012960 0.000000 0.091500 
#    y 0.000000 4.065430 0.000000 
#    z 0.091500 0.000000 3.657010 
# 
# 
# High freq. dielectric constant tensor:
#      x y z
#    x 1.859080 0.000000 0.000180 
#    y 0.000000 1.862110 0.000000 
#    z 0.000180 0.000000 1.863030 
# 
# From -- ./inp_files/32629.got.cif
#   From: 2010.03.12/outbox.cif.g09.slc.cpg/sg5_17_cif.got.tgz:32629.got - 2010.03.31 09:47:26.
