data_PCOD8051309
_publ_section_title
;
Structure prediction by ZEFSAII (Michael W. Deem and Ramdas Pophale) SiO2 
 PCOD8051309
Probable space group: C 2
;
_chemical_formula_sum "Si O2"
_cell_formula_units_Z 22
_cell_length_a 16.048427
_cell_length_b 11.030203
_cell_length_c 13.169782
_cell_angle_alpha 90.000000
_cell_angle_beta 25.117661
_cell_angle_gamma 90.000000
_cell_volume 989.578609
_symmetry_space_group_name_H-M "C 2"
_symmetry_group_IT_number 5
_symmetry_cell_setting 'monoclinic'
loop_
_space_group_symop_operation_xyz
x,y,z
-x,y,-z
1/2+x,1/2+y,z
1/2-x,1/2+y,-z
loop_
_atom_site_type_symbol
_atom_site_label
_atom_site_fract_x
_atom_site_fract_y
_atom_site_fract_z
Si Si1 0.275373 0.314660 0.763925
Si Si2 0.835572 0.109915 0.255252
Si Si3 0.208650 0.080601 0.214361
Si Si4 0.000000 0.754254 0.000000
Si Si5 0.115095 0.381795 0.477610
Si Si6 0.076628 0.195040 0.164793
O O1 0.500000 0.334966 0.500000
O O2 0.194345 0.247014 0.753745
O O3 0.193678 0.450721 0.867833
O O4 0.238087 0.233814 0.904373
O O5 0.901470 0.125710 0.299143
O O6 0.638854 0.026905 0.470179
O O7 0.000000 0.048506 0.000000
O O8 0.376960 0.175357 0.056348
O O9 0.169154 0.095889 0.138012
O O10 0.000000 0.107422 0.500000
O O11 0.838480 0.833689 0.236629
O O12 0.000000 0.358435 0.500000
O O13 0.994870 0.316015 0.698720
#
# Coordination Sequence:
#
# PCOD8051309 Si02
#       6
#     4   4   4   2   4   4
#     4  10  25  45  67  96 143 182 222 281 343 401
#     4  10  24  44  68  98 143 182 223 278 347 399
#     4  11  24  45  70 103 141 174 232 283 338 411
#     4  12  22  40  74  98 136 184 210 288 348 380
#     4  12  24  45  72 103 139 176 233 284 338 411
#     4  11  24  43  66 109 130 177 238 277 330 415
#
# _framework density 22.231684999999999
#
# number of rings (size 3 to 8) (size 9 to 14) (size 15 to 20)
#    0.000    1.091    4.545    0.545    3.818   11.636 
#    0.000    0.000    0.000    0.000    0.000    0.000 
#    0.000    0.000    0.000    0.000    0.000    0.000 
#
# Total GULP energy -136352.486585 kJ/mol
# GULP energy per Si atom -12395.680599 kJ/mol
# Density = 2.218109 g / cm^3
# Si number density = 22.231685 Si / 1000 Ang^3
#
#
#
# Elastic Constant Matrix: (Units=GPa)
#
#
# Indices 1 2 3 4 5 6 
#
# 1 157.4063 50.2989 17.4545 -0.0004 6.0160 0.0002
# 2 50.2989 122.9013 13.3141 0.0004 -3.9891 0.0008
# 3 17.4545 13.3141 40.0930 0.0005 -4.5348 0.0011
# 4 -0.0004 0.0004 0.0005 16.2073 0.0003 -21.1122
# 5 6.0160 -3.9891 -4.5348 0.0003 31.4548 -0.0004
# 6 0.0002 0.0008 0.0011 -21.1122 -0.0004 34.9049
#
#
#
# Elastic Compliance Matrix: (Units=1/GPa)
#
#
# Indices 1 2 3 4 5 6 
#
# 1 0.007662 -0.002924 -0.002615 0.000002 -0.002213 0.000002
# 2 -0.002924 0.009571 -0.001733 -0.000002 0.001523 -0.000001
# 3 -0.002615 -0.001733 0.027130 -0.000009 0.004192 -0.000006
# 4 0.000002 -0.000002 -0.000009 0.290897 -0.000003 0.175949
# 5 -0.002213 0.001523 0.004192 -0.000003 0.033012 -0.000001
# 6 0.000002 -0.000001 -0.000006 0.175949 -0.000001 0.135071
#
#
# Mechanical properties :
#
#
# Convention : Reuss Voigt Hill
#
# Bulk Modulus (GPa) = 33.53626 53.61506 43.57566
# Shear Modulus (GPa) = 9.47280 32.46894 20.97087
#
# Velocity S-wave (km/s) = 2.06645 3.82577 3.07463
# Velocity P-wave (km/s) = 4.56193 6.60940 5.67871
#
# Compressibility (1/GPa) = 0.02981847
#
# Stress axis : x y z
#
# Youngs Moduli (GPa) = 130.51426 104.48681 36.85969
#
# Poissons Ratio (x) = 0.30555 0.09638
# Poissons Ratio (y) = 0.38167 0.06387
# Poissons Ratio (z) = 0.34128 0.18106
#
# Static dielectric constant tensor:
#      x y z
#    x 4.054640 0.000000 -0.549050 
#    y 0.000000 4.363090 -0.000010 
#    z -0.549050 -0.000010 5.529150 
# 
# 
# High freq. dielectric constant tensor:
#      x y z
#    x 1.873030 0.000000 -0.006740 
#    y 0.000000 1.889310 0.000000 
#    z -0.006740 0.000000 1.865340 
# 
# From -- ./inp_files/42658.got.cif
#   From: 2010.03.12/outbox.cif.g09.slc.cpg/sg5_22_cif.got.tgz:42658.got - 2010.03.31 09:47:26.
