data_PCOD8051872
_publ_section_title
;
Structure prediction by ZEFSAII (Michael W. Deem and Ramdas Pophale) SiO2 
 PCOD8051872
Probable space group: C 2
;
_chemical_formula_sum "Si O2"
_cell_formula_units_Z 20
_cell_length_a 18.824851
_cell_length_b 9.716117
_cell_length_c 12.949358
_cell_angle_alpha 90.000000
_cell_angle_beta 159.185231
_cell_angle_gamma 90.000000
_cell_volume 841.639862
_symmetry_space_group_name_H-M "C 2"
_symmetry_group_IT_number 5
_symmetry_cell_setting 'monoclinic'
loop_
_space_group_symop_operation_xyz
x,y,z
-x,y,-z
1/2+x,1/2+y,z
1/2-x,1/2+y,-z
loop_
_atom_site_type_symbol
_atom_site_label
_atom_site_fract_x
_atom_site_fract_y
_atom_site_fract_z
Si Si1 0.644739 0.682200 0.101735
Si Si2 0.069735 0.383917 0.325112
Si Si3 0.043283 0.941927 0.273140
Si Si4 0.001617 0.156418 0.626243
Si Si5 0.946883 0.668731 0.236300
O O1 0.881116 0.686978 0.444728
O O2 0.500000 0.715367 0.000000
O O3 0.610622 0.803022 0.973899
O O4 0.585712 0.531563 0.981191
O O5 0.267872 0.374727 0.526891
O O6 0.094035 0.303749 0.468974
O O7 0.014732 0.542973 0.256904
O O8 0.914034 0.809348 0.128414
O O9 0.112286 0.032015 0.467974
O O10 0.000000 0.139727 0.500000
O O11 0.226574 0.136716 0.979601
#
# Coordination Sequence:
#
# PCOD8051872 Si02
#       5
#     4   4   4   4   4
#     4  11  23  44  73 107 147 192 252 306 366 446
#     4  11  24  47  73 108 147 199 250 298 371 454
#     4  11  24  47  73 108 147 199 250 298 371 454
#     4  11  28  48  72 114 154 191 249 315 381 435
#     4  12  25  45  74 105 149 195 243 314 376 428
#
# _framework density 23.763131999999999
#
# number of rings (size 3 to 8) (size 9 to 14) (size 15 to 20)
#    0.000    0.800    4.000    2.400    5.600    3.200 
#    0.000    3.000    0.000    0.000    0.000    0.000 
#    0.000    0.000    0.000    0.000    0.000    0.000 
#
# Total GULP energy -123951.864133 kJ/mol
# GULP energy per Si atom -12395.186413 kJ/mol
# Density = 2.370905 g / cm^3
# Si number density = 23.763132 Si / 1000 Ang^3
#
#
#
# Elastic Constant Matrix: (Units=GPa)
#
#
# Indices 1 2 3 4 5 6 
#
# 1 112.3839 7.6205 9.5316 0.0000 3.4143 0.0000
# 2 7.6205 113.8930 -15.2147 0.0000 -3.4678 0.0000
# 3 9.5316 -15.2147 106.6270 0.0000 1.2478 0.0000
# 4 0.0000 0.0000 0.0000 31.5526 0.0000 -0.5598
# 5 3.4143 -3.4678 1.2478 0.0000 25.5901 0.0000
# 6 0.0000 0.0000 0.0000 -0.5598 0.0000 51.8951
#
#
#
# Elastic Compliance Matrix: (Units=1/GPa)
#
#
# Indices 1 2 3 4 5 6 
#
# 1 0.009065 -0.000766 -0.000905 0.000000 -0.001269 0.000000
# 2 -0.000766 0.009050 0.001345 0.000000 0.001263 0.000000
# 3 -0.000905 0.001345 0.009653 0.000000 -0.000168 0.000000
# 4 0.000000 0.000000 0.000000 0.031699 0.000000 0.000342
# 5 -0.001269 0.001263 -0.000168 0.000000 0.039426 0.000000
# 6 0.000000 0.000000 0.000000 0.000342 0.000000 0.019273
#
#
# Mechanical properties :
#
#
# Convention : Reuss Voigt Hill
#
# Bulk Modulus (GPa) = 36.87818 37.41987 37.14902
# Shear Modulus (GPa) = 39.10603 43.87199 41.48901
#
# Velocity S-wave (km/s) = 4.06107 4.30143 4.18298
# Velocity P-wave (km/s) = 6.12720 6.36010 6.24474
#
# Compressibility (1/GPa) = 0.02711630
#
# Stress axis : x y z
#
# Youngs Moduli (GPa) = 110.31049 110.50260 103.59204
#
# Poissons Ratio (x) = 0.08465 0.09373
# Poissons Ratio (y) = 0.08451 -0.13933
# Poissons Ratio (z) = 0.09981 -0.14863
#
# Static dielectric constant tensor:
#      x y z
#    x 4.522910 0.000000 0.150360 
#    y 0.000000 4.419560 0.000000 
#    z 0.150360 0.000000 4.151830 
# 
# 
# High freq. dielectric constant tensor:
#      x y z
#    x 1.953940 0.000000 0.011870 
#    y 0.000000 1.960200 0.000000 
#    z 0.011870 0.000000 1.923660 
# 
# From -- ./inp_files/56864.got.cif
#   From: 2010.03.12/outbox.cif.g09.slc.cpg/sg5_29_cif.got.tgz:56864.got - 2010.03.31 09:47:26.
