data_PCOD8051092
_publ_section_title
;
Structure prediction by ZEFSAII (Michael W. Deem and Ramdas Pophale) SiO2 
 PCOD8051092
Probable space group: C 2
;
_chemical_formula_sum "Si O2"
_cell_formula_units_Z 32
_cell_length_a 13.889159
_cell_length_b 9.411578
_cell_length_c 10.857662
_cell_angle_alpha 90.000000
_cell_angle_beta 87.012266
_cell_angle_gamma 90.000000
_cell_volume 1417.372435
_symmetry_space_group_name_H-M "C 2"
_symmetry_group_IT_number 5
_symmetry_cell_setting 'monoclinic'
loop_
_space_group_symop_operation_xyz
x,y,z
-x,y,-z
1/2+x,1/2+y,z
1/2-x,1/2+y,-z
loop_
_atom_site_type_symbol
_atom_site_label
_atom_site_fract_x
_atom_site_fract_y
_atom_site_fract_z
Si Si1 0.723937 0.232070 0.371448
Si Si2 0.063217 0.348169 0.889400
Si Si3 0.950128 0.937284 0.629571
Si Si4 0.699234 0.103689 0.868040
Si Si5 0.213536 0.419236 0.424718
Si Si6 0.394938 0.716754 0.736671
Si Si7 0.375966 0.375435 0.233611
Si Si8 0.706264 0.623846 0.894535
O O1 0.635051 0.328739 0.343094
O O2 0.797032 0.327909 0.449120
O O3 0.771828 0.188717 0.240670
O O4 0.693373 0.087382 0.447282
O O5 0.146372 0.455900 0.832205
O O6 0.120980 0.221501 0.954625
O O7 0.991509 0.273117 0.796878
O O8 0.000000 0.425432 0.000000
O O9 0.000000 0.894956 0.500000
O O10 0.014794 0.917314 0.747232
O O11 0.921061 0.102969 0.629073
O O12 0.810199 0.132482 0.817959
O O13 0.627567 0.214789 0.811284
O O14 0.703825 0.115047 0.017232
O O15 0.143980 0.359872 0.323382
O O16 0.322414 0.399346 0.368169
O O17 0.330873 0.464568 0.124291
#
# Coordination Sequence:
#
# PCOD8051092 Si02
#       8
#     4   4   4   4   4   4   4   4
#     4  11  24  42  72 100 138 187 231 294 368 428
#     4  12  25  43  69 103 143 184 240 298 363 437
#     4  12  24  44  67 100 140 182 238 295 356 431
#     4  11  25  45  72 102 143 186 237 301 365 433
#     4  10  23  43  68  96 137 180 233 283 358 426
#     4  11  25  45  70 103 140 190 238 300 362 432
#     4  10  23  43  67  96 138 179 227 290 351 426
#     4  11  23  45  69 101 138 186 237 291 367 435
#
# _framework density 22.576988
#
# number of rings (size 3 to 8) (size 9 to 14) (size 15 to 20)
#    0.000    1.000    3.750    2.250    7.000    1.000 
#    0.000    2.500    0.000    0.000    0.000    0.000 
#    0.000    0.000    0.000    0.000    0.000    0.000 
#
# Total GULP energy -198269.260952 kJ/mol
# GULP energy per Si atom -12391.828809 kJ/mol
# Density = 2.252560 g / cm^3
# Si number density = 22.576988 Si / 1000 Ang^3
#
#
#
# Elastic Constant Matrix: (Units=GPa)
#
#
# Indices 1 2 3 4 5 6 
#
# 1 99.7554 44.7221 19.6041 0.0000 18.9441 0.0000
# 2 44.7221 137.1282 23.1378 0.0000 19.3414 0.0000
# 3 19.6041 23.1378 62.7366 0.0000 13.9249 0.0000
# 4 0.0000 0.0000 0.0000 31.6433 0.0000 5.9339
# 5 18.9441 19.3414 13.9249 0.0000 17.2229 0.0000
# 6 0.0000 0.0000 0.0000 5.9339 0.0000 39.7486
#
#
#
# Elastic Compliance Matrix: (Units=1/GPa)
#
#
# Indices 1 2 3 4 5 6 
#
# 1 0.013513 -0.002698 -0.000732 0.000000 -0.011241 0.000000
# 2 -0.002698 0.009286 -0.001128 0.000000 -0.006549 0.000000
# 3 -0.000732 -0.001128 0.019651 0.000000 -0.013815 0.000000
# 4 0.000000 0.000000 0.000000 0.032512 0.000000 -0.004854
# 5 -0.011241 -0.006549 -0.013815 0.000000 0.088951 0.000000
# 6 0.000000 0.000000 0.000000 -0.004854 0.000000 0.025883
#
#
# Mechanical properties :
#
#
# Convention : Reuss Voigt Hill
#
# Bulk Modulus (GPa) = 30.00012 52.72758 41.36385
# Shear Modulus (GPa) = 23.80671 31.86672 27.83671
#
# Velocity S-wave (km/s) = 3.25078 3.76103 3.51517
# Velocity P-wave (km/s) = 5.23516 6.50121 5.90223
#
# Compressibility (1/GPa) = 0.03333320
#
# Stress axis : x y z
#
# Youngs Moduli (GPa) = 74.00429 107.68458 50.88778
#
# Poissons Ratio (x) = 0.29051 0.03727
# Poissons Ratio (y) = 0.19965 0.05742
# Poissons Ratio (z) = 0.05420 0.12150
#
# Static dielectric constant tensor:
#      x y z
#    x 4.058710 0.000000 0.062740 
#    y 0.000000 4.230220 0.000000 
#    z 0.062740 0.000000 3.882970 
# 
# 
# High freq. dielectric constant tensor:
#      x y z
#    x 1.883820 0.000000 0.017640 
#    y 0.000000 1.903420 0.000000 
#    z 0.017640 0.000000 1.883760 
# 
# From -- ./inp_files/41961.got.cif
#   From: 2010.03.12/outbox.cif.g09.slc.cpg/sg5_21_cif.got.tgz:41961.got - 2010.03.31 09:47:26.
