data_PCOD8051159
_publ_section_title
;
Structure prediction by ZEFSAII (Michael W. Deem and Ramdas Pophale) SiO2 
 PCOD8051159
Probable space group: C 2
;
_chemical_formula_sum "Si O2"
_cell_formula_units_Z 20
_cell_length_a 18.922791
_cell_length_b 6.566339
_cell_length_c 7.666572
_cell_angle_alpha 90.000000
_cell_angle_beta 61.142682
_cell_angle_gamma 90.000000
_cell_volume 834.308566
_symmetry_space_group_name_H-M "C 2"
_symmetry_group_IT_number 5
_symmetry_cell_setting 'monoclinic'
loop_
_space_group_symop_operation_xyz
x,y,z
-x,y,-z
1/2+x,1/2+y,z
1/2-x,1/2+y,-z
loop_
_atom_site_type_symbol
_atom_site_label
_atom_site_fract_x
_atom_site_fract_y
_atom_site_fract_z
Si Si1 0.519925 0.650500 0.291987
Si Si2 0.349285 0.981658 0.866211
Si Si3 0.731976 0.294626 0.266153
Si Si4 0.915114 0.812838 0.031536
Si Si5 0.847763 0.082545 0.388050
O O1 0.500000 0.542377 0.500000
O O2 0.434041 0.697980 0.301696
O O3 0.570057 0.855018 0.272018
O O4 0.573867 0.501716 0.112424
O O5 0.324112 0.100375 0.718678
O O6 0.367589 0.134376 0.999358
O O7 0.278685 0.840337 0.029453
O O8 0.788004 0.238708 0.364397
O O9 0.682803 0.496375 0.387590
O O10 0.858988 0.882155 0.256982
O O11 0.000000 0.729330 0.000000
#
# Coordination Sequence:
#
# PCOD8051159 Si02
#       5
#     4   4   4   4   4
#     4  11  26  45  74 105 152 196 256 299 369 447
#     4  12  27  46  75 106 152 201 243 310 378 447
#     4  12  27  44  79 108 155 193 254 306 387 437
#     4  10  23  45  72 106 146 191 254 308 358 443
#     4  11  25  47  74 109 149 197 250 313 367 451
#
# _framework density 23.971945999999999
#
# number of rings (size 3 to 8) (size 9 to 14) (size 15 to 20)
#    0.000    0.800    2.000    3.600    8.400    4.000 
#    0.000    0.000    0.000    0.000    0.000    0.000 
#    0.000    0.000    0.000    0.000    0.000    0.000 
#
# Total GULP energy -124031.624834 kJ/mol
# GULP energy per Si atom -12403.162483 kJ/mol
# Density = 2.391738 g / cm^3
# Si number density = 23.971946 Si / 1000 Ang^3
#
#
#
# Elastic Constant Matrix: (Units=GPa)
#
#
# Indices 1 2 3 4 5 6 
#
# 1 62.5309 44.6149 19.4566 0.0000 -3.9664 0.0000
# 2 44.6149 66.6868 10.1111 0.0000 -8.3370 0.0000
# 3 19.4566 10.1111 96.5875 0.0000 -1.5474 0.0000
# 4 0.0000 0.0000 0.0000 35.8064 0.0000 15.5315
# 5 -3.9664 -8.3370 -1.5474 0.0000 36.7673 0.0000
# 6 0.0000 0.0000 0.0000 15.5315 0.0000 55.7170
#
#
#
# Elastic Compliance Matrix: (Units=1/GPa)
#
#
# Indices 1 2 3 4 5 6 
#
# 1 0.032350 -0.021174 -0.004324 0.000000 -0.001493 0.000000
# 2 -0.021174 0.029531 0.001245 0.000000 0.004464 0.000000
# 3 -0.004324 0.001245 0.011098 0.000000 0.000283 0.000000
# 4 0.000000 0.000000 0.000000 0.031769 0.000000 -0.008856
# 5 -0.001493 0.004464 0.000283 0.000000 0.028061 0.000000
# 6 0.000000 0.000000 0.000000 -0.008856 0.000000 0.020416
#
#
# Mechanical properties :
#
#
# Convention : Reuss Voigt Hill
#
# Bulk Modulus (GPa) = 40.85941 41.57449 41.21695
# Shear Modulus (GPa) = 23.82207 35.76632 29.79420
#
# Velocity S-wave (km/s) = 3.15580 3.86684 3.52927
# Velocity P-wave (km/s) = 5.51003 6.10878 5.81712
#
# Compressibility (1/GPa) = 0.02447416
#
# Stress axis : x y z
#
# Youngs Moduli (GPa) = 30.91177 33.86311 90.10237
#
# Poissons Ratio (x) = 0.71702 0.38960
# Poissons Ratio (y) = 0.65453 -0.11222
# Poissons Ratio (z) = 0.13366 -0.04217
#
# Static dielectric constant tensor:
#      x y z
#    x 4.525390 0.000000 0.018870 
#    y 0.000000 4.102310 0.000000 
#    z 0.018870 0.000000 4.407530 
# 
# 
# High freq. dielectric constant tensor:
#      x y z
#    x 1.969510 0.000000 -0.000290 
#    y 0.000000 1.931690 0.000000 
#    z -0.000290 0.000000 1.956190 
# 
# From -- ./inp_files/28268.got.cif
#   From: 2010.03.12/outbox.cif.g09.slc.cpg/sg5_15_cif.got.tgz:28268.got - 2010.03.31 09:47:26.
