data_PCOD8051537
_publ_section_title
;
Structure prediction by ZEFSAII (Michael W. Deem and Ramdas Pophale) SiO2 
 PCOD8051537
Probable space group: C 2
;
_chemical_formula_sum "Si O2"
_cell_formula_units_Z 28
_cell_length_a 5.446254
_cell_length_b 13.786405
_cell_length_c 17.609073
_cell_angle_alpha 90.000000
_cell_angle_beta 121.770466
_cell_angle_gamma 90.000000
_cell_volume 1124.056743
_symmetry_space_group_name_H-M "C 2"
_symmetry_group_IT_number 5
_symmetry_cell_setting 'monoclinic'
loop_
_space_group_symop_operation_xyz
x,y,z
-x,y,-z
1/2+x,1/2+y,z
1/2-x,1/2+y,-z
loop_
_atom_site_type_symbol
_atom_site_label
_atom_site_fract_x
_atom_site_fract_y
_atom_site_fract_z
Si Si1 0.724120 0.959590 0.103179
Si Si2 0.697369 0.266456 0.810235
Si Si3 0.726419 0.700359 0.333578
Si Si4 0.814938 0.585974 0.766469
Si Si5 0.152737 0.340208 0.447493
Si Si6 0.189263 0.551363 0.411574
Si Si7 0.846664 0.147668 0.054731
O O1 0.892378 0.863436 0.158871
O O2 0.580639 0.003117 0.157423
O O3 0.937658 0.042768 0.105487
O O4 0.500000 0.931061 0.000000
O O5 0.653273 0.273936 0.711936
O O6 0.520357 0.176911 0.815108
O O7 0.035766 0.239297 0.878093
O O8 0.508370 0.620554 0.263913
O O9 0.551375 0.762783 0.367699
O O10 0.996453 0.640135 0.411838
O O11 0.808053 0.548794 0.679161
O O12 0.500000 0.336358 0.500000
O O13 0.047484 0.449187 0.413504
O O14 0.000000 0.305763 0.500000
O O15 0.500000 0.565191 0.500000
O O16 0.500000 0.152298 0.000000
O O17 0.000000 0.156312 0.000000
#
# Coordination Sequence:
#
# PCOD8051537 Si02
#       7
#     4   4   4   4   4   4   4
#     4  11  24  47  75 110 150 205 258 315 389 453
#     4  11  24  48  71 108 149 203 251 320 389 452
#     4  11  26  45  76 106 156 204 252 321 388 454
#     4  11  25  47  74 111 158 199 258 323 377 466
#     4  11  28  47  72 114 150 193 261 315 372 464
#     4  10  26  48  79 109 152 206 257 318 388 456
#     4  11  24  48  75 107 150 192 258 323 381 460
#
# _framework density 24.909775
#
# number of rings (size 3 to 8) (size 9 to 14) (size 15 to 20)
#    0.000    1.143    1.429    3.000   10.000    1.143 
#    7.714    2.857    0.000    0.000    0.000    0.000 
#    0.000    0.000    0.000    0.000    0.000    0.000 
#
# Total GULP energy -173520.119857 kJ/mol
# GULP energy per Si atom -12394.294276 kJ/mol
# Density = 2.485308 g / cm^3
# Si number density = 24.909775 Si / 1000 Ang^3
#
#
#
# Elastic Constant Matrix: (Units=GPa)
#
#
# Indices 1 2 3 4 5 6 
#
# 1 102.0767 26.2483 41.4764 0.0000 -11.9620 0.0000
# 2 26.2483 126.5196 56.8891 0.0000 -3.6054 0.0000
# 3 41.4764 56.8891 126.1135 0.0000 -21.2538 0.0000
# 4 0.0000 0.0000 0.0000 47.8194 0.0000 -5.7810
# 5 -11.9620 -3.6054 -21.2538 0.0000 37.4609 0.0000
# 6 0.0000 0.0000 0.0000 -5.7810 0.0000 31.9098
#
#
#
# Elastic Compliance Matrix: (Units=1/GPa)
#
#
# Indices 1 2 3 4 5 6 
#
# 1 0.011495 -0.000969 -0.003030 0.000000 0.001858 0.000000
# 2 -0.000969 0.010102 -0.004563 0.000000 -0.001926 0.000000
# 3 -0.003030 -0.004563 0.011883 0.000000 0.005335 0.000000
# 4 0.000000 0.000000 0.000000 0.021380 0.000000 0.003873
# 5 0.001858 -0.001926 0.005335 0.000000 0.030130 0.000000
# 6 0.000000 0.000000 0.000000 0.003873 0.000000 0.032040
#
#
# Mechanical properties :
#
#
# Convention : Reuss Voigt Hill
#
# Bulk Modulus (GPa) = 61.14063 67.10416 64.12239
# Shear Modulus (GPa) = 35.81528 38.77778 37.29653
#
# Velocity S-wave (km/s) = 3.79595 3.94982 3.87365
# Velocity P-wave (km/s) = 6.61894 6.91367 6.76791
#
# Compressibility (1/GPa) = 0.01635574
#
# Stress axis : x y z
#
# Youngs Moduli (GPa) = 86.99642 98.99327 84.15250
#
# Poissons Ratio (x) = 0.09596 0.25498
# Poissons Ratio (y) = 0.08433 0.38395
# Poissons Ratio (z) = 0.26360 0.45167
#
# Static dielectric constant tensor:
#      x y z
#    x 4.407690 0.000000 0.157620 
#    y 0.000000 4.606860 0.000000 
#    z 0.157620 0.000000 4.960890 
# 
# 
# High freq. dielectric constant tensor:
#      x y z
#    x 1.978050 0.000000 -0.012750 
#    y 0.000000 1.992160 0.000000 
#    z -0.012750 0.000000 2.009960 
# 
# From -- ./inp_files/58918.got.cif
#   From: 2010.03.12/outbox.cif.g09.slc.cpg/sg5_30_cif.got.tgz:58918.got - 2010.03.31 09:47:26.
