data_PCOD8051423
_publ_section_title
;
Structure prediction by ZEFSAII (Michael W. Deem and Ramdas Pophale) SiO2 
 PCOD8051423
Probable space group: C 2
;
_chemical_formula_sum "Si O2"
_cell_formula_units_Z 16
_cell_length_a 10.833218
_cell_length_b 10.073236
_cell_length_c 9.946584
_cell_angle_alpha 90.000000
_cell_angle_beta 37.503592
_cell_angle_gamma 90.000000
_cell_volume 660.819811
_symmetry_space_group_name_H-M "C 2"
_symmetry_group_IT_number 5
_symmetry_cell_setting 'monoclinic'
loop_
_space_group_symop_operation_xyz
x,y,z
-x,y,-z
1/2+x,1/2+y,z
1/2-x,1/2+y,-z
loop_
_atom_site_type_symbol
_atom_site_label
_atom_site_fract_x
_atom_site_fract_y
_atom_site_fract_z
Si Si1 0.620603 0.078810 0.772328
Si Si2 0.277115 0.846606 0.746085
Si Si3 0.808403 0.728581 0.894428
Si Si4 0.500000 0.408283 0.500000
Si Si5 0.500000 0.578184 0.000000
O O1 0.665280 0.231421 0.763822
O O2 0.461100 0.100941 0.787242
O O3 0.500000 0.009963 0.000000
O O4 0.829230 0.997907 0.570664
O O5 0.500000 0.853519 0.500000
O O6 0.251863 0.819031 0.926559
O O7 0.175728 0.984555 0.787847
O O8 0.900091 0.819372 0.699425
O O9 0.592083 0.669730 0.037039
#
# Coordination Sequence:
#
# PCOD8051423 Si02
#       5
#     4   4   4   2   2
#     4  10  24  50  77 109 143 196 246 301 370 430
#     4  11  25  51  77 105 147 197 243 306 367 426
#     4  11  29  48  73 113 149 195 244 301 368 438
#     4  12  28  50  74 112 150 194 242 306 370 432
#     4  12  28  50  72 114 152 192 248 300 368 438
#
# _framework density 24.212347999999999
#
# number of rings (size 3 to 8) (size 9 to 14) (size 15 to 20)
#    0.000    1.000    5.000    0.000   10.500    6.000 
#    0.000    0.000    0.000    0.000    0.000    0.000 
#    0.000    0.000    0.000    0.000    0.000    0.000 
#
# Total GULP energy -99144.331506 kJ/mol
# GULP energy per Si atom -12393.041438 kJ/mol
# Density = 2.415724 g / cm^3
# Si number density = 24.212348 Si / 1000 Ang^3
#
#
#
# Elastic Constant Matrix: (Units=GPa)
#
#
# Indices 1 2 3 4 5 6 
#
# 1 170.3582 60.7193 62.7510 -0.0001 -20.3071 0.0001
# 2 60.7193 100.4265 49.8941 0.0000 -0.4624 0.0000
# 3 62.7510 49.8941 159.0447 -0.0001 -14.8614 0.0001
# 4 -0.0001 0.0000 -0.0001 6.9011 0.0001 5.7669
# 5 -20.3071 -0.4624 -14.8614 0.0001 37.6273 -0.0001
# 6 0.0001 0.0000 0.0001 5.7669 -0.0001 6.9443
#
#
#
# Elastic Compliance Matrix: (Units=1/GPa)
#
#
# Indices 1 2 3 4 5 6 
#
# 1 0.008460 -0.004287 -0.001632 0.000000 0.003869 0.000000
# 2 -0.004287 0.014036 -0.003024 0.000000 -0.003335 0.000000
# 3 -0.001632 -0.003024 0.008093 0.000000 0.002279 0.000000
# 4 0.000000 0.000000 0.000000 0.473507 -0.000002 -0.393225
# 5 0.003869 -0.003335 0.002279 -0.000002 0.029523 0.000002
# 6 0.000000 0.000000 0.000000 -0.393225 0.000002 0.470557
#
#
# Mechanical properties :
#
#
# Convention : Reuss Voigt Hill
#
# Bulk Modulus (GPa) = 78.70845 86.28424 82.49635
# Shear Modulus (GPa) = 4.87189 27.39220 16.13205
#
# Velocity S-wave (km/s) = 1.42004 3.36718 2.58403
# Velocity P-wave (km/s) = 5.93859 7.12959 6.56117
#
# Compressibility (1/GPa) = 0.01270512
#
# Stress axis : x y z
#
# Youngs Moduli (GPa) = 118.20371 71.24476 123.56696
#
# Poissons Ratio (x) = 0.30540 0.20162
# Poissons Ratio (y) = 0.50669 0.37363
# Poissons Ratio (z) = 0.19287 0.21542
#
# Static dielectric constant tensor:
#      x y z
#    x 6.188520 0.000000 -1.209610 
#    y 0.000000 4.432730 0.000000 
#    z -1.209610 0.000000 5.469150 
# 
# 
# High freq. dielectric constant tensor:
#      x y z
#    x 1.975500 0.000000 -0.025960 
#    y 0.000000 1.966400 0.000000 
#    z -0.025960 0.000000 1.956030 
# 
# From -- ./inp_files/14158.got.cif
#   From: 2010.03.12/outbox.cif.g09.slc.cpg/sg5_8_cif.got.tgz:14158.got - 2010.03.31 09:47:26.
