data_PCOD8051407
_publ_section_title
;
Structure prediction by ZEFSAII (Michael W. Deem and Ramdas Pophale) SiO2 
 PCOD8051407
Probable space group: C 2
;
_chemical_formula_sum "Si O2"
_cell_formula_units_Z 20
_cell_length_a 12.279875
_cell_length_b 7.238332
_cell_length_c 21.637879
_cell_angle_alpha 90.000000
_cell_angle_beta 156.435621
_cell_angle_gamma 90.000000
_cell_volume 768.895609
_symmetry_space_group_name_H-M "C 2"
_symmetry_group_IT_number 5
_symmetry_cell_setting 'monoclinic'
loop_
_space_group_symop_operation_xyz
x,y,z
-x,y,-z
1/2+x,1/2+y,z
1/2-x,1/2+y,-z
loop_
_atom_site_type_symbol
_atom_site_label
_atom_site_fract_x
_atom_site_fract_y
_atom_site_fract_z
Si Si1 0.975542 0.550940 0.153153
Si Si2 0.620504 0.575952 0.350318
Si Si3 0.556538 0.964578 0.730365
Si Si4 0.008274 0.856045 0.403947
Si Si5 0.579619 0.458802 0.192053
O O1 0.203758 0.389183 0.270903
O O2 0.122001 0.739414 0.210489
O O3 0.852917 0.560388 0.158635
O O4 0.737657 0.506958 0.981112
O O5 0.397351 0.741346 0.240048
O O6 0.518473 0.393412 0.334831
O O7 0.678570 0.525981 0.310034
O O8 0.903489 0.649196 0.529247
O O9 0.742819 0.048309 0.771722
O O10 0.231489 0.999299 0.549574
#
# Coordination Sequence:
#
# PCOD8051407 Si02
#       5
#     4   4   4   4   4
#     4  12  25  49  76 112 157 199 251 312 381 456
#     4  10  25  48  78 108 153 197 256 310 384 436
#     4  10  25  48  74 107 152 195 255 314 368 455
#     4  10  24  48  76 108 149 199 255 315 370 448
#     4  12  27  49  76 112 158 201 246 315 385 454
#
# _framework density 26.011334999999999
#
# number of rings (size 3 to 8) (size 9 to 14) (size 15 to 20)
#    1.200    0.000    2.000    2.400    2.800    6.400 
#    7.200    0.000    0.000    0.000    0.000    0.000 
#    0.000    0.000    0.000    0.000    0.000    0.000 
#
# Total GULP energy -123964.242507 kJ/mol
# GULP energy per Si atom -12396.424251 kJ/mol
# Density = 2.595213 g / cm^3
# Si number density = 26.011335 Si / 1000 Ang^3
#
#
#
# Elastic Constant Matrix: (Units=GPa)
#
#
# Indices 1 2 3 4 5 6 
#
# 1 189.7101 40.3617 62.0881 0.0010 -24.0898 0.0014
# 2 40.3617 34.7565 27.9828 0.0028 -3.9285 0.0018
# 3 62.0881 27.9828 119.0286 0.0146 -2.2326 -0.0017
# 4 0.0010 0.0028 0.0146 39.2741 0.0040 -6.2502
# 5 -24.0898 -3.9285 -2.2326 0.0040 47.1028 0.0006
# 6 0.0014 0.0018 -0.0017 -6.2502 0.0006 41.7399
#
#
#
# Elastic Compliance Matrix: (Units=1/GPa)
#
#
# Indices 1 2 3 4 5 6 
#
# 1 0.007978 -0.006885 -0.002479 0.000001 0.003388 0.000000
# 2 -0.006885 0.041744 -0.006228 -0.000001 -0.000335 -0.000002
# 3 -0.002479 -0.006228 0.011135 -0.000003 -0.001260 0.000000
# 4 0.000001 -0.000001 -0.000003 0.026084 -0.000002 0.003906
# 5 0.003388 -0.000335 -0.001260 -0.000002 0.022875 -0.000001
# 6 0.000000 -0.000002 0.000000 0.003906 -0.000001 0.024543
#
#
# Mechanical properties :
#
#
# Convention : Reuss Voigt Hill
#
# Bulk Modulus (GPa) = 33.70283 67.15113 50.42698
# Shear Modulus (GPa) = 28.50061 39.82754 34.16408
#
# Velocity S-wave (km/s) = 3.31373 3.91725 3.62806
# Velocity P-wave (km/s) = 5.25606 6.80676 6.08104
#
# Compressibility (1/GPa) = 0.02967110
#
# Stress axis : x y z
#
# Youngs Moduli (GPa) = 125.34953 23.95549 89.80574
#
# Poissons Ratio (x) = 0.16494 0.22264
# Poissons Ratio (y) = 0.86307 0.55935
# Poissons Ratio (z) = 0.31075 0.14921
#
# Static dielectric constant tensor:
#      x y z
#    x 4.363970 0.000000 -0.198990 
#    y 0.000000 4.617140 0.000000 
#    z -0.198990 0.000000 4.462080 
# 
# 
# High freq. dielectric constant tensor:
#      x y z
#    x 2.042720 0.000000 -0.014880 
#    y 0.000000 2.034920 0.000000 
#    z -0.014880 0.000000 2.034680 
# 
# From -- ./inp_files/60315.got.cif
#   From: 2010.03.12/outbox.cif.g09.slc.cpg/sg5_31_cif.got.tgz:60315.got - 2010.03.31 09:47:26.
