data_PCOD8051440
_publ_section_title
;
Structure prediction by ZEFSAII (Michael W. Deem and Ramdas Pophale) SiO2 
 PCOD8051440
Probable space group: C 2
;
_chemical_formula_sum "Si O2"
_cell_formula_units_Z 32
_cell_length_a 8.389869
_cell_length_b 10.964968
_cell_length_c 29.019132
_cell_angle_alpha 90.000000
_cell_angle_beta 147.422524
_cell_angle_gamma 90.000000
_cell_volume 1437.420807
_symmetry_space_group_name_H-M "C 2"
_symmetry_group_IT_number 5
_symmetry_cell_setting 'monoclinic'
loop_
_space_group_symop_operation_xyz
x,y,z
-x,y,-z
1/2+x,1/2+y,z
1/2-x,1/2+y,-z
loop_
_atom_site_type_symbol
_atom_site_label
_atom_site_fract_x
_atom_site_fract_y
_atom_site_fract_z
Si Si1 0.713923 0.605650 0.149530
Si Si2 0.574980 0.543407 0.267092
Si Si3 0.201538 0.857874 0.868055
Si Si4 0.301431 0.086149 0.546167
Si Si5 0.130136 0.891588 0.958202
Si Si6 0.260576 0.450361 0.277226
Si Si7 0.102341 0.233432 0.844861
Si Si8 0.285000 0.355646 0.539606
O O1 0.837725 0.715288 0.149492
O O2 0.522431 0.521336 0.067991
O O3 0.502005 0.644750 0.139900
O O4 0.003190 0.532389 0.237618
O O5 0.509782 0.427354 0.218879
O O6 0.472495 0.527084 0.295011
O O7 0.405800 0.659961 0.205077
O O8 0.926596 0.566861 0.352410
O O9 0.117670 0.884503 0.899815
O O10 0.544730 0.891071 0.941194
O O11 0.343821 0.219996 0.531072
O O12 0.000000 0.086257 0.500000
O O13 0.290911 0.967802 0.511577
O O14 0.938809 0.781528 0.934011
O O15 0.434827 0.390881 0.361546
O O16 0.120632 0.346440 0.210943
O O17 0.000000 0.332164 0.500000
#
# Coordination Sequence:
#
# PCOD8051440 Si02
#       8
#     4   4   4   4   4   4   4   4
#     4  11  24  43  66  99 133 180 224 283 337 414
#     4  12  23  44  69  99 134 183 223 286 345 403
#     4  11  24  42  68 100 134 179 231 282 338 418
#     4  11  27  44  71 103 139 181 231 285 348 413
#     4  10  25  43  64  99 136 179 225 282 345 399
#     4  11  24  43  69  97 132 179 227 272 346 407
#     4  11  23  43  69  96 136 175 223 283 334 410
#     4  11  24  46  69  99 137 178 225 286 340 414
#
# _framework density 22.262094999999999
#
# number of rings (size 3 to 8) (size 9 to 14) (size 15 to 20)
#    0.000    1.000    5.000    0.750    3.500    2.000 
#    2.250    0.000    0.000    0.000    0.000    0.000 
#    0.000    0.000    0.000    0.000    0.000    0.000 
#
# Total GULP energy -198357.145930 kJ/mol
# GULP energy per Si atom -12397.321621 kJ/mol
# Density = 2.221143 g / cm^3
# Si number density = 22.262095 Si / 1000 Ang^3
#
#
#
# Elastic Constant Matrix: (Units=GPa)
#
#
# Indices 1 2 3 4 5 6 
#
# 1 61.7558 30.0703 8.6313 -0.0001 9.8909 0.0000
# 2 30.0703 169.7315 52.3950 0.0000 3.6255 0.0000
# 3 8.6313 52.3950 99.3547 0.0004 15.8415 0.0001
# 4 -0.0001 0.0000 0.0004 27.8404 0.0000 3.4398
# 5 9.8909 3.6255 15.8415 0.0000 33.3977 0.0000
# 6 0.0000 0.0000 0.0001 3.4398 0.0000 36.9429
#
#
#
# Elastic Compliance Matrix: (Units=1/GPa)
#
#
# Indices 1 2 3 4 5 6 
#
# 1 0.018668 -0.003542 0.001153 0.000000 -0.005691 0.000000
# 2 -0.003542 0.007745 -0.004122 0.000000 0.002163 0.000000
# 3 0.001153 -0.004122 0.013113 0.000000 -0.006114 0.000000
# 4 0.000000 0.000000 0.000000 0.036337 0.000000 -0.003383
# 5 -0.005691 0.002163 -0.006114 0.000000 0.034293 0.000000
# 6 0.000000 0.000000 0.000000 -0.003383 0.000000 0.027384
#
#
# Mechanical properties :
#
#
# Convention : Reuss Voigt Hill
#
# Bulk Modulus (GPa) = 37.72716 57.00393 47.36555
# Shear Modulus (GPa) = 31.36856 35.61924 33.49390
#
# Velocity S-wave (km/s) = 3.75781 4.00433 3.88303
# Velocity P-wave (km/s) = 5.98430 6.85864 6.43633
#
# Compressibility (1/GPa) = 0.02650610
#
# Stress axis : x y z
#
# Youngs Moduli (GPa) = 53.56862 129.11115 76.25900
#
# Poissons Ratio (x) = 0.45728 -0.08796
# Poissons Ratio (y) = 0.18973 0.31432
# Poissons Ratio (z) = -0.06179 0.53216
#
# Static dielectric constant tensor:
#      x y z
#    x 3.790340 0.000000 0.245120 
#    y 0.000000 4.665980 0.000000 
#    z 0.245120 0.000000 4.017550 
# 
# 
# High freq. dielectric constant tensor:
#      x y z
#    x 1.861660 0.000000 0.018800 
#    y 0.000000 1.901860 0.000000 
#    z 0.018800 0.000000 1.876750 
# 
# From -- ./inp_files/71573.got.cif
#   From: 2010.03.12/outbox.cif.g09.slc.cpg/sg5_36_cif.got.tgz:71573.got - 2010.03.31 09:47:26.
