data_PCOD8051488
_publ_section_title
;
Structure prediction by ZEFSAII (Michael W. Deem and Ramdas Pophale) SiO2 
 PCOD8051488
Probable space group: C 2
;
_chemical_formula_sum "Si O2"
_cell_formula_units_Z 16
_cell_length_a 8.285167
_cell_length_b 16.711436
_cell_length_c 4.800005
_cell_angle_alpha 90.000000
_cell_angle_beta 66.751146
_cell_angle_gamma 90.000000
_cell_volume 610.628809
_symmetry_space_group_name_H-M "C 2"
_symmetry_group_IT_number 5
_symmetry_cell_setting 'monoclinic'
loop_
_space_group_symop_operation_xyz
x,y,z
-x,y,-z
1/2+x,1/2+y,z
1/2-x,1/2+y,-z
loop_
_atom_site_type_symbol
_atom_site_label
_atom_site_fract_x
_atom_site_fract_y
_atom_site_fract_z
Si Si1 0.861316 0.968860 0.805856
Si Si2 0.806690 0.203652 0.708189
Si Si3 0.500000 0.027588 0.000000
Si Si4 0.736792 0.099138 0.251492
Si Si5 0.000000 0.821288 0.000000
O O1 0.912859 0.877032 0.824170
O O2 0.000000 0.008843 0.500000
O O3 0.666204 0.972212 0.799884
O O4 0.853280 0.019513 0.103485
O O5 0.753466 0.124148 0.563507
O O6 0.656250 0.269454 0.757226
O O7 0.000000 0.237349 0.500000
O O8 0.811827 0.174877 0.024230
O O9 0.542320 0.082010 0.247111
#
# Coordination Sequence:
#
# PCOD8051488 Si02
#       5
#     4   4   2   4   2
#     4  10  25  49  79 118 160 212 272 330 402 484
#     4  12  28  51  77 119 168 215 265 336 409 480
#     4   8  23  46  82 119 152 212 276 344 383 476
#     4  10  25  51  81 115 156 214 281 327 392 482
#     4  12  31  48  78 123 174 210 262 340 427 488
#
# _framework density 26.202499
#
# number of rings (size 3 to 8) (size 9 to 14) (size 15 to 20)
#    1.500    0.000    0.000    2.250   10.500    5.000 
#    9.000    0.000    0.000    0.000    0.000    0.000 
#    0.000    0.000    0.000    0.000    0.000    0.000 
#
# Total GULP energy -99139.547896 kJ/mol
# GULP energy per Si atom -12392.443487 kJ/mol
# Density = 2.614286 g / cm^3
# Si number density = 26.202499 Si / 1000 Ang^3
#
#
#
# Elastic Constant Matrix: (Units=GPa)
#
#
# Indices 1 2 3 4 5 6 
#
# 1 171.2579 43.9634 52.6015 0.0000 -51.5110 0.0000
# 2 43.9634 131.9307 20.4466 0.0000 -26.6323 0.0000
# 3 52.6015 20.4466 86.7383 0.0000 -10.0109 0.0000
# 4 0.0000 0.0000 0.0000 37.6941 0.0000 -1.4829
# 5 -51.5110 -26.6323 -10.0109 0.0000 62.0866 0.0000
# 6 0.0000 0.0000 0.0000 -1.4829 0.0000 52.8184
#
#
#
# Elastic Compliance Matrix: (Units=1/GPa)
#
#
# Indices 1 2 3 4 5 6 
#
# 1 0.009622 -0.001103 -0.004798 0.000000 0.006736 0.000000
# 2 -0.001103 0.008641 -0.001066 0.000000 0.002620 0.000000
# 3 -0.004798 -0.001066 0.014446 0.000000 -0.002108 0.000000
# 4 0.000000 0.000000 0.000000 0.026559 0.000000 0.000746
# 5 0.006736 0.002620 -0.002108 0.000000 0.022479 0.000000
# 6 0.000000 0.000000 0.000000 0.000746 0.000000 0.018954
#
#
# Mechanical properties :
#
#
# Convention : Reuss Voigt Hill
#
# Bulk Modulus (GPa) = 53.25710 69.32778 61.29244
# Shear Modulus (GPa) = 41.35883 48.71419 45.03651
#
# Velocity S-wave (km/s) = 3.97726 4.31646 4.15032
# Velocity P-wave (km/s) = 6.43900 7.16647 6.81245
#
# Compressibility (1/GPa) = 0.01877684
#
# Stress axis : x y z
#
# Youngs Moduli (GPa) = 103.92786 115.72339 69.22165
#
# Poissons Ratio (x) = 0.12764 0.33211
# Poissons Ratio (y) = 0.11463 0.07377
# Poissons Ratio (z) = 0.49862 0.12333
#
# Static dielectric constant tensor:
#      x y z
#    x 4.943250 0.000000 -0.326300 
#    y 0.000000 4.204760 0.000000 
#    z -0.326300 0.000000 4.666120 
# 
# 
# High freq. dielectric constant tensor:
#      x y z
#    x 2.086400 0.000000 -0.019690 
#    y 0.000000 2.007350 0.000000 
#    z -0.019690 0.000000 2.064050 
# 
# From -- ./inp_files/2079.got.cif
#   From: 2010.03.12/outbox.cif.g09.slc.cpg/sg5_2_cif.got.tgz:2079.got - 2010.03.31 09:47:26.
