data_PCOD8051498
_publ_section_title
;
Structure prediction by ZEFSAII (Michael W. Deem and Ramdas Pophale) SiO2 
 PCOD8051498
Probable space group: C 2
;
_chemical_formula_sum "Si O2"
_cell_formula_units_Z 30
_cell_length_a 19.294686
_cell_length_b 9.682873
_cell_length_c 9.840528
_cell_angle_alpha 90.000000
_cell_angle_beta 48.747505
_cell_angle_gamma 90.000000
_cell_volume 1382.194253
_symmetry_space_group_name_H-M "C 2"
_symmetry_group_IT_number 5
_symmetry_cell_setting 'monoclinic'
loop_
_space_group_symop_operation_xyz
x,y,z
-x,y,-z
1/2+x,1/2+y,z
1/2-x,1/2+y,-z
loop_
_atom_site_type_symbol
_atom_site_label
_atom_site_fract_x
_atom_site_fract_y
_atom_site_fract_z
Si Si1 0.098798 0.310070 0.333572
Si Si2 0.500000 0.330807 0.500000
Si Si3 0.250527 0.297185 0.359617
Si Si4 0.992205 0.956647 0.237067
Si Si5 0.567082 0.189667 0.014968
Si Si6 0.626886 0.103585 0.217482
Si Si7 0.178290 0.097474 0.678826
Si Si8 0.337066 0.643294 0.997270
O O1 0.170542 0.265154 0.355360
O O2 0.087593 0.474608 0.350254
O O3 0.129855 0.268741 0.140981
O O4 0.000000 0.243212 0.500000
O O5 0.458939 0.426169 0.433614
O O6 0.586825 0.241753 0.336452
O O7 0.344117 0.248207 0.172904
O O8 0.231470 0.208139 0.518485
O O9 0.258800 0.460019 0.385346
O O10 0.095120 0.015693 0.113600
O O11 0.999291 0.814322 0.146967
O O12 0.921040 0.059210 0.255846
O O13 0.500000 0.103033 0.000000
O O14 0.595143 0.092422 0.102530
O O15 0.736586 0.098234 0.079520
O O16 0.162946 0.176740 0.841908
#
# Coordination Sequence:
#
# PCOD8051498 Si02
#       8
#     4   2   4   4   4   4   4   4
#     4  12  26  47  71 101 146 183 229 290 362 423
#     4  10  26  40  72 106 134 186 240 290 344 424
#     4  12  26  46  70 108 140 188 233 299 352 414
#     4  11  23  44  73  99 136 187 242 282 344 422
#     4  11  21  43  73  97 135 184 239 284 342 420
#     4  11  24  44  69 103 143 180 232 290 357 414
#     4  12  27  45  73 105 147 179 239 299 353 415
#     4  12  25  44  70 100 141 183 232 288 347 418
#
# _framework density 21.704620999999999
#
# number of rings (size 3 to 8) (size 9 to 14) (size 15 to 20)
#    0.000    0.533    6.000    1.200    6.533    2.133 
#    0.000    1.333    0.000    0.000    0.000    0.000 
#    0.000    0.000    0.000    0.000    0.000    0.000 
#
# Total GULP energy -186013.999699 kJ/mol
# GULP energy per Si atom -12400.933313 kJ/mol
# Density = 2.165522 g / cm^3
# Si number density = 21.704621 Si / 1000 Ang^3
#
#
#
# Elastic Constant Matrix: (Units=GPa)
#
#
# Indices 1 2 3 4 5 6 
#
# 1 169.4832 17.3189 54.3244 0.0000 9.7391 0.0000
# 2 17.3189 38.0032 26.0943 0.0000 6.3711 0.0000
# 3 54.3244 26.0943 134.0644 0.0000 23.6990 0.0000
# 4 0.0000 0.0000 0.0000 113.9109 0.0000 56.5313
# 5 9.7391 6.3711 23.6990 0.0000 40.1713 0.0000
# 6 0.0000 0.0000 0.0000 56.5313 0.0000 61.1533
#
#
#
# Elastic Compliance Matrix: (Units=1/GPa)
#
#
# Indices 1 2 3 4 5 6 
#
# 1 0.006845 -0.001405 -0.002508 0.000000 0.000043 0.000000
# 2 -0.001405 0.030741 -0.005150 0.000000 -0.001497 0.000000
# 3 -0.002508 -0.005150 0.010300 0.000000 -0.004652 0.000000
# 4 0.000000 0.000000 0.000000 0.016220 0.000000 -0.014994
# 5 0.000043 -0.001497 -0.004652 0.000000 0.027865 0.000000
# 6 0.000000 0.000000 0.000000 -0.014994 0.000000 0.030213
#
#
# Mechanical properties :
#
#
# Convention : Reuss Voigt Hill
#
# Bulk Modulus (GPa) = 33.60055 59.66957 46.63506
# Shear Modulus (GPa) = 33.28268 59.30130 46.29199
#
# Velocity S-wave (km/s) = 3.92016 5.23271 4.62325
# Velocity P-wave (km/s) = 6.00039 8.00373 7.07334
#
# Compressibility (1/GPa) = 0.02976142
#
# Stress axis : x y z
#
# Youngs Moduli (GPa) = 146.08707 32.53036 97.08788
#
# Poissons Ratio (x) = 0.04569 0.24349
# Poissons Ratio (y) = 0.20520 0.49996
# Poissons Ratio (z) = 0.36638 0.16752
#
# Static dielectric constant tensor:
#      x y z
#    x 3.217840 0.000000 -0.256880 
#    y 0.000000 3.737250 0.000000 
#    z -0.256880 0.000000 3.946370 
# 
# 
# High freq. dielectric constant tensor:
#      x y z
#    x 1.872910 0.000000 0.005550 
#    y 0.000000 1.829210 0.000000 
#    z 0.005550 0.000000 1.867550 
# 
# From -- ./inp_files/27397.got.cif
#   From: 2010.03.12/outbox.cif.g09.slc.cpg/sg5_14_cif.got.tgz:27397.got - 2010.03.31 09:47:26.
