data_PCOD8051786
_publ_section_title
;
Structure prediction by ZEFSAII (Michael W. Deem and Ramdas Pophale) SiO2 
 PCOD8051786
Probable space group: C 2
;
_chemical_formula_sum "Si O2"
_cell_formula_units_Z 30
_cell_length_a 9.815423
_cell_length_b 14.002548
_cell_length_c 11.934505
_cell_angle_alpha 90.000000
_cell_angle_beta 119.738050
_cell_angle_gamma 90.000000
_cell_volume 1424.267117
_symmetry_space_group_name_H-M "C 2"
_symmetry_group_IT_number 5
_symmetry_cell_setting 'monoclinic'
loop_
_space_group_symop_operation_xyz
x,y,z
-x,y,-z
1/2+x,1/2+y,z
1/2-x,1/2+y,-z
loop_
_atom_site_type_symbol
_atom_site_label
_atom_site_fract_x
_atom_site_fract_y
_atom_site_fract_z
Si Si1 0.714382 0.913170 0.290763
Si Si2 0.375415 0.962548 0.161162
Si Si3 0.691251 0.236084 0.383680
Si Si4 0.500000 0.292565 0.500000
Si Si5 0.842095 0.055505 0.493893
Si Si6 0.650658 0.373076 0.893018
Si Si7 0.032981 0.670903 0.882887
Si Si8 0.309246 0.436763 0.697910
O O1 0.527551 0.891772 0.215342
O O2 0.835732 0.848423 0.411199
O O3 0.766836 0.915437 0.183715
O O4 0.710240 0.014543 0.355472
O O5 0.319188 0.971756 0.266294
O O6 0.397871 0.068604 0.122363
O O7 0.238543 0.911484 0.036870
O O8 0.539409 0.232231 0.405402
O O9 0.828626 0.170429 0.491308
O O10 0.633780 0.190943 0.243781
O O11 0.755562 0.342895 0.392871
O O12 0.000000 0.019499 0.500000
O O13 0.832429 0.019939 0.616848
O O14 0.651844 0.257223 0.896786
O O15 0.473066 0.411590 0.824149
O O16 0.000000 0.672225 0.000000
#
# Coordination Sequence:
#
# PCOD8051786 Si02
#       8
#     4   4   4   2   4   4   4   4
#     4  12  21  42  70  97 136 179 228 278 348 409
#     4  12  27  41  70 107 134 180 236 299 338 415
#     4  11  24  41  70  97 133 184 230 275 355 416
#     4  12  22  46  70  96 140 190 216 286 360 424
#     4  12  23  42  69  99 134 187 230 285 342 423
#     4  11  22  47  71  93 139 188 229 281 356 411
#     4  11  23  43  69  97 134 182 232 278 349 420
#     4  11  24  46  68  98 143 182 230 286 355 413
#
# _framework density 21.063464
#
# number of rings (size 3 to 8) (size 9 to 14) (size 15 to 20)
#    0.000    0.533    7.333    3.200    1.867    1.600 
#    0.000    4.000    0.000    0.000    0.000    0.000 
#    0.000    0.000    0.000    0.000    0.000    0.000 
#
# Total GULP energy -185911.254848 kJ/mol
# GULP energy per Si atom -12394.083657 kJ/mol
# Density = 2.101552 g / cm^3
# Si number density = 21.063464 Si / 1000 Ang^3
#
#
#
# Elastic Constant Matrix: (Units=GPa)
#
#
# Indices 1 2 3 4 5 6 
#
# 1 111.7927 23.3352 44.6281 0.0000 -18.3915 0.0000
# 2 23.3352 86.8814 46.2384 0.0000 14.5913 0.0000
# 3 44.6281 46.2384 102.5958 0.0000 -17.4985 0.0000
# 4 0.0000 0.0000 0.0000 29.8218 0.0000 3.9677
# 5 -18.3915 14.5913 -17.4985 0.0000 36.1130 0.0000
# 6 0.0000 0.0000 0.0000 3.9677 0.0000 27.3534
#
#
#
# Elastic Compliance Matrix: (Units=1/GPa)
#
#
# Indices 1 2 3 4 5 6 
#
# 1 0.011536 -0.002393 -0.003022 0.000000 0.005377 0.000000
# 2 -0.002393 0.020185 -0.010525 0.000000 -0.014474 0.000000
# 3 -0.003022 -0.010525 0.017733 0.000000 0.011306 0.000000
# 4 0.000000 0.000000 0.000000 0.034192 0.000000 -0.004960
# 5 0.005377 -0.014474 0.011306 0.000000 0.041756 0.000000
# 6 0.000000 0.000000 0.000000 -0.004960 0.000000 0.037278
#
#
# Mechanical properties :
#
#
# Convention : Reuss Voigt Hill
#
# Bulk Modulus (GPa) = 56.90270 58.85259 57.87764
# Shear Modulus (GPa) = 24.94788 31.12885 28.03837
#
# Velocity S-wave (km/s) = 3.44527 3.84847 3.65243
# Velocity P-wave (km/s) = 6.54981 6.91005 6.73234
#
# Compressibility (1/GPa) = 0.01757386
#
# Stress axis : x y z
#
# Youngs Moduli (GPa) = 86.68671 49.54239 56.39110
#
# Poissons Ratio (x) = 0.11855 0.17043
# Poissons Ratio (y) = 0.20744 0.59350
# Poissons Ratio (z) = 0.26200 0.52142
#
# Static dielectric constant tensor:
#      x y z
#    x 3.704120 0.000000 -0.065460 
#    y 0.000000 3.838870 0.000000 
#    z -0.065460 0.000000 3.966130 
# 
# 
# High freq. dielectric constant tensor:
#      x y z
#    x 1.817020 0.000000 -0.011450 
#    y 0.000000 1.819560 0.000000 
#    z -0.011450 0.000000 1.842330 
# 
# From -- ./inp_files/36216.got.cif
#   From: 2010.03.12/outbox.cif.g09.slc.cpg/sg5_19_cif.got.tgz:36216.got - 2010.03.31 09:47:26.
