data_PCOD8051165
_publ_section_title
;
Structure prediction by ZEFSAII (Michael W. Deem and Ramdas Pophale) SiO2 
 PCOD8051165
Probable space group: C 2
;
_chemical_formula_sum "Si O2"
_cell_formula_units_Z 20
_cell_length_a 7.237454
_cell_length_b 12.173121
_cell_length_c 16.885368
_cell_angle_alpha 90.000000
_cell_angle_beta 137.836891
_cell_angle_gamma 90.000000
_cell_volume 998.569641
_symmetry_space_group_name_H-M "C 2"
_symmetry_group_IT_number 5
_symmetry_cell_setting 'monoclinic'
loop_
_space_group_symop_operation_xyz
x,y,z
-x,y,-z
1/2+x,1/2+y,z
1/2-x,1/2+y,-z
loop_
_atom_site_type_symbol
_atom_site_label
_atom_site_fract_x
_atom_site_fract_y
_atom_site_fract_z
Si Si1 0.209899 0.648110 0.206301
Si Si2 0.662929 0.185346 0.623087
Si Si3 0.000000 0.893849 0.500000
Si Si4 0.504751 0.029765 0.296068
Si Si5 0.994821 0.871705 0.906089
Si Si6 0.500000 0.001182 0.000000
O O1 0.521416 0.688136 0.301845
O O2 0.154069 0.577840 0.266713
O O3 0.023142 0.757312 0.147223
O O4 0.154177 0.574940 0.112435
O O5 0.500000 0.122924 0.500000
O O6 0.547614 0.312006 0.591004
O O7 0.620690 0.129732 0.693970
O O8 0.271015 0.968580 0.577650
O O9 0.259953 0.950052 0.194087
O O10 0.280254 0.926028 0.973889
O O11 0.000000 0.844288 0.000000
#
# Coordination Sequence:
#
# PCOD8051165 Si02
#       6
#     4   4   2   4   4   2
#     4  12  25  43  70  99 133 176 227 267 329 403
#     4  10  23  46  66  98 134 171 220 280 321 395
#     4  10  24  44  68 100 134 168 220 282 324 390
#     4  12  24  44  71  96 132 179 220 271 338 386
#     4  12  25  43  67  99 135 176 222 275 325 389
#     4  12  26  42  70 100 132 180 222 272 328 390
#
# _framework density 20.028649000000001
#
# number of rings (size 3 to 8) (size 9 to 14) (size 15 to 20)
#    0.600    0.000    7.000    1.200    0.000    4.800 
#    3.600    0.000    0.000    0.000    0.000    0.000 
#    0.000    0.000    0.000    0.000    0.000    0.000 
#
# Total GULP energy -123986.369569 kJ/mol
# GULP energy per Si atom -12398.636957 kJ/mol
# Density = 1.998306 g / cm^3
# Si number density = 20.028649 Si / 1000 Ang^3
#
#
#
# Elastic Constant Matrix: (Units=GPa)
#
#
# Indices 1 2 3 4 5 6 
#
# 1 84.3168 31.6054 24.5987 0.0000 2.2823 -0.0006
# 2 31.6054 104.4923 27.6505 0.0000 4.3689 -0.0008
# 3 24.5987 27.6505 92.6457 -0.0002 15.7006 -0.0029
# 4 0.0000 0.0000 -0.0002 36.6476 -0.0001 8.6196
# 5 2.2823 4.3689 15.7006 -0.0001 35.8312 -0.0011
# 6 -0.0006 -0.0008 -0.0029 8.6196 -0.0011 82.3188
#
#
#
# Elastic Compliance Matrix: (Units=1/GPa)
#
#
# Indices 1 2 3 4 5 6 
#
# 1 0.013972 -0.003520 -0.002788 0.000000 0.000761 0.000000
# 2 -0.003520 0.011278 -0.002416 0.000000 -0.000092 0.000000
# 3 -0.002788 -0.002416 0.013152 0.000000 -0.005291 0.000000
# 4 0.000000 0.000000 0.000000 0.027976 0.000000 -0.002929
# 5 0.000761 -0.000092 -0.005291 0.000000 0.030190 0.000000
# 6 0.000000 0.000000 0.000000 -0.002929 0.000000 0.012455
#
#
# Mechanical properties :
#
#
# Convention : Reuss Voigt Hill
#
# Bulk Modulus (GPa) = 47.72373 49.90712 48.81542
# Shear Modulus (GPa) = 37.46583 44.13287 40.79935
#
# Velocity S-wave (km/s) = 4.32975 4.69922 4.51826
# Velocity P-wave (km/s) = 6.99107 7.37669 7.18647
#
# Compressibility (1/GPa) = 0.02095394
#
# Stress axis : x y z
#
# Youngs Moduli (GPa) = 71.56974 88.66900 76.03585
#
# Poissons Ratio (x) = 0.31213 0.21200
# Poissons Ratio (y) = 0.25194 0.18367
# Poissons Ratio (z) = 0.19955 0.21419
#
# Static dielectric constant tensor:
#      x y z
#    x 2.626530 0.000000 0.164970 
#    y 0.000000 3.754640 0.000000 
#    z 0.164970 0.000000 3.907460 
# 
# 
# High freq. dielectric constant tensor:
#      x y z
#    x 1.766920 0.000000 0.010340 
#    y 0.000000 1.793170 0.000000 
#    z 0.010340 0.000000 1.803030 
# 
# From -- ./inp_files/33028.got.cif
#   From: 2010.03.12/outbox.cif.g09.slc.cpg/sg5_17_cif.got.tgz:33028.got - 2010.03.31 09:47:26.
