data_PCOD8051364
_publ_section_title
;
Structure prediction by ZEFSAII (Michael W. Deem and Ramdas Pophale) SiO2 
 PCOD8051364
Probable space group: C 2
;
_chemical_formula_sum "Si O2"
_cell_formula_units_Z 18
_cell_length_a 9.018149
_cell_length_b 11.727045
_cell_length_c 7.806749
_cell_angle_alpha 90.000000
_cell_angle_beta 114.634076
_cell_angle_gamma 90.000000
_cell_volume 750.472083
_symmetry_space_group_name_H-M "C 2"
_symmetry_group_IT_number 5
_symmetry_cell_setting 'monoclinic'
loop_
_space_group_symop_operation_xyz
x,y,z
-x,y,-z
1/2+x,1/2+y,z
1/2-x,1/2+y,-z
loop_
_atom_site_type_symbol
_atom_site_label
_atom_site_fract_x
_atom_site_fract_y
_atom_site_fract_z
Si Si1 0.183735 0.982100 0.571265
Si Si2 0.698645 0.640636 0.898898
Si Si3 0.217103 0.976849 0.214136
Si Si4 0.488410 0.855084 0.798175
Si Si5 0.500000 0.284689 0.000000
O O1 0.209995 0.038354 0.395414
O O2 0.302149 0.872238 0.647718
O O3 0.000000 0.937746 0.500000
O O4 0.227262 0.076687 0.733617
O O5 0.544670 0.724784 0.801805
O O6 0.651416 0.556255 0.029505
O O7 0.864412 0.707747 0.031222
O O8 0.400471 0.938966 0.260695
O O9 0.099634 0.865869 0.178044
O O10 0.500000 0.894022 0.000000
#
# Coordination Sequence:
#
# PCOD8051364 Si02
#       5
#     4   4   4   4   2
#     4  12  27  47  75 112 148 188 251 304 360 439
#     4  11  25  48  77 103 150 197 239 297 375 434
#     4  11  24  49  75 107 151 190 242 309 362 429
#     4  11  25  48  80 105 150 198 242 300 372 434
#     4  10  24  46  72 112 144 186 246 298 360 438
#
# _framework density 23.984901000000001
#
# number of rings (size 3 to 8) (size 9 to 14) (size 15 to 20)
#    0.000    0.889    2.222    3.333    7.778    3.556 
#    0.000    2.222    0.000    0.000    0.000    0.000 
#    0.000    0.000    0.000    0.000    0.000    0.000 
#
# Total GULP energy -111598.994405 kJ/mol
# GULP energy per Si atom -12399.888267 kJ/mol
# Density = 2.393031 g / cm^3
# Si number density = 23.984901 Si / 1000 Ang^3
#
#
#
# Elastic Constant Matrix: (Units=GPa)
#
#
# Indices 1 2 3 4 5 6 
#
# 1 167.6685 73.1159 77.9912 0.0000 2.8538 0.0000
# 2 73.1159 119.4540 56.4378 0.0000 2.1266 0.0000
# 3 77.9912 56.4378 144.6395 0.0000 -29.9527 0.0000
# 4 0.0000 0.0000 0.0000 12.0333 0.0000 1.4062
# 5 2.8538 2.1266 -29.9527 0.0000 67.8190 0.0000
# 6 0.0000 0.0000 0.0000 1.4062 0.0000 33.0548
#
#
#
# Elastic Compliance Matrix: (Units=1/GPa)
#
#
# Indices 1 2 3 4 5 6 
#
# 1 0.009606 -0.003913 -0.004085 0.000000 -0.002086 0.000000
# 2 -0.003913 0.012194 -0.002965 0.000000 -0.001527 0.000000
# 3 -0.004085 -0.002965 0.011368 0.000000 0.005285 0.000000
# 4 0.000000 0.000000 0.000000 0.083518 0.000000 -0.003553
# 5 -0.002086 -0.001527 0.005285 0.000000 0.017215 0.000000
# 6 0.000000 0.000000 0.000000 -0.003553 0.000000 0.030404
#
#
# Mechanical properties :
#
#
# Convention : Reuss Voigt Hill
#
# Bulk Modulus (GPa) = 88.93952 94.09465 91.51709
# Shear Modulus (GPa) = 26.31904 37.52923 31.92413
#
# Velocity S-wave (km/s) = 3.31617 3.95992 3.65226
# Velocity P-wave (km/s) = 7.19893 7.76041 7.48494
#
# Compressibility (1/GPa) = 0.01124360
#
# Stress axis : x y z
#
# Youngs Moduli (GPa) = 104.10310 82.00684 87.96876
#
# Poissons Ratio (x) = 0.32085 0.35934
# Poissons Ratio (y) = 0.40731 0.26080
# Poissons Ratio (z) = 0.42524 0.24312
#
# Static dielectric constant tensor:
#      x y z
#    x 4.690890 0.000000 0.044350 
#    y 0.000000 4.153440 0.000000 
#    z 0.044350 0.000000 4.230750 
# 
# 
# High freq. dielectric constant tensor:
#      x y z
#    x 1.978600 0.000000 0.005560 
#    y 0.000000 1.933270 0.000000 
#    z 0.005560 0.000000 1.942900 
# 
# From -- ./inp_files/14372.got.cif
#   From: 2010.03.12/outbox.cif.g09.slc.cpg/sg5_8_cif.got.tgz:14372.got - 2010.03.31 09:47:26.
