data_PCOD8051284
_publ_section_title
;
Structure prediction by ZEFSAII (Michael W. Deem and Ramdas Pophale) SiO2 
 PCOD8051284
Probable space group: C 2
;
_chemical_formula_sum "Si O2"
_cell_formula_units_Z 24
_cell_length_a 32.029162
_cell_length_b 4.801111
_cell_length_c 19.949056
_cell_angle_alpha 90.000000
_cell_angle_beta 163.361555
_cell_angle_gamma 90.000000
_cell_volume 878.372120
_symmetry_space_group_name_H-M "C 2"
_symmetry_group_IT_number 5
_symmetry_cell_setting 'monoclinic'
loop_
_space_group_symop_operation_xyz
x,y,z
-x,y,-z
1/2+x,1/2+y,z
1/2-x,1/2+y,-z
loop_
_atom_site_type_symbol
_atom_site_label
_atom_site_fract_x
_atom_site_fract_y
_atom_site_fract_z
Si Si1 0.234972 0.784280 0.433164
Si Si2 0.292073 0.756012 0.105348
Si Si3 0.102716 0.322748 0.451606
Si Si4 0.308796 0.650525 0.951040
Si Si5 0.500000 0.080234 0.500000
Si Si6 0.500000 0.634367 0.000000
Si Si7 0.274538 0.826136 0.755623
O O1 0.194680 0.480203 0.400523
O O2 0.351383 0.745619 0.553365
O O3 0.086171 0.929299 0.181758
O O4 0.214111 0.933009 0.924529
O O5 0.207427 0.828102 0.046572
O O6 0.457203 0.875852 0.370489
O O7 0.137251 0.637779 0.522929
O O8 0.201682 0.128978 0.652967
O O9 0.927110 0.285052 0.184492
O O10 0.354363 0.701283 0.944499
O O11 0.141138 0.773641 0.698996
O O12 0.607029 0.831386 0.121701
#
# Coordination Sequence:
#
# PCOD8051284 Si02
#       7
#     4   4   4   4   2   2   4
#     4  11  23  41  66  94 129 171 222 271 328 384
#     4  10  24  43  68  96 130 171 217 267 330 387
#     4  11  26  41  65  97 132 173 215 275 324 385
#     4  10  25  42  71  97 135 174 219 272 327 391
#     4   8  24  44  68 102 124 182 214 272 326 392
#     4  10  24  44  70  94 134 178 216 274 322 390
#     4  11  26  45  65 101 133 172 224 266 329 388
#
# _framework density 27.323274000000001
#
# number of rings (size 3 to 8) (size 9 to 14) (size 15 to 20)
#    1.000    0.667    0.000    3.000    4.667   12.000 
#    0.000    0.000    0.000    0.000    0.000    0.000 
#    0.000    0.000    0.000    0.000    0.000    0.000 
#
# Total GULP energy -148691.575478 kJ/mol
# GULP energy per Si atom -12390.964623 kJ/mol
# Density = 2.726109 g / cm^3
# Si number density = 27.323274 Si / 1000 Ang^3
#
#
#
# Elastic Constant Matrix: (Units=GPa)
#
#
# Indices 1 2 3 4 5 6 
#
# 1 62.1945 7.0356 5.3679 0.0002 -18.3297 -0.0001
# 2 7.0356 69.1779 -0.8703 -0.0014 8.9541 0.0004
# 3 5.3679 -0.8703 142.2344 0.0000 10.0517 0.0000
# 4 0.0002 -0.0014 0.0000 28.3897 0.0003 -2.1739
# 5 -18.3297 8.9541 10.0517 0.0003 46.8098 -0.0002
# 6 -0.0001 0.0004 0.0000 -2.1739 -0.0002 33.6352
#
#
#
# Elastic Compliance Matrix: (Units=1/GPa)
#
#
# Indices 1 2 3 4 5 6 
#
# 1 0.018978 -0.003020 -0.001321 0.000000 0.008293 0.000000
# 2 -0.003020 0.015315 0.000506 0.000001 -0.004221 0.000000
# 3 -0.001321 0.000506 0.007237 0.000000 -0.002168 0.000000
# 4 0.000000 0.000001 0.000000 0.035399 0.000000 0.002288
# 5 0.008293 -0.004221 -0.002168 0.000000 0.025883 0.000000
# 6 0.000000 0.000000 0.000000 0.002288 0.000000 0.029879
#
#
# Mechanical properties :
#
#
# Convention : Reuss Voigt Hill
#
# Bulk Modulus (GPa) = 29.53290 32.96368 31.24829
# Shear Modulus (GPa) = 32.97107 39.23852 36.10479
#
# Velocity S-wave (km/s) = 3.47753 3.79368 3.63904
# Velocity P-wave (km/s) = 5.19196 5.59284 5.39612
#
# Compressibility (1/GPa) = 0.03386054
#
# Stress axis : x y z
#
# Youngs Moduli (GPa) = 52.69191 65.29407 138.18261
#
# Poissons Ratio (x) = 0.19720 0.18251
# Poissons Ratio (y) = 0.15914 -0.06992
# Poissons Ratio (z) = 0.06959 -0.03304
#
# Static dielectric constant tensor:
#      x y z
#    x 4.955630 0.000000 -0.250910 
#    y 0.000000 4.371190 0.000000 
#    z -0.250910 0.000000 5.100880 
# 
# 
# High freq. dielectric constant tensor:
#      x y z
#    x 2.102550 0.000000 -0.015720 
#    y 0.000000 2.078270 0.000000 
#    z -0.015720 0.000000 2.112850 
# 
# From -- ./inp_files/63725.got.cif
#   From: 2010.03.12/outbox.cif.g09.slc.cpg/sg5_32_cif.got.tgz:63725.got - 2010.03.31 09:47:26.
