data_PCOD8051314
_publ_section_title
;
Structure prediction by ZEFSAII (Michael W. Deem and Ramdas Pophale) SiO2 
 PCOD8051314
Probable space group: C 2
;
_chemical_formula_sum "Si O2"
_cell_formula_units_Z 28
_cell_length_a 15.814802
_cell_length_b 6.042453
_cell_length_c 14.834020
_cell_angle_alpha 90.000000
_cell_angle_beta 120.891454
_cell_angle_gamma 90.000000
_cell_volume 1216.451511
_symmetry_space_group_name_H-M "C 2"
_symmetry_group_IT_number 5
_symmetry_cell_setting 'monoclinic'
loop_
_space_group_symop_operation_xyz
x,y,z
-x,y,-z
1/2+x,1/2+y,z
1/2-x,1/2+y,-z
loop_
_atom_site_type_symbol
_atom_site_label
_atom_site_fract_x
_atom_site_fract_y
_atom_site_fract_z
Si Si1 0.179371 0.981630 0.856290
Si Si2 0.343137 0.742244 0.836438
Si Si3 0.500000 0.030321 0.500000
Si Si4 0.146270 0.202903 0.504330
Si Si5 0.000000 0.542494 0.000000
Si Si6 0.671847 0.343798 0.053896
Si Si7 0.981000 0.820858 0.658985
Si Si8 0.670236 0.978557 0.349256
O O1 0.248790 0.804790 0.845265
O O2 0.067784 0.946172 0.761157
O O3 0.226146 0.222805 0.860719
O O4 0.186326 0.971472 0.968457
O O5 0.361970 0.491755 0.878510
O O6 0.331312 0.778340 0.723588
O O7 0.440391 0.888606 0.900056
O O8 0.589889 0.864317 0.539855
O O9 0.524524 0.178040 0.600620
O O10 0.192874 0.359572 0.454880
O O11 0.230883 0.114466 0.616786
O O12 0.084581 0.010855 0.421771
O O13 0.919676 0.679415 0.012972
O O14 0.921884 0.651405 0.693452
#
# Coordination Sequence:
#
# PCOD8051314 Si02
#       8
#     4   4   2   4   2   4   4   4
#     4  11  25  44  72 104 142 186 240 294 370 412
#     4  11  25  43  73 106 143 186 236 301 356 440
#     4  10  26  44  72 102 142 192 236 292 354 416
#     4  11  24  46  72 102 148 183 234 304 349 435
#     4  10  24  44  70 104 136 188 232 292 358 418
#     4  11  23  48  71 105 142 185 237 306 350 433
#     4  11  25  47  71 106 143 192 241 297 351 445
#     4  11  25  46  71 105 140 189 239 293 370 414
#
# _framework density 23.017769999999999
#
# number of rings (size 3 to 8) (size 9 to 14) (size 15 to 20)
#    0.000    1.143    2.857    1.714    4.000    6.857 
#    2.571    0.000    0.000    0.000    0.000    0.000 
#    0.000    0.000    0.000    0.000    0.000    0.000 
#
# Total GULP energy -173489.292017 kJ/mol
# GULP energy per Si atom -12392.092287 kJ/mol
# Density = 2.296538 g / cm^3
# Si number density = 23.017770 Si / 1000 Ang^3
#
#
#
# Elastic Constant Matrix: (Units=GPa)
#
#
# Indices 1 2 3 4 5 6 
#
# 1 107.0019 50.3305 59.6909 0.0000 8.7261 0.0000
# 2 50.3305 115.4101 35.5485 0.0000 3.4952 0.0000
# 3 59.6909 35.5485 89.5184 0.0000 8.8877 0.0000
# 4 0.0000 0.0000 0.0000 57.4353 0.0000 -4.1986
# 5 8.7261 3.4952 8.8877 0.0000 35.8349 0.0000
# 6 0.0000 0.0000 0.0000 -4.1986 0.0000 -1.2564
#
#
#
# Elastic Compliance Matrix: (Units=1/GPa)
#
#
# Indices 1 2 3 4 5 6 
#
# 1 0.016674 -0.004383 -0.009244 0.000000 -0.001340 0.000000
# 2 -0.004383 0.011025 -0.001491 0.000000 0.000362 0.000000
# 3 -0.009244 -0.001491 0.018136 0.000000 -0.002101 0.000000
# 4 0.000000 0.000000 0.000000 0.013993 0.000000 -0.046762
# 5 -0.001340 0.000362 -0.002101 0.000000 0.028718 0.000000
# 6 0.000000 0.000000 0.000000 -0.046762 0.000000 -0.639677
#
#
# Mechanical properties :
#
#
# Convention : Reuss Voigt Hill
#
# Bulk Modulus (GPa) = 64.11673 67.00780 65.56227
# Shear Modulus (GPa) = -9.69563 29.49346 9.89891
#
# Velocity S-wave (km/s) = -2.05460 3.58346 2.07603
# Velocity P-wave (km/s) = 4.72094 6.80412 5.85591
#
# Compressibility (1/GPa) = 0.01559655
#
# Stress axis : x y z
#
# Youngs Moduli (GPa) = 59.97492 90.70564 55.13971
#
# Poissons Ratio (x) = 0.39760 0.50973
# Poissons Ratio (y) = 0.26289 0.08222
# Poissons Ratio (z) = 0.55443 0.13525
#
# Static dielectric constant tensor:
#      x y z
#    x 4.098680 0.000000 0.253460 
#    y 0.000000 4.372160 0.000000 
#    z 0.253460 0.000000 3.820600 
# 
# 
# High freq. dielectric constant tensor:
#      x y z
#    x 1.921930 0.000000 -0.000010 
#    y 0.000000 1.919700 0.000000 
#    z -0.000010 0.000000 1.897460 
# 
# From -- ./inp_files/55515.got.cif
#   From: 2010.03.12/outbox.cif.g09.slc.cpg/sg5_28_cif.got.tgz:55515.got - 2010.03.31 09:47:26.
