data_PCOD8051639
_publ_section_title
;
Structure prediction by ZEFSAII (Michael W. Deem and Ramdas Pophale) SiO2 
 PCOD8051639
Probable space group: C 2
;
_chemical_formula_sum "Si O2"
_cell_formula_units_Z 26
_cell_length_a 18.842922
_cell_length_b 6.346927
_cell_length_c 10.616334
_cell_angle_alpha 90.000000
_cell_angle_beta 111.118605
_cell_angle_gamma 90.000000
_cell_volume 1184.382274
_symmetry_space_group_name_H-M "C 2"
_symmetry_group_IT_number 5
_symmetry_cell_setting 'monoclinic'
loop_
_space_group_symop_operation_xyz
x,y,z
-x,y,-z
1/2+x,1/2+y,z
1/2-x,1/2+y,-z
loop_
_atom_site_type_symbol
_atom_site_label
_atom_site_fract_x
_atom_site_fract_y
_atom_site_fract_z
Si Si1 0.935878 0.023140 0.274956
Si Si2 0.145373 0.261723 0.967476
Si Si3 0.336377 0.067778 0.800335
Si Si4 0.000000 0.359819 0.500000
Si Si5 0.925418 0.702081 0.623292
Si Si6 0.243779 0.458234 0.830534
Si Si7 0.190969 0.818311 0.645647
O O1 0.924591 0.113959 0.124699
O O2 0.949213 0.214517 0.378674
O O3 0.859466 0.904002 0.270171
O O4 0.004902 0.860909 0.318059
O O5 0.169605 0.377402 0.854732
O O6 0.124579 0.423198 0.066274
O O7 0.217575 0.128022 0.054659
O O8 0.403412 0.117371 0.746019
O O9 0.305912 0.282712 0.839537
O O10 0.267300 0.955667 0.682475
O O11 0.945234 0.505441 0.548077
O O12 0.855504 0.829370 0.514785
O O13 0.214577 0.575845 0.686377
#
# Coordination Sequence:
#
# PCOD8051639 Si02
#       7
#     4   4   4   2   4   4   4
#     4  12  24  45  75 100 143 191 247 290 367 450
#     4  11  22  42  71 102 136 189 242 294 359 434
#     4  11  27  42  69 109 143 182 245 304 362 424
#     4  12  24  46  72  94 140 192 240 298 364 448
#     4  12  27  45  67 110 146 183 244 303 376 431
#     4  11  21  41  73 100 134 179 249 299 353 424
#     4  11  23  42  71 106 132 189 235 304 361 436
#
# _framework density 21.952373000000001
#
# number of rings (size 3 to 8) (size 9 to 14) (size 15 to 20)
#    0.000    0.615    6.154    1.846    2.154    2.462 
#    0.000    4.615    0.000    0.000    0.000    0.000 
#    0.000    0.000    0.000    0.000    0.000    0.000 
#
# Total GULP energy -161226.484000 kJ/mol
# GULP energy per Si atom -12402.037231 kJ/mol
# Density = 2.190241 g / cm^3
# Si number density = 21.952373 Si / 1000 Ang^3
#
#
#
# Elastic Constant Matrix: (Units=GPa)
#
#
# Indices 1 2 3 4 5 6 
#
# 1 83.9280 44.4712 40.0139 0.0000 -18.5042 0.0000
# 2 44.4712 115.4883 43.3125 0.0000 -1.7238 0.0000
# 3 40.0139 43.3125 104.1026 0.0000 2.1700 0.0000
# 4 0.0000 0.0000 0.0000 40.7662 0.0000 -6.3784
# 5 -18.5042 -1.7238 2.1700 0.0000 36.0451 0.0000
# 6 0.0000 0.0000 0.0000 -6.3784 0.0000 19.1163
#
#
#
# Elastic Compliance Matrix: (Units=1/GPa)
#
#
# Indices 1 2 3 4 5 6 
#
# 1 0.019612 -0.005325 -0.005534 0.000000 0.010147 0.000000
# 2 -0.005325 0.011726 -0.002790 0.000000 -0.002005 0.000000
# 3 -0.005534 -0.002790 0.012972 0.000000 -0.003755 0.000000
# 4 0.000000 0.000000 0.000000 0.025881 0.000000 0.008636
# 5 0.010147 -0.002005 -0.003755 0.000000 0.033082 0.000000
# 6 0.000000 0.000000 0.000000 0.008636 0.000000 0.055193
#
#
# Mechanical properties :
#
#
# Convention : Reuss Voigt Hill
#
# Bulk Modulus (GPa) = 58.78381 62.12379 60.45380
# Shear Modulus (GPa) = 26.11840 30.90029 28.50934
#
# Velocity S-wave (km/s) = 3.45305 3.75588 3.60764
# Velocity P-wave (km/s) = 6.53713 6.86801 6.70462
#
# Compressibility (1/GPa) = 0.01701149
#
# Stress axis : x y z
#
# Youngs Moduli (GPa) = 50.98841 85.28165 77.08777
#
# Poissons Ratio (x) = 0.45413 0.42663
# Poissons Ratio (y) = 0.27152 0.21508
# Poissons Ratio (z) = 0.28219 0.23794
#
# Static dielectric constant tensor:
#      x y z
#    x 3.611400 0.000000 0.076900 
#    y 0.000000 4.331700 0.000000 
#    z 0.076900 0.000000 4.078500 
# 
# 
# High freq. dielectric constant tensor:
#      x y z
#    x 1.837290 0.000000 0.011580 
#    y 0.000000 1.883030 0.000000 
#    z 0.011580 0.000000 1.871100 
# 
# From -- ./inp_files/45540.got.cif
#   From: 2010.03.12/outbox.cif.g09.slc.cpg/sg5_23_cif.got.tgz:45540.got - 2010.03.31 09:47:26.
