data_PCOD8051258
_publ_section_title
;
Structure prediction by ZEFSAII (Michael W. Deem and Ramdas Pophale) SiO2 
 PCOD8051258
Probable space group: C 2
;
_chemical_formula_sum "Si O2"
_cell_formula_units_Z 22
_cell_length_a 9.230718
_cell_length_b 10.028095
_cell_length_c 15.756580
_cell_angle_alpha 90.000000
_cell_angle_beta 140.868357
_cell_angle_gamma 90.000000
_cell_volume 920.485650
_symmetry_space_group_name_H-M "C 2"
_symmetry_group_IT_number 5
_symmetry_cell_setting 'monoclinic'
loop_
_space_group_symop_operation_xyz
x,y,z
-x,y,-z
1/2+x,1/2+y,z
1/2-x,1/2+y,-z
loop_
_atom_site_type_symbol
_atom_site_label
_atom_site_fract_x
_atom_site_fract_y
_atom_site_fract_z
Si Si1 0.960590 0.762750 0.575809
Si Si2 0.490968 0.056641 0.195911
Si Si3 0.697055 0.876145 0.149522
Si Si4 0.602067 0.358586 0.224022
Si Si5 0.414239 0.966491 0.579482
Si Si6 0.000000 0.967548 0.000000
O O1 0.783642 0.864846 0.540539
O O2 0.854843 0.615373 0.521594
O O3 0.000000 0.818680 0.500000
O O4 0.196282 0.763284 0.738487
O O5 0.590038 0.205190 0.249082
O O6 0.587670 0.995564 0.153333
O O7 0.572319 0.966598 0.312056
O O8 0.213754 0.061543 0.070951
O O9 0.900995 0.936524 0.183474
O O10 0.500000 0.811868 0.000000
O O11 0.849129 0.421600 0.358105
O O12 0.559388 0.368924 0.104243
#
# Coordination Sequence:
#
# PCOD8051258 Si02
#       6
#     4   4   4   4   4   2
#     4  12  28  49  79 111 153 199 251 317 371 451
#     4  11  24  46  72 108 149 197 245 316 365 449
#     4  12  26  49  74 111 151 198 244 310 376 441
#     4  11  26  44  72 110 149 196 251 309 373 449
#     4  11  28  49  75 110 147 197 255 307 379 441
#     4  10  24  42  68 110 150 202 244 302 378 452
#
# _framework density 23.900427000000001
#
# number of rings (size 3 to 8) (size 9 to 14) (size 15 to 20)
#    0.000    0.727    5.455    0.000    7.636    0.000 
#    0.000    0.000    0.000    0.000    0.000    0.000 
#    0.000    0.000    0.000    0.000    0.000    0.000 
#
# Total GULP energy -136423.270097 kJ/mol
# GULP energy per Si atom -12402.115463 kJ/mol
# Density = 2.384603 g / cm^3
# Si number density = 23.900427 Si / 1000 Ang^3
#
#
#
# Elastic Constant Matrix: (Units=GPa)
#
#
# Indices 1 2 3 4 5 6 
#
# 1 159.4703 42.9439 40.1685 0.0000 22.9451 0.0000
# 2 42.9439 136.6397 44.7721 0.0000 34.6680 0.0000
# 3 40.1685 44.7721 133.0482 0.0001 24.1643 0.0000
# 4 0.0000 0.0000 0.0001 34.2994 0.0000 3.9142
# 5 22.9451 34.6680 24.1643 0.0000 32.2490 0.0000
# 6 0.0000 0.0000 0.0000 3.9142 0.0000 38.6826
#
#
#
# Elastic Compliance Matrix: (Units=1/GPa)
#
#
# Indices 1 2 3 4 5 6 
#
# 1 0.007333 -0.001106 -0.001285 0.000000 -0.003066 0.000000
# 2 -0.001106 0.010551 -0.001504 0.000000 -0.009429 0.000000
# 3 -0.001285 -0.001504 0.009203 0.000000 -0.004364 0.000000
# 4 0.000000 0.000000 0.000000 0.029496 0.000000 -0.002985
# 5 -0.003066 -0.009429 -0.004364 0.000000 0.046596 0.000000
# 6 0.000000 0.000000 0.000000 -0.002985 0.000000 0.026153
#
#
# Mechanical properties :
#
#
# Convention : Reuss Voigt Hill
#
# Bulk Modulus (GPa) = 51.82100 76.10301 63.96201
# Shear Modulus (GPa) = 34.82974 41.13112 37.98043
#
# Velocity S-wave (km/s) = 3.82158 4.15292 3.99069
# Velocity P-wave (km/s) = 6.41886 7.40989 6.93211
#
# Compressibility (1/GPa) = 0.01929720
#
# Stress axis : x y z
#
# Youngs Moduli (GPa) = 136.36273 94.77609 108.66142
#
# Poissons Ratio (x) = 0.10480 0.13964
# Poissons Ratio (y) = 0.15079 0.16346
# Poissons Ratio (z) = 0.17523 0.14257
#
# Static dielectric constant tensor:
#      x y z
#    x 4.752140 0.000000 -0.034100 
#    y 0.000000 3.784920 0.000000 
#    z -0.034100 0.000000 4.368050 
# 
# 
# High freq. dielectric constant tensor:
#      x y z
#    x 1.977820 0.000000 -0.011600 
#    y 0.000000 1.919660 0.000000 
#    z -0.011600 0.000000 1.956160 
# 
# From -- ./inp_files/59544.got.cif
#   From: 2010.03.12/outbox.cif.g09.slc.cpg/sg5_30_cif.got.tgz:59544.got - 2010.03.31 09:47:26.
