data_PCOD8051837
_publ_section_title
;
Structure prediction by ZEFSAII (Michael W. Deem and Ramdas Pophale) SiO2 
 PCOD8051837
Probable space group: C 2
;
_chemical_formula_sum "Si O2"
_cell_formula_units_Z 20
_cell_length_a 12.471928
_cell_length_b 13.149661
_cell_length_c 5.887298
_cell_angle_alpha 90.000000
_cell_angle_beta 106.957703
_cell_angle_gamma 90.000000
_cell_volume 923.545670
_symmetry_space_group_name_H-M "C 2"
_symmetry_group_IT_number 5
_symmetry_cell_setting 'monoclinic'
loop_
_space_group_symop_operation_xyz
x,y,z
-x,y,-z
1/2+x,1/2+y,z
1/2-x,1/2+y,-z
loop_
_atom_site_type_symbol
_atom_site_label
_atom_site_fract_x
_atom_site_fract_y
_atom_site_fract_z
Si Si1 0.115835 0.798710 0.175594
Si Si2 0.500000 0.549123 0.500000
Si Si3 0.780944 0.939819 0.424099
Si Si4 0.382602 0.107044 0.521846
Si Si5 0.500000 0.651050 0.000000
Si Si6 0.265026 0.737413 0.871389
O O1 0.177527 0.899051 0.306450
O O2 0.081906 0.710606 0.330114
O O3 0.203425 0.744225 0.070020
O O4 0.000000 0.839188 0.000000
O O5 0.389217 0.485879 0.365722
O O6 0.525834 0.600653 0.267431
O O7 0.741481 0.842385 0.263799
O O8 0.677470 0.018731 0.369397
O O9 0.500000 0.061708 0.500000
O O10 0.290810 0.139297 0.280206
O O11 0.605406 0.719530 0.004908
#
# Coordination Sequence:
#
# PCOD8051837 Si02
#       6
#     4   2   4   4   2   4
#     4  11  23  42  71  95 136 181 235 282 347 422
#     4  12  26  48  74 104 144 190 240 288 350 428
#     4  11  26  41  69 104 135 181 241 290 349 417
#     4  11  23  45  66  98 136 179 227 286 351 417
#     4  12  28  48  74 102 150 188 232 296 358 418
#     4  11  25  45  68 100 138 187 230 291 353 419
#
# _framework density 21.655670000000001
#
# number of rings (size 3 to 8) (size 9 to 14) (size 15 to 20)
#    0.000    0.800    4.000    2.400    9.800    3.200 
#    1.800    0.000    0.000    0.000    0.000    0.000 
#    0.000    0.000    0.000    0.000    0.000    0.000 
#
# Total GULP energy -123884.404482 kJ/mol
# GULP energy per Si atom -12388.440448 kJ/mol
# Density = 2.160638 g / cm^3
# Si number density = 21.655670 Si / 1000 Ang^3
#
#
#
# Elastic Constant Matrix: (Units=GPa)
#
#
# Indices 1 2 3 4 5 6 
#
# 1 139.7998 32.4449 4.9469 0.0000 5.5049 0.0000
# 2 32.4449 82.2542 7.1778 0.0000 4.6341 0.0000
# 3 4.9469 7.1778 76.8745 0.0000 -3.6595 0.0000
# 4 0.0000 0.0000 0.0000 7.5045 0.0000 5.9570
# 5 5.5049 4.6341 -3.6595 0.0000 39.0853 0.0000
# 6 0.0000 0.0000 0.0000 5.9570 0.0000 42.2845
#
#
#
# Elastic Compliance Matrix: (Units=1/GPa)
#
#
# Indices 1 2 3 4 5 6 
#
# 1 0.007901 -0.003050 -0.000261 0.000000 -0.000776 0.000000
# 2 -0.003050 0.013531 -0.001128 0.000000 -0.001280 0.000000
# 3 -0.000261 -0.001128 0.013197 0.000000 0.001406 0.000000
# 4 0.000000 0.000000 0.000000 0.150031 0.000000 -0.021136
# 5 -0.000776 -0.001280 0.001406 0.000000 0.025978 0.000000
# 6 0.000000 0.000000 0.000000 -0.021136 0.000000 0.026627
#
#
# Mechanical properties :
#
#
# Convention : Reuss Voigt Hill
#
# Bulk Modulus (GPa) = 38.83227 43.11863 40.97545
# Shear Modulus (GPa) = 19.62893 34.73212 27.18053
#
# Velocity S-wave (km/s) = 3.01393 4.00914 3.54661
# Velocity P-wave (km/s) = 5.48474 6.43313 5.97777
#
# Compressibility (1/GPa) = 0.02575178
#
# Stress axis : x y z
#
# Youngs Moduli (GPa) = 126.57128 73.90407 75.77339
#
# Poissons Ratio (x) = 0.22541 0.01974
# Poissons Ratio (y) = 0.38604 0.08548
# Poissons Ratio (z) = 0.03298 0.08337
#
# Static dielectric constant tensor:
#      x y z
#    x 3.956940 0.000000 0.076580 
#    y 0.000000 3.903280 0.000000 
#    z 0.076580 0.000000 4.168750 
# 
# 
# High freq. dielectric constant tensor:
#      x y z
#    x 1.871360 0.000000 -0.002320 
#    y 0.000000 1.844930 0.000000 
#    z -0.002320 0.000000 1.851620 
# 
# From -- ./inp_files/4638.got.cif
#   From: 2010.03.12/outbox.cif.g09.slc.cpg/sg5_3_cif.got.tgz:4638.got - 2010.03.31 09:47:26.
