data_PCOD8051780
_publ_section_title
;
Structure prediction by ZEFSAII (Michael W. Deem and Ramdas Pophale) SiO2 
 PCOD8051780
Probable space group: C 2
;
_chemical_formula_sum "Si O2"
_cell_formula_units_Z 24
_cell_length_a 11.154974
_cell_length_b 10.998365
_cell_length_c 11.089209
_cell_angle_alpha 90.000000
_cell_angle_beta 133.027609
_cell_angle_gamma 90.000000
_cell_volume 994.556544
_symmetry_space_group_name_H-M "C 2"
_symmetry_group_IT_number 5
_symmetry_cell_setting 'monoclinic'
loop_
_space_group_symop_operation_xyz
x,y,z
-x,y,-z
1/2+x,1/2+y,z
1/2-x,1/2+y,-z
loop_
_atom_site_type_symbol
_atom_site_label
_atom_site_fract_x
_atom_site_fract_y
_atom_site_fract_z
Si Si1 0.929887 0.160570 0.820650
Si Si2 0.250411 0.904526 0.651779
Si Si3 0.186639 0.459102 0.667962
Si Si4 0.948528 0.551268 0.194646
Si Si5 0.670619 0.524128 0.838349
Si Si6 0.062605 0.821838 0.293903
O O1 0.855263 0.294853 0.781103
O O2 0.784890 0.071164 0.675166
O O3 0.072264 0.146719 0.814307
O O4 0.000000 0.124477 0.000000
O O5 0.116454 0.854960 0.467115
O O6 0.379067 0.986068 0.667829
O O7 0.166635 0.992636 0.693588
O O8 0.185069 0.489409 0.808651
O O9 0.284567 0.335455 0.696021
O O10 0.000000 0.452260 0.500000
O O11 0.981266 0.691325 0.243687
O O12 0.862642 0.536225 0.005417
O O13 0.580905 0.413165 0.846173
#
# Coordination Sequence:
#
# PCOD8051780 Si02
#       6
#     4   4   4   4   4   4
#     4  11  23  44  76 105 145 199 246 306 380 440
#     4  12  26  47  72 109 152 192 252 306 383 442
#     4  11  22  46  74 103 143 200 250 303 378 447
#     4  12  25  46  74 108 152 196 249 310 378 447
#     4  11  26  47  72 111 146 194 254 308 373 452
#     4  11  27  47  75 110 147 198 250 311 377 448
#
# _framework density 24.131360999999998
#
# number of rings (size 3 to 8) (size 9 to 14) (size 15 to 20)
#    0.000    0.667    3.333    4.000    4.667    1.333 
#    3.000    0.000    0.000    0.000    0.000    0.000 
#    0.000    0.000    0.000    0.000    0.000    0.000 
#
# Total GULP energy -148724.125708 kJ/mol
# GULP energy per Si atom -12393.677142 kJ/mol
# Density = 2.407644 g / cm^3
# Si number density = 24.131361 Si / 1000 Ang^3
#
#
#
# Elastic Constant Matrix: (Units=GPa)
#
#
# Indices 1 2 3 4 5 6 
#
# 1 137.0919 35.2549 34.9922 0.0000 -15.1970 0.0000
# 2 35.2549 60.0270 46.4233 0.0000 -12.3404 0.0000
# 3 34.9922 46.4233 117.9922 0.0000 12.3651 0.0000
# 4 0.0000 0.0000 0.0000 35.4064 0.0000 2.6305
# 5 -15.1970 -12.3404 12.3651 0.0000 31.9266 0.0000
# 6 0.0000 0.0000 0.0000 2.6305 0.0000 22.7130
#
#
#
# Elastic Compliance Matrix: (Units=1/GPa)
#
#
# Indices 1 2 3 4 5 6 
#
# 1 0.008977 -0.003046 -0.001864 0.000000 0.003817 0.000000
# 2 -0.003046 0.032188 -0.013459 0.000000 0.016204 0.000000
# 3 -0.001864 -0.013459 0.015594 0.000000 -0.012129 0.000000
# 4 0.000000 0.000000 0.000000 0.028489 0.000000 -0.003299
# 5 0.003817 0.016204 -0.012129 0.000000 0.044100 0.000000
# 6 0.000000 0.000000 0.000000 -0.003299 0.000000 0.044410
#
#
# Mechanical properties :
#
#
# Convention : Reuss Voigt Hill
#
# Bulk Modulus (GPa) = 49.94610 60.93909 55.44260
# Shear Modulus (GPa) = 23.02357 31.23858 27.13108
#
# Velocity S-wave (km/s) = 3.09219 3.60185 3.35671
# Velocity P-wave (km/s) = 5.78717 6.52730 6.16835
#
# Compressibility (1/GPa) = 0.02002158
#
# Stress axis : x y z
#
# Youngs Moduli (GPa) = 111.40130 31.06718 64.12593
#
# Poissons Ratio (x) = 0.09463 0.11951
# Poissons Ratio (y) = 0.33932 0.86308
# Poissons Ratio (z) = 0.20762 0.41814
#
# Static dielectric constant tensor:
#      x y z
#    x 4.727470 0.000000 0.155260 
#    y 0.000000 4.179040 0.000000 
#    z 0.155260 0.000000 4.240100 
# 
# 
# High freq. dielectric constant tensor:
#      x y z
#    x 1.972740 0.000000 0.014930 
#    y 0.000000 1.939120 0.000000 
#    z 0.014930 0.000000 1.960480 
# 
# From -- ./inp_files/39275.got.cif
#   From: 2010.03.12/outbox.cif.g09.slc.cpg/sg5_20_cif.got.tgz:39275.got - 2010.03.31 09:47:26.
