data_PCOD8051820
_publ_section_title
;
Structure prediction by ZEFSAII (Michael W. Deem and Ramdas Pophale) SiO2 
 PCOD8051820
Probable space group: C 2
;
_chemical_formula_sum "Si O2"
_cell_formula_units_Z 24
_cell_length_a 14.764373
_cell_length_b 8.275118
_cell_length_c 14.595867
_cell_angle_alpha 90.000000
_cell_angle_beta 39.663699
_cell_angle_gamma 90.000000
_cell_volume 1138.231202
_symmetry_space_group_name_H-M "C 2"
_symmetry_group_IT_number 5
_symmetry_cell_setting 'monoclinic'
loop_
_space_group_symop_operation_xyz
x,y,z
-x,y,-z
1/2+x,1/2+y,z
1/2-x,1/2+y,-z
loop_
_atom_site_type_symbol
_atom_site_label
_atom_site_fract_x
_atom_site_fract_y
_atom_site_fract_z
Si Si1 0.635171 0.903670 0.171905
Si Si2 0.827847 0.774991 0.865886
Si Si3 0.154187 0.779308 0.847102
Si Si4 0.152647 0.404271 0.846469
Si Si5 0.839072 0.281514 0.362064
Si Si6 0.374732 0.406919 0.327150
O O1 0.727232 0.879119 0.191081
O O2 0.478608 0.832445 0.310150
O O3 0.621035 0.092419 0.160575
O O4 0.700403 0.811463 0.034441
O O5 0.774258 0.804537 0.804378
O O6 0.957092 0.893427 0.789027
O O7 0.173182 0.591577 0.854949
O O8 0.174831 0.811004 0.724034
O O9 0.000000 0.840941 0.000000
O O10 0.167933 0.378340 0.727079
O O11 0.000000 0.342546 0.000000
O O12 0.701308 0.328171 0.526843
O O13 0.834555 0.092406 0.345655
#
# Coordination Sequence:
#
# PCOD8051820 Si02
#       6
#     4   4   4   4   4   4
#     4  12  24  41  67  99 132 172 221 269 324 387
#     4  12  24  41  67  99 132 172 221 269 324 387
#     4  11  23  41  68  99 132 171 220 271 323 385
#     4  11  23  41  68  99 132 171 220 271 323 385
#     4  12  26  45  68  97 135 174 217 271 331 389
#     4  12  26  45  68  97 135 174 217 271 331 389
#
# _framework density 21.085346999999999
#
# number of rings (size 3 to 8) (size 9 to 14) (size 15 to 20)
#    0.000    0.333    3.333    7.000    0.000    2.667 
#    0.000    6.667    0.000    0.000    0.000    0.000 
#    0.000    0.000    0.000    0.000    0.000    0.000 
#
# Total GULP energy -148930.227441 kJ/mol
# GULP energy per Si atom -12410.852287 kJ/mol
# Density = 2.103736 g / cm^3
# Si number density = 21.085347 Si / 1000 Ang^3
#
#
#
# Elastic Constant Matrix: (Units=GPa)
#
#
# Indices 1 2 3 4 5 6 
#
# 1 118.1932 1.8401 20.9052 0.0000 9.3842 0.0000
# 2 1.8401 83.8336 9.2861 0.0000 -4.6202 0.0000
# 3 20.9052 9.2861 78.7746 0.0000 16.5560 0.0000
# 4 0.0000 0.0000 0.0000 31.7615 0.0000 0.2206
# 5 9.3842 -4.6202 16.5560 0.0000 34.0086 0.0000
# 6 0.0000 0.0000 0.0000 0.2206 0.0000 33.7699
#
#
#
# Elastic Compliance Matrix: (Units=1/GPa)
#
#
# Indices 1 2 3 4 5 6 
#
# 1 0.008942 -0.000049 -0.002058 0.000000 -0.001472 0.000000
# 2 -0.000049 0.012297 -0.001994 0.000000 0.002655 0.000000
# 3 -0.002058 -0.001994 0.014942 0.000000 -0.006977 0.000000
# 4 0.000000 0.000000 0.000000 0.031486 0.000000 -0.000206
# 5 -0.001472 0.002655 -0.006977 0.000000 0.033568 0.000000
# 6 0.000000 0.000000 0.000000 -0.000206 0.000000 0.029614
#
#
# Mechanical properties :
#
#
# Convention : Reuss Voigt Hill
#
# Bulk Modulus (GPa) = 35.74286 38.31824 37.03055
# Shear Modulus (GPa) = 33.69768 36.49267 35.09518
#
# Velocity S-wave (km/s) = 4.00203 4.16470 4.08417
# Velocity P-wave (km/s) = 6.19220 6.42951 6.31197
#
# Compressibility (1/GPa) = 0.02797762
#
# Stress axis : x y z
#
# Youngs Moduli (GPa) = 111.82714 81.32247 66.92520
#
# Poissons Ratio (x) = 0.00402 0.13772
# Poissons Ratio (y) = 0.00553 0.13348
# Poissons Ratio (z) = 0.23012 0.16219
#
# Static dielectric constant tensor:
#      x y z
#    x 3.877340 0.000000 -0.070100 
#    y 0.000000 3.841090 0.000000 
#    z -0.070100 0.000000 3.803940 
# 
# 
# High freq. dielectric constant tensor:
#      x y z
#    x 1.838630 0.000000 0.000910 
#    y 0.000000 1.839130 0.000000 
#    z 0.000910 0.000000 1.819600 
# 
# From -- ./inp_files/54074.got.cif
#   From: 2010.03.12/outbox.cif.g09.slc.cpg/sg5_28_cif.got.tgz:54074.got - 2010.03.31 09:47:26.
