data_PCOD8051680
_publ_section_title
;
Structure prediction by ZEFSAII (Michael W. Deem and Ramdas Pophale) SiO2 
 PCOD8051680
Probable space group: C 2
;
_chemical_formula_sum "Si O2"
_cell_formula_units_Z 20
_cell_length_a 8.893596
_cell_length_b 10.894990
_cell_length_c 12.674081
_cell_angle_alpha 90.000000
_cell_angle_beta 131.653406
_cell_angle_gamma 90.000000
_cell_volume 917.582915
_symmetry_space_group_name_H-M "C 2"
_symmetry_group_IT_number 5
_symmetry_cell_setting 'monoclinic'
loop_
_space_group_symop_operation_xyz
x,y,z
-x,y,-z
1/2+x,1/2+y,z
1/2-x,1/2+y,-z
loop_
_atom_site_type_symbol
_atom_site_label
_atom_site_fract_x
_atom_site_fract_y
_atom_site_fract_z
Si Si1 0.165708 0.589960 0.994739
Si Si2 0.535147 0.684405 0.711149
Si Si3 0.864860 0.448577 0.229265
Si Si4 0.398900 0.170218 0.558439
Si Si5 0.394194 0.278328 0.769904
O O1 0.201876 0.497579 0.915664
O O2 0.092598 0.724650 0.919760
O O3 0.383728 0.607536 0.150517
O O4 0.000000 0.536945 0.000000
O O5 0.497525 0.827847 0.724710
O O6 0.329687 0.629024 0.571241
O O7 0.712011 0.680164 0.705377
O O8 0.667918 0.409488 0.208070
O O9 0.987625 0.548810 0.350956
O O10 0.500000 0.222631 0.500000
O O11 0.419136 0.279241 0.654770
#
# Coordination Sequence:
#
# PCOD8051680 Si02
#       5
#     4   4   4   4   4
#     4   9  17  40  66  99 128 162 224 266 319 392
#     4   9  20  40  64  93 133 170 213 275 317 383
#     4   9  21  39  67  92 132 175 206 261 343 373
#     4  11  22  38  61 100 132 167 226 264 311 403
#     4   8  19  40  67  86 135 172 205 274 325 380
#
# _framework density 21.796395
#
# number of rings (size 3 to 8) (size 9 to 14) (size 15 to 20)
#    1.200    1.600    0.000    0.600    2.800    0.000 
#    7.200   13.000    0.000    0.000    0.000    0.000 
#    0.000    0.000    0.000    0.000    0.000    0.000 
#
# Total GULP energy -123891.852166 kJ/mol
# GULP energy per Si atom -12389.185217 kJ/mol
# Density = 2.174679 g / cm^3
# Si number density = 21.796395 Si / 1000 Ang^3
#
#
#
# Elastic Constant Matrix: (Units=GPa)
#
#
# Indices 1 2 3 4 5 6 
#
# 1 81.2006 32.6404 47.7323 0.0000 -33.5718 0.0000
# 2 32.6404 81.3848 27.3058 0.0000 -22.2221 0.0000
# 3 47.7323 27.3058 107.9228 0.0000 -30.0355 0.0000
# 4 0.0000 0.0000 0.0000 20.0516 0.0000 -2.1798
# 5 -33.5718 -22.2221 -30.0355 0.0000 40.5442 0.0000
# 6 0.0000 0.0000 0.0000 -2.1798 0.0000 34.9759
#
#
#
# Elastic Compliance Matrix: (Units=1/GPa)
#
#
# Indices 1 2 3 4 5 6 
#
# 1 0.022025 -0.003684 -0.005411 0.000000 0.012209 0.000000
# 2 -0.003684 0.015358 -0.000961 0.000000 0.004656 0.000000
# 3 -0.005411 -0.000961 0.013238 0.000000 0.004800 0.000000
# 4 0.000000 0.000000 0.000000 0.050212 0.000000 0.003129
# 5 0.012209 0.004656 0.004800 0.000000 0.040882 0.000000
# 6 0.000000 0.000000 0.000000 0.003129 0.000000 0.028786
#
#
# Mechanical properties :
#
#
# Convention : Reuss Voigt Hill
#
# Bulk Modulus (GPa) = 32.77694 53.98504 43.38099
# Shear Modulus (GPa) = 24.90263 29.96965 27.43614
#
# Velocity S-wave (km/s) = 3.38377 3.71210 3.55173
# Velocity P-wave (km/s) = 5.50790 6.57226 6.06348
#
# Compressibility (1/GPa) = 0.03050925
#
# Stress axis : x y z
#
# Youngs Moduli (GPa) = 45.40343 65.11086 75.54022
#
# Poissons Ratio (x) = 0.23987 0.40876
# Poissons Ratio (y) = 0.16727 0.07258
# Poissons Ratio (z) = 0.24568 0.06256
#
# Static dielectric constant tensor:
#      x y z
#    x 3.796510 0.000000 -0.172790 
#    y 0.000000 3.461150 0.000000 
#    z -0.172790 0.000000 3.963920 
# 
# 
# High freq. dielectric constant tensor:
#      x y z
#    x 1.839760 0.000000 -0.008530 
#    y 0.000000 1.821480 0.000000 
#    z -0.008530 0.000000 1.872130 
# 
# From -- ./inp_files/35982.got.cif
#   From: 2010.03.12/outbox.cif.g09.slc.cpg/sg5_18_cif.got.tgz:35982.got - 2010.03.31 09:47:26.
