data_PCOD8051988
_publ_section_title
;
Structure prediction by ZEFSAII (Michael W. Deem and Ramdas Pophale) SiO2 
 PCOD8051988
Probable space group: C 2
;
_chemical_formula_sum "Si O2"
_cell_formula_units_Z 28
_cell_length_a 11.412991
_cell_length_b 9.204006
_cell_length_c 13.404099
_cell_angle_alpha 90.000000
_cell_angle_beta 61.427468
_cell_angle_gamma 90.000000
_cell_volume 1236.555294
_symmetry_space_group_name_H-M "C 2"
_symmetry_group_IT_number 5
_symmetry_cell_setting 'monoclinic'
loop_
_space_group_symop_operation_xyz
x,y,z
-x,y,-z
1/2+x,1/2+y,z
1/2-x,1/2+y,-z
loop_
_atom_site_type_symbol
_atom_site_label
_atom_site_fract_x
_atom_site_fract_y
_atom_site_fract_z
Si Si1 0.851696 0.899420 0.037911
Si Si2 0.280867 0.329506 0.708935
Si Si3 0.676322 0.165090 0.120708
Si Si4 0.505211 0.562683 0.379790
Si Si5 0.392471 0.068940 0.314307
Si Si6 0.292251 0.798848 0.707241
Si Si7 0.705938 0.064450 0.430342
O O1 0.791597 0.828602 0.160621
O O2 0.764630 0.036558 0.037371
O O3 0.857885 0.779108 0.950199
O O4 0.000000 0.955060 0.000000
O O5 0.239284 0.238270 0.823828
O O6 0.409143 0.423758 0.688936
O O7 0.157329 0.429169 0.726895
O O8 0.321441 0.224512 0.601352
O O9 0.542649 0.097464 0.221252
O O10 0.500000 0.566369 0.500000
O O11 0.574264 0.712076 0.314900
O O12 0.361794 0.546352 0.389976
O O13 0.295380 0.203936 0.333104
O O14 0.385528 0.040090 0.435583
O O15 0.335388 0.946492 0.635324
#
# Coordination Sequence:
#
# PCOD8051988 Si02
#       7
#     4   4   4   4   4   4   4
#     4  12  29  51  73 101 138 189 248 304 357 414
#     4  11  26  44  69 108 141 185 235 283 355 428
#     4  12  29  48  75 101 138 190 241 306 356 418
#     4  11  25  41  71 104 145 192 224 283 355 423
#     4  11  25  44  73 107 146 186 228 294 361 427
#     4  11  24  47  70 105 144 188 235 288 358 427
#     4  12  24  44  72 108 154 181 232 288 355 443
#
# _framework density 22.643550999999999
#
# number of rings (size 3 to 8) (size 9 to 14) (size 15 to 20)
#    0.000    0.571    5.714    1.714    8.000    1.143 
#    0.000    0.000    0.000    0.000    0.000    0.000 
#    0.000    0.000    0.000    0.000    0.000    0.000 
#
# Total GULP energy -173704.843717 kJ/mol
# GULP energy per Si atom -12407.488837 kJ/mol
# Density = 2.259201 g / cm^3
# Si number density = 22.643551 Si / 1000 Ang^3
#
#
#
# Elastic Constant Matrix: (Units=GPa)
#
#
# Indices 1 2 3 4 5 6 
#
# 1 83.7976 59.5975 47.4434 0.0000 -7.1918 0.0000
# 2 59.5975 139.8346 46.7466 0.0000 -10.2639 0.0000
# 3 47.4434 46.7466 127.4441 0.0000 -2.0555 0.0000
# 4 0.0000 0.0000 0.0000 11.8156 0.0000 -8.1088
# 5 -7.1918 -10.2639 -2.0555 0.0000 33.4911 0.0000
# 6 0.0000 0.0000 0.0000 -8.1088 0.0000 12.3471
#
#
#
# Elastic Compliance Matrix: (Units=1/GPa)
#
#
# Indices 1 2 3 4 5 6 
#
# 1 0.019486 -0.006556 -0.004819 0.000000 0.001879 0.000000
# 2 -0.006556 0.010540 -0.001398 0.000000 0.001737 0.000000
# 3 -0.004819 -0.001398 0.010140 0.000000 -0.000841 0.000000
# 4 0.000000 0.000000 0.000000 0.154076 0.000000 0.101188
# 5 0.001879 0.001737 -0.000841 0.000000 0.030743 0.000000
# 6 0.000000 0.000000 0.000000 0.101188 0.000000 0.147444
#
#
# Mechanical properties :
#
#
# Convention : Reuss Voigt Hill
#
# Bulk Modulus (GPa) = 68.39627 73.18346 70.78986
# Shear Modulus (GPa) = 12.41165 24.68334 18.54750
#
# Velocity S-wave (km/s) = 2.34376 3.30522 2.86511
# Velocity P-wave (km/s) = 6.13152 6.85244 6.50198
#
# Compressibility (1/GPa) = 0.01462068
#
# Stress axis : x y z
#
# Youngs Moduli (GPa) = 51.31962 94.87567 98.62363
#
# Poissons Ratio (x) = 0.62200 0.47526
# Poissons Ratio (y) = 0.33645 0.13783
# Poissons Ratio (z) = 0.24730 0.13259
#
# Static dielectric constant tensor:
#      x y z
#    x 4.648100 0.000000 -0.036300 
#    y 0.000000 4.387400 0.000000 
#    z -0.036300 0.000000 4.099050 
# 
# 
# High freq. dielectric constant tensor:
#      x y z
#    x 1.898620 0.000000 0.000060 
#    y 0.000000 1.912110 0.000000 
#    z 0.000060 0.000000 1.890200 
# 
# From -- ./inp_files/52377.got.cif
#   From: 2010.03.12/outbox.cif.g09.slc.cpg/sg5_27_cif.got.tgz:52377.got - 2010.03.31 09:47:26.
